data_PCOD8178025
_publ_section_title
;
Structure prediction by ZEFSAII (Michael W. Deem and Ramdas Pophale) SiO2 
 PCOD8178025
Probable space group: A M M 2
;
_chemical_formula_sum "Si O2"
_cell_formula_units_Z 64
_cell_length_a 14.571031
_cell_length_b 9.312465
_cell_length_c 24.860518
_cell_angle_alpha 90.000000
_cell_angle_beta 90.000000
_cell_angle_gamma 90.000000
_cell_volume 3373.378783
_symmetry_space_group_name_H-M "A M M 2"
_symmetry_group_IT_number 38
_symmetry_cell_setting 'orthorhombic'
loop_
_space_group_symop_operation_xyz
x,y,z
-x,-y,z
-x,y,z
x,-y,z
x,1/2+y,1/2+z
-x,1/2-y,1/2+z
-x,1/2+y,1/2+z
x,1/2-y,1/2+z
loop_
_atom_site_type_symbol
_atom_site_label
_atom_site_fract_x
_atom_site_fract_y
_atom_site_fract_z
Si Si1 0.704523 0.332021 0.920490
Si Si2 0.897934 0.164266 0.173624
Si Si3 0.393598 0.330470 0.030095
Si Si4 0.600298 0.340331 0.723274
Si Si5 0.099177 0.335974 0.884119
Si Si6 0.656962 0.337891 0.317263
Si Si7 0.286222 0.832340 0.122339
Si Si8 0.862084 0.162558 0.780787
O O1 0.689191 0.500000 0.910134
O O2 0.814034 0.292488 0.921851
O O3 0.655070 0.245302 0.873387
O O4 0.655361 0.283045 0.974971
O O5 0.822705 0.203020 0.127553
O O6 0.889411 0.262898 0.225577
O O7 0.000000 0.184299 0.148689
O O8 0.881432 0.000000 0.192073
O O9 0.500000 0.279030 0.030639
O O10 0.388403 0.500000 0.038363
O O11 0.333842 0.258065 0.076156
O O12 0.500000 0.344148 0.695952
O O13 0.630678 0.500000 0.741942
O O14 0.590764 0.239698 0.775281
O O15 0.670791 0.282182 0.678998
O O16 0.113064 0.500000 0.865703
O O17 0.091728 0.241653 0.830774
O O18 0.000000 0.317397 0.914473
O O19 0.623748 0.500000 0.327889
O O20 0.754119 0.332367 0.288250
O O21 0.304916 0.000000 0.111084
O O22 0.898797 0.000000 0.779249
#
# Coordination Sequence:
#
# PCOD8178025 Si02
#       8
#     8   8   8   8   8   8   8   8
#     4   9  19  36  56  77 106 142 182 227 273 325
#     4  10  20  34  54  79 108 145 186 223 263 318
#     4  10  22  40  61  83 106 138 183 233 283 331
#     4  10  20  34  54  79 106 141 182 220 268 331
#     4   9  17  30  50  75 104 142 185 223 263 318
#     4  10  20  33  51  79 114 147 178 219 271 323
#     4  10  21  38  59  81 109 142 182 229 273 324
#     4  10  19  30  47  75 112 149 182 219 263 315
#
# _framework density 18.972078
#
# number of rings (size 3 to 8) (size 9 to 14) (size 15 to 20)
#    0.000    2.250    1.250    1.500    0.000    6.000 
#    0.000    1.875    0.000    0.750    0.000    0.000 
#    0.000    0.000    0.000    0.000    0.000    0.000 
#
# Total GULP energy -396649.004393 kJ/mol
# GULP energy per Si atom -12395.281387 kJ/mol
# Density = 1.892890 g / cm^3
# Si number density = 18.972078 Si / 1000 Ang^3
#
#
#
# Elastic Constant Matrix: (Units=GPa)
#
#
# Indices 1 2 3 4 5 6 
#
# 1 131.4000 38.1099 67.1316 0.0000 0.0000 0.0000
# 2 38.1099 73.9693 54.0444 0.0000 0.0000 0.0000
# 3 67.1316 54.0444 117.1712 0.0000 0.0000 0.0000
# 4 0.0000 0.0000 0.0000 31.9948 0.0000 0.0000
# 5 0.0000 0.0000 0.0000 0.0000 18.2963 0.0000
# 6 0.0000 0.0000 0.0000 0.0000 0.0000 19.6299
#
#
#
# Elastic Compliance Matrix: (Units=1/GPa)
#
#
# Indices 1 2 3 4 5 6 
#
# 1 0.010882 -0.001586 -0.005503 0.000000 0.000000 0.000000
# 2 -0.001586 0.020622 -0.008603 0.000000 0.000000 0.000000
# 3 -0.005503 -0.008603 0.015656 0.000000 0.000000 0.000000
# 4 0.000000 0.000000 0.000000 0.031255 0.000000 0.000000
# 5 0.000000 0.000000 0.000000 0.000000 0.054656 0.000000
# 6 0.000000 0.000000 0.000000 0.000000 0.000000 0.050943
#
#
# Mechanical properties :
#
#
# Convention : Reuss Voigt Hill
#
# Bulk Modulus (GPa) = 63.39054 71.23470 67.31262
# Shear Modulus (GPa) = 22.65976 24.86783 23.76380
#
# Velocity S-wave (km/s) = 3.45972 3.62437 3.54300
# Velocity P-wave (km/s) = 7.03169 7.42586 7.23146
#
# Compressibility (1/GPa) = 0.01577522
#
# Stress axis : x y z
#
# Youngs Moduli (GPa) = 91.89664 48.49229 63.87457
#
# Poissons Ratio (x) = 0.07689 0.35152
# Poissons Ratio (y) = 0.14571 0.54953
# Poissons Ratio (z) = 0.50573 0.41719
#
# Static dielectric constant tensor:
#      x y z
#    x 3.798670 0.000000 0.000000 
#    y 0.000000 3.500770 0.000000 
#    z 0.000000 0.000000 3.185220 
# 
# 
# High freq. dielectric constant tensor:
#      x y z
#    x 1.756950 0.000000 0.000000 
#    y 0.000000 1.733850 0.000000 
#    z 0.000000 0.000000 1.703790 
# 
# From -- ./inp_files/22941.got.cif
#   From: 2010.03.12/outbox.cif.g09.slc.cpg/sg38_12_cif.got.tgz:22941.got - 2010.04.14 02:38:36.
