data_PCOD8178437
_publ_section_title
;
Structure prediction by ZEFSAII (Michael W. Deem and Ramdas Pophale) SiO2 
 PCOD8178437
Probable space group: A M M 2
;
_chemical_formula_sum "Si O2"
_cell_formula_units_Z 64
_cell_length_a 9.184318
_cell_length_b 15.563784
_cell_length_c 23.252007
_cell_angle_alpha 90.000000
_cell_angle_beta 90.000000
_cell_angle_gamma 90.000000
_cell_volume 3323.705627
_symmetry_space_group_name_H-M "A M M 2"
_symmetry_group_IT_number 38
_symmetry_cell_setting 'orthorhombic'
loop_
_space_group_symop_operation_xyz
x,y,z
-x,-y,z
-x,y,z
x,-y,z
x,1/2+y,1/2+z
-x,1/2-y,1/2+z
-x,1/2+y,1/2+z
x,1/2-y,1/2+z
loop_
_atom_site_type_symbol
_atom_site_label
_atom_site_fract_x
_atom_site_fract_y
_atom_site_fract_z
Si Si1 0.329312 0.266797 0.522580
Si Si2 0.840450 0.098125 0.699397
Si Si3 0.834893 0.592817 0.849601
Si Si4 0.331775 0.327237 0.296435
Si Si5 0.668747 0.098567 0.589421
Si Si6 0.333289 0.357290 0.742926
Si Si7 0.827122 0.234420 0.905381
Si Si8 0.672632 0.597125 0.617398
O O1 0.500000 0.279955 0.510155
O O2 0.297346 0.167132 0.539073
O O3 0.238143 0.291049 0.466424
O O4 0.272060 0.333680 0.570774
O O5 0.746378 0.101807 0.757622
O O6 0.754436 0.135384 0.644589
O O7 0.000000 0.143137 0.706136
O O8 0.865742 0.000000 0.685013
O O9 0.819426 0.500000 0.880736
O O10 0.747423 0.586719 0.790463
O O11 0.780257 0.666766 0.892668
O O12 0.000000 0.613407 0.832433
O O13 0.500000 0.350318 0.307978
O O14 0.313709 0.241826 0.258741
O O15 0.247635 0.324198 0.356881
O O16 0.500000 0.102309 0.606505
O O17 0.710990 0.000000 0.571200
O O18 0.500000 0.386267 0.744373
O O19 0.265540 0.375983 0.680093
O O20 0.000000 0.219782 0.905306
O O21 0.500000 0.601662 0.619650
O O22 0.724625 0.500000 0.601791
#
# Coordination Sequence:
#
# PCOD8178437 Si02
#       8
#     8   8   8   8   8   8   8   8
#     4  10  20  35  53  73  99 133 176 221 258 300
#     4  10  20  33  51  78 109 136 165 206 257 314
#     4   9  18  32  49  72 103 134 161 195 245 305
#     4  10  19  33  54  77 101 132 169 209 255 306
#     4   9  18  33  53  77 106 139 173 212 260 313
#     4   9  17  30  51  78 103 128 161 201 246 300
#     4  10  21  36  52  71  98 134 174 214 258 308
#     4   9  17  30  50  75 101 129 162 203 251 299
#
# _framework density 19.255617000000001
#
# number of rings (size 3 to 8) (size 9 to 14) (size 15 to 20)
#    0.000    2.500    0.000    2.250    0.000    5.500 
#    0.000    1.250    0.000    3.375    0.000    0.000 
#    0.000    0.000    0.000    0.000    0.000    0.000 
#
# Total GULP energy -396653.881232 kJ/mol
# GULP energy per Si atom -12395.433788 kJ/mol
# Density = 1.921179 g / cm^3
# Si number density = 19.255617 Si / 1000 Ang^3
#
#
#
# Elastic Constant Matrix: (Units=GPa)
#
#
# Indices 1 2 3 4 5 6 
#
# 1 74.5675 12.8065 41.2098 0.0000 0.0000 0.0000
# 2 12.8065 52.7120 26.4905 0.0000 0.0000 0.0000
# 3 41.2098 26.4905 115.4604 0.0000 0.0000 0.0000
# 4 0.0000 0.0000 0.0000 20.9537 0.0000 0.0000
# 5 0.0000 0.0000 0.0000 0.0000 20.1644 0.0000
# 6 0.0000 0.0000 0.0000 0.0000 0.0000 17.6400
#
#
#
# Elastic Compliance Matrix: (Units=1/GPa)
#
#
# Indices 1 2 3 4 5 6 
#
# 1 0.016773 -0.001205 -0.005710 0.000000 0.000000 0.000000
# 2 -0.001205 0.021530 -0.004509 0.000000 0.000000 0.000000
# 3 -0.005710 -0.004509 0.011734 0.000000 0.000000 0.000000
# 4 0.000000 0.000000 0.000000 0.047724 0.000000 0.000000
# 5 0.000000 0.000000 0.000000 0.000000 0.049592 0.000000
# 6 0.000000 0.000000 0.000000 0.000000 0.000000 0.056689
#
#
# Mechanical properties :
#
#
# Convention : Reuss Voigt Hill
#
# Bulk Modulus (GPa) = 36.78232 44.86151 40.82192
# Shear Modulus (GPa) = 21.19041 22.56715 21.87878
#
# Velocity S-wave (km/s) = 3.32095 3.42713 3.37446
# Velocity P-wave (km/s) = 5.81795 6.24570 6.03561
#
# Compressibility (1/GPa) = 0.02718697
#
# Stress axis : x y z
#
# Youngs Moduli (GPa) = 59.61816 46.44655 85.22500
#
# Poissons Ratio (x) = 0.05599 0.48665
# Poissons Ratio (y) = 0.07187 0.38432
# Poissons Ratio (z) = 0.34043 0.20945
#
# Static dielectric constant tensor:
#      x y z
#    x 3.554300 0.000000 0.000000 
#    y 0.000000 3.531350 0.000000 
#    z 0.000000 0.000000 3.384370 
# 
# 
# High freq. dielectric constant tensor:
#      x y z
#    x 1.736930 0.000000 0.000000 
#    y 0.000000 1.741480 0.000000 
#    z 0.000000 0.000000 1.739450 
# 
# From -- ./inp_files/20024.got.cif
#   From: 2010.03.12/outbox.cif.g09.slc.cpg/sg38_11_cif.got.tgz:20024.got - 2010.04.14 02:38:36.
