data_PCOD8178836
_publ_section_title
;
Structure prediction by ZEFSAII (Michael W. Deem and Ramdas Pophale) SiO2 
 PCOD8178836
Probable space group: A M M 2
;
_chemical_formula_sum "Si O2"
_cell_formula_units_Z 48
_cell_length_a 9.482274
_cell_length_b 8.909340
_cell_length_c 31.119298
_cell_angle_alpha 90.000000
_cell_angle_beta 90.000000
_cell_angle_gamma 90.000000
_cell_volume 2628.983285
_symmetry_space_group_name_H-M "A M M 2"
_symmetry_group_IT_number 38
_symmetry_cell_setting 'orthorhombic'
loop_
_space_group_symop_operation_xyz
x,y,z
-x,-y,z
-x,y,z
x,-y,z
x,1/2+y,1/2+z
-x,1/2-y,1/2+z
-x,1/2+y,1/2+z
x,1/2-y,1/2+z
loop_
_atom_site_type_symbol
_atom_site_label
_atom_site_fract_x
_atom_site_fract_y
_atom_site_fract_z
Si Si1 0.157326 0.178538 0.365100
Si Si2 0.655509 0.178139 0.289093
Si Si3 0.659718 0.820950 0.538662
Si Si4 0.841154 0.678392 0.959970
Si Si5 0.663387 0.324401 0.692948
Si Si6 0.839495 0.177996 0.619297
O O1 0.249129 0.249952 0.326684
O O2 0.211991 0.228335 0.412439
O O3 0.000000 0.239474 0.358638
O O4 0.159689 0.000000 0.362056
O O5 0.500000 0.244959 0.295728
O O6 0.709800 0.219642 0.241440
O O7 0.650903 0.000000 0.293353
O O8 0.500000 0.758323 0.541400
O O9 0.733535 0.757219 0.495469
O O10 0.749668 0.760333 0.578978
O O11 0.657938 0.000000 0.538290
O O12 0.844698 0.500000 0.962841
O O13 0.000000 0.738842 0.968566
O O14 0.500000 0.280129 0.684970
O O15 0.684668 0.500000 0.684565
O O16 0.766303 0.232691 0.662561
O O17 0.000000 0.239006 0.616459
O O18 0.839877 0.000000 0.619176
#
# Coordination Sequence:
#
# PCOD8178836 Si02
#       6
#     8   8   8   8   8   8
#     4   8  13  20  31  49  74 105 138 169 204 249
#     4   8  14  24  37  54  78 107 137 171 211 252
#     4   9  16  25  38  56  78 107 142 177 215 259
#     4   8  13  21  32  48  74 106 137 170 208 250
#     4   9  18  32  48  66  89 117 149 185 224 264
#     4  10  20  32  46  65  89 117 149 185 224 265
#
# _framework density 18.258008
#
# number of rings (size 3 to 8) (size 9 to 14) (size 15 to 20)
#    0.000    3.333    0.000    3.000    0.000    4.667 
#    0.000    5.000    0.000    0.000    0.000    0.000 
#    0.000    1.333    0.000    9.333    0.000   17.333 
#
# Total GULP energy -297414.198564 kJ/mol
# GULP energy per Si atom -12392.258274 kJ/mol
# Density = 1.821645 g / cm^3
# Si number density = 18.258008 Si / 1000 Ang^3
#
#
#
# Elastic Constant Matrix: (Units=GPa)
#
#
# Indices 1 2 3 4 5 6 
#
# 1 134.8036 8.9943 102.0805 0.0000 0.0000 0.0000
# 2 8.9943 2.8279 8.5596 0.0000 0.0000 0.0000
# 3 102.0805 8.5596 179.7344 0.0000 0.0000 0.0000
# 4 0.0000 0.0000 0.0000 16.3591 0.0000 0.0000
# 5 0.0000 0.0000 0.0000 0.0000 43.7128 0.0000
# 6 0.0000 0.0000 0.0000 0.0000 0.0000 13.0678
#
#
#
# Elastic Compliance Matrix: (Units=1/GPa)
#
#
# Indices 1 2 3 4 5 6 
#
# 1 0.014333 -0.024475 -0.006975 0.000000 0.000000 0.000000
# 2 -0.024475 0.454973 -0.007767 0.000000 0.000000 0.000000
# 3 -0.006975 -0.007767 0.009895 0.000000 0.000000 0.000000
# 4 0.000000 0.000000 0.000000 0.061128 0.000000 0.000000
# 5 0.000000 0.000000 0.000000 0.000000 0.022877 0.000000
# 6 0.000000 0.000000 0.000000 0.000000 0.000000 0.076524
#
#
# Mechanical properties :
#
#
# Convention : Reuss Voigt Hill
#
# Bulk Modulus (GPa) = 2.49521 61.84832 32.17177
# Shear Modulus (GPa) = 5.87025 27.81003 16.84014
#
# Velocity S-wave (km/s) = 1.79503 3.90701 3.04030
# Velocity P-wave (km/s) = 2.38029 7.36893 5.47572
#
# Compressibility (1/GPa) = 0.40076725
#
# Stress axis : x y z
#
# Youngs Moduli (GPa) = 69.76939 2.19793 101.06110
#
# Poissons Ratio (x) = 0.05379 0.70488
# Poissons Ratio (y) = 1.70762 0.78491
# Poissons Ratio (z) = 0.48663 0.01707
#
# Static dielectric constant tensor:
#      x y z
#    x 3.657800 0.000000 0.000000 
#    y 0.000000 2.590300 0.000000 
#    z 0.000000 0.000000 3.738870 
# 
# 
# High freq. dielectric constant tensor:
#      x y z
#    x 1.710580 0.000000 0.000000 
#    y 0.000000 1.624350 0.000000 
#    z 0.000000 0.000000 1.727020 
# 
# From -- ./inp_files/23342.got.cif
#   From: 2010.03.12/outbox.cif.g09.slc.cpg/sg38_12_cif.got.tgz:23342.got - 2010.04.14 02:38:36.
