data_PCOD8178893
_publ_section_title
;
Structure prediction by ZEFSAII (Michael W. Deem and Ramdas Pophale) SiO2 
 PCOD8178893
Probable space group: A M M 2
;
_chemical_formula_sum "Si O2"
_cell_formula_units_Z 64
_cell_length_a 9.159855
_cell_length_b 15.279755
_cell_length_c 23.312504
_cell_angle_alpha 90.000000
_cell_angle_beta 90.000000
_cell_angle_gamma 90.000000
_cell_volume 3262.825992
_symmetry_space_group_name_H-M "A M M 2"
_symmetry_group_IT_number 38
_symmetry_cell_setting 'orthorhombic'
loop_
_space_group_symop_operation_xyz
x,y,z
-x,-y,z
-x,y,z
x,-y,z
x,1/2+y,1/2+z
-x,1/2-y,1/2+z
-x,1/2+y,1/2+z
x,1/2-y,1/2+z
loop_
_atom_site_type_symbol
_atom_site_label
_atom_site_fract_x
_atom_site_fract_y
_atom_site_fract_z
Si Si1 0.169149 0.729391 0.244590
Si Si2 0.164889 0.905893 0.188585
Si Si3 0.840637 0.598769 0.040787
Si Si4 0.333808 0.647084 0.583112
Si Si5 0.828619 0.100433 0.967717
Si Si6 0.829304 0.757105 0.874145
Si Si7 0.333634 0.164820 0.639506
Si Si8 0.672041 0.897640 0.430426
O O1 0.212172 0.830707 0.232808
O O2 0.206169 0.708457 0.310254
O O3 0.266974 0.669193 0.203282
O O4 0.000000 0.710969 0.230829
O O5 0.264153 0.912357 0.132248
O O6 0.000000 0.888570 0.167492
O O7 0.178500 0.000000 0.220302
O O8 0.869698 0.500000 0.023513
O O9 0.760493 0.597786 0.102129
O O10 0.000000 0.647040 0.043182
O O11 0.738866 0.637619 0.990587
O O12 0.500000 0.618251 0.574165
O O13 0.250801 0.634782 0.523955
O O14 0.319201 0.745973 0.604244
O O15 0.780667 0.163849 0.915671
O O16 0.000000 0.106944 0.978661
O O17 0.783730 0.000000 0.953457
O O18 0.740696 0.666761 0.883045
O O19 0.000000 0.734552 0.880746
O O20 0.500000 0.132975 0.644816
O O21 0.500000 0.883136 0.433556
O O22 0.707898 0.000000 0.417009
#
# Coordination Sequence:
#
# PCOD8178893 Si02
#       8
#     8   8   8   8   8   8   8   8
#     4   9  19  35  53  74 101 135 178 222 260 306
#     4   9  17  30  49  73 101 132 163 200 251 307
#     4  10  20  34  54  80 107 135 171 216 264 318
#     4  10  20  32  49  76 105 132 165 206 254 310
#     4  10  21  36  53  75 104 138 176 219 268 316
#     4  10  21  37  57  78 103 142 188 230 270 314
#     4  10  20  34  53  77 106 139 171 210 265 322
#     4  10  21  36  55  82 115 146 175 215 272 334
#
# _framework density 19.614899000000001
#
# number of rings (size 3 to 8) (size 9 to 14) (size 15 to 20)
#    0.000    2.250    0.000    2.625    0.000    8.500 
#    0.000    1.875    0.000    2.250    0.000    0.000 
#    0.000    0.000    0.000    0.000    0.000    0.000 
#
# Total GULP energy -396697.168950 kJ/mol
# GULP energy per Si atom -12396.786530 kJ/mol
# Density = 1.957025 g / cm^3
# Si number density = 19.614899 Si / 1000 Ang^3
#
#
#
# Elastic Constant Matrix: (Units=GPa)
#
#
# Indices 1 2 3 4 5 6 
#
# 1 92.4305 23.9227 43.7943 0.0000 0.0000 0.0000
# 2 23.9227 46.8920 25.8846 0.0000 0.0000 0.0000
# 3 43.7943 25.8846 110.3036 0.0000 0.0000 0.0000
# 4 0.0000 0.0000 0.0000 20.2754 0.0000 0.0000
# 5 0.0000 0.0000 0.0000 0.0000 18.3507 0.0000
# 6 0.0000 0.0000 0.0000 0.0000 0.0000 22.3237
#
#
#
# Elastic Compliance Matrix: (Units=1/GPa)
#
#
# Indices 1 2 3 4 5 6 
#
# 1 0.014188 -0.004743 -0.004520 0.000000 0.000000 0.000000
# 2 -0.004743 0.026085 -0.004238 0.000000 0.000000 0.000000
# 3 -0.004520 -0.004238 0.011855 0.000000 0.000000 0.000000
# 4 0.000000 0.000000 0.000000 0.049321 0.000000 0.000000
# 5 0.000000 0.000000 0.000000 0.000000 0.054494 0.000000
# 6 0.000000 0.000000 0.000000 0.000000 0.000000 0.044796
#
#
# Mechanical properties :
#
#
# Convention : Reuss Voigt Hill
#
# Bulk Modulus (GPa) = 39.80042 48.53659 44.16850
# Shear Modulus (GPa) = 21.17601 22.59158 21.88379
#
# Velocity S-wave (km/s) = 3.28927 3.39744 3.34379
# Velocity P-wave (km/s) = 5.89582 6.33945 6.12165
#
# Compressibility (1/GPa) = 0.02512537
#
# Stress axis : x y z
#
# Youngs Moduli (GPa) = 70.48083 38.33644 84.35219
#
# Poissons Ratio (x) = 0.18184 0.38128
# Poissons Ratio (y) = 0.33431 0.35749
# Poissons Ratio (z) = 0.31858 0.16247
#
# Static dielectric constant tensor:
#      x y z
#    x 3.674970 0.000000 0.000000 
#    y 0.000000 3.517190 0.000000 
#    z 0.000000 0.000000 3.466070 
# 
# 
# High freq. dielectric constant tensor:
#      x y z
#    x 1.765860 0.000000 0.000000 
#    y 0.000000 1.754600 0.000000 
#    z 0.000000 0.000000 1.753190 
# 
# From -- ./inp_files/20025.got.cif
#   From: 2010.03.12/outbox.cif.g09.slc.cpg/sg38_11_cif.got.tgz:20025.got - 2010.04.14 02:38:36.
