data_PCOD8178757
_publ_section_title
;
Structure prediction by ZEFSAII (Michael W. Deem and Ramdas Pophale) SiO2 
 PCOD8178757
Probable space group: A M M 2
;
_chemical_formula_sum "Si O2"
_cell_formula_units_Z 56
_cell_length_a 15.475289
_cell_length_b 13.495060
_cell_length_c 13.590337
_cell_angle_alpha 90.000000
_cell_angle_beta 90.000000
_cell_angle_gamma 90.000000
_cell_volume 2838.205348
_symmetry_space_group_name_H-M "A M M 2"
_symmetry_group_IT_number 38
_symmetry_cell_setting 'orthorhombic'
loop_
_space_group_symop_operation_xyz
x,y,z
-x,-y,z
-x,y,z
x,-y,z
x,1/2+y,1/2+z
-x,1/2-y,1/2+z
-x,1/2+y,1/2+z
x,1/2-y,1/2+z
loop_
_atom_site_type_symbol
_atom_site_label
_atom_site_fract_x
_atom_site_fract_y
_atom_site_fract_z
Si Si1 0.345528 0.114882 0.187210
Si Si2 0.819257 0.768426 0.147269
Si Si3 0.229694 0.384482 0.980323
Si Si4 0.405501 0.687388 0.887259
Si Si5 0.095732 0.721163 0.844797
Si Si6 0.355094 0.889079 0.964138
Si Si7 0.150296 0.110711 0.973769
O O1 0.263827 0.185429 0.199263
O O2 0.408359 0.151691 0.273707
O O3 0.319560 0.000000 0.203594
O O4 0.385602 0.127364 0.077685
O O5 0.794733 0.673725 0.079998
O O6 0.884123 0.743126 0.234431
O O7 0.867411 0.852602 0.084055
O O8 0.219128 0.500000 0.002521
O O9 0.328792 0.362944 0.949495
O O10 0.165233 0.354280 0.891820
O O11 0.500000 0.657336 0.930348
O O12 0.398181 0.807376 0.894003
O O13 0.094127 0.824718 0.901019
O O14 0.000000 0.673206 0.850373
O O15 0.252401 0.875317 0.955140
O O16 0.382023 0.000000 0.929725
O O17 0.118083 0.000000 0.961417
#
# Coordination Sequence:
#
# PCOD8178757 Si02
#       7
#     8   8   8   8   8   8   8
#     4  10  19  36  62  88 115 155 202 250 302 361
#     4  10  19  38  62  88 118 158 200 249 304 362
#     4  11  24  43  63  87 126 169 207 254 314 374
#     4  12  23  37  62  95 125 159 209 262 311 365
#     4  11  23  39  62  90 121 158 203 252 301 367
#     4   9  18  38  64  88 117 158 201 244 303 370
#     4   9  18  36  63  88 114 151 194 244 301 358
#
# _framework density 19.730778000000001
#
# number of rings (size 3 to 8) (size 9 to 14) (size 15 to 20)
#    0.000    1.714    5.714    1.714    0.000    6.000 
#    0.000    2.143    0.000    0.000    0.000    0.000 
#    0.000    0.000    0.000    0.000    0.000    0.000 
#
# Total GULP energy -347017.888242 kJ/mol
# GULP energy per Si atom -12393.496009 kJ/mol
# Density = 1.968587 g / cm^3
# Si number density = 19.730778 Si / 1000 Ang^3
#
#
#
# Elastic Constant Matrix: (Units=GPa)
#
#
# Indices 1 2 3 4 5 6 
#
# 1 108.9822 36.2046 46.9108 0.0000 0.0000 0.0000
# 2 36.2046 109.5387 15.2582 0.0000 0.0000 0.0000
# 3 46.9108 15.2582 50.3669 0.0000 0.0000 0.0000
# 4 0.0000 0.0000 0.0000 20.9306 0.0000 0.0000
# 5 0.0000 0.0000 0.0000 0.0000 -4.2628 0.0000
# 6 0.0000 0.0000 0.0000 0.0000 0.0000 7.8988
#
#
#
# Elastic Compliance Matrix: (Units=1/GPa)
#
#
# Indices 1 2 3 4 5 6 
#
# 1 0.016480 -0.003455 -0.014303 0.000000 0.000000 0.000000
# 2 -0.003455 0.010256 0.000111 0.000000 0.000000 0.000000
# 3 -0.014303 0.000111 0.033142 0.000000 0.000000 0.000000
# 4 0.000000 0.000000 0.000000 0.047777 0.000000 0.000000
# 5 0.000000 0.000000 0.000000 0.000000 -0.234589 0.000000
# 6 0.000000 0.000000 0.000000 0.000000 0.000000 0.126601
#
#
# Mechanical properties :
#
#
# Convention : Reuss Voigt Hill
#
# Bulk Modulus (GPa) = 40.67595 51.73721 46.20658
# Shear Modulus (GPa) = 115.86412 16.28095 66.07253
#
# Velocity S-wave (km/s) = 7.67138 2.87567 5.79308
# Velocity P-wave (km/s) = 9.95625 6.10774 8.25928
#
# Compressibility (1/GPa) = 0.02458455
#
# Stress axis : x y z
#
# Youngs Moduli (GPa) = 60.67985 97.50776 30.17325
#
# Poissons Ratio (x) = 0.33686 0.43156
# Poissons Ratio (y) = 0.20963 -0.00334
# Poissons Ratio (z) = 0.86788 -0.01080
#
# Static dielectric constant tensor:
#      x y z
#    x 3.443170 0.000000 0.000000 
#    y 0.000000 3.675370 0.000000 
#    z 0.000000 0.000000 3.596810 
# 
# 
# High freq. dielectric constant tensor:
#      x y z
#    x 1.756470 0.000000 0.000000 
#    y 0.000000 1.768940 0.000000 
#    z 0.000000 0.000000 1.762240 
# 
# From -- ./inp_files/10092.got.cif
#   From: 2010.03.12/outbox.cif.g09.slc.cpg/sg38_6_cif.got.tgz:10092.got - 2010.04.14 02:38:36.
