data_PCOD8178121
_publ_section_title
;
Structure prediction by ZEFSAII (Michael W. Deem and Ramdas Pophale) SiO2 
 PCOD8178121
Probable space group: A M M 2
;
_chemical_formula_sum "Si O2"
_cell_formula_units_Z 64
_cell_length_a 20.364856
_cell_length_b 9.201960
_cell_length_c 19.696840
_cell_angle_alpha 90.000000
_cell_angle_beta 90.000000
_cell_angle_gamma 90.000000
_cell_volume 3691.120656
_symmetry_space_group_name_H-M "A M M 2"
_symmetry_group_IT_number 38
_symmetry_cell_setting 'orthorhombic'
loop_
_space_group_symop_operation_xyz
x,y,z
-x,-y,z
-x,y,z
x,-y,z
x,1/2+y,1/2+z
-x,1/2-y,1/2+z
-x,1/2+y,1/2+z
x,1/2-y,1/2+z
loop_
_atom_site_type_symbol
_atom_site_label
_atom_site_fract_x
_atom_site_fract_y
_atom_site_fract_z
Si Si1 0.577396 0.333554 0.320020
Si Si2 0.928722 0.162470 0.918317
Si Si3 0.195357 0.162680 0.578514
Si Si4 0.575297 0.334251 0.686720
Si Si5 0.324202 0.329454 0.567842
Si Si6 0.927396 0.336601 0.579729
Si Si7 0.807951 0.659542 0.917121
Si Si8 0.336194 0.173912 0.427405
O O1 0.500000 0.321051 0.330224
O O2 0.601329 0.500000 0.325800
O O3 0.598259 0.271469 0.246955
O O4 0.609112 0.234907 0.377757
O O5 0.867126 0.246479 0.885479
O O6 0.000000 0.230695 0.897718
O O7 0.924916 0.000000 0.889945
O O8 0.922592 0.162846 0.998897
O O9 0.257217 0.262530 0.598386
O O10 0.128903 0.232081 0.610232
O O11 0.188593 0.156094 0.498022
O O12 0.204417 0.000000 0.608016
O O13 0.500000 0.304250 0.666462
O O14 0.584929 0.500000 0.711432
O O15 0.618422 0.300772 0.621226
O O16 0.313473 0.500000 0.552955
O O17 0.346670 0.247570 0.500155
O O18 0.915838 0.500000 0.606781
O O19 0.000000 0.281346 0.602158
O O20 0.818099 0.500000 0.886647
O O21 0.735578 0.717949 0.897223
O O22 0.341779 0.000000 0.435613
#
# Coordination Sequence:
#
# PCOD8178121 Si02
#       8
#     8   8   8   8   8   8   8   8
#     4  10  21  36  54  75  97 123 157 195 235 283
#     4   8  13  20  31  49  74 107 146 184 223 268
#     4   9  16  25  37  56  85 119 154 192 234 280
#     4   9  19  36  55  73  95 124 156 193 239 286
#     4  10  19  31  49  72  98 128 161 198 240 286
#     4   8  13  21  33  50  75 110 151 191 231 277
#     4   8  15  25  36  54  81 114 150 186 225 269
#     4  10  20  33  49  71  99 129 161 197 239 285
#
# _framework density 17.338906999999999
#
# number of rings (size 3 to 8) (size 9 to 14) (size 15 to 20)
#    0.000    3.000    0.000    3.000    0.000    6.250 
#    0.000    3.750    0.000    0.000    0.000    0.000 
#    0.000    1.000    0.000    5.500    0.000    7.625 
#
# Total GULP energy -396601.772518 kJ/mol
# GULP energy per Si atom -12393.805391 kJ/mol
# Density = 1.729944 g / cm^3
# Si number density = 17.338907 Si / 1000 Ang^3
#
#
#
# Elastic Constant Matrix: (Units=GPa)
#
#
# Indices 1 2 3 4 5 6 
#
# 1 103.5475 63.9971 44.5113 0.0000 0.0000 0.0000
# 2 63.9971 113.4491 41.6259 0.0000 0.0000 0.0000
# 3 44.5113 41.6259 46.2767 0.0000 0.0000 0.0000
# 4 0.0000 0.0000 0.0000 18.5006 0.0000 0.0000
# 5 0.0000 0.0000 0.0000 0.0000 -0.4898 0.0000
# 6 0.0000 0.0000 0.0000 0.0000 0.0000 32.0743
#
#
#
# Elastic Compliance Matrix: (Units=1/GPa)
#
#
# Indices 1 2 3 4 5 6 
#
# 1 0.018803 -0.005927 -0.012754 0.000000 0.000000 0.000000
# 2 -0.005927 0.015025 -0.007814 0.000000 0.000000 0.000000
# 3 -0.012754 -0.007814 0.040906 0.000000 0.000000 0.000000
# 4 0.000000 0.000000 0.000000 0.054052 0.000000 0.000000
# 5 0.000000 0.000000 0.000000 0.000000 -2.041857 0.000000
# 6 0.000000 0.000000 0.000000 0.000000 0.000000 0.031178
#
#
# Mechanical properties :
#
#
# Convention : Reuss Voigt Hill
#
# Bulk Modulus (GPa) = 45.99216 62.61575 54.30396
# Shear Modulus (GPa) = -2.74476 17.55962 7.40743
#
# Velocity S-wave (km/s) = -1.25954 3.18579 2.06916
# Velocity P-wave (km/s) = 4.94649 7.05150 6.09062
#
# Compressibility (1/GPa) = 0.02174283
#
# Stress axis : x y z
#
# Youngs Moduli (GPa) = 53.18173 66.55483 24.44643
#
# Poissons Ratio (x) = 0.39449 0.31180
# Poissons Ratio (y) = 0.31523 0.19102
# Poissons Ratio (z) = 0.67831 0.52006
#
# Static dielectric constant tensor:
#      x y z
#    x 3.558960 0.000000 0.000000 
#    y 0.000000 3.479080 0.000000 
#    z 0.000000 0.000000 2.627800 
# 
# 
# High freq. dielectric constant tensor:
#      x y z
#    x 1.685230 0.000000 0.000000 
#    y 0.000000 1.678680 0.000000 
#    z 0.000000 0.000000 1.600620 
# 
# From -- ./inp_files/21371.got.cif
#   From: 2010.03.12/outbox.cif.g09.slc.cpg/sg38_11_cif.got.tgz:21371.got - 2010.04.14 02:38:36.
