data_PCOD8178156
_publ_section_title
;
Structure prediction by ZEFSAII (Michael W. Deem and Ramdas Pophale) SiO2 
 PCOD8178156
Probable space group: A M M 2
;
_chemical_formula_sum "Si O2"
_cell_formula_units_Z 64
_cell_length_a 19.353938
_cell_length_b 8.962350
_cell_length_c 20.146442
_cell_angle_alpha 90.000000
_cell_angle_beta 90.000000
_cell_angle_gamma 90.000000
_cell_volume 3494.536680
_symmetry_space_group_name_H-M "A M M 2"
_symmetry_group_IT_number 38
_symmetry_cell_setting 'orthorhombic'
loop_
_space_group_symop_operation_xyz
x,y,z
-x,-y,z
-x,y,z
x,-y,z
x,1/2+y,1/2+z
-x,1/2-y,1/2+z
-x,1/2+y,1/2+z
x,1/2-y,1/2+z
loop_
_atom_site_type_symbol
_atom_site_label
_atom_site_fract_x
_atom_site_fract_y
_atom_site_fract_z
Si Si1 0.847498 0.174338 0.132540
Si Si2 0.573599 0.669265 0.323139
Si Si3 0.148380 0.325105 0.873727
Si Si4 0.712755 0.673005 0.181810
Si Si5 0.575857 0.173403 0.187192
Si Si6 0.919847 0.671023 0.249567
Si Si7 0.721206 0.830543 0.838898
Si Si8 0.920401 0.828617 0.995638
O O1 0.771782 0.242265 0.141246
O O2 0.903067 0.248376 0.181067
O O3 0.873277 0.207865 0.058618
O O4 0.844964 0.000000 0.148016
O O5 0.500000 0.682554 0.363096
O O6 0.580772 0.500000 0.293509
O O7 0.571660 0.787718 0.264538
O O8 0.642745 0.698129 0.366610
O O9 0.141450 0.500000 0.864759
O O10 0.122079 0.245161 0.808210
O O11 0.228738 0.278095 0.880270
O O12 0.103996 0.276687 0.936529
O O13 0.718187 0.500000 0.164930
O O14 0.638581 0.732668 0.155050
O O15 0.722260 0.704749 0.260134
O O16 0.500000 0.209677 0.155006
O O17 0.593413 0.000000 0.179319
O O18 0.896187 0.500000 0.243737
O O19 0.000000 0.686256 0.265791
O O20 0.744721 0.000000 0.852410
O O21 0.000000 0.793181 0.012629
O O22 0.911832 0.000000 0.973286
#
# Coordination Sequence:
#
# PCOD8178156 Si02
#       8
#     8   8   8   8   8   8   8   8
#     4  11  22  37  59  84 108 137 176 223 273 327
#     4   8  14  25  42  66  98 137 177 215 260 317
#     4  12  24  36  55  81 108 141 182 227 269 316
#     4  10  19  31  50  75 107 145 180 218 266 321
#     4   9  16  25  40  66 102 141 179 221 266 310
#     4  11  23  38  57  80 108 141 175 215 268 327
#     4   9  17  30  49  73 106 143 177 217 266 319
#     4  10  23  43  62  79 105 140 176 220 276 333
#
# _framework density 18.314302999999999
#
# number of rings (size 3 to 8) (size 9 to 14) (size 15 to 20)
#    0.000    2.000    1.250    4.125    0.000    7.000 
#    0.000    0.000    0.000    0.000    0.000    0.875 
#    0.000    3.000    0.000    0.000    0.000    0.000 
#
# Total GULP energy -396656.730068 kJ/mol
# GULP energy per Si atom -12395.522815 kJ/mol
# Density = 1.827262 g / cm^3
# Si number density = 18.314303 Si / 1000 Ang^3
#
#
#
# Elastic Constant Matrix: (Units=GPa)
#
#
# Indices 1 2 3 4 5 6 
#
# 1 125.5728 45.3322 18.0764 0.0000 0.0000 0.0000
# 2 45.3322 97.5996 25.3429 0.0000 0.0000 0.0000
# 3 18.0764 25.3429 36.8879 0.0000 0.0000 0.0000
# 4 0.0000 0.0000 0.0000 23.0939 0.0000 0.0000
# 5 0.0000 0.0000 0.0000 0.0000 16.3160 0.0000
# 6 0.0000 0.0000 0.0000 0.0000 0.0000 30.0201
#
#
#
# Elastic Compliance Matrix: (Units=1/GPa)
#
#
# Indices 1 2 3 4 5 6 
#
# 1 0.009689 -0.003977 -0.002016 0.000000 0.000000 0.000000
# 2 -0.003977 0.014103 -0.007740 0.000000 0.000000 0.000000
# 3 -0.002016 -0.007740 0.033415 0.000000 0.000000 0.000000
# 4 0.000000 0.000000 0.000000 0.043301 0.000000 0.000000
# 5 0.000000 0.000000 0.000000 0.000000 0.061290 0.000000
# 6 0.000000 0.000000 0.000000 0.000000 0.000000 0.033311
#
#
# Mechanical properties :
#
#
# Convention : Reuss Voigt Hill
#
# Bulk Modulus (GPa) = 33.62364 48.61812 41.12088
# Shear Modulus (GPa) = 21.50639 25.30659 23.40649
#
# Velocity S-wave (km/s) = 3.43052 3.72128 3.57885
# Velocity P-wave (km/s) = 5.83869 6.71328 6.29120
#
# Compressibility (1/GPa) = 0.02974098
#
# Stress axis : x y z
#
# Youngs Moduli (GPa) = 103.20549 70.90699 29.92690
#
# Poissons Ratio (x) = 0.28200 0.06033
# Poissons Ratio (y) = 0.41045 0.23164
# Poissons Ratio (z) = 0.20805 0.54884
#
# Static dielectric constant tensor:
#      x y z
#    x 3.972170 0.000000 0.000000 
#    y 0.000000 3.449830 0.000000 
#    z 0.000000 0.000000 2.904300 
# 
# 
# High freq. dielectric constant tensor:
#      x y z
#    x 1.741040 0.000000 0.000000 
#    y 0.000000 1.718090 0.000000 
#    z 0.000000 0.000000 1.646540 
# 
# From -- ./inp_files/18930.got.cif
#   From: 2010.03.12/outbox.cif.g09.slc.cpg/sg38_10_cif.got.tgz:18930.got - 2010.04.14 02:38:36.
