data_PCOD8178124
_publ_section_title
;
Structure prediction by ZEFSAII (Michael W. Deem and Ramdas Pophale) SiO2 
 PCOD8178124
Probable space group: A M M 2
;
_chemical_formula_sum "Si O2"
_cell_formula_units_Z 48
_cell_length_a 8.964754
_cell_length_b 18.146728
_cell_length_c 16.804848
_cell_angle_alpha 90.000000
_cell_angle_beta 90.000000
_cell_angle_gamma 90.000000
_cell_volume 2733.828678
_symmetry_space_group_name_H-M "A M M 2"
_symmetry_group_IT_number 38
_symmetry_cell_setting 'orthorhombic'
loop_
_space_group_symop_operation_xyz
x,y,z
-x,-y,z
-x,y,z
x,-y,z
x,1/2+y,1/2+z
-x,1/2-y,1/2+z
-x,1/2+y,1/2+z
x,1/2-y,1/2+z
loop_
_atom_site_type_symbol
_atom_site_label
_atom_site_fract_x
_atom_site_fract_y
_atom_site_fract_z
Si Si1 0.322186 0.664928 0.147930
Si Si2 0.828022 0.086335 0.503669
Si Si3 0.335488 0.697935 0.553843
Si Si4 0.824982 0.582110 0.462122
Si Si5 0.667664 0.801329 0.401362
Si Si6 0.176667 0.679272 0.311964
O O1 0.500000 0.655206 0.150832
O O2 0.257433 0.607696 0.084259
O O3 0.278249 0.749450 0.125118
O O4 0.248516 0.646718 0.232203
O O5 0.755514 0.124957 0.426301
O O6 0.000000 0.111087 0.511189
O O7 0.812481 0.000000 0.489887
O O8 0.500000 0.667669 0.572954
O O9 0.231195 0.627452 0.539179
O O10 0.338615 0.748540 0.476584
O O11 0.755706 0.500000 0.462895
O O12 0.777201 0.621750 0.380608
O O13 0.000000 0.578096 0.469300
O O14 0.500000 0.821177 0.372794
O O15 0.755045 0.759787 0.330587
O O16 0.000000 0.686409 0.302875
#
# Coordination Sequence:
#
# PCOD8178124 Si02
#       6
#     8   8   8   8   8   8
#     4  10  20  33  49  71  99 128 161 201 243 288
#     4  10  20  33  50  73 100 129 162 200 243 293
#     4   8  16  30  47  67  90 120 158 196 231 273
#     4   9  18  31  47  69  96 124 154 190 232 278
#     4   9  17  31  50  70  94 125 163 202 238 283
#     4  10  19  31  49  72  99 130 162 197 239 287
#
# _framework density 17.557794999999999
#
# number of rings (size 3 to 8) (size 9 to 14) (size 15 to 20)
#    0.000    2.667    0.000    3.000    0.000    7.667 
#    0.000    1.667    0.000    1.000    0.000    4.667 
#    0.000    0.000    0.000    0.000    0.000    0.000 
#
# Total GULP energy -297536.423842 kJ/mol
# GULP energy per Si atom -12397.350993 kJ/mol
# Density = 1.751783 g / cm^3
# Si number density = 17.557795 Si / 1000 Ang^3
#
#
#
# Elastic Constant Matrix: (Units=GPa)
#
#
# Indices 1 2 3 4 5 6 
#
# 1 85.2057 41.4079 12.5036 0.0000 0.0000 0.0000
# 2 41.4079 97.7553 16.5135 0.0000 0.0000 0.0000
# 3 12.5036 16.5135 12.7144 0.0000 0.0000 0.0000
# 4 0.0000 0.0000 0.0000 17.8784 0.0000 0.0000
# 5 0.0000 0.0000 0.0000 0.0000 27.8058 0.0000
# 6 0.0000 0.0000 0.0000 0.0000 0.0000 24.2284
#
#
#
# Elastic Compliance Matrix: (Units=1/GPa)
#
#
# Indices 1 2 3 4 5 6 
#
# 1 0.015478 -0.005105 -0.008591 0.000000 0.000000 0.000000
# 2 -0.005105 0.014789 -0.014187 0.000000 0.000000 0.000000
# 3 -0.008591 -0.014187 0.105526 0.000000 0.000000 0.000000
# 4 0.000000 0.000000 0.000000 0.055933 0.000000 0.000000
# 5 0.000000 0.000000 0.000000 0.000000 0.035964 0.000000
# 6 0.000000 0.000000 0.000000 0.000000 0.000000 0.041274
#
#
# Mechanical properties :
#
#
# Convention : Reuss Voigt Hill
#
# Bulk Modulus (GPa) = 12.49591 37.39171 24.94381
# Shear Modulus (GPa) = 14.22861 22.33254 18.28058
#
# Velocity S-wave (km/s) = 2.84982 3.57030 3.23021
# Velocity P-wave (km/s) = 4.23805 6.19182 5.30565
#
# Compressibility (1/GPa) = 0.08002616
#
# Stress axis : x y z
#
# Youngs Moduli (GPa) = 64.60828 67.61958 9.47637
#
# Poissons Ratio (x) = 0.34520 0.08141
# Poissons Ratio (y) = 0.32983 0.13444
# Poissons Ratio (z) = 0.55504 0.95932
#
# Static dielectric constant tensor:
#      x y z
#    x 3.412830 0.000000 0.000000 
#    y 0.000000 3.359160 0.000000 
#    z 0.000000 0.000000 3.153720 
# 
# 
# High freq. dielectric constant tensor:
#      x y z
#    x 1.689870 0.000000 0.000000 
#    y 0.000000 1.666600 0.000000 
#    z 0.000000 0.000000 1.652820 
# 
# From -- ./inp_files/12001.got.cif
#   From: 2010.03.12/outbox.cif.g09.slc.cpg/sg38_7_cif.got.tgz:12001.got - 2010.04.14 02:38:36.
