data_PCOD8178373
_publ_section_title
;
Structure prediction by ZEFSAII (Michael W. Deem and Ramdas Pophale) SiO2 
 PCOD8178373
Probable space group: A M M 2
;
_chemical_formula_sum "Si O2"
_cell_formula_units_Z 64
_cell_length_a 8.853095
_cell_length_b 16.426143
_cell_length_c 22.546339
_cell_angle_alpha 90.000000
_cell_angle_beta 90.000000
_cell_angle_gamma 90.000000
_cell_volume 3278.738320
_symmetry_space_group_name_H-M "A M M 2"
_symmetry_group_IT_number 38
_symmetry_cell_setting 'orthorhombic'
loop_
_space_group_symop_operation_xyz
x,y,z
-x,-y,z
-x,y,z
x,-y,z
x,1/2+y,1/2+z
-x,1/2-y,1/2+z
-x,1/2+y,1/2+z
x,1/2-y,1/2+z
loop_
_atom_site_type_symbol
_atom_site_label
_atom_site_fract_x
_atom_site_fract_y
_atom_site_fract_z
Si Si1 0.822995 0.908178 0.752500
Si Si2 0.320914 0.766199 0.832814
Si Si3 0.671109 0.089790 0.498891
Si Si4 0.323756 0.591367 0.789117
Si Si5 0.824370 0.260153 0.951142
Si Si6 0.675582 0.628635 0.130262
Si Si7 0.172758 0.777798 0.081319
Si Si8 0.834070 0.908685 0.171063
O O1 0.743432 0.835893 0.789394
O O2 0.769075 0.908345 0.684425
O O3 0.000000 0.890141 0.754366
O O4 0.788874 0.000000 0.777637
O O5 0.500000 0.769489 0.826381
O O6 0.259974 0.672816 0.821624
O O7 0.268125 0.785553 0.899596
O O8 0.500000 0.123551 0.494096
O O9 0.778921 0.145231 0.458825
O O10 0.718897 0.085029 0.568132
O O11 0.682984 0.000000 0.471298
O O12 0.500000 0.586810 0.800618
O O13 0.255690 0.500000 0.806560
O O14 0.291293 0.609124 0.720301
O O15 0.000000 0.253667 0.935774
O O16 0.779456 0.216433 0.012676
O O17 0.500000 0.618411 0.145604
O O18 0.718460 0.722221 0.120984
O O19 0.198114 0.865234 0.109215
O O20 0.000000 0.745910 0.085733
O O21 0.000000 0.884035 0.196799
O O22 0.830934 0.000000 0.150320
#
# Coordination Sequence:
#
# PCOD8178373 Si02
#       8
#     8   8   8   8   8   8   8   8
#     4  11  24  40  58  81 110 145 184 229 282 335
#     4  11  23  39  59  80 106 145 188 230 275 323
#     4   9  18  33  53  78 109 143 177 216 266 324
#     4   9  19  35  54  79 110 141 173 211 261 321
#     4  10  21  36  53  75 104 139 181 225 269 321
#     4  10  19  32  54  83 112 141 175 218 270 328
#     4   9  18  33  52  75 106 142 177 216 266 324
#     4   9  17  30  50  76 103 131 166 209 257 311
#
# _framework density 19.519701999999999
#
# number of rings (size 3 to 8) (size 9 to 14) (size 15 to 20)
#    0.000    2.250    0.000    2.625    0.000    6.750 
#    0.000    1.875    0.000    2.250    0.000    0.000 
#    0.000    0.000    0.000    0.000    0.000    0.000 
#
# Total GULP energy -396506.694513 kJ/mol
# GULP energy per Si atom -12390.834204 kJ/mol
# Density = 1.947527 g / cm^3
# Si number density = 19.519702 Si / 1000 Ang^3
#
#
#
# Elastic Constant Matrix: (Units=GPa)
#
#
# Indices 1 2 3 4 5 6 
#
# 1 52.8065 33.1699 25.7316 0.0000 0.0000 0.0000
# 2 33.1699 89.2232 41.6056 0.0000 0.0000 0.0000
# 3 25.7316 41.6056 80.6831 0.0000 0.0000 0.0000
# 4 0.0000 0.0000 0.0000 3.6961 0.0000 0.0000
# 5 0.0000 0.0000 0.0000 0.0000 33.1130 0.0000
# 6 0.0000 0.0000 0.0000 0.0000 0.0000 27.3723
#
#
#
# Elastic Compliance Matrix: (Units=1/GPa)
#
#
# Indices 1 2 3 4 5 6 
#
# 1 0.025802 -0.007577 -0.004322 0.000000 0.000000 0.000000
# 2 -0.007577 0.016981 -0.006340 0.000000 0.000000 0.000000
# 3 -0.004322 -0.006340 0.017042 0.000000 0.000000 0.000000
# 4 0.000000 0.000000 0.000000 0.270558 0.000000 0.000000
# 5 0.000000 0.000000 0.000000 0.000000 0.030200 0.000000
# 6 0.000000 0.000000 0.000000 0.000000 0.000000 0.036533
#
#
# Mechanical properties :
#
#
# Convention : Reuss Voigt Hill
#
# Bulk Modulus (GPa) = 42.83100 47.08078 44.95589
# Shear Modulus (GPa) = 11.32819 20.98333 16.15576
#
# Velocity S-wave (km/s) = 2.41165 3.28225 2.88004
# Velocity P-wave (km/s) = 5.45388 6.20775 5.84299
#
# Compressibility (1/GPa) = 0.02334758
#
# Stress axis : x y z
#
# Youngs Moduli (GPa) = 38.75605 58.88860 58.67911
#
# Poissons Ratio (x) = 0.44621 0.25359
# Poissons Ratio (y) = 0.29366 0.37203
# Poissons Ratio (z) = 0.16749 0.37336
#
# Static dielectric constant tensor:
#      x y z
#    x 3.572010 0.000000 0.000000 
#    y 0.000000 3.731870 0.000000 
#    z 0.000000 0.000000 3.463470 
# 
# 
# High freq. dielectric constant tensor:
#      x y z
#    x 1.755270 0.000000 0.000000 
#    y 0.000000 1.757490 0.000000 
#    z 0.000000 0.000000 1.752320 
# 
# From -- ./inp_files/20041.got.cif
#   From: 2010.03.12/outbox.cif.g09.slc.cpg/sg38_11_cif.got.tgz:20041.got - 2010.04.14 02:38:36.
