data_PCOD8178755
_publ_section_title
;
Structure prediction by ZEFSAII (Michael W. Deem and Ramdas Pophale) SiO2 
 PCOD8178755
Probable space group: A M M 2
;
_chemical_formula_sum "Si O2"
_cell_formula_units_Z 40
_cell_length_a 9.028509
_cell_length_b 11.489181
_cell_length_c 19.782380
_cell_angle_alpha 90.000000
_cell_angle_beta 90.000000
_cell_angle_gamma 90.000000
_cell_volume 2052.029721
_symmetry_space_group_name_H-M "A M M 2"
_symmetry_group_IT_number 38
_symmetry_cell_setting 'orthorhombic'
loop_
_space_group_symop_operation_xyz
x,y,z
-x,-y,z
-x,y,z
x,-y,z
x,1/2+y,1/2+z
-x,1/2-y,1/2+z
-x,1/2+y,1/2+z
x,1/2-y,1/2+z
loop_
_atom_site_type_symbol
_atom_site_label
_atom_site_fract_x
_atom_site_fract_y
_atom_site_fract_z
Si Si1 0.326630 0.131745 0.018930
Si Si2 0.174835 0.000000 0.553014
Si Si3 0.829870 0.365316 0.268769
Si Si4 0.173850 0.273651 0.125319
Si Si5 0.175083 0.500000 0.898068
Si Si6 0.675150 0.736971 0.884831
O O1 0.500000 0.144569 0.029501
O O2 0.249894 0.162885 0.090260
O O3 0.282991 0.000000 0.999941
O O4 0.272136 0.215354 0.957980
O O5 0.242165 0.886528 0.588308
O O6 0.222300 0.000000 0.475736
O O7 0.000000 0.000000 0.563236
O O8 0.804814 0.500000 0.248807
O O9 0.789917 0.283726 0.204701
O O10 0.722068 0.332053 0.329625
O O11 0.000000 0.345021 0.290576
O O12 0.000000 0.263514 0.112971
O O13 0.244681 0.384016 0.865729
O O14 0.000000 0.500000 0.885759
O O15 0.500000 0.719466 0.882562
#
# Coordination Sequence:
#
# PCOD8178755 Si02
#       6
#     8   4   8   8   4   8
#     4  10  22  39  57  81 116 155 191 234 286 341
#     4   9  16  31  59  89 115 138 173 234 291 335
#     4  10  21  38  61  87 116 151 194 242 292 345
#     4  10  19  36  61  88 114 144 187 239 289 339
#     4  11  21  37  63  89 115 148 191 240 291 345
#     4  11  23  39  59  85 119 155 194 238 290 349
#
# _framework density 19.492894
#
# number of rings (size 3 to 8) (size 9 to 14) (size 15 to 20)
#    0.000    1.800    3.000    1.500    0.000    3.200 
#    1.800    0.500    0.000    0.000    0.000    0.000 
#    0.000    0.000    0.000    0.000    0.000    0.000 
#
# Total GULP energy -248034.006495 kJ/mol
# GULP energy per Si atom -12401.700325 kJ/mol
# Density = 1.944853 g / cm^3
# Si number density = 19.492894 Si / 1000 Ang^3
#
#
#
# Elastic Constant Matrix: (Units=GPa)
#
#
# Indices 1 2 3 4 5 6 
#
# 1 58.6807 39.2403 40.7924 0.0000 0.0000 0.0000
# 2 39.2403 94.6568 36.4915 0.0000 0.0000 0.0000
# 3 40.7924 36.4915 94.3251 0.0000 0.0000 0.0000
# 4 0.0000 0.0000 0.0000 36.4440 0.0000 0.0000
# 5 0.0000 0.0000 0.0000 0.0000 30.8457 0.0000
# 6 0.0000 0.0000 0.0000 0.0000 0.0000 30.9467
#
#
#
# Elastic Compliance Matrix: (Units=1/GPa)
#
#
# Indices 1 2 3 4 5 6 
#
# 1 0.029234 -0.008515 -0.009349 0.000000 0.000000 0.000000
# 2 -0.008515 0.014897 -0.002080 0.000000 0.000000 0.000000
# 3 -0.009349 -0.002080 0.015449 0.000000 0.000000 0.000000
# 4 0.000000 0.000000 0.000000 0.027439 0.000000 0.000000
# 5 0.000000 0.000000 0.000000 0.000000 0.032419 0.000000
# 6 0.000000 0.000000 0.000000 0.000000 0.000000 0.032314
#
#
# Mechanical properties :
#
#
# Convention : Reuss Voigt Hill
#
# Bulk Modulus (GPa) = 50.78260 53.41236 52.09748
# Shear Modulus (GPa) = 25.22639 28.38984 26.80811
#
# Velocity S-wave (km/s) = 3.60131 3.82045 3.71249
# Velocity P-wave (km/s) = 6.58794 6.84993 6.72021
#
# Compressibility (1/GPa) = 0.01969178
#
# Stress axis : x y z
#
# Youngs Moduli (GPa) = 34.20641 67.12965 64.72723
#
# Poissons Ratio (x) = 0.57162 0.60511
# Poissons Ratio (y) = 0.29127 0.13466
# Poissons Ratio (z) = 0.31978 0.13966
#
# Static dielectric constant tensor:
#      x y z
#    x 3.287820 0.000000 0.000000 
#    y 0.000000 3.582960 0.000000 
#    z 0.000000 0.000000 3.458960 
# 
# 
# High freq. dielectric constant tensor:
#      x y z
#    x 1.742510 0.000000 0.000000 
#    y 0.000000 1.761900 0.000000 
#    z 0.000000 0.000000 1.755780 
# 
# From -- ./inp_files/19508.got.cif
#   From: 2010.03.12/outbox.cif.g09.slc.cpg/sg38_10_cif.got.tgz:19508.got - 2010.04.14 02:38:36.
