data_PCOD8178976
_publ_section_title
;
Structure prediction by ZEFSAII (Michael W. Deem and Ramdas Pophale) SiO2 
 PCOD8178976
Probable space group: A M M 2
;
_chemical_formula_sum "Si O2"
_cell_formula_units_Z 48
_cell_length_a 8.981825
_cell_length_b 23.573858
_cell_length_c 13.452361
_cell_angle_alpha 90.000000
_cell_angle_beta 90.000000
_cell_angle_gamma 90.000000
_cell_volume 2848.352702
_symmetry_space_group_name_H-M "A M M 2"
_symmetry_group_IT_number 38
_symmetry_cell_setting 'orthorhombic'
loop_
_space_group_symop_operation_xyz
x,y,z
-x,-y,z
-x,y,z
x,-y,z
x,1/2+y,1/2+z
-x,1/2-y,1/2+z
-x,1/2+y,1/2+z
x,1/2-y,1/2+z
loop_
_atom_site_type_symbol
_atom_site_label
_atom_site_fract_x
_atom_site_fract_y
_atom_site_fract_z
Si Si1 0.171130 0.565161 0.535540
Si Si2 0.672481 0.832409 0.717703
Si Si3 0.673548 0.836237 0.142889
Si Si4 0.175618 0.727723 0.814567
Si Si5 0.670253 0.227758 0.516578
Si Si6 0.172472 0.935322 0.806914
O O1 0.196107 0.500000 0.565704
O O2 0.275408 0.602483 0.605648
O O3 0.216722 0.574800 0.421334
O O4 0.000000 0.582753 0.551685
O O5 0.500000 0.826166 0.745593
O O6 0.761572 0.789526 0.788033
O O7 0.699479 0.818469 0.602320
O O8 0.727581 0.896002 0.736908
O O9 0.500000 0.837022 0.168577
O O10 0.759922 0.820852 0.243362
O O11 0.709305 0.790028 0.058315
O O12 0.000000 0.728777 0.804352
O O13 0.220637 0.712670 0.926868
O O14 0.500000 0.225518 0.479618
O O15 0.000000 0.920785 0.790348
O O16 0.205680 0.000000 0.776499
#
# Coordination Sequence:
#
# PCOD8178976 Si02
#       6
#     8   8   8   8   8   8
#     4   9  18  32  49  71 100 131 162 197 237 282
#     4  10  20  33  50  72  99 130 161 197 240 285
#     4  10  20  33  50  72  99 129 160 197 240 286
#     4  11  21  32  50  73  97 127 161 199 242 287
#     4   9  19  34  49  69  98 128 159 198 241 285
#     4   9  18  32  50  73 101 131 161 196 238 283
#
# _framework density 16.851845000000001
#
# number of rings (size 3 to 8) (size 9 to 14) (size 15 to 20)
#    0.000    2.333    0.000    5.500    0.000    8.000 
#    0.000    1.667    0.000    1.000    0.000    4.667 
#    0.000    0.000    0.000    0.000    0.000    0.000 
#
# Total GULP energy -297680.373832 kJ/mol
# GULP energy per Si atom -12403.348910 kJ/mol
# Density = 1.681349 g / cm^3
# Si number density = 16.851845 Si / 1000 Ang^3
#
#
#
# Elastic Constant Matrix: (Units=GPa)
#
#
# Indices 1 2 3 4 5 6 
#
# 1 113.9888 52.8717 62.1927 0.0000 0.0000 0.0000
# 2 52.8717 98.8484 51.2229 0.0000 0.0000 0.0000
# 3 62.1927 51.2229 95.0273 0.0000 0.0000 0.0000
# 4 0.0000 0.0000 0.0000 25.4936 0.0000 0.0000
# 5 0.0000 0.0000 0.0000 0.0000 29.9647 0.0000
# 6 0.0000 0.0000 0.0000 0.0000 0.0000 31.3645
#
#
#
# Elastic Compliance Matrix: (Units=1/GPa)
#
#
# Indices 1 2 3 4 5 6 
#
# 1 0.014699 -0.003992 -0.007468 0.000000 0.000000 0.000000
# 2 -0.003992 0.015122 -0.005538 0.000000 0.000000 0.000000
# 3 -0.007468 -0.005538 0.018396 0.000000 0.000000 0.000000
# 4 0.000000 0.000000 0.000000 0.039226 0.000000 0.000000
# 5 0.000000 0.000000 0.000000 0.000000 0.033373 0.000000
# 6 0.000000 0.000000 0.000000 0.000000 0.000000 0.031883
#
#
# Mechanical properties :
#
#
# Convention : Reuss Voigt Hill
#
# Bulk Modulus (GPa) = 70.32488 71.15991 70.74239
# Shear Modulus (GPa) = 26.11833 26.80305 26.46069
#
# Velocity S-wave (km/s) = 3.94112 3.99245 3.96687
# Velocity P-wave (km/s) = 7.90770 7.97316 7.94050
#
# Compressibility (1/GPa) = 0.01421972
#
# Stress axis : x y z
#
# Youngs Moduli (GPa) = 68.03077 66.12967 54.35833
#
# Poissons Ratio (x) = 0.26400 0.40596
# Poissons Ratio (y) = 0.27159 0.30106
# Poissons Ratio (z) = 0.50807 0.36625
#
# Static dielectric constant tensor:
#      x y z
#    x 3.137960 0.000000 0.000000 
#    y 0.000000 3.068650 0.000000 
#    z 0.000000 0.000000 3.022430 
# 
# 
# High freq. dielectric constant tensor:
#      x y z
#    x 1.657210 0.000000 0.000000 
#    y 0.000000 1.639610 0.000000 
#    z 0.000000 0.000000 1.638130 
# 
# From -- ./inp_files/8117.got.cif
#   From: 2010.03.12/outbox.cif.g09.slc.cpg/sg38_5_cif.got.tgz:8117.got - 2010.04.14 02:38:36.
