data_PCOD8178142
_publ_section_title
;
Structure prediction by ZEFSAII (Michael W. Deem and Ramdas Pophale) SiO2 
 PCOD8178142
Probable space group: A M M 2
;
_chemical_formula_sum "Si O2"
_cell_formula_units_Z 64
_cell_length_a 9.017272
_cell_length_b 14.341377
_cell_length_c 28.054146
_cell_angle_alpha 90.000000
_cell_angle_beta 90.000000
_cell_angle_gamma 90.000000
_cell_volume 3627.964889
_symmetry_space_group_name_H-M "A M M 2"
_symmetry_group_IT_number 38
_symmetry_cell_setting 'orthorhombic'
loop_
_space_group_symop_operation_xyz
x,y,z
-x,-y,z
-x,y,z
x,-y,z
x,1/2+y,1/2+z
-x,1/2-y,1/2+z
-x,1/2+y,1/2+z
x,1/2-y,1/2+z
loop_
_atom_site_type_symbol
_atom_site_label
_atom_site_fract_x
_atom_site_fract_y
_atom_site_fract_z
Si Si1 0.169835 0.104445 0.704620
Si Si2 0.325610 0.893529 0.346426
Si Si3 0.175574 0.777150 0.883711
Si Si4 0.170907 0.787038 0.154887
Si Si5 0.173117 0.393248 0.474828
Si Si6 0.169378 0.392530 0.749617
Si Si7 0.325338 0.893912 0.071893
Si Si8 0.328804 0.891737 0.801753
O O1 0.197839 0.176034 0.661073
O O2 0.274406 0.130967 0.748617
O O3 0.000000 0.113048 0.722343
O O4 0.204204 0.000000 0.685901
O O5 0.500000 0.879207 0.349898
O O6 0.245005 0.826639 0.384447
O O7 0.273500 0.864556 0.293565
O O8 0.279318 0.000000 0.357706
O O9 0.228122 0.829285 0.931455
O O10 0.232935 0.832925 0.838305
O O11 0.000000 0.770376 0.880987
O O12 0.221468 0.834657 0.204036
O O13 0.270533 0.824298 0.112404
O O14 0.000000 0.810697 0.143592
O O15 0.211931 0.500000 0.461942
O O16 0.258531 0.360315 0.521861
O O17 0.000000 0.380527 0.484619
O O18 0.188486 0.500000 0.736033
O O19 0.000000 0.369008 0.763761
O O20 0.500000 0.886979 0.068363
O O21 0.274168 0.000000 0.083311
O O22 0.500000 0.862760 0.806168
O O23 0.304220 0.000000 0.813514
#
# Coordination Sequence:
#
# PCOD8178142 Si02
#       8
#     8   8   8   8   8   8   8   8
#     4   9  18  32  49  71 101 136 173 211 247 285
#     4  10  21  35  50  71 102 138 172 209 253 296
#     4  11  21  33  53  77 100 131 171 210 248 294
#     4  10  19  31  50  73  97 130 169 205 244 291
#     4   9  19  36  56  77 101 128 158 195 242 296
#     4   9  17  29  46  70  99 131 169 209 246 290
#     4  10  21  35  52  76 103 128 155 194 247 302
#     4  10  20  32  48  74 107 139 169 204 249 300
#
# _framework density 17.640744999999999
#
# number of rings (size 3 to 8) (size 9 to 14) (size 15 to 20)
#    0.000    2.250    0.000    3.000    0.000    6.250 
#    0.000    2.500    0.000    0.750    0.000    1.750 
#    0.000    0.000    0.000    0.000    0.000    0.000 
#
# Total GULP energy -396880.786640 kJ/mol
# GULP energy per Si atom -12402.524582 kJ/mol
# Density = 1.760059 g / cm^3
# Si number density = 17.640745 Si / 1000 Ang^3
#
#
#
# Elastic Constant Matrix: (Units=GPa)
#
#
# Indices 1 2 3 4 5 6 
#
# 1 64.8042 42.0408 43.2270 0.0000 0.0000 0.0000
# 2 42.0408 103.1355 72.6323 0.0000 0.0000 0.0000
# 3 43.2270 72.6323 96.1501 0.0000 0.0000 0.0000
# 4 0.0000 0.0000 0.0000 28.8063 0.0000 0.0000
# 5 0.0000 0.0000 0.0000 0.0000 5.2729 0.0000
# 6 0.0000 0.0000 0.0000 0.0000 0.0000 26.0169
#
#
#
# Elastic Compliance Matrix: (Units=1/GPa)
#
#
# Indices 1 2 3 4 5 6 
#
# 1 0.022965 -0.004466 -0.006951 0.000000 0.000000 0.000000
# 2 -0.004466 0.021586 -0.014298 0.000000 0.000000 0.000000
# 3 -0.006951 -0.014298 0.024326 0.000000 0.000000 0.000000
# 4 0.000000 0.000000 0.000000 0.034715 0.000000 0.000000
# 5 0.000000 0.000000 0.000000 0.000000 0.189649 0.000000
# 6 0.000000 0.000000 0.000000 0.000000 0.000000 0.038437
#
#
# Mechanical properties :
#
#
# Convention : Reuss Voigt Hill
#
# Bulk Modulus (GPa) = 57.31704 64.43223 60.87464
# Shear Modulus (GPa) = 12.85599 19.09852 15.97726
#
# Velocity S-wave (km/s) = 2.70250 3.29391 3.01275
# Velocity P-wave (km/s) = 6.50383 7.14636 6.83265
#
# Compressibility (1/GPa) = 0.01744682
#
# Stress axis : x y z
#
# Youngs Moduli (GPa) = 43.54477 46.32654 41.10764
#
# Poissons Ratio (x) = 0.20689 0.28573
# Poissons Ratio (y) = 0.19447 0.58777
# Poissons Ratio (z) = 0.30267 0.66239
#
# Static dielectric constant tensor:
#      x y z
#    x 3.282100 0.000000 0.000000 
#    y 0.000000 3.528210 0.000000 
#    z 0.000000 0.000000 3.111540 
# 
# 
# High freq. dielectric constant tensor:
#      x y z
#    x 1.685410 0.000000 0.000000 
#    y 0.000000 1.688250 0.000000 
#    z 0.000000 0.000000 1.657340 
# 
# From -- ./inp_files/22118.got.cif
#   From: 2010.03.12/outbox.cif.g09.slc.cpg/sg38_12_cif.got.tgz:22118.got - 2010.04.14 02:38:36.
