data_PCOD8178498
_publ_section_title
;
Structure prediction by ZEFSAII (Michael W. Deem and Ramdas Pophale) SiO2 
 PCOD8178498
Probable space group: A M M 2
;
_chemical_formula_sum "Si O2"
_cell_formula_units_Z 48
_cell_length_a 8.883039
_cell_length_b 7.886908
_cell_length_c 34.036319
_cell_angle_alpha 90.000000
_cell_angle_beta 90.000000
_cell_angle_gamma 90.000000
_cell_volume 2384.574685
_symmetry_space_group_name_H-M "A M M 2"
_symmetry_group_IT_number 38
_symmetry_cell_setting 'orthorhombic'
loop_
_space_group_symop_operation_xyz
x,y,z
-x,-y,z
-x,y,z
x,-y,z
x,1/2+y,1/2+z
-x,1/2-y,1/2+z
-x,1/2+y,1/2+z
x,1/2-y,1/2+z
loop_
_atom_site_type_symbol
_atom_site_label
_atom_site_fract_x
_atom_site_fract_y
_atom_site_fract_z
Si Si1 0.677478 0.804484 0.862880
Si Si2 0.179078 0.000000 0.226017
Si Si3 0.171149 0.803534 0.944214
Si Si4 0.179028 0.813594 0.676315
Si Si5 0.332077 0.307908 0.020125
Si Si6 0.167030 0.692314 0.594455
Si Si7 0.178807 0.000000 0.315693
O O1 0.500000 0.779469 0.859548
O O2 0.727580 0.757749 0.906843
O O3 0.758225 0.673468 0.834041
O O4 0.723589 0.000000 0.852785
O O5 0.245480 0.168820 0.204984
O O6 0.233189 0.000000 0.270790
O O7 0.000000 0.000000 0.223923
O O8 0.000000 0.749051 0.935097
O O9 0.182294 0.000000 0.954840
O O10 0.230227 0.702480 0.981571
O O11 0.237748 0.792915 0.631472
O O12 0.000000 0.796203 0.675340
O O13 0.228644 0.000000 0.691746
O O14 0.500000 0.242828 0.010047
O O15 0.333596 0.500000 0.034748
O O16 0.269025 0.199274 0.055967
O O17 0.156150 0.500000 0.608792
O O18 0.000000 0.761929 0.583857
O O19 0.000000 0.000000 0.320241
#
# Coordination Sequence:
#
# PCOD8178498 Si02
#       7
#     8   4   8   8   8   8   4
#     4  10  22  41  64  88 119 161 204 248 302 366
#     4   9  18  33  51  83 121 151 191 239 295 361
#     4  10  21  38  60  85 112 144 189 243 298 353
#     4   9  16  29  52  80 113 151 187 234 294 349
#     4  11  24  37  50  75 113 154 195 238 285 346
#     4  10  19  33  55  81 110 144 190 244 293 346
#     4  11  23  37  61  93 127 161 199 253 309 367
#
# _framework density 20.129376000000001
#
# number of rings (size 3 to 8) (size 9 to 14) (size 15 to 20)
#    0.000    2.000    0.833    2.750    1.167    7.000 
#    0.000    1.667    0.000    2.000    0.000    2.333 
#    0.000    0.000    0.000    0.000    0.000    0.000 
#
# Total GULP energy -297588.737306 kJ/mol
# GULP energy per Si atom -12399.530721 kJ/mol
# Density = 2.008356 g / cm^3
# Si number density = 20.129376 Si / 1000 Ang^3
#
#
#
# Elastic Constant Matrix: (Units=GPa)
#
#
# Indices 1 2 3 4 5 6 
#
# 1 74.8876 31.3036 36.1441 0.0000 0.0000 0.0000
# 2 31.3036 122.3172 70.1313 0.0000 0.0000 0.0000
# 3 36.1441 70.1313 143.0821 0.0000 0.0000 0.0000
# 4 0.0000 0.0000 0.0000 30.6257 0.0000 0.0000
# 5 0.0000 0.0000 0.0000 0.0000 1.9457 0.0000
# 6 0.0000 0.0000 0.0000 0.0000 0.0000 23.1386
#
#
#
# Elastic Compliance Matrix: (Units=1/GPa)
#
#
# Indices 1 2 3 4 5 6 
#
# 1 0.015709 -0.002427 -0.002779 0.000000 0.000000 0.000000
# 2 -0.002427 0.011746 -0.005144 0.000000 0.000000 0.000000
# 3 -0.002779 -0.005144 0.010212 0.000000 0.000000 0.000000
# 4 0.000000 0.000000 0.000000 0.032652 0.000000 0.000000
# 5 0.000000 0.000000 0.000000 0.000000 0.513956 0.000000
# 6 0.000000 0.000000 0.000000 0.000000 0.000000 0.043218
#
#
# Mechanical properties :
#
#
# Convention : Reuss Voigt Hill
#
# Bulk Modulus (GPa) = 58.93615 68.38278 63.65947
# Shear Modulus (GPa) = 7.64703 24.65586 16.15145
#
# Velocity S-wave (km/s) = 1.95120 3.50361 2.83571
# Velocity P-wave (km/s) = 5.86673 7.10017 6.51272
#
# Compressibility (1/GPa) = 0.01696751
#
# Stress axis : x y z
#
# Youngs Moduli (GPa) = 63.65781 85.13486 97.92106
#
# Poissons Ratio (x) = 0.20663 0.27208
# Poissons Ratio (y) = 0.15451 0.50372
# Poissons Ratio (z) = 0.17688 0.43795
#
# Static dielectric constant tensor:
#      x y z
#    x 3.451710 0.000000 0.000000 
#    y 0.000000 3.771320 0.000000 
#    z 0.000000 0.000000 3.575040 
# 
# 
# High freq. dielectric constant tensor:
#      x y z
#    x 1.758990 0.000000 0.000000 
#    y 0.000000 1.796870 0.000000 
#    z 0.000000 0.000000 1.783330 
# 
# From -- ./inp_files/24333.got.cif
#   From: 2010.03.12/outbox.cif.g09.slc.cpg/sg38_13_cif.got.tgz:24333.got - 2010.04.14 02:38:36.
