data_PCOD8178484
_publ_section_title
;
Structure prediction by ZEFSAII (Michael W. Deem and Ramdas Pophale) SiO2 
 PCOD8178484
Probable space group: A M M 2
;
_chemical_formula_sum "Si O2"
_cell_formula_units_Z 56
_cell_length_a 9.557195
_cell_length_b 16.478406
_cell_length_c 19.558116
_cell_angle_alpha 90.000000
_cell_angle_beta 90.000000
_cell_angle_gamma 90.000000
_cell_volume 3080.155653
_symmetry_space_group_name_H-M "A M M 2"
_symmetry_group_IT_number 38
_symmetry_cell_setting 'orthorhombic'
loop_
_space_group_symop_operation_xyz
x,y,z
-x,-y,z
-x,y,z
x,-y,z
x,1/2+y,1/2+z
-x,1/2-y,1/2+z
-x,1/2+y,1/2+z
x,1/2-y,1/2+z
loop_
_atom_site_type_symbol
_atom_site_label
_atom_site_fract_x
_atom_site_fract_y
_atom_site_fract_z
Si Si1 0.655693 0.909425 0.687660
Si Si2 0.665675 0.000000 0.928651
Si Si3 0.840256 0.848465 0.893760
Si Si4 0.667147 0.500000 0.590316
Si Si5 0.842157 0.763652 0.519123
Si Si6 0.839107 0.274974 0.254057
Si Si7 0.164011 0.847214 0.144007
Si Si8 0.341434 0.411086 0.026450
O O1 0.500000 0.880120 0.707199
O O2 0.765651 0.851121 0.720964
O O3 0.674773 0.909018 0.607112
O O4 0.681698 0.000000 0.715995
O O5 0.732144 0.922639 0.890545
O O6 0.500000 0.000000 0.916535
O O7 0.702013 0.000000 0.009586
O O8 0.816484 0.808189 0.966471
O O9 0.809083 0.780434 0.835305
O O10 0.000000 0.880561 0.886602
O O11 0.500000 0.500000 0.602661
O O12 0.735929 0.577808 0.626747
O O13 0.802146 0.727197 0.592830
O O14 0.751076 0.839915 0.495004
O O15 0.000000 0.795030 0.518366
O O16 0.795894 0.188360 0.219616
O O17 0.000000 0.287529 0.236502
O O18 0.000000 0.873453 0.138580
O O19 0.500000 0.394961 0.003800
O O20 0.293146 0.500000 0.999441
#
# Coordination Sequence:
#
# PCOD8178484 Si02
#       8
#     8   4   8   4   8   8   8   8
#     4   9  18  31  47  72 107 140 168 203 251 305
#     4  11  23  37  55  85 119 150 189 228 274 340
#     4  10  22  38  55  77 112 148 181 225 282 336
#     4  11  23  37  59  89 113 140 185 238 284 330
#     4  10  19  33  55  80 104 137 179 225 273 326
#     4  10  21  36  54  78 106 141 182 222 267 324
#     4  10  20  36  58  83 109 141 183 229 279 330
#     4   9  18  32  51  76 105 138 173 213 265 318
#
# _framework density 18.180899
#
# number of rings (size 3 to 8) (size 9 to 14) (size 15 to 20)
#    0.000    2.143    2.857    1.286    1.000    3.429 
#    0.000    1.429    1.571    0.000    0.000    0.000 
#    0.000    0.000    0.000    0.000    0.000    0.000 
#
# Total GULP energy -347067.996120 kJ/mol
# GULP energy per Si atom -12395.285576 kJ/mol
# Density = 1.813952 g / cm^3
# Si number density = 18.180899 Si / 1000 Ang^3
#
#
#
# Elastic Constant Matrix: (Units=GPa)
#
#
# Indices 1 2 3 4 5 6 
#
# 1 76.4922 53.9607 29.6448 0.0000 0.0000 0.0000
# 2 53.9607 83.4927 28.3229 0.0000 0.0000 0.0000
# 3 29.6448 28.3229 63.2915 0.0000 0.0000 0.0000
# 4 0.0000 0.0000 0.0000 19.2908 0.0000 0.0000
# 5 0.0000 0.0000 0.0000 0.0000 20.0351 0.0000
# 6 0.0000 0.0000 0.0000 0.0000 0.0000 63.5422
#
#
#
# Elastic Compliance Matrix: (Units=1/GPa)
#
#
# Indices 1 2 3 4 5 6 
#
# 1 0.025496 -0.014651 -0.005386 0.000000 0.000000 0.000000
# 2 -0.014651 0.022539 -0.003224 0.000000 0.000000 0.000000
# 3 -0.005386 -0.003224 0.019765 0.000000 0.000000 0.000000
# 4 0.000000 0.000000 0.000000 0.051838 0.000000 0.000000
# 5 0.000000 0.000000 0.000000 0.000000 0.049912 0.000000
# 6 0.000000 0.000000 0.000000 0.000000 0.000000 0.015738
#
#
# Mechanical properties :
#
#
# Convention : Reuss Voigt Hill
#
# Bulk Modulus (GPa) = 46.99394 49.68146 48.33770
# Shear Modulus (GPa) = 20.92901 27.99681 24.46291
#
# Velocity S-wave (km/s) = 3.39655 3.92842 3.67212
# Velocity P-wave (km/s) = 6.42543 6.92547 6.68013
#
# Compressibility (1/GPa) = 0.02127934
#
# Stress axis : x y z
#
# Youngs Moduli (GPa) = 39.22238 44.36666 50.59371
#
# Poissons Ratio (x) = 0.65000 0.27248
# Poissons Ratio (y) = 0.57463 0.16312
# Poissons Ratio (z) = 0.21124 0.14305
#
# Static dielectric constant tensor:
#      x y z
#    x 3.420710 0.000000 0.000000 
#    y 0.000000 3.150960 0.000000 
#    z 0.000000 0.000000 3.453950 
# 
# 
# High freq. dielectric constant tensor:
#      x y z
#    x 1.703860 0.000000 0.000000 
#    y 0.000000 1.699470 0.000000 
#    z 0.000000 0.000000 1.688220 
# 
# From -- ./inp_files/19851.got.cif
#   From: 2010.03.12/outbox.cif.g09.slc.cpg/sg38_10_cif.got.tgz:19851.got - 2010.04.14 02:38:36.
