data_PCOD8178615
_publ_section_title
;
Structure prediction by ZEFSAII (Michael W. Deem and Ramdas Pophale) SiO2 
 PCOD8178615
Probable space group: A M M 2
;
_chemical_formula_sum "Si O2"
_cell_formula_units_Z 64
_cell_length_a 8.800219
_cell_length_b 32.607440
_cell_length_c 11.639649
_cell_angle_alpha 90.000000
_cell_angle_beta 90.000000
_cell_angle_gamma 90.000000
_cell_volume 3340.027695
_symmetry_space_group_name_H-M "A M M 2"
_symmetry_group_IT_number 38
_symmetry_cell_setting 'orthorhombic'
loop_
_space_group_symop_operation_xyz
x,y,z
-x,-y,z
-x,y,z
x,-y,z
x,1/2+y,1/2+z
-x,1/2-y,1/2+z
-x,1/2+y,1/2+z
x,1/2-y,1/2+z
loop_
_atom_site_type_symbol
_atom_site_label
_atom_site_fract_x
_atom_site_fract_y
_atom_site_fract_z
Si Si1 0.670384 0.674879 0.657300
Si Si2 0.670574 0.228456 0.367564
Si Si3 0.320797 0.452865 0.364183
Si Si4 0.178128 0.121165 0.738147
Si Si5 0.824292 0.107036 0.292211
Si Si6 0.176109 0.809891 0.922056
Si Si7 0.677489 0.354275 0.000094
Si Si8 0.825061 0.047262 0.099719
O O1 0.500000 0.655673 0.661346
O O2 0.672500 0.715621 0.734375
O O3 0.796066 0.644374 0.705993
O O4 0.713724 0.685654 0.529099
O O5 0.500000 0.242953 0.401623
O O6 0.792317 0.264665 0.373821
O O7 0.719718 0.190484 0.449546
O O8 0.500000 0.450554 0.356321
O O9 0.264457 0.500000 0.343676
O O10 0.252461 0.422751 0.268093
O O11 0.269240 0.436831 0.489881
O O12 0.222840 0.155492 0.830922
O O13 0.233899 0.137834 0.616610
O O14 0.000000 0.114154 0.732192
O O15 0.724998 0.111092 0.407349
O O16 0.772772 0.067304 0.219599
O O17 0.000000 0.105352 0.327916
O O18 0.000000 0.813628 0.956399
O O19 0.500000 0.358347 0.023667
O O20 0.000000 0.058055 0.073707
O O21 0.794838 0.000000 0.118321
#
# Coordination Sequence:
#
# PCOD8178615 Si02
#       8
#     8   8   8   8   8   8   8   8
#     4  10  21  37  56  79 107 143 184 225 275 335
#     4   9  21  39  57  79 107 145 188 231 284 342
#     4  10  21  37  59  88 119 152 192 240 293 345
#     4  11  24  40  58  85 116 153 197 240 291 350
#     4  10  19  34  57  82 110 145 185 231 280 337
#     4  11  24  37  55  84 114 144 184 236 285 336
#     4  10  22  40  60  81 110 152 195 239 289 344
#     4   9  18  33  55  84 117 150 184 227 281 341
#
# _framework density 19.161517
#
# number of rings (size 3 to 8) (size 9 to 14) (size 15 to 20)
#    0.000    2.000    0.000    3.750    1.750    9.750 
#    0.000    0.625    0.000    2.250    0.000    0.000 
#    0.000    0.000    0.000    0.000    0.000    0.000 
#
# Total GULP energy -396803.556830 kJ/mol
# GULP energy per Si atom -12400.111151 kJ/mol
# Density = 1.911790 g / cm^3
# Si number density = 19.161517 Si / 1000 Ang^3
#
#
#
# Elastic Constant Matrix: (Units=GPa)
#
#
# Indices 1 2 3 4 5 6 
#
# 1 54.1551 32.7779 37.7518 0.0000 0.0000 0.0000
# 2 32.7779 81.7853 50.9727 0.0000 0.0000 0.0000
# 3 37.7518 50.9727 121.7742 0.0000 0.0000 0.0000
# 4 0.0000 0.0000 0.0000 16.8624 0.0000 0.0000
# 5 0.0000 0.0000 0.0000 0.0000 34.3657 0.0000
# 6 0.0000 0.0000 0.0000 0.0000 0.0000 27.0269
#
#
#
# Elastic Compliance Matrix: (Units=1/GPa)
#
#
# Indices 1 2 3 4 5 6 
#
# 1 0.026536 -0.007452 -0.005107 0.000000 0.000000 0.000000
# 2 -0.007452 0.018636 -0.005490 0.000000 0.000000 0.000000
# 3 -0.005107 -0.005490 0.012093 0.000000 0.000000 0.000000
# 4 0.000000 0.000000 0.000000 0.059304 0.000000 0.000000
# 5 0.000000 0.000000 0.000000 0.000000 0.029099 0.000000
# 6 0.000000 0.000000 0.000000 0.000000 0.000000 0.037000
#
#
# Mechanical properties :
#
#
# Convention : Reuss Voigt Hill
#
# Bulk Modulus (GPa) = 47.24580 55.63547 51.44064
# Shear Modulus (GPa) = 22.14128 24.73182 23.43655
#
# Velocity S-wave (km/s) = 3.40296 3.59653 3.50109
# Velocity P-wave (km/s) = 6.33643 6.80770 6.57629
#
# Compressibility (1/GPa) = 0.02116590
#
# Stress axis : x y z
#
# Youngs Moduli (GPa) = 37.68427 53.66070 82.68956
#
# Poissons Ratio (x) = 0.39988 0.42232
# Poissons Ratio (y) = 0.28083 0.45399
# Poissons Ratio (z) = 0.19247 0.29461
#
# Static dielectric constant tensor:
#      x y z
#    x 3.511950 0.000000 0.000000 
#    y 0.000000 3.547590 0.000000 
#    z 0.000000 0.000000 3.599910 
# 
# 
# High freq. dielectric constant tensor:
#      x y z
#    x 1.752220 0.000000 0.000000 
#    y 0.000000 1.739520 0.000000 
#    z 0.000000 0.000000 1.746060 
# 
# From -- ./inp_files/8529.got.cif
#   From: 2010.03.12/outbox.cif.g09.slc.cpg/sg38_5_cif.got.tgz:8529.got - 2010.04.14 02:38:36.
