data_PCOD8178309
_publ_section_title
;
Structure prediction by ZEFSAII (Michael W. Deem and Ramdas Pophale) SiO2 
 PCOD8178309
Probable space group: A M M 2
;
_chemical_formula_sum "Si O2"
_cell_formula_units_Z 56
_cell_length_a 17.879405
_cell_length_b 9.007022
_cell_length_c 19.227283
_cell_angle_alpha 90.000000
_cell_angle_beta 90.000000
_cell_angle_gamma 90.000000
_cell_volume 3096.365388
_symmetry_space_group_name_H-M "A M M 2"
_symmetry_group_IT_number 38
_symmetry_cell_setting 'orthorhombic'
loop_
_space_group_symop_operation_xyz
x,y,z
-x,-y,z
-x,y,z
x,-y,z
x,1/2+y,1/2+z
-x,1/2-y,1/2+z
-x,1/2+y,1/2+z
x,1/2-y,1/2+z
loop_
_atom_site_type_symbol
_atom_site_label
_atom_site_fract_x
_atom_site_fract_y
_atom_site_fract_z
Si Si1 0.700244 0.174960 0.075650
Si Si2 0.915432 0.674564 0.464870
Si Si3 0.798417 0.170930 0.687046
Si Si4 0.582548 0.175063 0.186737
Si Si5 0.084671 0.162260 0.125223
Si Si6 0.237151 0.327925 0.942155
Si Si7 0.292742 0.170920 0.292361
O O1 0.765427 0.224332 0.126887
O O2 0.623339 0.224552 0.114775
O O3 0.702720 0.000000 0.062811
O O4 0.713001 0.253778 0.002174
O O5 0.906684 0.500000 0.450785
O O6 0.906251 0.712927 0.545611
O O7 0.845613 0.758356 0.428092
O O8 0.000000 0.724612 0.440169
O O9 0.885350 0.209716 0.677433
O O10 0.771894 0.223425 0.762353
O O11 0.779372 0.000000 0.674889
O O12 0.500000 0.249204 0.189890
O O13 0.629358 0.222701 0.255830
O O14 0.574424 0.000000 0.186456
O O15 0.000000 0.146366 0.146185
O O16 0.122952 0.000000 0.135893
O O17 0.224948 0.500000 0.959772
O O18 0.290542 0.306919 0.874886
O O19 0.276731 0.000000 0.272105
#
# Coordination Sequence:
#
# PCOD8178309 Si02
#       7
#     8   8   8   8   8   8   8
#     4  10  19  32  53  77 104 136 168 209 261 309
#     4   9  18  32  51  74 101 138 179 219 267 314
#     4  11  20  31  50  76 101 129 171 217 256 306
#     4   8  15  32  58  81  99 131 179 218 252 308
#     4   9  17  30  49  72  99 133 172 215 265 313
#     4  11  21  33  51  79 109 139 179 220 258 309
#     4   9  20  36  53  74 105 141 174 211 260 313
#
# _framework density 18.085720999999999
#
# number of rings (size 3 to 8) (size 9 to 14) (size 15 to 20)
#    0.000    2.429    1.429    3.857    0.000    1.714 
#    0.000    2.857    0.000   12.429    0.000    0.000 
#    0.000    0.000    0.000    0.000    0.000    0.000 
#
# Total GULP energy -346892.070950 kJ/mol
# GULP energy per Si atom -12389.002534 kJ/mol
# Density = 1.804456 g / cm^3
# Si number density = 18.085721 Si / 1000 Ang^3
#
#
#
# Elastic Constant Matrix: (Units=GPa)
#
#
# Indices 1 2 3 4 5 6 
#
# 1 107.4762 40.2949 51.6172 0.0000 0.0000 0.0000
# 2 40.2949 77.3791 42.1529 0.0000 0.0000 0.0000
# 3 51.6172 42.1529 97.7107 0.0000 0.0000 0.0000
# 4 0.0000 0.0000 0.0000 26.2446 0.0000 0.0000
# 5 0.0000 0.0000 0.0000 0.0000 22.8804 0.0000
# 6 0.0000 0.0000 0.0000 0.0000 0.0000 13.9468
#
#
#
# Elastic Compliance Matrix: (Units=1/GPa)
#
#
# Indices 1 2 3 4 5 6 
#
# 1 0.013384 -0.004076 -0.005312 0.000000 0.000000 0.000000
# 2 -0.004076 0.018135 -0.005670 0.000000 0.000000 0.000000
# 3 -0.005312 -0.005670 0.015487 0.000000 0.000000 0.000000
# 4 0.000000 0.000000 0.000000 0.038103 0.000000 0.000000
# 5 0.000000 0.000000 0.000000 0.000000 0.043706 0.000000
# 6 0.000000 0.000000 0.000000 0.000000 0.000000 0.071701
#
#
# Mechanical properties :
#
#
# Convention : Reuss Voigt Hill
#
# Bulk Modulus (GPa) = 59.20986 61.18847 60.19917
# Shear Modulus (GPa) = 21.16312 22.51442 21.83877
#
# Velocity S-wave (km/s) = 3.42447 3.53210 3.47870
# Velocity P-wave (km/s) = 6.96028 7.10917 7.03512
#
# Compressibility (1/GPa) = 0.01688908
#
# Stress axis : x y z
#
# Youngs Moduli (GPa) = 74.71864 55.14256 64.57233
#
# Poissons Ratio (x) = 0.22475 0.34299
# Poissons Ratio (y) = 0.30454 0.36615
# Poissons Ratio (z) = 0.39689 0.31268
#
# Static dielectric constant tensor:
#      x y z
#    x 3.666540 0.000000 0.000000 
#    y 0.000000 3.236100 0.000000 
#    z 0.000000 0.000000 3.222280 
# 
# 
# High freq. dielectric constant tensor:
#      x y z
#    x 1.696120 0.000000 0.000000 
#    y 0.000000 1.688460 0.000000 
#    z 0.000000 0.000000 1.680450 
# 
# From -- ./inp_files/21310.got.cif
#   From: 2010.03.12/outbox.cif.g09.slc.cpg/sg38_11_cif.got.tgz:21310.got - 2010.04.14 02:38:36.
