data_PCOD8178391
_publ_section_title
;
Structure prediction by ZEFSAII (Michael W. Deem and Ramdas Pophale) SiO2 
 PCOD8178391
Probable space group: A M M 2
;
_chemical_formula_sum "Si O2"
_cell_formula_units_Z 64
_cell_length_a 17.969535
_cell_length_b 14.825388
_cell_length_c 12.009071
_cell_angle_alpha 90.000000
_cell_angle_beta 90.000000
_cell_angle_gamma 90.000000
_cell_volume 3199.280505
_symmetry_space_group_name_H-M "A M M 2"
_symmetry_group_IT_number 38
_symmetry_cell_setting 'orthorhombic'
loop_
_space_group_symop_operation_xyz
x,y,z
-x,-y,z
-x,y,z
x,-y,z
x,1/2+y,1/2+z
-x,1/2-y,1/2+z
-x,1/2+y,1/2+z
x,1/2-y,1/2+z
loop_
_atom_site_type_symbol
_atom_site_label
_atom_site_fract_x
_atom_site_fract_y
_atom_site_fract_z
Si Si1 0.583015 0.367385 0.036820
Si Si2 0.086876 0.602570 0.948700
Si Si3 0.716471 0.905097 0.674422
Si Si4 0.654138 0.348557 0.808809
Si Si5 0.182846 0.601538 0.734340
Si Si6 0.697720 0.333386 0.399531
Si Si7 0.582594 0.844444 0.075612
Si Si8 0.189110 0.244636 0.559506
O O1 0.500000 0.407077 0.042189
O O2 0.630769 0.410983 0.135445
O O3 0.582438 0.261137 0.054647
O O4 0.619051 0.395392 0.917773
O O5 0.102527 0.500000 0.992031
O O6 0.119841 0.614842 0.826334
O O7 0.000000 0.622070 0.942466
O O8 0.120907 0.679086 0.029441
O O9 0.723122 0.905606 0.808397
O O10 0.750716 0.815826 0.622417
O O11 0.755151 0.000000 0.637083
O O12 0.737407 0.384350 0.791474
O O13 0.652551 0.241419 0.829125
O O14 0.604750 0.370878 0.700909
O O15 0.179259 0.500000 0.684478
O O16 0.163955 0.673256 0.637964
O O17 0.645240 0.383114 0.490970
O O18 0.770814 0.287037 0.452436
O O19 0.500000 0.884424 0.052022
#
# Coordination Sequence:
#
# PCOD8178391 Si02
#       8
#     8   8   8   8   8   8   8   8
#     4  10  20  32  50  78 111 150 199 256 312 369
#     4  10  22  40  64  96 128 159 196 242 300 361
#     4  12  23  36  57  85 117 157 201 253 307 365
#     4  11  17  36  57  83 111 151 205 253 307 358
#     4  11  22  37  64  91 121 157 199 253 301 357
#     4  11  19  36  56  83 114 156 201 254 300 369
#     4  10  19  32  56  81 111 157 208 257 311 367
#     4  12  20  41  62  89 121 157 204 244 298 359
#
# _framework density 20.004498999999999
#
# number of rings (size 3 to 8) (size 9 to 14) (size 15 to 20)
#    0.000    1.125    7.500    0.750    0.000    3.750 
#    0.000    0.000    0.000    1.875    0.000    0.000 
#    0.000    0.000    0.000    0.000    0.000    0.000 
#
# Total GULP energy -396650.110911 kJ/mol
# GULP energy per Si atom -12395.315966 kJ/mol
# Density = 1.995897 g / cm^3
# Si number density = 20.004499 Si / 1000 Ang^3
#
#
#
# Elastic Constant Matrix: (Units=GPa)
#
#
# Indices 1 2 3 4 5 6 
#
# 1 130.8377 38.1510 56.6175 0.0000 0.0000 0.0000
# 2 38.1510 103.3756 45.7815 0.0000 0.0000 0.0000
# 3 56.6175 45.7815 120.1774 0.0000 0.0000 0.0000
# 4 0.0000 0.0000 0.0000 6.3556 0.0000 0.0000
# 5 0.0000 0.0000 0.0000 0.0000 24.2271 0.0000
# 6 0.0000 0.0000 0.0000 0.0000 0.0000 -36.8035
#
#
#
# Elastic Compliance Matrix: (Units=1/GPa)
#
#
# Indices 1 2 3 4 5 6 
#
# 1 0.009904 -0.001911 -0.003938 0.000000 0.000000 0.000000
# 2 -0.001911 0.012005 -0.003673 0.000000 0.000000 0.000000
# 3 -0.003938 -0.003673 0.011576 0.000000 0.000000 0.000000
# 4 0.000000 0.000000 0.000000 0.157342 0.000000 0.000000
# 5 0.000000 0.000000 0.000000 0.000000 0.041276 0.000000
# 6 0.000000 0.000000 0.000000 0.000000 0.000000 -0.027171
#
#
# Mechanical properties :
#
#
# Convention : Reuss Voigt Hill
#
# Bulk Modulus (GPa) = 69.24831 70.61008 69.92920
# Shear Modulus (GPa) = 21.85401 13.01187 17.43294
#
# Velocity S-wave (km/s) = 3.30882 2.55315 2.95524
# Velocity P-wave (km/s) = 7.02063 6.63816 6.83207
#
# Compressibility (1/GPa) = 0.01444079
#
# Stress axis : x y z
#
# Youngs Moduli (GPa) = 100.96437 83.29521 86.38869
#
# Poissons Ratio (x) = 0.15920 0.34021
# Poissons Ratio (y) = 0.19297 0.31731
# Poissons Ratio (z) = 0.39761 0.30595
#
# Static dielectric constant tensor:
#      x y z
#    x 3.614320 0.000000 0.000000 
#    y 0.000000 3.597600 0.000000 
#    z 0.000000 0.000000 3.746780 
# 
# 
# High freq. dielectric constant tensor:
#      x y z
#    x 1.758370 0.000000 0.000000 
#    y 0.000000 1.776610 0.000000 
#    z 0.000000 0.000000 1.782600 
# 
# From -- ./inp_files/10613.got.cif
#   From: 2010.03.12/outbox.cif.g09.slc.cpg/sg38_6_cif.got.tgz:10613.got - 2010.04.14 02:38:36.
