data_PCOD8178803
_publ_section_title
;
Structure prediction by ZEFSAII (Michael W. Deem and Ramdas Pophale) SiO2 
 PCOD8178803
Probable space group: A M M 2
;
_chemical_formula_sum "Si O2"
_cell_formula_units_Z 64
_cell_length_a 9.066874
_cell_length_b 27.998682
_cell_length_c 14.658328
_cell_angle_alpha 90.000000
_cell_angle_beta 90.000000
_cell_angle_gamma 90.000000
_cell_volume 3721.170796
_symmetry_space_group_name_H-M "A M M 2"
_symmetry_group_IT_number 38
_symmetry_cell_setting 'orthorhombic'
loop_
_space_group_symop_operation_xyz
x,y,z
-x,-y,z
-x,y,z
x,-y,z
x,1/2+y,1/2+z
-x,1/2-y,1/2+z
-x,1/2+y,1/2+z
x,1/2-y,1/2+z
loop_
_atom_site_type_symbol
_atom_site_label
_atom_site_fract_x
_atom_site_fract_y
_atom_site_fract_z
Si Si1 0.171825 0.280870 0.569290
Si Si2 0.175806 0.552639 0.564234
Si Si3 0.826515 0.820654 0.758503
Si Si4 0.828962 0.444485 0.769861
Si Si5 0.173480 0.635594 0.440230
Si Si6 0.673601 0.865094 0.383976
Si Si7 0.829616 0.828182 0.553940
Si Si8 0.674330 0.721560 0.754991
O O1 0.224014 0.315811 0.489238
O O2 0.205765 0.227382 0.536262
O O3 0.265118 0.295094 0.657533
O O4 0.000000 0.286612 0.594346
O O5 0.236933 0.500000 0.539625
O O6 0.224150 0.567107 0.666594
O O7 0.244810 0.589719 0.490738
O O8 0.000000 0.551851 0.561161
O O9 0.780619 0.860505 0.833763
O O10 0.784817 0.840488 0.658573
O O11 0.743962 0.771905 0.783487
O O12 0.000000 0.808839 0.762952
O O13 0.800825 0.500000 0.792134
O O14 0.736261 0.413022 0.839643
O O15 0.000000 0.431545 0.781597
O O16 0.000000 0.630047 0.449055
O O17 0.500000 0.870181 0.388071
O O18 0.733543 0.860564 0.486925
O O19 0.723035 0.818470 0.327527
O O20 0.000000 0.839826 0.535963
O O21 0.500000 0.727233 0.749924
#
# Coordination Sequence:
#
# PCOD8178803 Si02
#       8
#     8   8   8   8   8   8   8   8
#     4   9  17  29  47  70  93 122 158 193 232 276
#     4   8  14  25  44  73 102 121 141 177 228 279
#     4   9  18  32  48  66  90 123 161 197 232 269
#     4   9  18  33  53  75  97 121 150 187 231 278
#     4   9  15  25  45  69  92 120 154 189 225 271
#     4  11  22  32  46  69  95 126 160 192 233 282
#     4   9  18  31  46  64  88 120 159 201 237 271
#     4  10  20  31  43  65  97 127 155 190 232 278
#
# _framework density 17.198889000000001
#
# number of rings (size 3 to 8) (size 9 to 14) (size 15 to 20)
#    0.000    2.750    0.000    3.750    0.000    6.250 
#    0.000    0.625    0.000    1.500    0.000    3.500 
#    0.000    0.000    0.000    0.000    0.000    0.000 
#
# Total GULP energy -396704.122814 kJ/mol
# GULP energy per Si atom -12397.003838 kJ/mol
# Density = 1.715974 g / cm^3
# Si number density = 17.198889 Si / 1000 Ang^3
#
#
#
# Elastic Constant Matrix: (Units=GPa)
#
#
# Indices 1 2 3 4 5 6 
#
# 1 43.4066 31.2447 36.5217 0.0000 0.0000 0.0000
# 2 31.2447 94.7333 81.0297 0.0000 0.0000 0.0000
# 3 36.5217 81.0297 139.4043 0.0000 0.0000 0.0000
# 4 0.0000 0.0000 0.0000 29.5366 0.0000 0.0000
# 5 0.0000 0.0000 0.0000 0.0000 14.5147 0.0000
# 6 0.0000 0.0000 0.0000 0.0000 0.0000 15.7879
#
#
#
# Elastic Compliance Matrix: (Units=1/GPa)
#
#
# Indices 1 2 3 4 5 6 
#
# 1 0.031514 -0.006626 -0.004404 0.000000 0.000000 0.000000
# 2 -0.006626 0.022387 -0.011276 0.000000 0.000000 0.000000
# 3 -0.004404 -0.011276 0.014882 0.000000 0.000000 0.000000
# 4 0.000000 0.000000 0.000000 0.033856 0.000000 0.000000
# 5 0.000000 0.000000 0.000000 0.000000 0.068896 0.000000
# 6 0.000000 0.000000 0.000000 0.000000 0.000000 0.063340
#
#
# Mechanical properties :
#
#
# Convention : Reuss Voigt Hill
#
# Bulk Modulus (GPa) = 41.37780 63.90404 52.64092
# Shear Modulus (GPa) = 17.38864 20.55104 18.96984
#
# Velocity S-wave (km/s) = 3.18312 3.46049 3.32470
# Velocity P-wave (km/s) = 6.13354 7.29405 6.73883
#
# Compressibility (1/GPa) = 0.02416755
#
# Stress axis : x y z
#
# Youngs Moduli (GPa) = 31.73230 44.66945 67.19652
#
# Poissons Ratio (x) = 0.29600 0.29596
# Poissons Ratio (y) = 0.21027 0.75773
# Poissons Ratio (z) = 0.13976 0.50371
#
# Static dielectric constant tensor:
#      x y z
#    x 2.904230 0.000000 0.000000 
#    y 0.000000 3.224440 0.000000 
#    z 0.000000 0.000000 3.373400 
# 
# 
# High freq. dielectric constant tensor:
#      x y z
#    x 1.635080 0.000000 0.000000 
#    y 0.000000 1.647010 0.000000 
#    z 0.000000 0.000000 1.667700 
# 
# From -- ./inp_files/13112.got.cif
#   From: 2010.03.12/outbox.cif.g09.slc.cpg/sg38_7_cif.got.tgz:13112.got - 2010.04.14 02:38:36.
