data_PCOD8178006
_publ_section_title
;
Structure prediction by ZEFSAII (Michael W. Deem and Ramdas Pophale) SiO2 
 PCOD8178006
Probable space group: A M M 2
;
_chemical_formula_sum "Si O2"
_cell_formula_units_Z 64
_cell_length_a 9.464118
_cell_length_b 15.667417
_cell_length_c 23.385374
_cell_angle_alpha 90.000000
_cell_angle_beta 90.000000
_cell_angle_gamma 90.000000
_cell_volume 3467.543110
_symmetry_space_group_name_H-M "A M M 2"
_symmetry_group_IT_number 38
_symmetry_cell_setting 'orthorhombic'
loop_
_space_group_symop_operation_xyz
x,y,z
-x,-y,z
-x,y,z
x,-y,z
x,1/2+y,1/2+z
-x,1/2-y,1/2+z
-x,1/2+y,1/2+z
x,1/2-y,1/2+z
loop_
_atom_site_type_symbol
_atom_site_label
_atom_site_fract_x
_atom_site_fract_y
_atom_site_fract_z
Si Si1 0.334113 0.097124 0.486250
Si Si2 0.667180 0.266823 0.545526
Si Si3 0.164398 0.859957 0.835348
Si Si4 0.659489 0.592155 0.231914
Si Si5 0.665498 0.099194 0.949671
Si Si6 0.160001 0.816903 0.274004
Si Si7 0.334279 0.737248 0.672262
Si Si8 0.846436 0.902693 0.382649
O O1 0.500000 0.098282 0.477122
O O2 0.284788 0.169396 0.531202
O O3 0.268828 0.131967 0.426831
O O4 0.286170 0.000000 0.503903
O O5 0.500000 0.269072 0.547234
O O6 0.719762 0.339803 0.501566
O O7 0.725305 0.285702 0.609392
O O8 0.237659 0.915714 0.786175
O O9 0.242308 0.876492 0.894908
O O10 0.185612 0.763108 0.815751
O O11 0.000000 0.885627 0.841204
O O12 0.500000 0.611321 0.253745
O O13 0.665676 0.500000 0.200411
O O14 0.705508 0.664404 0.186730
O O15 0.500000 0.115651 0.936577
O O16 0.690389 0.000000 0.966551
O O17 0.259889 0.822496 0.219032
O O18 0.199958 0.894446 0.316283
O O19 0.000000 0.819947 0.251090
O O20 0.500000 0.720387 0.676061
O O21 0.000000 0.856193 0.390890
O O22 0.866111 0.000000 0.397688
#
# Coordination Sequence:
#
# PCOD8178006 Si02
#       8
#     8   8   8   8   8   8   8   8
#     4   9  17  29  48  74  99 121 148 186 232 279
#     4   9  18  33  50  68  93 124 157 194 233 270
#     4  10  19  30  47  71  97 122 149 187 234 279
#     4   9  17  29  46  69  95 121 149 182 223 275
#     4  10  20  33  49  68  92 125 161 193 228 273
#     4   9  18  32  48  68  94 122 151 186 232 279
#     4   9  18  32  49  67  88 119 158 193 225 267
#     4   9  17  30  48  69  94 122 150 183 227 280
#
# _framework density 18.456873000000002
#
# number of rings (size 3 to 8) (size 9 to 14) (size 15 to 20)
#    0.000    2.750    0.000    1.500    0.000    3.500 
#    0.000    4.375    0.000    0.750    0.000    1.750 
#    0.000    0.000    0.000    0.000    0.000    0.000 
#
# Total GULP energy -396476.052207 kJ/mol
# GULP energy per Si atom -12389.876631 kJ/mol
# Density = 1.841486 g / cm^3
# Si number density = 18.456873 Si / 1000 Ang^3
#
#
#
# Elastic Constant Matrix: (Units=GPa)
#
#
# Indices 1 2 3 4 5 6 
#
# 1 52.1799 19.8523 42.9329 0.0000 0.0000 0.0000
# 2 19.8523 49.7172 35.7557 0.0000 0.0000 0.0000
# 3 42.9329 35.7557 128.7183 0.0000 0.0000 0.0000
# 4 0.0000 0.0000 0.0000 19.4672 0.0000 0.0000
# 5 0.0000 0.0000 0.0000 0.0000 8.4539 0.0000
# 6 0.0000 0.0000 0.0000 0.0000 0.0000 15.9441
#
#
#
# Elastic Compliance Matrix: (Units=1/GPa)
#
#
# Indices 1 2 3 4 5 6 
#
# 1 0.027563 -0.005491 -0.007668 0.000000 0.000000 0.000000
# 2 -0.005491 0.026229 -0.005454 0.000000 0.000000 0.000000
# 3 -0.007668 -0.005454 0.011842 0.000000 0.000000 0.000000
# 4 0.000000 0.000000 0.000000 0.051368 0.000000 0.000000
# 5 0.000000 0.000000 0.000000 0.000000 0.118288 0.000000
# 6 0.000000 0.000000 0.000000 0.000000 0.000000 0.062719
#
#
# Mechanical properties :
#
#
# Convention : Reuss Voigt Hill
#
# Bulk Modulus (GPa) = 35.20357 47.52191 41.36274
# Shear Modulus (GPa) = 14.50513 17.57801 16.04157
#
# Velocity S-wave (km/s) = 2.80642 3.08942 2.95131
# Velocity P-wave (km/s) = 5.44207 6.20721 5.83719
#
# Compressibility (1/GPa) = 0.02840621
#
# Stress axis : x y z
#
# Youngs Moduli (GPa) = 36.28081 38.12548 84.44792
#
# Poissons Ratio (x) = 0.20936 0.64754
# Poissons Ratio (y) = 0.19923 0.46061
# Poissons Ratio (z) = 0.27820 0.20795
#
# Static dielectric constant tensor:
#      x y z
#    x 3.490140 0.000000 0.000000 
#    y 0.000000 3.547260 0.000000 
#    z 0.000000 0.000000 3.448200 
# 
# 
# High freq. dielectric constant tensor:
#      x y z
#    x 1.698540 0.000000 0.000000 
#    y 0.000000 1.712140 0.000000 
#    z 0.000000 0.000000 1.705030 
# 
# From -- ./inp_files/20076.got.cif
#   From: 2010.03.12/outbox.cif.g09.slc.cpg/sg38_11_cif.got.tgz:20076.got - 2010.04.14 02:38:36.
