data_PCOD8178882
_publ_section_title
;
Structure prediction by ZEFSAII (Michael W. Deem and Ramdas Pophale) SiO2 
 PCOD8178882
Probable space group: A M M 2
;
_chemical_formula_sum "Si O2"
_cell_formula_units_Z 48
_cell_length_a 9.316212
_cell_length_b 7.711280
_cell_length_c 34.248542
_cell_angle_alpha 90.000000
_cell_angle_beta 90.000000
_cell_angle_gamma 90.000000
_cell_volume 2460.412492
_symmetry_space_group_name_H-M "A M M 2"
_symmetry_group_IT_number 38
_symmetry_cell_setting 'orthorhombic'
loop_
_space_group_symop_operation_xyz
x,y,z
-x,-y,z
-x,y,z
x,-y,z
x,1/2+y,1/2+z
-x,1/2-y,1/2+z
-x,1/2+y,1/2+z
x,1/2-y,1/2+z
loop_
_atom_site_type_symbol
_atom_site_label
_atom_site_fract_x
_atom_site_fract_y
_atom_site_fract_z
Si Si1 0.329334 0.691868 0.626400
Si Si2 0.158003 0.698902 0.967048
Si Si3 0.834074 0.698647 0.820004
Si Si4 0.339412 0.705865 0.895961
Si Si5 0.165872 0.500000 0.260641
Si Si6 0.671143 0.500000 0.180431
Si Si7 0.339062 0.203836 0.039324
O O1 0.500000 0.685319 0.626753
O O2 0.268602 0.500000 0.636914
O O3 0.271387 0.830198 0.657631
O O4 0.281602 0.747853 0.582799
O O5 0.138201 0.500000 0.955796
O O6 0.255476 0.786273 0.933252
O O7 0.000000 0.787600 0.968354
O O8 0.232032 0.709647 0.009001
O O9 0.797531 0.500000 0.807855
O O10 0.741182 0.761844 0.856640
O O11 0.000000 0.715811 0.832135
O O12 0.796750 0.825792 0.784446
O O13 0.500000 0.783937 0.895476
O O14 0.346148 0.500000 0.899092
O O15 0.265400 0.500000 0.223205
O O16 0.000000 0.500000 0.248026
O O17 0.500000 0.500000 0.183077
O O18 0.500000 0.278714 0.033186
O O19 0.340762 0.000000 0.032689
#
# Coordination Sequence:
#
# PCOD8178882 Si02
#       7
#     8   8   8   8   4   4   8
#     4   8  16  32  53  78 106 136 174 220 267 318
#     4  10  20  32  48  74 107 142 179 218 261 316
#     4   9  18  35  57  76 101 140 177 213 264 322
#     4   9  17  31  52  77 103 134 176 221 263 309
#     4  10  22  38  54  80 112 138 172 218 266 322
#     4  10  20  34  56  82 106 138 176 216 268 322
#     4   9  18  33  52  74 101 134 177 225 269 314
#
# _framework density 19.508925000000001
#
# number of rings (size 3 to 8) (size 9 to 14) (size 15 to 20)
#    0.000    2.833    0.000    2.000    1.167    4.667 
#    1.500    0.833    0.000    1.000    0.000    0.000 
#    0.000    0.000    0.000    0.000    0.000    0.000 
#
# Total GULP energy -297529.750355 kJ/mol
# GULP energy per Si atom -12397.072931 kJ/mol
# Density = 1.946452 g / cm^3
# Si number density = 19.508925 Si / 1000 Ang^3
#
#
#
# Elastic Constant Matrix: (Units=GPa)
#
#
# Indices 1 2 3 4 5 6 
#
# 1 104.5113 32.6509 73.4324 0.0000 0.0000 0.0000
# 2 32.6509 76.6732 58.6584 0.0000 0.0000 0.0000
# 3 73.4324 58.6584 157.2942 0.0000 0.0000 0.0000
# 4 0.0000 0.0000 0.0000 0.2048 0.0000 0.0000
# 5 0.0000 0.0000 0.0000 0.0000 15.1752 0.0000
# 6 0.0000 0.0000 0.0000 0.0000 0.0000 12.4458
#
#
#
# Elastic Compliance Matrix: (Units=1/GPa)
#
#
# Indices 1 2 3 4 5 6 
#
# 1 0.014342 -0.001378 -0.006182 0.000000 0.000000 0.000000
# 2 -0.001378 0.018381 -0.006211 0.000000 0.000000 0.000000
# 3 -0.006182 -0.006211 0.011560 0.000000 0.000000 0.000000
# 4 0.000000 0.000000 0.000000 4.881665 0.000000 0.000000
# 5 0.000000 0.000000 0.000000 0.000000 0.065897 0.000000
# 6 0.000000 0.000000 0.000000 0.000000 0.000000 0.080348
#
#
# Mechanical properties :
#
#
# Convention : Reuss Voigt Hill
#
# Bulk Modulus (GPa) = 59.73464 74.21802 66.97633
# Shear Modulus (GPa) = 0.97937 17.14765 9.06351
#
# Velocity S-wave (km/s) = 0.70930 2.96795 2.15776
# Velocity P-wave (km/s) = 5.59968 7.06192 6.37288
#
# Compressibility (1/GPa) = 0.01674071
#
# Stress axis : x y z
#
# Youngs Moduli (GPa) = 69.72347 54.40330 86.50714
#
# Poissons Ratio (x) = 0.07499 0.53476
# Poissons Ratio (y) = 0.09610 0.53732
# Poissons Ratio (z) = 0.43101 0.33791
#
# Static dielectric constant tensor:
#      x y z
#    x 3.549950 0.000000 0.000000 
#    y 0.000000 3.642800 0.000000 
#    z 0.000000 0.000000 3.513040 
# 
# 
# High freq. dielectric constant tensor:
#      x y z
#    x 1.740520 0.000000 0.000000 
#    y 0.000000 1.751910 0.000000 
#    z 0.000000 0.000000 1.756450 
# 
# From -- ./inp_files/24367.got.cif
#   From: 2010.03.12/outbox.cif.g09.slc.cpg/sg38_13_cif.got.tgz:24367.got - 2010.04.14 02:38:36.
