data_PCOD8178501
_publ_section_title
;
Structure prediction by ZEFSAII (Michael W. Deem and Ramdas Pophale) SiO2 
 PCOD8178501
Probable space group: A M M 2
;
_chemical_formula_sum "Si O2"
_cell_formula_units_Z 64
_cell_length_a 9.046628
_cell_length_b 27.216633
_cell_length_c 13.150799
_cell_angle_alpha 90.000000
_cell_angle_beta 90.000000
_cell_angle_gamma 90.000000
_cell_volume 3237.973346
_symmetry_space_group_name_H-M "A M M 2"
_symmetry_group_IT_number 38
_symmetry_cell_setting 'orthorhombic'
loop_
_space_group_symop_operation_xyz
x,y,z
-x,-y,z
-x,y,z
x,-y,z
x,1/2+y,1/2+z
-x,1/2-y,1/2+z
-x,1/2+y,1/2+z
x,1/2-y,1/2+z
loop_
_atom_site_type_symbol
_atom_site_label
_atom_site_fract_x
_atom_site_fract_y
_atom_site_fract_z
Si Si1 0.666031 0.227807 0.520130
Si Si2 0.825022 0.771368 0.848557
Si Si3 0.824612 0.892541 0.155721
Si Si4 0.175279 0.054975 0.362094
Si Si5 0.666053 0.204644 0.203499
Si Si6 0.824123 0.055133 0.949003
Si Si7 0.824929 0.625775 0.041886
Si Si8 0.825340 0.124078 0.770656
O O1 0.500000 0.222887 0.476049
O O2 0.759050 0.269831 0.461488
O O3 0.662124 0.246951 0.634407
O O4 0.746288 0.175933 0.513035
O O5 0.760704 0.721225 0.800378
O O6 0.768596 0.820866 0.793837
O O7 0.000000 0.768321 0.849923
O O8 0.769477 0.920070 0.257729
O O9 0.746227 0.840236 0.148444
O O10 0.772632 0.922827 0.056881
O O11 0.000000 0.884822 0.156387
O O12 0.229060 0.084925 0.461352
O O13 0.000000 0.052567 0.360826
O O14 0.241546 0.000000 0.368839
O O15 0.500000 0.189113 0.234692
O O16 0.000000 0.054738 0.944539
O O17 0.761200 0.000000 0.939727
O O18 0.758530 0.086479 0.854142
O O19 0.778430 0.608822 0.156086
O O20 0.000000 0.634648 0.035698
O O21 0.000000 0.123306 0.781645
#
# Coordination Sequence:
#
# PCOD8178501 Si02
#       8
#     8   8   8   8   8   8   8   8
#     4  11  23  37  54  79 113 149 186 229 279 337
#     4  11  21  35  56  80 111 147 187 233 275 330
#     4  10  19  33  55  82 111 144 187 235 284 338
#     4   9  18  32  53  82 110 139 179 231 288 335
#     4  11  23  37  54  80 113 149 187 226 279 338
#     4   9  17  30  51  80 112 144 182 235 291 336
#     4  10  19  34  55  79 110 146 188 232 278 334
#     4   9  18  31  49  77 109 142 183 229 278 331
#
# _framework density 19.765450000000001
#
# number of rings (size 3 to 8) (size 9 to 14) (size 15 to 20)
#    0.000    2.000    1.250    3.000    0.000    5.500 
#    0.000    2.500    0.000    2.625    0.000    0.000 
#    0.000    0.000    0.000    0.000    0.000    0.000 
#
# Total GULP energy -396740.540822 kJ/mol
# GULP energy per Si atom -12398.141901 kJ/mol
# Density = 1.972046 g / cm^3
# Si number density = 19.765450 Si / 1000 Ang^3
#
#
#
# Elastic Constant Matrix: (Units=GPa)
#
#
# Indices 1 2 3 4 5 6 
#
# 1 53.7825 33.8270 28.4766 0.0000 0.0000 0.0000
# 2 33.8270 134.0077 67.0180 0.0000 0.0000 0.0000
# 3 28.4766 67.0180 148.0838 0.0000 0.0000 0.0000
# 4 0.0000 0.0000 0.0000 40.0369 0.0000 0.0000
# 5 0.0000 0.0000 0.0000 0.0000 15.3100 0.0000
# 6 0.0000 0.0000 0.0000 0.0000 0.0000 8.7832
#
#
#
# Elastic Compliance Matrix: (Units=1/GPa)
#
#
# Indices 1 2 3 4 5 6 
#
# 1 0.022687 -0.004582 -0.002289 0.000000 0.000000 0.000000
# 2 -0.004582 0.010571 -0.003903 0.000000 0.000000 0.000000
# 3 -0.002289 -0.003903 0.008959 0.000000 0.000000 0.000000
# 4 0.000000 0.000000 0.000000 0.024977 0.000000 0.000000
# 5 0.000000 0.000000 0.000000 0.000000 0.065317 0.000000
# 6 0.000000 0.000000 0.000000 0.000000 0.000000 0.113854
#
#
# Mechanical properties :
#
#
# Convention : Reuss Voigt Hill
#
# Bulk Modulus (GPa) = 48.38045 66.05748 57.21896
# Shear Modulus (GPa) = 18.19484 26.59617 22.39550
#
# Velocity S-wave (km/s) = 3.03733 3.67221 3.36975
# Velocity P-wave (km/s) = 6.06885 7.17449 6.64471
#
# Compressibility (1/GPa) = 0.02066950
#
# Stress axis : x y z
#
# Youngs Moduli (GPa) = 44.07734 94.60085 111.61436
#
# Poissons Ratio (x) = 0.43347 0.25549
# Poissons Ratio (y) = 0.20197 0.43561
# Poissons Ratio (z) = 0.10090 0.36921
#
# Static dielectric constant tensor:
#      x y z
#    x 3.190610 0.000000 0.000000 
#    y 0.000000 3.671740 0.000000 
#    z 0.000000 0.000000 3.845720 
# 
# 
# High freq. dielectric constant tensor:
#      x y z
#    x 1.725200 0.000000 0.000000 
#    y 0.000000 1.771140 0.000000 
#    z 0.000000 0.000000 1.787620 
# 
# From -- ./inp_files/12780.got.cif
#   From: 2010.03.12/outbox.cif.g09.slc.cpg/sg38_7_cif.got.tgz:12780.got - 2010.04.14 02:38:36.
