data_PCOD8178305
_publ_section_title
;
Structure prediction by ZEFSAII (Michael W. Deem and Ramdas Pophale) SiO2 
 PCOD8178305
Probable space group: A M M 2
;
_chemical_formula_sum "Si O2"
_cell_formula_units_Z 64
_cell_length_a 20.626208
_cell_length_b 8.832895
_cell_length_c 18.888769
_cell_angle_alpha 90.000000
_cell_angle_beta 90.000000
_cell_angle_gamma 90.000000
_cell_volume 3441.328382
_symmetry_space_group_name_H-M "A M M 2"
_symmetry_group_IT_number 38
_symmetry_cell_setting 'orthorhombic'
loop_
_space_group_symop_operation_xyz
x,y,z
-x,-y,z
-x,y,z
x,-y,z
x,1/2+y,1/2+z
-x,1/2-y,1/2+z
-x,1/2+y,1/2+z
x,1/2-y,1/2+z
loop_
_atom_site_type_symbol
_atom_site_label
_atom_site_fract_x
_atom_site_fract_y
_atom_site_fract_z
Si Si1 0.929025 0.675981 0.607120
Si Si2 0.207236 0.824122 0.448346
Si Si3 0.319058 0.178441 0.193407
Si Si4 0.574961 0.677708 0.098957
Si Si5 0.068839 0.673595 0.959374
Si Si6 0.676449 0.679394 0.855893
Si Si7 0.201182 0.321613 0.110870
Si Si8 0.575208 0.823984 0.952711
O O1 0.913062 0.500000 0.617005
O O2 0.933828 0.713192 0.524526
O O3 0.869708 0.771647 0.640631
O O4 0.000000 0.714414 0.641730
O O5 0.134803 0.789915 0.415582
O O6 0.262240 0.749694 0.399178
O O7 0.209683 0.766574 0.529458
O O8 0.222248 0.000000 0.447479
O O9 0.384198 0.249275 0.161710
O O10 0.315398 0.227248 0.274936
O O11 0.255447 0.240574 0.156216
O O12 0.322082 0.000000 0.183578
O O13 0.500000 0.719477 0.112068
O O14 0.587110 0.500000 0.097916
O O15 0.599500 0.742765 0.024139
O O16 0.075303 0.500000 0.987862
O O17 0.000000 0.690904 0.916351
O O18 0.670363 0.500000 0.863868
O O19 0.611710 0.755399 0.885569
O O20 0.208901 0.500000 0.118728
O O21 0.500000 0.791365 0.939595
O O22 0.590428 0.000000 0.960532
#
# Coordination Sequence:
#
# PCOD8178305 Si02
#       8
#     8   8   8   8   8   8   8   8
#     4   9  16  26  43  70 103 133 163 208 265 318
#     4   8  15  29  49  72  96 126 167 210 251 300
#     4  11  23  36  52  76 107 142 179 221 265 310
#     4  10  21  38  60  82 105 136 173 214 262 317
#     4   8  13  23  42  68  96 126 163 207 253 303
#     4  10  21  36  53  74 105 143 177 213 259 311
#     4  10  19  32  53  76 100 135 177 220 264 315
#     4  10  21  37  58  83 108 133 167 214 261 308
#
# _framework density 18.597469
#
# number of rings (size 3 to 8) (size 9 to 14) (size 15 to 20)
#    0.000    2.500    0.000    3.375    0.000    4.750 
#    0.000    5.000    0.000    0.750    0.000    3.500 
#    0.000    0.000    0.000    0.000    0.000    0.000 
#
# Total GULP energy -396569.261560 kJ/mol
# GULP energy per Si atom -12392.789424 kJ/mol
# Density = 1.855514 g / cm^3
# Si number density = 18.597469 Si / 1000 Ang^3
#
#
#
# Elastic Constant Matrix: (Units=GPa)
#
#
# Indices 1 2 3 4 5 6 
#
# 1 136.6195 41.1728 72.1189 0.0000 0.0000 0.0000
# 2 41.1728 51.3636 40.0663 0.0000 0.0000 0.0000
# 3 72.1189 40.0663 94.8949 0.0000 0.0000 0.0000
# 4 0.0000 0.0000 0.0000 21.3497 0.0000 0.0000
# 5 0.0000 0.0000 0.0000 0.0000 5.1620 0.0000
# 6 0.0000 0.0000 0.0000 0.0000 0.0000 30.4472
#
#
#
# Elastic Compliance Matrix: (Units=1/GPa)
#
#
# Indices 1 2 3 4 5 6 
#
# 1 0.012743 -0.003967 -0.008010 0.000000 0.000000 0.000000
# 2 -0.003967 0.030265 -0.009764 0.000000 0.000000 0.000000
# 3 -0.008010 -0.009764 0.020748 0.000000 0.000000 0.000000
# 4 0.000000 0.000000 0.000000 0.046839 0.000000 0.000000
# 5 0.000000 0.000000 0.000000 0.000000 0.193722 0.000000
# 6 0.000000 0.000000 0.000000 0.000000 0.000000 0.032844
#
#
# Mechanical properties :
#
#
# Convention : Reuss Voigt Hill
#
# Bulk Modulus (GPa) = 49.32106 65.51044 57.41575
# Shear Modulus (GPa) = 12.90652 20.02645 16.46649
#
# Velocity S-wave (km/s) = 2.63723 3.28508 2.97882
# Velocity P-wave (km/s) = 5.98759 7.04918 6.53996
#
# Compressibility (1/GPa) = 0.02027532
#
# Stress axis : x y z
#
# Youngs Moduli (GPa) = 78.47212 33.04136 48.19785
#
# Poissons Ratio (x) = 0.13107 0.38606
# Poissons Ratio (y) = 0.31129 0.47059
# Poissons Ratio (z) = 0.62856 0.32261
#
# Static dielectric constant tensor:
#      x y z
#    x 3.925870 0.000000 0.000000 
#    y 0.000000 3.330890 0.000000 
#    z 0.000000 0.000000 3.142340 
# 
# 
# High freq. dielectric constant tensor:
#      x y z
#    x 1.750180 0.000000 0.000000 
#    y 0.000000 1.716760 0.000000 
#    z 0.000000 0.000000 1.674740 
# 
# From -- ./inp_files/18862.got.cif
#   From: 2010.03.12/outbox.cif.g09.slc.cpg/sg38_10_cif.got.tgz:18862.got - 2010.04.14 02:38:36.
