data_PCOD8178671
_publ_section_title
;
Structure prediction by ZEFSAII (Michael W. Deem and Ramdas Pophale) SiO2 
 PCOD8178671
Probable space group: A M M 2
;
_chemical_formula_sum "Si O2"
_cell_formula_units_Z 64
_cell_length_a 17.737372
_cell_length_b 14.073460
_cell_length_c 12.505680
_cell_angle_alpha 90.000000
_cell_angle_beta 90.000000
_cell_angle_gamma 90.000000
_cell_volume 3121.745319
_symmetry_space_group_name_H-M "A M M 2"
_symmetry_group_IT_number 38
_symmetry_cell_setting 'orthorhombic'
loop_
_space_group_symop_operation_xyz
x,y,z
-x,-y,z
-x,y,z
x,-y,z
x,1/2+y,1/2+z
-x,1/2-y,1/2+z
-x,1/2+y,1/2+z
x,1/2-y,1/2+z
loop_
_atom_site_type_symbol
_atom_site_label
_atom_site_fract_x
_atom_site_fract_y
_atom_site_fract_z
Si Si1 0.833363 0.108113 0.108510
Si Si2 0.310722 0.104024 0.226432
Si Si3 0.415351 0.648225 0.130028
Si Si4 0.195420 0.757461 0.929171
Si Si5 0.583377 0.857485 0.046731
Si Si6 0.914148 0.607925 0.817621
Si Si7 0.303147 0.396309 0.962492
Si Si8 0.680964 0.110743 0.837412
O O1 0.758274 0.154515 0.164125
O O2 0.903252 0.111660 0.189621
O O3 0.818598 0.000000 0.068125
O O4 0.851944 0.173883 0.006775
O O5 0.329035 0.144540 0.344866
O O6 0.277889 0.000000 0.248236
O O7 0.385539 0.096877 0.155611
O O8 0.500000 0.609153 0.152141
O O9 0.369989 0.652943 0.241461
O O10 0.419022 0.746898 0.068923
O O11 0.371881 0.584658 0.043722
O O12 0.139528 0.687592 0.867098
O O13 0.247078 0.686682 0.002201
O O14 0.243866 0.825093 0.848758
O O15 0.500000 0.898014 0.024411
O O16 0.635572 0.884077 0.947801
O O17 0.895294 0.500000 0.857553
O O18 0.000000 0.633770 0.845139
O O19 0.263537 0.500000 0.953018
O O20 0.701083 0.000000 0.813714
#
# Coordination Sequence:
#
# PCOD8178671 Si02
#       8
#     8   8   8   8   8   8   8   8
#     4  10  20  38  64  94 129 166 205 256 314 378
#     4  10  19  35  57  86 120 159 208 265 322 375
#     4  11  25  42  58  84 126 174 223 276 331 385
#     4  12  22  37  67  97 129 156 211 263 311 366
#     4  11  23  38  60  87 120 163 218 277 328 375
#     4  10  23  44  70  99 131 166 202 246 313 391
#     4  11  22  37  61  89 122 165 216 272 332 382
#     4  12  25  42  64  92 129 176 221 264 324 391
#
# _framework density 20.501353000000002
#
# number of rings (size 3 to 8) (size 9 to 14) (size 15 to 20)
#    0.000    1.125    3.750    2.625    1.750    3.500 
#    0.000    1.250    0.000    1.125    0.000    0.000 
#    0.000    0.000    0.000    0.000    0.000    0.000 
#
# Total GULP energy -396456.423254 kJ/mol
# GULP energy per Si atom -12389.263227 kJ/mol
# Density = 2.045469 g / cm^3
# Si number density = 20.501353 Si / 1000 Ang^3
#
#
#
# Elastic Constant Matrix: (Units=GPa)
#
#
# Indices 1 2 3 4 5 6 
#
# 1 108.2916 43.8015 30.9161 0.0000 0.0000 0.0000
# 2 43.8015 113.4003 34.5628 0.0000 0.0000 0.0000
# 3 30.9161 34.5628 98.8371 0.0000 0.0000 0.0000
# 4 0.0000 0.0000 0.0000 31.8219 0.0000 0.0000
# 5 0.0000 0.0000 0.0000 0.0000 25.7226 0.0000
# 6 0.0000 0.0000 0.0000 0.0000 0.0000 20.1669
#
#
#
# Elastic Compliance Matrix: (Units=1/GPa)
#
#
# Indices 1 2 3 4 5 6 
#
# 1 0.011379 -0.003705 -0.002264 0.000000 0.000000 0.000000
# 2 -0.003705 0.011077 -0.002714 0.000000 0.000000 0.000000
# 3 -0.002264 -0.002714 0.011775 0.000000 0.000000 0.000000
# 4 0.000000 0.000000 0.000000 0.031425 0.000000 0.000000
# 5 0.000000 0.000000 0.000000 0.000000 0.038876 0.000000
# 6 0.000000 0.000000 0.000000 0.000000 0.000000 0.049586
#
#
# Mechanical properties :
#
#
# Convention : Reuss Voigt Hill
#
# Bulk Modulus (GPa) = 59.29767 59.89887 59.59827
# Shear Modulus (GPa) = 28.23151 29.62552 28.92851
#
# Velocity S-wave (km/s) = 3.71490 3.80551 3.76047
# Velocity P-wave (km/s) = 6.88383 6.97063 6.92737
#
# Compressibility (1/GPa) = 0.01686407
#
# Stress axis : x y z
#
# Youngs Moduli (GPa) = 87.87866 90.27808 84.92584
#
# Poissons Ratio (x) = 0.33452 0.19225
# Poissons Ratio (y) = 0.32562 0.23053
# Poissons Ratio (z) = 0.19893 0.24506
#
# Static dielectric constant tensor:
#      x y z
#    x 3.655380 0.000000 0.000000 
#    y 0.000000 3.932230 0.000000 
#    z 0.000000 0.000000 3.721200 
# 
# 
# High freq. dielectric constant tensor:
#      x y z
#    x 1.771510 0.000000 0.000000 
#    y 0.000000 1.820250 0.000000 
#    z 0.000000 0.000000 1.796670 
# 
# From -- ./inp_files/10626.got.cif
#   From: 2010.03.12/outbox.cif.g09.slc.cpg/sg38_6_cif.got.tgz:10626.got - 2010.04.14 02:38:36.
