data_PCOD8178568
_publ_section_title
;
Structure prediction by ZEFSAII (Michael W. Deem and Ramdas Pophale) SiO2 
 PCOD8178568
Probable space group: A M M 2
;
_chemical_formula_sum "Si O2"
_cell_formula_units_Z 64
_cell_length_a 9.253499
_cell_length_b 24.961229
_cell_length_c 14.913785
_cell_angle_alpha 90.000000
_cell_angle_beta 90.000000
_cell_angle_gamma 90.000000
_cell_volume 3444.766785
_symmetry_space_group_name_H-M "A M M 2"
_symmetry_group_IT_number 38
_symmetry_cell_setting 'orthorhombic'
loop_
_space_group_symop_operation_xyz
x,y,z
-x,-y,z
-x,y,z
x,-y,z
x,1/2+y,1/2+z
-x,1/2-y,1/2+z
-x,1/2+y,1/2+z
x,1/2-y,1/2+z
loop_
_atom_site_type_symbol
_atom_site_label
_atom_site_fract_x
_atom_site_fract_y
_atom_site_fract_z
Si Si1 0.333241 0.239476 0.845650
Si Si2 0.169983 0.155130 0.314244
Si Si3 0.663925 0.778955 0.637639
Si Si4 0.164397 0.176528 0.116066
Si Si5 0.833785 0.939698 0.441888
Si Si6 0.329133 0.397827 0.109705
Si Si7 0.333866 0.437248 0.303267
Si Si8 0.167594 0.858135 0.926469
O O1 0.500000 0.243069 0.876262
O O2 0.259214 0.297062 0.860203
O O3 0.319573 0.220099 0.744125
O O4 0.248038 0.196695 0.903895
O O5 0.216372 0.149769 0.209492
O O6 0.215858 0.100221 0.362862
O O7 0.000000 0.166852 0.324408
O O8 0.500000 0.769763 0.608464
O O9 0.752497 0.731249 0.593138
O O10 0.719945 0.835989 0.601082
O O11 0.000000 0.194520 0.126255
O O12 0.184148 0.134686 0.034383
O O13 0.743023 0.931670 0.531617
O O14 0.000000 0.929577 0.466687
O O15 0.808295 0.000000 0.406611
O O16 0.500000 0.404253 0.101471
O O17 0.276757 0.421200 0.205018
O O18 0.500000 0.418725 0.314446
O O19 0.316069 0.500000 0.317864
O O20 0.239103 0.408795 0.379003
O O21 0.000000 0.854212 0.898171
#
# Coordination Sequence:
#
# PCOD8178568 Si02
#       8
#     8   8   8   8   8   8   8   8
#     4  10  19  34  55  80 110 143 181 222 269 328
#     4   9  19  38  58  78 108 144 185 230 277 326
#     4   9  18  33  53  79 109 142 180 217 264 323
#     4   9  20  36  54  78 111 147 182 222 273 326
#     4  10  22  38  56  80 109 143 186 232 278 328
#     4  10  20  36  56  81 111 145 183 223 272 329
#     4  10  21  39  60  80 109 150 189 226 272 327
#     4  11  22  35  54  83 115 146 183 227 275 323
#
# _framework density 18.578907000000001
#
# number of rings (size 3 to 8) (size 9 to 14) (size 15 to 20)
#    0.000    2.250    1.250    1.125    1.750    4.000 
#    0.000    0.625    0.000    2.250    0.000    0.000 
#    0.000    0.000    0.000    0.000    0.000    0.000 
#
# Total GULP energy -396824.606207 kJ/mol
# GULP energy per Si atom -12400.768944 kJ/mol
# Density = 1.853662 g / cm^3
# Si number density = 18.578907 Si / 1000 Ang^3
#
#
#
# Elastic Constant Matrix: (Units=GPa)
#
#
# Indices 1 2 3 4 5 6 
#
# 1 71.6954 47.4907 40.4710 0.0000 0.0000 0.0000
# 2 47.4907 113.6375 56.1451 0.0000 0.0000 0.0000
# 3 40.4710 56.1451 87.5811 0.0000 0.0000 0.0000
# 4 0.0000 0.0000 0.0000 29.9600 0.0000 0.0000
# 5 0.0000 0.0000 0.0000 0.0000 23.2478 0.0000
# 6 0.0000 0.0000 0.0000 0.0000 0.0000 29.8599
#
#
#
# Elastic Compliance Matrix: (Units=1/GPa)
#
#
# Indices 1 2 3 4 5 6 
#
# 1 0.021270 -0.005902 -0.006045 0.000000 0.000000 0.000000
# 2 -0.005902 0.014517 -0.006579 0.000000 0.000000 0.000000
# 3 -0.006045 -0.006579 0.018429 0.000000 0.000000 0.000000
# 4 0.000000 0.000000 0.000000 0.033378 0.000000 0.000000
# 5 0.000000 0.000000 0.000000 0.000000 0.043015 0.000000
# 6 0.000000 0.000000 0.000000 0.000000 0.000000 0.033490
#
#
# Mechanical properties :
#
#
# Convention : Reuss Voigt Hill
#
# Bulk Modulus (GPa) = 58.26369 62.34750 60.30559
# Shear Modulus (GPa) = 24.16957 25.20068 24.68513
#
# Velocity S-wave (km/s) = 3.61073 3.68695 3.64904
# Velocity P-wave (km/s) = 6.98651 7.19415 7.09109
#
# Compressibility (1/GPa) = 0.01716335
#
# Stress axis : x y z
#
# Youngs Moduli (GPa) = 47.01488 68.88464 54.26265
#
# Poissons Ratio (x) = 0.40658 0.32802
# Poissons Ratio (y) = 0.27750 0.35699
# Poissons Ratio (z) = 0.28420 0.45319
#
# Static dielectric constant tensor:
#      x y z
#    x 3.428620 0.000000 0.000000 
#    y 0.000000 3.374220 0.000000 
#    z 0.000000 0.000000 3.471310 
# 
# 
# High freq. dielectric constant tensor:
#      x y z
#    x 1.718420 0.000000 0.000000 
#    y 0.000000 1.713500 0.000000 
#    z 0.000000 0.000000 1.722510 
# 
# From -- ./inp_files/12754.got.cif
#   From: 2010.03.12/outbox.cif.g09.slc.cpg/sg38_7_cif.got.tgz:12754.got - 2010.04.14 02:38:36.
