data_PCOD8178085
_publ_section_title
;
Structure prediction by ZEFSAII (Michael W. Deem and Ramdas Pophale) SiO2 
 PCOD8178085
Probable space group: A M M 2
;
_chemical_formula_sum "Si O2"
_cell_formula_units_Z 64
_cell_length_a 9.222394
_cell_length_b 28.182982
_cell_length_c 14.332398
_cell_angle_alpha 90.000000
_cell_angle_beta 90.000000
_cell_angle_gamma 90.000000
_cell_volume 3725.198979
_symmetry_space_group_name_H-M "A M M 2"
_symmetry_group_IT_number 38
_symmetry_cell_setting 'orthorhombic'
loop_
_space_group_symop_operation_xyz
x,y,z
-x,-y,z
-x,y,z
x,-y,z
x,1/2+y,1/2+z
-x,1/2-y,1/2+z
-x,1/2+y,1/2+z
x,1/2-y,1/2+z
loop_
_atom_site_type_symbol
_atom_site_label
_atom_site_fract_x
_atom_site_fract_y
_atom_site_fract_z
Si Si1 0.668985 0.946757 0.319930
Si Si2 0.829709 0.864803 0.643187
Si Si3 0.666429 0.359399 0.698832
Si Si4 0.168530 0.945869 0.505428
Si Si5 0.166895 0.277501 0.016461
Si Si6 0.665389 0.685128 0.511935
Si Si7 0.671858 0.819100 0.802094
Si Si8 0.830617 0.722714 0.801092
O O1 0.500000 0.945821 0.342510
O O2 0.708189 0.911996 0.234154
O O3 0.748612 0.928911 0.412984
O O4 0.719925 0.000000 0.292520
O O5 0.785672 0.913995 0.593553
O O6 0.780378 0.822481 0.575030
O O7 0.739043 0.860891 0.738840
O O8 0.000000 0.862996 0.665910
O O9 0.500000 0.347180 0.725700
O O10 0.686911 0.357495 0.586349
O O11 0.773307 0.321915 0.744672
O O12 0.000000 0.938822 0.483284
O O13 0.207301 0.000000 0.530864
O O14 0.249519 0.230701 0.050178
O O15 0.000000 0.266932 0.034626
O O16 0.199014 0.288533 0.908902
O O17 0.500000 0.701438 0.505131
O O18 0.716935 0.668942 0.409055
O O19 0.500000 0.816352 0.787981
O O20 0.744127 0.769658 0.770167
O O21 0.000000 0.730801 0.779668
#
# Coordination Sequence:
#
# PCOD8178085 Si02
#       8
#     8   8   8   8   8   8   8   8
#     4   9  18  32  50  73  99 124 152 190 236 284
#     4  10  19  31  48  70  94 122 158 194 230 276
#     4  10  19  31  48  69  93 123 158 193 232 279
#     4   9  18  33  52  73  98 126 154 188 234 286
#     4   9  18  30  44  65  94 123 150 184 226 273
#     4   9  19  33  46  62  89 123 157 192 227 268
#     4  10  20  33  47  65  92 126 161 195 232 272
#     4  10  19  31  47  69  97 125 154 190 231 276
#
# _framework density 17.180291
#
# number of rings (size 3 to 8) (size 9 to 14) (size 15 to 20)
#    0.000    2.500    0.000    2.250    0.000    6.000 
#    0.000    0.000    0.000    0.750    0.000    1.750 
#    0.000    0.000    0.000    0.000    0.000    0.000 
#
# Total GULP energy -396806.521282 kJ/mol
# GULP energy per Si atom -12400.203790 kJ/mol
# Density = 1.714119 g / cm^3
# Si number density = 17.180291 Si / 1000 Ang^3
#
#
#
# Elastic Constant Matrix: (Units=GPa)
#
#
# Indices 1 2 3 4 5 6 
#
# 1 54.4038 38.8099 41.2731 0.0000 0.0000 0.0000
# 2 38.8099 96.3967 69.3640 0.0000 0.0000 0.0000
# 3 41.2731 69.3640 97.5534 0.0000 0.0000 0.0000
# 4 0.0000 0.0000 0.0000 30.2831 0.0000 0.0000
# 5 0.0000 0.0000 0.0000 0.0000 24.8088 0.0000
# 6 0.0000 0.0000 0.0000 0.0000 0.0000 20.7220
#
#
#
# Elastic Compliance Matrix: (Units=1/GPa)
#
#
# Indices 1 2 3 4 5 6 
#
# 1 0.028539 -0.005737 -0.007995 0.000000 0.000000 0.000000
# 2 -0.005737 0.022395 -0.013497 0.000000 0.000000 0.000000
# 3 -0.007995 -0.013497 0.023230 0.000000 0.000000 0.000000
# 4 0.000000 0.000000 0.000000 0.033022 0.000000 0.000000
# 5 0.000000 0.000000 0.000000 0.000000 0.040308 0.000000
# 6 0.000000 0.000000 0.000000 0.000000 0.000000 0.048258
#
#
# Mechanical properties :
#
#
# Convention : Reuss Voigt Hill
#
# Bulk Modulus (GPa) = 50.74382 60.80531 55.77457
# Shear Modulus (GPa) = 19.47199 21.75656 20.61428
#
# Velocity S-wave (km/s) = 3.37024 3.56247 3.46769
# Velocity P-wave (km/s) = 6.68916 7.23815 6.96907
#
# Compressibility (1/GPa) = 0.01970683
#
# Stress axis : x y z
#
# Youngs Moduli (GPa) = 35.03959 44.65226 43.04764
#
# Poissons Ratio (x) = 0.25617 0.34418
# Poissons Ratio (y) = 0.20102 0.58100
# Poissons Ratio (z) = 0.28015 0.60266
#
# Static dielectric constant tensor:
#      x y z
#    x 3.199180 0.000000 0.000000 
#    y 0.000000 3.210560 0.000000 
#    z 0.000000 0.000000 3.354600 
# 
# 
# High freq. dielectric constant tensor:
#      x y z
#    x 1.664240 0.000000 0.000000 
#    y 0.000000 1.641500 0.000000 
#    z 0.000000 0.000000 1.664410 
# 
# From -- ./inp_files/13072.got.cif
#   From: 2010.03.12/outbox.cif.g09.slc.cpg/sg38_7_cif.got.tgz:13072.got - 2010.04.14 02:38:36.
