data_PCOD8178528
_publ_section_title
;
Structure prediction by ZEFSAII (Michael W. Deem and Ramdas Pophale) SiO2 
 PCOD8178528
Probable space group: A M M 2
;
_chemical_formula_sum "Si O2"
_cell_formula_units_Z 64
_cell_length_a 19.622107
_cell_length_b 8.723163
_cell_length_c 19.890350
_cell_angle_alpha 90.000000
_cell_angle_beta 90.000000
_cell_angle_gamma 90.000000
_cell_volume 3404.568312
_symmetry_space_group_name_H-M "A M M 2"
_symmetry_group_IT_number 38
_symmetry_cell_setting 'orthorhombic'
loop_
_space_group_symop_operation_xyz
x,y,z
-x,-y,z
-x,y,z
x,-y,z
x,1/2+y,1/2+z
-x,1/2-y,1/2+z
-x,1/2+y,1/2+z
x,1/2-y,1/2+z
loop_
_atom_site_type_symbol
_atom_site_label
_atom_site_fract_x
_atom_site_fract_y
_atom_site_fract_z
Si Si1 0.180908 0.321205 0.959630
Si Si2 0.191152 0.821292 0.823435
Si Si3 0.321191 0.179187 0.006984
Si Si4 0.846181 0.323628 0.176532
Si Si5 0.309700 0.821857 0.646730
Si Si6 0.920975 0.676765 0.561209
Si Si7 0.329472 0.676106 0.782157
Si Si8 0.421840 0.823886 0.404412
O O1 0.197255 0.500000 0.963875
O O2 0.158255 0.274466 0.884357
O O3 0.248897 0.231090 0.978181
O O4 0.119868 0.282383 0.009639
O O5 0.149324 0.783482 0.755578
O O6 0.269808 0.778106 0.813870
O O7 0.187242 0.000000 0.840838
O O8 0.339147 0.263565 0.076454
O O9 0.318396 0.000000 0.020880
O O10 0.380430 0.216589 0.954678
O O11 0.865247 0.500000 0.163873
O O12 0.770922 0.288758 0.148629
O O13 0.899382 0.217176 0.137339
O O14 0.347216 0.732434 0.707121
O O15 0.325491 0.000000 0.655692
O O16 0.904522 0.500000 0.546724
O O17 0.000000 0.713357 0.551863
O O18 0.305226 0.500000 0.780413
O O19 0.395906 0.697918 0.828142
O O20 0.500000 0.772419 0.406455
O O21 0.412362 0.000000 0.426995
#
# Coordination Sequence:
#
# PCOD8178528 Si02
#       8
#     8   8   8   8   8   8   8   8
#     4  12  23  37  59  87 118 154 197 244 295 354
#     4  10  20  35  57  86 118 148 188 243 292 340
#     4  12  23  36  59  88 118 153 197 248 296 350
#     4   9  19  35  57  84 114 149 189 233 285 344
#     4  10  20  35  57  85 117 149 191 243 291 343
#     4  11  24  40  59  85 118 155 195 241 295 354
#     4  10  19  33  56  85 116 151 192 238 290 348
#     4  10  22  40  60  84 119 159 196 239 295 356
#
# _framework density 18.798272999999998
#
# number of rings (size 3 to 8) (size 9 to 14) (size 15 to 20)
#    0.000    1.500    2.500    4.500    0.000    4.250 
#    0.000    1.250    0.000    3.000    0.000    0.000 
#    0.000    0.000    0.000    0.000    0.000    0.000 
#
# Total GULP energy -396944.246196 kJ/mol
# GULP energy per Si atom -12404.507694 kJ/mol
# Density = 1.875549 g / cm^3
# Si number density = 18.798273 Si / 1000 Ang^3
#
#
#
# Elastic Constant Matrix: (Units=GPa)
#
#
# Indices 1 2 3 4 5 6 
#
# 1 77.0488 24.0879 36.8500 0.0000 0.0000 0.0000
# 2 24.0879 54.5266 24.1790 0.0000 0.0000 0.0000
# 3 36.8500 24.1790 122.2044 0.0000 0.0000 0.0000
# 4 0.0000 0.0000 0.0000 38.1757 0.0000 0.0000
# 5 0.0000 0.0000 0.0000 0.0000 24.4571 0.0000
# 6 0.0000 0.0000 0.0000 0.0000 0.0000 24.2565
#
#
#
# Elastic Compliance Matrix: (Units=1/GPa)
#
#
# Indices 1 2 3 4 5 6 
#
# 1 0.016593 -0.005603 -0.003895 0.000000 0.000000 0.000000
# 2 -0.005603 0.021996 -0.002662 0.000000 0.000000 0.000000
# 3 -0.003895 -0.002662 0.009884 0.000000 0.000000 0.000000
# 4 0.000000 0.000000 0.000000 0.026195 0.000000 0.000000
# 5 0.000000 0.000000 0.000000 0.000000 0.040888 0.000000
# 6 0.000000 0.000000 0.000000 0.000000 0.000000 0.041226
#
#
# Mechanical properties :
#
#
# Convention : Reuss Voigt Hill
#
# Bulk Modulus (GPa) = 41.40426 47.11263 44.25845
# Shear Modulus (GPa) = 26.43353 28.62205 27.52779
#
# Velocity S-wave (km/s) = 3.75396 3.90627 3.83087
# Velocity P-wave (km/s) = 6.39242 6.74254 6.56981
#
# Compressibility (1/GPa) = 0.02415210
#
# Stress axis : x y z
#
# Youngs Moduli (GPa) = 60.26500 45.46377 101.17054
#
# Poissons Ratio (x) = 0.25474 0.39406
# Poissons Ratio (y) = 0.33768 0.26935
# Poissons Ratio (z) = 0.23473 0.12104
#
# Static dielectric constant tensor:
#      x y z
#    x 3.170980 0.000000 0.000000 
#    y 0.000000 3.511790 0.000000 
#    z 0.000000 0.000000 3.757240 
# 
# 
# High freq. dielectric constant tensor:
#      x y z
#    x 1.693410 0.000000 0.000000 
#    y 0.000000 1.741150 0.000000 
#    z 0.000000 0.000000 1.747590 
# 
# From -- ./inp_files/21345.got.cif
#   From: 2010.03.12/outbox.cif.g09.slc.cpg/sg38_11_cif.got.tgz:21345.got - 2010.04.14 02:38:36.
