data_PCOD8178818
_publ_section_title
;
Structure prediction by ZEFSAII (Michael W. Deem and Ramdas Pophale) SiO2 
 PCOD8178818
Probable space group: A M M 2
;
_chemical_formula_sum "Si O2"
_cell_formula_units_Z 56
_cell_length_a 15.258224
_cell_length_b 9.436887
_cell_length_c 20.329205
_cell_angle_alpha 90.000000
_cell_angle_beta 90.000000
_cell_angle_gamma 90.000000
_cell_volume 2927.204987
_symmetry_space_group_name_H-M "A M M 2"
_symmetry_group_IT_number 38
_symmetry_cell_setting 'orthorhombic'
loop_
_space_group_symop_operation_xyz
x,y,z
-x,-y,z
-x,y,z
x,-y,z
x,1/2+y,1/2+z
-x,1/2-y,1/2+z
-x,1/2+y,1/2+z
x,1/2-y,1/2+z
loop_
_atom_site_type_symbol
_atom_site_label
_atom_site_fract_x
_atom_site_fract_y
_atom_site_fract_z
Si Si1 0.736981 0.163787 0.643680
Si Si2 0.598609 0.836048 0.750586
Si Si3 0.902565 0.335957 0.681734
Si Si4 0.097235 0.162600 0.952453
Si Si5 0.670645 0.158928 0.362822
Si Si6 0.131439 0.341302 0.829393
Si Si7 0.745018 0.336395 0.997986
O O1 0.665105 0.224575 0.694923
O O2 0.829379 0.243381 0.646086
O O3 0.699601 0.182477 0.569179
O O4 0.755246 0.000000 0.658916
O O5 0.500000 0.812864 0.724242
O O6 0.607096 0.758662 0.820832
O O7 0.618374 0.000000 0.763332
O O8 0.878421 0.500000 0.670376
O O9 0.904292 0.298599 0.758574
O O10 0.000000 0.302551 0.653484
O O11 0.092729 0.228950 0.879952
O O12 0.165477 0.246546 0.997796
O O13 0.000000 0.172266 0.984056
O O14 0.127869 0.000000 0.946979
O O15 0.763983 0.166016 0.327419
O O16 0.679877 0.212462 0.438920
O O17 0.632006 0.000000 0.361445
O O18 0.100509 0.500000 0.848675
O O19 0.770738 0.500000 0.984171
#
# Coordination Sequence:
#
# PCOD8178818 Si02
#       7
#     8   8   8   8   8   8   8
#     4  10  21  38  57  79 111 148 186 227 270 322
#     4  10  21  37  59  86 113 141 174 219 279 337
#     4  10  20  33  51  77 111 150 188 227 273 322
#     4  10  20  31  46  73 106 140 184 233 275 319
#     4   9  17  33  57  82 105 133 177 225 267 319
#     4   9  17  31  51  74 104 142 182 224 272 322
#     4   9  20  37  55  75 104 145 185 222 271 325
#
# _framework density 19.130877999999999
#
# number of rings (size 3 to 8) (size 9 to 14) (size 15 to 20)
#    0.000    2.429    1.429    1.714    0.000    6.286 
#    0.000    3.571    0.000    2.571    0.000    0.000 
#    0.000    0.000    0.000    0.000    0.000    0.000 
#
# Total GULP energy -347093.948886 kJ/mol
# GULP energy per Si atom -12396.212460 kJ/mol
# Density = 1.908734 g / cm^3
# Si number density = 19.130878 Si / 1000 Ang^3
#
#
#
# Elastic Constant Matrix: (Units=GPa)
#
#
# Indices 1 2 3 4 5 6 
#
# 1 75.7453 29.7493 44.9779 0.0000 0.0000 0.0000
# 2 29.7493 67.1936 41.7630 0.0000 0.0000 0.0000
# 3 44.9779 41.7630 114.0306 0.0000 0.0000 0.0000
# 4 0.0000 0.0000 0.0000 24.4624 0.0000 0.0000
# 5 0.0000 0.0000 0.0000 0.0000 2.8218 0.0000
# 6 0.0000 0.0000 0.0000 0.0000 0.0000 23.9559
#
#
#
# Elastic Compliance Matrix: (Units=1/GPa)
#
#
# Indices 1 2 3 4 5 6 
#
# 1 0.018312 -0.004685 -0.005507 0.000000 0.000000 0.000000
# 2 -0.004685 0.020467 -0.005648 0.000000 0.000000 0.000000
# 3 -0.005507 -0.005648 0.013010 0.000000 0.000000 0.000000
# 4 0.000000 0.000000 0.000000 0.040879 0.000000 0.000000
# 5 0.000000 0.000000 0.000000 0.000000 0.354389 0.000000
# 6 0.000000 0.000000 0.000000 0.000000 0.000000 0.041743
#
#
# Mechanical properties :
#
#
# Convention : Reuss Voigt Hill
#
# Bulk Modulus (GPa) = 49.72754 54.43890 52.08322
# Shear Modulus (GPa) = 9.48435 19.61329 14.54882
#
# Velocity S-wave (km/s) = 2.22899 3.20537 2.76069
# Velocity P-wave (km/s) = 5.71614 6.49746 6.11929
#
# Compressibility (1/GPa) = 0.02010958
#
# Stress axis : x y z
#
# Youngs Moduli (GPa) = 54.60799 48.85937 76.86119
#
# Poissons Ratio (x) = 0.22889 0.42330
# Poissons Ratio (y) = 0.25582 0.43412
# Poissons Ratio (z) = 0.30075 0.27596
#
# Static dielectric constant tensor:
#      x y z
#    x 3.336350 0.000000 0.000000 
#    y 0.000000 3.438260 0.000000 
#    z 0.000000 0.000000 3.514650 
# 
# 
# High freq. dielectric constant tensor:
#      x y z
#    x 1.722240 0.000000 0.000000 
#    y 0.000000 1.735500 0.000000 
#    z 0.000000 0.000000 1.744310 
# 
# From -- ./inp_files/21060.got.cif
#   From: 2010.03.12/outbox.cif.g09.slc.cpg/sg38_11_cif.got.tgz:21060.got - 2010.04.14 02:38:36.
