data_PCOD8178890
_publ_section_title
;
Structure prediction by ZEFSAII (Michael W. Deem and Ramdas Pophale) SiO2 
 PCOD8178890
Probable space group: A M M 2
;
_chemical_formula_sum "Si O2"
_cell_formula_units_Z 64
_cell_length_a 15.961229
_cell_length_b 9.673187
_cell_length_c 23.197909
_cell_angle_alpha 90.000000
_cell_angle_beta 90.000000
_cell_angle_gamma 90.000000
_cell_volume 3581.663265
_symmetry_space_group_name_H-M "A M M 2"
_symmetry_group_IT_number 38
_symmetry_cell_setting 'orthorhombic'
loop_
_space_group_symop_operation_xyz
x,y,z
-x,-y,z
-x,y,z
x,-y,z
x,1/2+y,1/2+z
-x,1/2-y,1/2+z
-x,1/2+y,1/2+z
x,1/2-y,1/2+z
loop_
_atom_site_type_symbol
_atom_site_label
_atom_site_fract_x
_atom_site_fract_y
_atom_site_fract_z
Si Si1 0.402232 0.837952 0.942960
Si Si2 0.906487 0.664683 0.933966
Si Si3 0.263824 0.838218 0.375773
Si Si4 0.593267 0.652881 0.175682
Si Si5 0.903485 0.648368 0.060347
Si Si6 0.189257 0.651711 0.633739
Si Si7 0.708799 0.157767 0.243476
Si Si8 0.362917 0.656390 0.574071
O O1 0.500000 0.801930 0.929989
O O2 0.340420 0.747966 0.903030
O O3 0.385258 0.000000 0.931488
O O4 0.381027 0.799038 0.008779
O O5 0.910306 0.500000 0.934965
O O6 0.828487 0.715678 0.895129
O O7 0.000000 0.718640 0.913827
O O8 0.885216 0.719272 0.998369
O O9 0.261804 0.813214 0.307719
O O10 0.276903 0.000000 0.391181
O O11 0.500000 0.632453 0.197555
O O12 0.634646 0.500000 0.167152
O O13 0.635937 0.736905 0.227226
O O14 0.591159 0.736263 0.115746
O O15 0.856117 0.500000 0.064765
O O16 0.880044 0.741409 0.114432
O O17 0.000000 0.619126 0.065433
O O18 0.149440 0.500000 0.630883
O O19 0.215456 0.685763 0.699123
O O20 0.264977 0.664350 0.588287
O O21 0.676639 0.000000 0.235500
O O22 0.396403 0.500000 0.584886
#
# Coordination Sequence:
#
# PCOD8178890 Si02
#       8
#     8   8   8   8   8   8   8   8
#     4  10  21  35  51  74 106 142 173 203 250 309
#     4   8  15  30  53  79 103 127 160 205 255 304
#     4  10  20  35  55  76  99 132 176 220 254 291
#     4  10  20  32  49  74  98 123 163 212 254 294
#     4   9  17  29  47  73 102 128 154 188 239 304
#     4   9  17  30  48  70  95 123 159 202 245 292
#     4   9  20  36  50  68  96 130 168 206 249 301
#     4   9  18  33  52  73  99 131 164 200 250 309
#
# _framework density 17.868793
#
# number of rings (size 3 to 8) (size 9 to 14) (size 15 to 20)
#    0.000    2.750    0.000    3.000    0.000    5.500 
#    0.000    3.125    0.000    3.375    0.000    0.000 
#    0.000    0.000    0.000    0.000    0.000    0.000 
#
# Total GULP energy -396524.457394 kJ/mol
# GULP energy per Si atom -12391.389294 kJ/mol
# Density = 1.782812 g / cm^3
# Si number density = 17.868793 Si / 1000 Ang^3
#
#
#
# Elastic Constant Matrix: (Units=GPa)
#
#
# Indices 1 2 3 4 5 6 
#
# 1 73.8437 41.7805 66.8730 0.0000 0.0000 0.0000
# 2 41.7805 83.3638 59.0356 0.0000 0.0000 0.0000
# 3 66.8730 59.0356 123.4074 0.0000 0.0000 0.0000
# 4 0.0000 0.0000 0.0000 21.0206 0.0000 0.0000
# 5 0.0000 0.0000 0.0000 0.0000 13.2365 0.0000
# 6 0.0000 0.0000 0.0000 0.0000 0.0000 24.5522
#
#
#
# Elastic Compliance Matrix: (Units=1/GPa)
#
#
# Indices 1 2 3 4 5 6 
#
# 1 0.027880 -0.004952 -0.012739 0.000000 0.000000 0.000000
# 2 -0.004952 0.019021 -0.006416 0.000000 0.000000 0.000000
# 3 -0.012739 -0.006416 0.018076 0.000000 0.000000 0.000000
# 4 0.000000 0.000000 0.000000 0.047572 0.000000 0.000000
# 5 0.000000 0.000000 0.000000 0.000000 0.075549 0.000000
# 6 0.000000 0.000000 0.000000 0.000000 0.000000 0.040730
#
#
# Mechanical properties :
#
#
# Convention : Reuss Voigt Hill
#
# Bulk Modulus (GPa) = 59.65413 68.44365 64.04889
# Shear Modulus (GPa) = 17.69101 19.29026 18.49063
#
# Velocity S-wave (km/s) = 3.14992 3.28922 3.22032
# Velocity P-wave (km/s) = 6.83274 7.26718 7.05330
#
# Compressibility (1/GPa) = 0.01676330
#
# Stress axis : x y z
#
# Youngs Moduli (GPa) = 35.86737 52.57378 55.32253
#
# Poissons Ratio (x) = 0.26033 0.70477
# Poissons Ratio (y) = 0.17760 0.35495
# Poissons Ratio (z) = 0.45693 0.33731
#
# Static dielectric constant tensor:
#      x y z
#    x 3.262940 0.000000 0.000000 
#    y 0.000000 3.354020 0.000000 
#    z 0.000000 0.000000 3.316000 
# 
# 
# High freq. dielectric constant tensor:
#      x y z
#    x 1.683090 0.000000 0.000000 
#    y 0.000000 1.682150 0.000000 
#    z 0.000000 0.000000 1.684040 
# 
# From -- ./inp_files/23115.got.cif
#   From: 2010.03.12/outbox.cif.g09.slc.cpg/sg38_12_cif.got.tgz:23115.got - 2010.04.14 02:38:36.
