data_PCOD8178125
_publ_section_title
;
Structure prediction by ZEFSAII (Michael W. Deem and Ramdas Pophale) SiO2 
 PCOD8178125
Probable space group: A M M 2
;
_chemical_formula_sum "Si O2"
_cell_formula_units_Z 56
_cell_length_a 19.706920
_cell_length_b 9.388366
_cell_length_c 15.867849
_cell_angle_alpha 90.000000
_cell_angle_beta 90.000000
_cell_angle_gamma 90.000000
_cell_volume 2935.802423
_symmetry_space_group_name_H-M "A M M 2"
_symmetry_group_IT_number 38
_symmetry_cell_setting 'orthorhombic'
loop_
_space_group_symop_operation_xyz
x,y,z
-x,-y,z
-x,y,z
x,-y,z
x,1/2+y,1/2+z
-x,1/2-y,1/2+z
-x,1/2+y,1/2+z
x,1/2-y,1/2+z
loop_
_atom_site_type_symbol
_atom_site_label
_atom_site_fract_x
_atom_site_fract_y
_atom_site_fract_z
Si Si1 0.076715 0.831081 0.634050
Si Si2 0.572863 0.667440 0.293353
Si Si3 0.156936 0.831029 0.469162
Si Si4 0.710558 0.163074 0.728960
Si Si5 0.848435 0.829739 0.802805
Si Si6 0.424807 0.665319 0.488552
Si Si7 0.298067 0.661216 0.039245
O O1 0.117798 0.774970 0.552415
O O2 0.107075 0.777248 0.723140
O O3 0.000000 0.774301 0.627064
O O4 0.080007 0.000000 0.633759
O O5 0.500000 0.732660 0.262637
O O6 0.569738 0.500000 0.276552
O O7 0.637481 0.738905 0.246128
O O8 0.582466 0.701107 0.390953
O O9 0.126937 0.748620 0.387953
O O10 0.237017 0.791682 0.477729
O O11 0.146824 0.000000 0.457488
O O12 0.771447 0.224214 0.785526
O O13 0.732812 0.176490 0.632500
O O14 0.701169 0.000000 0.755688
O O15 0.853468 0.000000 0.814484
O O16 0.500000 0.712939 0.520172
O O17 0.414310 0.500000 0.506319
O O18 0.365659 0.746383 0.536579
O O19 0.319971 0.500000 0.020167
#
# Coordination Sequence:
#
# PCOD8178125 Si02
#       7
#     8   8   8   8   8   8   8
#     4   9  18  35  58  81 109 146 183 219 267 328
#     4   8  14  25  42  64  89 119 159 205 249 295
#     4  10  20  35  54  80 113 144 177 221 276 327
#     4   9  16  28  47  70  97 128 168 217 258 300
#     4  10  19  34  57  81 104 139 186 226 263 315
#     4   9  18  32  48  69  99 133 170 216 269 319
#     4  10  19  31  49  73 101 133 173 220 265 316
#
# _framework density 19.074853000000001
#
# number of rings (size 3 to 8) (size 9 to 14) (size 15 to 20)
#    0.000    2.714    1.429    1.714    0.000    3.143 
#    0.000    2.857    0.000    1.714    0.000    0.000 
#    0.000    0.000    0.000    0.000    0.000    0.000 
#
# Total GULP energy -346963.495010 kJ/mol
# GULP energy per Si atom -12391.553393 kJ/mol
# Density = 1.903144 g / cm^3
# Si number density = 19.074853 Si / 1000 Ang^3
#
#
#
# Elastic Constant Matrix: (Units=GPa)
#
#
# Indices 1 2 3 4 5 6 
#
# 1 121.5167 26.0746 64.5703 0.0000 0.0000 0.0000
# 2 26.0746 29.7618 33.0495 0.0000 0.0000 0.0000
# 3 64.5703 33.0495 106.2311 0.0000 0.0000 0.0000
# 4 0.0000 0.0000 0.0000 25.0896 0.0000 0.0000
# 5 0.0000 0.0000 0.0000 0.0000 29.2621 0.0000
# 6 0.0000 0.0000 0.0000 0.0000 0.0000 15.3563
#
#
#
# Elastic Compliance Matrix: (Units=1/GPa)
#
#
# Indices 1 2 3 4 5 6 
#
# 1 0.012433 -0.003821 -0.006369 0.000000 0.000000 0.000000
# 2 -0.003821 0.052510 -0.014014 0.000000 0.000000 0.000000
# 3 -0.006369 -0.014014 0.017644 0.000000 0.000000 0.000000
# 4 0.000000 0.000000 0.000000 0.039857 0.000000 0.000000
# 5 0.000000 0.000000 0.000000 0.000000 0.034174 0.000000
# 6 0.000000 0.000000 0.000000 0.000000 0.000000 0.065120
#
#
# Mechanical properties :
#
#
# Convention : Reuss Voigt Hill
#
# Bulk Modulus (GPa) = 29.25635 56.09984 42.67810
# Shear Modulus (GPa) = 17.75960 22.86260 20.31110
#
# Velocity S-wave (km/s) = 3.05462 3.46580 3.26668
# Velocity P-wave (km/s) = 5.27370 6.74462 6.05400
#
# Compressibility (1/GPa) = 0.03418061
#
# Stress axis : x y z
#
# Youngs Moduli (GPa) = 80.42941 19.04417 56.67545
#
# Poissons Ratio (x) = 0.07276 0.36094
# Poissons Ratio (y) = 0.30730 0.79424
# Poissons Ratio (z) = 0.51222 0.26688
#
# Static dielectric constant tensor:
#      x y z
#    x 3.796320 0.000000 0.000000 
#    y 0.000000 2.908740 0.000000 
#    z 0.000000 0.000000 3.438110 
# 
# 
# High freq. dielectric constant tensor:
#      x y z
#    x 1.756670 0.000000 0.000000 
#    y 0.000000 1.678800 0.000000 
#    z 0.000000 0.000000 1.742170 
# 
# From -- ./inp_files/15421.got.cif
#   From: 2010.03.12/outbox.cif.g09.slc.cpg/sg38_8_cif.got.tgz:15421.got - 2010.04.14 02:38:36.
