data_PCOD8178587
_publ_section_title
;
Structure prediction by ZEFSAII (Michael W. Deem and Ramdas Pophale) SiO2 
 PCOD8178587
Probable space group: A M M 2
;
_chemical_formula_sum "Si O2"
_cell_formula_units_Z 40
_cell_length_a 11.456952
_cell_length_b 9.094268
_cell_length_c 20.428239
_cell_angle_alpha 90.000000
_cell_angle_beta 90.000000
_cell_angle_gamma 90.000000
_cell_volume 2128.471170
_symmetry_space_group_name_H-M "A M M 2"
_symmetry_group_IT_number 38
_symmetry_cell_setting 'orthorhombic'
loop_
_space_group_symop_operation_xyz
x,y,z
-x,-y,z
-x,y,z
x,-y,z
x,1/2+y,1/2+z
-x,1/2-y,1/2+z
-x,1/2+y,1/2+z
x,1/2-y,1/2+z
loop_
_atom_site_type_symbol
_atom_site_label
_atom_site_fract_x
_atom_site_fract_y
_atom_site_fract_z
Si Si1 0.729094 0.173167 0.722050
Si Si2 0.500000 0.674799 0.533409
Si Si3 0.134439 0.333376 0.092538
Si Si4 0.255838 0.325692 0.479094
Si Si5 0.131817 0.325298 0.349079
Si Si6 0.500000 0.825239 0.183664
O O1 0.795741 0.215955 0.656253
O O2 0.807586 0.228136 0.782501
O O3 0.609796 0.262913 0.722950
O O4 0.702827 0.000000 0.727033
O O5 0.500000 0.500000 0.533748
O O6 0.614319 0.735292 0.495413
O O7 0.500000 0.732289 0.608349
O O8 0.165741 0.500000 0.072548
O O9 0.165172 0.226880 0.033382
O O10 0.000000 0.316791 0.110423
O O11 0.257118 0.500000 0.479968
O O12 0.210474 0.266021 0.409307
O O13 0.125432 0.500000 0.351011
O O14 0.000000 0.260965 0.353340
O O15 0.500000 0.000000 0.186314
#
# Coordination Sequence:
#
# PCOD8178587 Si02
#       6
#     8   4   8   8   8   4
#     4  10  20  35  56  80 107 142 181 218 265 322
#     4   9  18  32  51  77 109 138 168 219 269 307
#     4  10  20  33  51  77 108 141 178 222 269 317
#     4  10  19  34  56  80 106 141 181 221 267 316
#     4   9  18  33  55  83 111 138 175 225 270 313
#     4  11  21  36  55  79 113 142 176 225 271 311
#
# _framework density 18.792831
#
# number of rings (size 3 to 8) (size 9 to 14) (size 15 to 20)
#    0.000    2.200    2.000    1.500    0.000    4.400 
#    0.000    4.500    0.000    3.000    0.000    0.000 
#    0.000    0.000    0.000    0.000    0.000    0.000 
#
# Total GULP energy -248019.781556 kJ/mol
# GULP energy per Si atom -12400.989078 kJ/mol
# Density = 1.875006 g / cm^3
# Si number density = 18.792831 Si / 1000 Ang^3
#
#
#
# Elastic Constant Matrix: (Units=GPa)
#
#
# Indices 1 2 3 4 5 6 
#
# 1 135.3760 24.6676 55.9709 0.0000 0.0000 0.0000
# 2 24.6676 22.9409 23.7279 0.0000 0.0000 0.0000
# 3 55.9709 23.7279 127.6371 0.0000 0.0000 0.0000
# 4 0.0000 0.0000 0.0000 22.4794 0.0000 0.0000
# 5 0.0000 0.0000 0.0000 0.0000 38.2516 0.0000
# 6 0.0000 0.0000 0.0000 0.0000 0.0000 23.3378
#
#
#
# Elastic Compliance Matrix: (Units=1/GPa)
#
#
# Indices 1 2 3 4 5 6 
#
# 1 0.010015 -0.007708 -0.002959 0.000000 0.000000 0.000000
# 2 -0.007708 0.059900 -0.007755 0.000000 0.000000 0.000000
# 3 -0.002959 -0.007755 0.010574 0.000000 0.000000 0.000000
# 4 0.000000 0.000000 0.000000 0.044485 0.000000 0.000000
# 5 0.000000 0.000000 0.000000 0.000000 0.026143 0.000000
# 6 0.000000 0.000000 0.000000 0.000000 0.000000 0.042849
#
#
# Mechanical properties :
#
#
# Convention : Reuss Voigt Hill
#
# Bulk Modulus (GPa) = 22.91255 54.96520 38.93888
# Shear Modulus (GPa) = 20.37840 28.91960 24.64900
#
# Velocity S-wave (km/s) = 3.29655 3.92709 3.62555
# Velocity P-wave (km/s) = 5.16801 7.06217 6.18799
#
# Compressibility (1/GPa) = 0.04364420
#
# Stress axis : x y z
#
# Youngs Moduli (GPa) = 99.85389 16.69445 94.57324
#
# Poissons Ratio (x) = 0.12869 0.27980
# Poissons Ratio (y) = 0.76971 0.73344
# Poissons Ratio (z) = 0.29543 0.12947
#
# Static dielectric constant tensor:
#      x y z
#    x 3.698590 0.000000 0.000000 
#    y 0.000000 3.051940 0.000000 
#    z 0.000000 0.000000 3.586260 
# 
# 
# High freq. dielectric constant tensor:
#      x y z
#    x 1.747170 0.000000 0.000000 
#    y 0.000000 1.688130 0.000000 
#    z 0.000000 0.000000 1.734680 
# 
# From -- ./inp_files/20457.got.cif
#   From: 2010.03.12/outbox.cif.g09.slc.cpg/sg38_11_cif.got.tgz:20457.got - 2010.04.14 02:38:36.
