data_PCOD8178760
_publ_section_title
;
Structure prediction by ZEFSAII (Michael W. Deem and Ramdas Pophale) SiO2 
 PCOD8178760
Probable space group: A M M 2
;
_chemical_formula_sum "Si O2"
_cell_formula_units_Z 48
_cell_length_a 14.099887
_cell_length_b 8.748409
_cell_length_c 19.612834
_cell_angle_alpha 90.000000
_cell_angle_beta 90.000000
_cell_angle_gamma 90.000000
_cell_volume 2419.274029
_symmetry_space_group_name_H-M "A M M 2"
_symmetry_group_IT_number 38
_symmetry_cell_setting 'orthorhombic'
loop_
_space_group_symop_operation_xyz
x,y,z
-x,-y,z
-x,y,z
x,-y,z
x,1/2+y,1/2+z
-x,1/2-y,1/2+z
-x,1/2+y,1/2+z
x,1/2-y,1/2+z
loop_
_atom_site_type_symbol
_atom_site_label
_atom_site_fract_x
_atom_site_fract_y
_atom_site_fract_z
Si Si1 0.191050 0.672997 0.640200
Si Si2 0.795144 0.322995 0.881053
Si Si3 0.302416 0.827105 0.002902
Si Si4 0.000000 0.181306 0.073111
Si Si5 0.500000 0.681482 0.706362
Si Si6 0.692760 0.178263 0.756140
Si Si7 0.500000 0.318989 0.552685
Si Si8 0.000000 0.822690 0.425023
O O1 0.178573 0.500000 0.668084
O O2 0.265306 0.674776 0.579457
O O3 0.091643 0.741637 0.613667
O O4 0.229244 0.778598 0.700096
O O5 0.779296 0.500000 0.863462
O O6 0.756681 0.288033 0.956550
O O7 0.736817 0.220213 0.828924
O O8 0.907188 0.281255 0.880238
O O9 0.296524 0.000000 0.973394
O O10 0.409907 0.765943 0.008436
O O11 0.000000 0.000000 0.070398
O O12 0.000000 0.232549 0.995380
O O13 0.500000 0.500000 0.705758
O O14 0.406397 0.735643 0.745885
O O15 0.500000 0.750103 0.629405
O O16 0.671696 0.000000 0.753358
O O17 0.500000 0.500000 0.561336
O O18 0.000000 0.000000 0.444746
#
# Coordination Sequence:
#
# PCOD8178760 Si02
#       8
#     8   8   8   4   4   8   4   4
#     4  10  20  37  62  91 123 162 205 252 309 370
#     4  11  24  42  62  88 124 166 208 258 316 372
#     4  10  19  36  62  91 121 156 203 253 304 367
#     4  10  20  35  62  95 125 161 207 257 312 373
#     4  11  21  42  69  92 121 163 205 248 314 377
#     4  12  26  42  62  92 127 165 208 257 307 366
#     4   9  18  34  61  92 121 157 197 242 296 359
#     4  10  22  39  62  89 119 159 209 263 316 369
#
# _framework density 19.840662999999999
#
# number of rings (size 3 to 8) (size 9 to 14) (size 15 to 20)
#    0.000    1.500    3.333    2.250    0.000    3.333 
#    0.000    6.250    0.000    0.000    0.000    0.000 
#    0.000    0.000    0.000    0.000    0.000    0.000 
#
# Total GULP energy -297656.540770 kJ/mol
# GULP energy per Si atom -12402.355865 kJ/mol
# Density = 1.979550 g / cm^3
# Si number density = 19.840663 Si / 1000 Ang^3
#
#
#
# Elastic Constant Matrix: (Units=GPa)
#
#
# Indices 1 2 3 4 5 6 
#
# 1 131.5455 24.2539 17.2036 0.0000 0.0000 0.0000
# 2 24.2539 66.8918 21.6067 0.0000 0.0000 0.0000
# 3 17.2036 21.6067 64.3682 0.0000 0.0000 0.0000
# 4 0.0000 0.0000 0.0000 32.2643 0.0000 0.0000
# 5 0.0000 0.0000 0.0000 0.0000 30.8537 0.0000
# 6 0.0000 0.0000 0.0000 0.0000 0.0000 25.4538
#
#
#
# Elastic Compliance Matrix: (Units=1/GPa)
#
#
# Indices 1 2 3 4 5 6 
#
# 1 0.008249 -0.002556 -0.001347 0.000000 0.000000 0.000000
# 2 -0.002556 0.017560 -0.005211 0.000000 0.000000 0.000000
# 3 -0.001347 -0.005211 0.017645 0.000000 0.000000 0.000000
# 4 0.000000 0.000000 0.000000 0.030994 0.000000 0.000000
# 5 0.000000 0.000000 0.000000 0.000000 0.032411 0.000000
# 6 0.000000 0.000000 0.000000 0.000000 0.000000 0.039287
#
#
# Mechanical properties :
#
#
# Convention : Reuss Voigt Hill
#
# Bulk Modulus (GPa) = 39.64202 43.21490 41.42846
# Shear Modulus (GPa) = 28.93818 31.03044 29.98431
#
# Velocity S-wave (km/s) = 3.82321 3.95901 3.89170
# Velocity P-wave (km/s) = 6.28592 6.53656 6.41247
#
# Compressibility (1/GPa) = 0.02522576
#
# Stress axis : x y z
#
# Youngs Moduli (GPa) = 121.22179 56.94907 56.67391
#
# Poissons Ratio (x) = 0.14557 0.07633
# Poissons Ratio (y) = 0.30985 0.29533
# Poissons Ratio (z) = 0.16326 0.29677
#
# Static dielectric constant tensor:
#      x y z
#    x 4.067760 0.000000 0.000000 
#    y 0.000000 3.458330 0.000000 
#    z 0.000000 0.000000 3.442100 
# 
# 
# High freq. dielectric constant tensor:
#      x y z
#    x 1.795100 0.000000 0.000000 
#    y 0.000000 1.757170 0.000000 
#    z 0.000000 0.000000 1.765530 
# 
# From -- ./inp_files/18278.got.cif
#   From: 2010.03.12/outbox.cif.g09.slc.cpg/sg38_10_cif.got.tgz:18278.got - 2010.04.14 02:38:36.
