data_PCOD8178088
_publ_section_title
;
Structure prediction by ZEFSAII (Michael W. Deem and Ramdas Pophale) SiO2 
 PCOD8178088
Probable space group: A M M 2
;
_chemical_formula_sum "Si O2"
_cell_formula_units_Z 64
_cell_length_a 8.863191
_cell_length_b 30.309400
_cell_length_c 14.460667
_cell_angle_alpha 90.000000
_cell_angle_beta 90.000000
_cell_angle_gamma 90.000000
_cell_volume 3884.684680
_symmetry_space_group_name_H-M "A M M 2"
_symmetry_group_IT_number 38
_symmetry_cell_setting 'orthorhombic'
loop_
_space_group_symop_operation_xyz
x,y,z
-x,-y,z
-x,y,z
x,-y,z
x,1/2+y,1/2+z
-x,1/2-y,1/2+z
-x,1/2+y,1/2+z
x,1/2-y,1/2+z
loop_
_atom_site_type_symbol
_atom_site_label
_atom_site_fract_x
_atom_site_fract_y
_atom_site_fract_z
Si Si1 0.178748 0.214440 0.029480
Si Si2 0.678746 0.951862 0.851415
Si Si3 0.830504 0.675482 0.245356
Si Si4 0.325010 0.860651 0.572508
Si Si5 0.323648 0.639014 0.418147
Si Si6 0.321410 0.952037 0.643888
Si Si7 0.168953 0.277566 0.737007
Si Si8 0.674100 0.794179 0.417753
O O1 0.239587 0.216644 0.134734
O O2 0.000000 0.219417 0.026519
O O3 0.226209 0.166783 0.990462
O O4 0.245032 0.253792 0.968735
O O5 0.500000 0.952028 0.844416
O O6 0.726262 0.912794 0.922208
O O7 0.741883 0.942957 0.747577
O O8 0.736403 0.000000 0.887060
O O9 0.776293 0.668001 0.141274
O O10 0.710802 0.653619 0.313724
O O11 0.832216 0.726947 0.266319
O O12 0.000000 0.656524 0.259343
O O13 0.500000 0.856597 0.601871
O O14 0.270856 0.911971 0.576441
O O15 0.298611 0.840344 0.471156
O O16 0.500000 0.645780 0.439119
O O17 0.500000 0.954201 0.647204
O O18 0.260189 0.000000 0.608521
O O19 0.266492 0.302851 0.814123
O O20 0.000000 0.297107 0.738313
O O21 0.500000 0.781287 0.413393
#
# Coordination Sequence:
#
# PCOD8178088 Si02
#       8
#     8   8   8   8   8   8   8   8
#     4  11  22  36  50  67  94 128 165 197 232 285
#     4   8  14  25  44  70  97 125 155 188 231 285
#     4  11  20  30  46  68  96 132 165 194 232 279
#     4  10  19  31  47  72  98 125 162 201 237 278
#     4  11  20  31  49  73  97 126 161 199 238 277
#     4   8  13  24  44  68  95 126 157 190 232 284
#     4  10  22  37  50  64  92 132 167 198 231 279
#     4  11  22  32  49  73  97 123 157 203 244 278
#
# _framework density 16.474954
#
# number of rings (size 3 to 8) (size 9 to 14) (size 15 to 20)
#    0.000    2.000    3.750    2.250    0.000    2.000 
#    0.000    0.000    0.000    2.625    0.000    0.875 
#    0.000    5.000    0.000    0.000    0.000    0.000 
#
# Total GULP energy -396603.568819 kJ/mol
# GULP energy per Si atom -12393.861526 kJ/mol
# Density = 1.643746 g / cm^3
# Si number density = 16.474954 Si / 1000 Ang^3
#
#
#
# Elastic Constant Matrix: (Units=GPa)
#
#
# Indices 1 2 3 4 5 6 
#
# 1 45.4003 19.8422 26.4247 0.0000 0.0000 0.0000
# 2 19.8422 104.7298 37.1510 0.0000 0.0000 0.0000
# 3 26.4247 37.1510 88.2060 0.0000 0.0000 0.0000
# 4 0.0000 0.0000 0.0000 23.9267 0.0000 0.0000
# 5 0.0000 0.0000 0.0000 0.0000 22.3898 0.0000
# 6 0.0000 0.0000 0.0000 0.0000 0.0000 7.1131
#
#
#
# Elastic Compliance Matrix: (Units=1/GPa)
#
#
# Indices 1 2 3 4 5 6 
#
# 1 0.027299 -0.002670 -0.007054 0.000000 0.000000 0.000000
# 2 -0.002670 0.011487 -0.004038 0.000000 0.000000 0.000000
# 3 -0.007054 -0.004038 0.015151 0.000000 0.000000 0.000000
# 4 0.000000 0.000000 0.000000 0.041794 0.000000 0.000000
# 5 0.000000 0.000000 0.000000 0.000000 0.044663 0.000000
# 6 0.000000 0.000000 0.000000 0.000000 0.000000 0.140586
#
#
# Mechanical properties :
#
#
# Convention : Reuss Voigt Hill
#
# Bulk Modulus (GPa) = 37.86011 45.01911 41.43961
# Shear Modulus (GPa) = 15.75760 21.01379 18.38570
#
# Velocity S-wave (km/s) = 3.09602 3.57529 3.34425
# Velocity P-wave (km/s) = 5.98421 6.66548 6.33401
#
# Compressibility (1/GPa) = 0.02641303
#
# Stress axis : x y z
#
# Youngs Moduli (GPa) = 36.63193 87.05728 66.00210
#
# Poissons Ratio (x) = 0.23243 0.46555
# Poissons Ratio (y) = 0.09780 0.26653
# Poissons Ratio (z) = 0.25839 0.35155
#
# Static dielectric constant tensor:
#      x y z
#    x 2.996700 0.000000 0.000000 
#    y 0.000000 3.456250 0.000000 
#    z 0.000000 0.000000 3.007580 
# 
# 
# High freq. dielectric constant tensor:
#      x y z
#    x 1.621380 0.000000 0.000000 
#    y 0.000000 1.629860 0.000000 
#    z 0.000000 0.000000 1.606280 
# 
# From -- ./inp_files/13088.got.cif
#   From: 2010.03.12/outbox.cif.g09.slc.cpg/sg38_7_cif.got.tgz:13088.got - 2010.04.14 02:38:36.
