data_PCOD8178843
_publ_section_title
;
Structure prediction by ZEFSAII (Michael W. Deem and Ramdas Pophale) SiO2 
 PCOD8178843
Probable space group: A M M 2
;
_chemical_formula_sum "Si O2"
_cell_formula_units_Z 40
_cell_length_a 9.249453
_cell_length_b 8.813947
_cell_length_c 26.001591
_cell_angle_alpha 90.000000
_cell_angle_beta 90.000000
_cell_angle_gamma 90.000000
_cell_volume 2119.758607
_symmetry_space_group_name_H-M "A M M 2"
_symmetry_group_IT_number 38
_symmetry_cell_setting 'orthorhombic'
loop_
_space_group_symop_operation_xyz
x,y,z
-x,-y,z
-x,y,z
x,-y,z
x,1/2+y,1/2+z
-x,1/2-y,1/2+z
-x,1/2+y,1/2+z
x,1/2-y,1/2+z
loop_
_atom_site_type_symbol
_atom_site_label
_atom_site_fract_x
_atom_site_fract_y
_atom_site_fract_z
Si Si1 0.662158 0.180358 0.341010
Si Si2 0.332689 0.678645 0.531316
Si Si3 0.836771 0.680353 0.937716
Si Si4 0.662448 0.319514 0.727389
Si Si5 0.162395 0.180732 0.131293
O O1 0.500000 0.240725 0.352306
O O2 0.770999 0.243909 0.384156
O O3 0.713219 0.235197 0.284209
O O4 0.660817 0.000000 0.342371
O O5 0.500000 0.724487 0.534306
O O6 0.312090 0.500000 0.524578
O O7 0.260614 0.760939 0.483649
O O8 0.255837 0.737866 0.583047
O O9 0.834622 0.500000 0.938269
O O10 0.000000 0.742420 0.943145
O O11 0.500000 0.261319 0.716495
O O12 0.664310 0.500000 0.725028
O O13 0.768272 0.252665 0.683766
O O14 0.000000 0.244473 0.126101
O O15 0.162006 0.000000 0.133029
#
# Coordination Sequence:
#
# PCOD8178843 Si02
#       5
#     8   8   8   8   8
#     4   8  14  25  41  61  87 119 152 186 224 266
#     4  10  20  33  49  68  91 122 159 195 230 271
#     4  10  20  32  47  69  96 124 154 190 232 276
#     4   8  13  22  37  58  85 116 148 182 222 268
#     4   9  16  25  39  61  89 118 147 184 230 274
#
# _framework density 18.870073000000001
#
# number of rings (size 3 to 8) (size 9 to 14) (size 15 to 20)
#    0.000    3.000    0.000    3.000    0.000    5.600 
#    0.000    4.000    0.000    0.000    0.000    1.400 
#    0.000    1.600    0.000    0.000    0.000    0.000 
#
# Total GULP energy -247907.146687 kJ/mol
# GULP energy per Si atom -12395.357334 kJ/mol
# Density = 1.882712 g / cm^3
# Si number density = 18.870073 Si / 1000 Ang^3
#
#
#
# Elastic Constant Matrix: (Units=GPa)
#
#
# Indices 1 2 3 4 5 6 
#
# 1 155.9315 13.7068 101.3147 0.0000 0.0000 0.0000
# 2 13.7068 5.6131 13.3148 0.0000 0.0000 0.0000
# 3 101.3147 13.3148 184.8111 0.0000 0.0000 0.0000
# 4 0.0000 0.0000 0.0000 19.7635 0.0000 0.0000
# 5 0.0000 0.0000 0.0000 0.0000 29.6637 0.0000
# 6 0.0000 0.0000 0.0000 0.0000 0.0000 15.1375
#
#
#
# Elastic Compliance Matrix: (Units=1/GPa)
#
#
# Indices 1 2 3 4 5 6 
#
# 1 0.010921 -0.015036 -0.004904 0.000000 0.000000 0.000000
# 2 -0.015036 0.235580 -0.008730 0.000000 0.000000 0.000000
# 3 -0.004904 -0.008730 0.008728 0.000000 0.000000 0.000000
# 4 0.000000 0.000000 0.000000 0.050598 0.000000 0.000000
# 5 0.000000 0.000000 0.000000 0.000000 0.033711 0.000000
# 6 0.000000 0.000000 0.000000 0.000000 0.000000 0.066061
#
#
# Mechanical properties :
#
#
# Convention : Reuss Voigt Hill
#
# Bulk Modulus (GPa) = 5.05331 67.00313 36.02822
# Shear Modulus (GPa) = 9.45356 27.44758 18.45057
#
# Velocity S-wave (km/s) = 2.24069 3.81800 3.13032
# Velocity P-wave (km/s) = 3.06236 7.41761 5.67446
#
# Compressibility (1/GPa) = 0.19789016
#
# Stress axis : x y z
#
# Youngs Moduli (GPa) = 91.56800 4.24485 114.57334
#
# Poissons Ratio (x) = 0.06383 0.56182
# Poissons Ratio (y) = 1.37683 1.00017
# Poissons Ratio (z) = 0.44901 0.03706
#
# Static dielectric constant tensor:
#      x y z
#    x 3.771780 0.000000 0.000000 
#    y 0.000000 2.751920 0.000000 
#    z 0.000000 0.000000 3.857230 
# 
# 
# High freq. dielectric constant tensor:
#      x y z
#    x 1.741230 0.000000 0.000000 
#    y 0.000000 1.655710 0.000000 
#    z 0.000000 0.000000 1.754050 
# 
# From -- ./inp_files/19458.got.cif
#   From: 2010.03.12/outbox.cif.g09.slc.cpg/sg38_10_cif.got.tgz:19458.got - 2010.04.14 02:38:36.
