data_PCOD8178237
_publ_section_title
;
Structure prediction by ZEFSAII (Michael W. Deem and Ramdas Pophale) SiO2 
 PCOD8178237
Probable space group: A M M 2
;
_chemical_formula_sum "Si O2"
_cell_formula_units_Z 48
_cell_length_a 14.975156
_cell_length_b 9.358042
_cell_length_c 18.701401
_cell_angle_alpha 90.000000
_cell_angle_beta 90.000000
_cell_angle_gamma 90.000000
_cell_volume 2620.779529
_symmetry_space_group_name_H-M "A M M 2"
_symmetry_group_IT_number 38
_symmetry_cell_setting 'orthorhombic'
loop_
_space_group_symop_operation_xyz
x,y,z
-x,-y,z
-x,y,z
x,-y,z
x,1/2+y,1/2+z
-x,1/2-y,1/2+z
-x,1/2+y,1/2+z
x,1/2-y,1/2+z
loop_
_atom_site_type_symbol
_atom_site_label
_atom_site_fract_x
_atom_site_fract_y
_atom_site_fract_z
Si Si1 0.145176 0.844325 0.785950
Si Si2 0.818973 0.333970 0.533308
Si Si3 0.705946 0.656537 0.399015
Si Si4 0.000000 0.838045 0.525274
Si Si5 0.000000 0.341470 0.857446
Si Si6 0.753009 0.337068 0.685620
Si Si7 0.399429 0.166448 0.294485
O O1 0.234301 0.866352 0.829818
O O2 0.166643 0.764025 0.712237
O O3 0.085176 0.744670 0.833764
O O4 0.101583 0.000000 0.769714
O O5 0.845782 0.500000 0.520912
O O6 0.763144 0.276352 0.464759
O O7 0.750778 0.317220 0.600128
O O8 0.909980 0.246037 0.548146
O O9 0.667963 0.500000 0.422248
O O10 0.628007 0.759569 0.369982
O O11 0.000000 0.850811 0.441278
O O12 0.000000 0.000000 0.557894
O O13 0.000000 0.500000 0.823600
O O14 0.777008 0.500000 0.705632
O O15 0.660245 0.293497 0.724618
O O16 0.500000 0.213313 0.275268
O O17 0.392322 0.000000 0.310656
#
# Coordination Sequence:
#
# PCOD8178237 Si02
#       7
#     8   8   8   4   4   8   8
#     4  10  19  32  51  73 100 133 172 217 262 305
#     4  10  20  36  55  76 107 145 179 217 265 312
#     4   9  18  32  52  77 102 131 170 213 261 312
#     4  11  23  34  51  78 107 141 181 224 263 308
#     4  11  21  32  49  74 101 133 179 224 263 306
#     4   9  19  35  54  76 105 140 176 213 261 317
#     4   9  18  34  56  80 105 135 173 217 265 318
#
# _framework density 18.315162000000001
#
# number of rings (size 3 to 8) (size 9 to 14) (size 15 to 20)
#    0.000    2.333    1.667    1.000    0.000    3.667 
#    0.000    1.667    0.000    3.000    0.000    0.000 
#    0.000    0.000    0.000    0.000    0.000    0.000 
#
# Total GULP energy -297381.066100 kJ/mol
# GULP energy per Si atom -12390.877754 kJ/mol
# Density = 1.827348 g / cm^3
# Si number density = 18.315162 Si / 1000 Ang^3
#
#
#
# Elastic Constant Matrix: (Units=GPa)
#
#
# Indices 1 2 3 4 5 6 
#
# 1 93.1889 45.8350 37.7559 0.0000 0.0000 0.0000
# 2 45.8350 97.1063 30.7560 0.0000 0.0000 0.0000
# 3 37.7559 30.7560 91.7208 0.0000 0.0000 0.0000
# 4 0.0000 0.0000 0.0000 24.2381 0.0000 0.0000
# 5 0.0000 0.0000 0.0000 0.0000 25.9736 0.0000
# 6 0.0000 0.0000 0.0000 0.0000 0.0000 30.1396
#
#
#
# Elastic Compliance Matrix: (Units=1/GPa)
#
#
# Indices 1 2 3 4 5 6 
#
# 1 0.015392 -0.005883 -0.004363 0.000000 0.000000 0.000000
# 2 -0.005883 0.013770 -0.002196 0.000000 0.000000 0.000000
# 3 -0.004363 -0.002196 0.013435 0.000000 0.000000 0.000000
# 4 0.000000 0.000000 0.000000 0.041257 0.000000 0.000000
# 5 0.000000 0.000000 0.000000 0.000000 0.038501 0.000000
# 6 0.000000 0.000000 0.000000 0.000000 0.000000 0.033179
#
#
# Mechanical properties :
#
#
# Convention : Reuss Voigt Hill
#
# Bulk Modulus (GPa) = 56.45532 56.74553 56.60043
# Shear Modulus (GPa) = 26.83497 27.24820 27.04159
#
# Velocity S-wave (km/s) = 3.83192 3.86131 3.84664
# Velocity P-wave (km/s) = 7.10418 7.13650 7.12036
#
# Compressibility (1/GPa) = 0.01771312
#
# Stress axis : x y z
#
# Youngs Moduli (GPa) = 64.96682 72.61930 74.43236
#
# Poissons Ratio (x) = 0.42725 0.32477
# Poissons Ratio (y) = 0.38223 0.16343
# Poissons Ratio (z) = 0.28347 0.15945
#
# Static dielectric constant tensor:
#      x y z
#    x 3.364410 0.000000 0.000000 
#    y 0.000000 3.878410 0.000000 
#    z 0.000000 0.000000 3.274180 
# 
# 
# High freq. dielectric constant tensor:
#      x y z
#    x 1.687270 0.000000 0.000000 
#    y 0.000000 1.715740 0.000000 
#    z 0.000000 0.000000 1.701660 
# 
# From -- ./inp_files/18182.got.cif
#   From: 2010.03.12/outbox.cif.g09.slc.cpg/sg38_10_cif.got.tgz:18182.got - 2010.04.14 02:38:36.
