data_PCOD8178745
_publ_section_title
;
Structure prediction by ZEFSAII (Michael W. Deem and Ramdas Pophale) SiO2 
 PCOD8178745
Probable space group: A M M 2
;
_chemical_formula_sum "Si O2"
_cell_formula_units_Z 56
_cell_length_a 16.375001
_cell_length_b 9.263957
_cell_length_c 20.432557
_cell_angle_alpha 90.000000
_cell_angle_beta 90.000000
_cell_angle_gamma 90.000000
_cell_volume 3099.563834
_symmetry_space_group_name_H-M "A M M 2"
_symmetry_group_IT_number 38
_symmetry_cell_setting 'orthorhombic'
loop_
_space_group_symop_operation_xyz
x,y,z
-x,-y,z
-x,y,z
x,-y,z
x,1/2+y,1/2+z
-x,1/2-y,1/2+z
-x,1/2+y,1/2+z
x,1/2-y,1/2+z
loop_
_atom_site_type_symbol
_atom_site_label
_atom_site_fract_x
_atom_site_fract_y
_atom_site_fract_z
Si Si1 0.406778 0.164744 0.311550
Si Si2 0.846397 0.165818 0.866502
Si Si3 0.272444 0.832814 0.746487
Si Si4 0.591311 0.333555 0.444402
Si Si5 0.757690 0.165522 0.001881
Si Si6 0.000000 0.172363 0.321665
Si Si7 0.829280 0.330811 0.122468
Si Si8 0.000000 0.830084 0.683202
O O1 0.500000 0.177779 0.288986
O O2 0.354435 0.241184 0.255270
O O3 0.392276 0.239088 0.380931
O O4 0.378923 0.000000 0.318693
O O5 0.788309 0.198444 0.805732
O O6 0.797127 0.200088 0.932040
O O7 0.922127 0.274071 0.862546
O O8 0.876974 0.000000 0.864555
O O9 0.230171 0.778412 0.680162
O O10 0.296217 0.000000 0.742697
O O11 0.500000 0.304262 0.473041
O O12 0.601126 0.500000 0.422591
O O13 0.660543 0.296157 0.498251
O O14 0.769972 0.000000 0.021558
O O15 0.803100 0.259328 0.055269
O O16 0.000000 0.240859 0.249801
O O17 0.000000 0.000000 0.316638
O O18 0.822607 0.500000 0.112693
O O19 0.921641 0.286900 0.140314
O O20 0.000000 0.000000 0.701646
#
# Coordination Sequence:
#
# PCOD8178745 Si02
#       8
#     8   8   8   8   8   4   8   4
#     4  10  20  32  51  84 120 148 180 234 292 326
#     4  10  20  38  60  81 111 149 187 227 278 335
#     4  10  19  36  60  82 107 147 193 227 270 336
#     4   9  17  33  57  81 107 146 193 230 270 336
#     4  10  21  37  57  84 115 148 184 230 282 331
#     4  12  24  35  56  91 117 141 185 241 288 322
#     4  10  22  38  60  83 109 149 187 229 283 335
#     4  10  20  41  62  77 107 151 191 227 276 344
#
# _framework density 18.067056999999998
#
# number of rings (size 3 to 8) (size 9 to 14) (size 15 to 20)
#    0.000    2.000    2.857    1.071    0.000    4.286 
#    0.000    2.143    0.000    2.571    0.000    0.000 
#    0.000    0.000    0.000    0.000    0.000    0.000 
#
# Total GULP energy -347237.869917 kJ/mol
# GULP energy per Si atom -12401.352497 kJ/mol
# Density = 1.802594 g / cm^3
# Si number density = 18.067057 Si / 1000 Ang^3
#
#
#
# Elastic Constant Matrix: (Units=GPa)
#
#
# Indices 1 2 3 4 5 6 
#
# 1 115.0135 50.2145 34.3226 0.0000 0.0000 0.0000
# 2 50.2145 67.3872 27.1462 0.0000 0.0000 0.0000
# 3 34.3226 27.1462 73.6799 0.0000 0.0000 0.0000
# 4 0.0000 0.0000 0.0000 30.6982 0.0000 0.0000
# 5 0.0000 0.0000 0.0000 0.0000 22.9562 0.0000
# 6 0.0000 0.0000 0.0000 0.0000 0.0000 26.6455
#
#
#
# Elastic Compliance Matrix: (Units=1/GPa)
#
#
# Indices 1 2 3 4 5 6 
#
# 1 0.013436 -0.008796 -0.003018 0.000000 0.000000 0.000000
# 2 -0.008796 0.023184 -0.004445 0.000000 0.000000 0.000000
# 3 -0.003018 -0.004445 0.016616 0.000000 0.000000 0.000000
# 4 0.000000 0.000000 0.000000 0.032575 0.000000 0.000000
# 5 0.000000 0.000000 0.000000 0.000000 0.043561 0.000000
# 6 0.000000 0.000000 0.000000 0.000000 0.000000 0.037530
#
#
# Mechanical properties :
#
#
# Convention : Reuss Voigt Hill
#
# Bulk Modulus (GPa) = 48.26550 53.27193 50.76872
# Shear Modulus (GPa) = 24.23362 25.68647 24.96005
#
# Velocity S-wave (km/s) = 3.66637 3.77467 3.72092
# Velocity P-wave (km/s) = 6.68548 6.96758 6.82799
#
# Compressibility (1/GPa) = 0.02071873
#
# Stress axis : x y z
#
# Youngs Moduli (GPa) = 74.42944 43.13236 60.18428
#
# Poissons Ratio (x) = 0.37939 0.18164
# Poissons Ratio (y) = 0.65467 0.26749
# Poissons Ratio (z) = 0.22463 0.19170
#
# Static dielectric constant tensor:
#      x y z
#    x 3.734850 0.000000 0.000000 
#    y 0.000000 3.308520 0.000000 
#    z 0.000000 0.000000 3.149920 
# 
# 
# High freq. dielectric constant tensor:
#      x y z
#    x 1.715390 0.000000 0.000000 
#    y 0.000000 1.694820 0.000000 
#    z 0.000000 0.000000 1.680440 
# 
# From -- ./inp_files/21125.got.cif
#   From: 2010.03.12/outbox.cif.g09.slc.cpg/sg38_11_cif.got.tgz:21125.got - 2010.04.14 02:38:36.
