data_PCOD8178132
_publ_section_title
;
Structure prediction by ZEFSAII (Michael W. Deem and Ramdas Pophale) SiO2 
 PCOD8178132
Probable space group: A M M 2
;
_chemical_formula_sum "Si O2"
_cell_formula_units_Z 48
_cell_length_a 15.352239
_cell_length_b 8.702711
_cell_length_c 18.896972
_cell_angle_alpha 90.000000
_cell_angle_beta 90.000000
_cell_angle_gamma 90.000000
_cell_volume 2524.750716
_symmetry_space_group_name_H-M "A M M 2"
_symmetry_group_IT_number 38
_symmetry_cell_setting 'orthorhombic'
loop_
_space_group_symop_operation_xyz
x,y,z
-x,-y,z
-x,y,z
x,-y,z
x,1/2+y,1/2+z
-x,1/2-y,1/2+z
-x,1/2+y,1/2+z
x,1/2-y,1/2+z
loop_
_atom_site_type_symbol
_atom_site_label
_atom_site_fract_x
_atom_site_fract_y
_atom_site_fract_z
Si Si1 0.848883 0.180554 0.934510
Si Si2 0.500000 0.317004 0.335024
Si Si3 0.000000 0.180661 0.175671
Si Si4 0.662056 0.181589 0.087308
Si Si5 0.000000 0.180025 0.827986
Si Si6 0.847185 0.318653 0.085565
Si Si7 0.655200 0.680798 0.428449
Si Si8 0.500000 0.818563 0.181108
O O1 0.915514 0.225855 0.873369
O O2 0.753059 0.233136 0.908227
O O3 0.851231 0.000000 0.951459
O O4 0.873626 0.264907 0.007069
O O5 0.500000 0.500000 0.337483
O O6 0.414851 0.246999 0.374476
O O7 0.500000 0.263782 0.255356
O O8 0.913903 0.250597 0.141631
O O9 0.000000 0.218431 0.258450
O O10 0.000000 0.000000 0.163982
O O11 0.751312 0.264205 0.108840
O O12 0.585896 0.235530 0.139483
O O13 0.678076 0.000000 0.090405
O O14 0.633967 0.232859 0.008449
O O15 0.000000 0.000000 0.808668
O O16 0.852157 0.500000 0.089174
O O17 0.646956 0.500000 0.422865
O O18 0.500000 0.000000 0.191152
#
# Coordination Sequence:
#
# PCOD8178132 Si02
#       8
#     8   4   4   8   4   8   8   4
#     4   9  18  35  58  81 108 143 181 221 272 331
#     4  10  19  31  49  75 107 142 178 218 268 324
#     4  12  25  40  57  79 113 153 187 224 277 334
#     4   9  18  36  59  80 105 142 188 230 272 323
#     4  10  21  36  55  81 111 143 181 224 269 324
#     4  11  22  37  59  86 113 142 185 235 277 324
#     4   8  15  30  53  76  97 132 181 221 254 308
#     4  10  21  35  53  79 111 146 182 224 274 330
#
# _framework density 19.011776999999999
#
# number of rings (size 3 to 8) (size 9 to 14) (size 15 to 20)
#    0.000    2.333    0.000    4.250    0.000    5.333 
#    0.000    5.000    0.000    1.000    0.000    0.000 
#    0.000    0.000    0.000    0.000    0.000    0.000 
#
# Total GULP energy -297602.037948 kJ/mol
# GULP energy per Si atom -12400.084914 kJ/mol
# Density = 1.896851 g / cm^3
# Si number density = 19.011777 Si / 1000 Ang^3
#
#
#
# Elastic Constant Matrix: (Units=GPa)
#
#
# Indices 1 2 3 4 5 6 
#
# 1 135.7748 45.5855 102.3217 0.0000 0.0000 0.0000
# 2 45.5855 74.8824 45.7388 0.0000 0.0000 0.0000
# 3 102.3217 45.7388 143.2295 0.0000 0.0000 0.0000
# 4 0.0000 0.0000 0.0000 32.7283 0.0000 0.0000
# 5 0.0000 0.0000 0.0000 0.0000 13.3443 0.0000
# 6 0.0000 0.0000 0.0000 0.0000 0.0000 16.0629
#
#
#
# Elastic Compliance Matrix: (Units=1/GPa)
#
#
# Indices 1 2 3 4 5 6 
#
# 1 0.016691 -0.003575 -0.010782 0.000000 0.000000 0.000000
# 2 -0.003575 0.017356 -0.002989 0.000000 0.000000 0.000000
# 3 -0.010782 -0.002989 0.015639 0.000000 0.000000 0.000000
# 4 0.000000 0.000000 0.000000 0.030555 0.000000 0.000000
# 5 0.000000 0.000000 0.000000 0.000000 0.074939 0.000000
# 6 0.000000 0.000000 0.000000 0.000000 0.000000 0.062255
#
#
# Mechanical properties :
#
#
# Convention : Reuss Voigt Hill
#
# Bulk Modulus (GPa) = 66.69158 82.35320 74.52239
# Shear Modulus (GPa) = 19.44583 23.10979 21.27781
#
# Velocity S-wave (km/s) = 3.20164 3.49026 3.34906
# Velocity P-wave (km/s) = 6.98732 7.72357 7.36465
#
# Compressibility (1/GPa) = 0.01499440
#
# Stress axis : x y z
#
# Youngs Moduli (GPa) = 59.91209 57.61698 63.94286
#
# Poissons Ratio (x) = 0.20598 0.68945
# Poissons Ratio (y) = 0.21418 0.19110
# Poissons Ratio (z) = 0.64599 0.17219
#
# Static dielectric constant tensor:
#      x y z
#    x 3.827350 0.000000 0.000000 
#    y 0.000000 3.224710 0.000000 
#    z 0.000000 0.000000 3.495610 
# 
# 
# High freq. dielectric constant tensor:
#      x y z
#    x 1.757870 0.000000 0.000000 
#    y 0.000000 1.714300 0.000000 
#    z 0.000000 0.000000 1.736240 
# 
# From -- ./inp_files/18254.got.cif
#   From: 2010.03.12/outbox.cif.g09.slc.cpg/sg38_10_cif.got.tgz:18254.got - 2010.04.14 02:38:36.
