data_PCOD8178011
_publ_section_title
;
Structure prediction by ZEFSAII (Michael W. Deem and Ramdas Pophale) SiO2 
 PCOD8178011
Probable space group: A M M 2
;
_chemical_formula_sum "Si O2"
_cell_formula_units_Z 56
_cell_length_a 9.084111
_cell_length_b 18.741065
_cell_length_c 18.218152
_cell_angle_alpha 90.000000
_cell_angle_beta 90.000000
_cell_angle_gamma 90.000000
_cell_volume 3101.565952
_symmetry_space_group_name_H-M "A M M 2"
_symmetry_group_IT_number 38
_symmetry_cell_setting 'orthorhombic'
loop_
_space_group_symop_operation_xyz
x,y,z
-x,-y,z
-x,y,z
x,-y,z
x,1/2+y,1/2+z
-x,1/2-y,1/2+z
-x,1/2+y,1/2+z
x,1/2-y,1/2+z
loop_
_atom_site_type_symbol
_atom_site_label
_atom_site_fract_x
_atom_site_fract_y
_atom_site_fract_z
Si Si1 0.838045 0.297720 0.496400
Si Si2 0.328898 0.804440 0.249004
Si Si3 0.163686 0.337080 0.895720
Si Si4 0.331643 0.077417 0.005422
Si Si5 0.327360 0.418674 0.018430
Si Si6 0.832462 0.079999 0.157829
Si Si7 0.670998 0.714587 0.114373
O O1 0.850262 0.230274 0.446509
O O2 0.736242 0.358519 0.456362
O O3 0.762917 0.275333 0.572977
O O4 0.000000 0.328607 0.512692
O O5 0.500000 0.811660 0.266512
O O6 0.244243 0.805527 0.325274
O O7 0.276914 0.873715 0.206001
O O8 0.299348 0.731264 0.201101
O O9 0.000000 0.365875 0.875374
O O10 0.249713 0.397897 0.941433
O O11 0.500000 0.093015 0.026794
O O12 0.226706 0.079347 0.075538
O O13 0.318982 0.000000 0.966039
O O14 0.500000 0.413453 0.003493
O O15 0.282036 0.500000 0.039760
O O16 0.282779 0.365290 0.086264
O O17 0.000000 0.109399 0.160248
O O18 0.827678 0.000000 0.190053
O O19 0.500000 0.726786 0.095967
#
# Coordination Sequence:
#
# PCOD8178011 Si02
#       7
#     8   8   8   8   8   8   8
#     4  10  19  32  51  73  97 130 171 213 256 303
#     4  11  21  33  51  75 103 139 177 214 258 311
#     4  10  22  36  51  74 104 138 174 214 262 314
#     4  10  19  30  47  72 100 129 161 200 246 296
#     4   9  18  35  58  81 105 135 173 218 269 323
#     4  10  20  32  47  70 101 134 166 202 242 289
#     4   9  18  32  52  77 102 131 170 216 263 310
#
# _framework density 18.055395999999998
#
# number of rings (size 3 to 8) (size 9 to 14) (size 15 to 20)
#    0.000    2.143    1.429    2.143    0.000    4.857 
#    0.000    0.000    0.000    0.857    0.000    2.000 
#    0.000    0.000    0.000    0.000    0.000    0.000 
#
# Total GULP energy -346888.511008 kJ/mol
# GULP energy per Si atom -12388.875393 kJ/mol
# Density = 1.801430 g / cm^3
# Si number density = 18.055396 Si / 1000 Ang^3
#
#
#
# Elastic Constant Matrix: (Units=GPa)
#
#
# Indices 1 2 3 4 5 6 
#
# 1 92.1698 43.8546 23.8032 0.0000 0.0000 0.0000
# 2 43.8546 100.4085 17.6225 0.0000 0.0000 0.0000
# 3 23.8032 17.6225 59.3258 0.0000 0.0000 0.0000
# 4 0.0000 0.0000 0.0000 14.0308 0.0000 0.0000
# 5 0.0000 0.0000 0.0000 0.0000 19.5275 0.0000
# 6 0.0000 0.0000 0.0000 0.0000 0.0000 24.8951
#
#
#
# Elastic Compliance Matrix: (Units=1/GPa)
#
#
# Indices 1 2 3 4 5 6 
#
# 1 0.014619 -0.005650 -0.004187 0.000000 0.000000 0.000000
# 2 -0.005650 0.012691 -0.001503 0.000000 0.000000 0.000000
# 3 -0.004187 -0.001503 0.018983 0.000000 0.000000 0.000000
# 4 0.000000 0.000000 0.000000 0.071272 0.000000 0.000000
# 5 0.000000 0.000000 0.000000 0.000000 0.051210 0.000000
# 6 0.000000 0.000000 0.000000 0.000000 0.000000 0.040169
#
#
# Mechanical properties :
#
#
# Convention : Reuss Voigt Hill
#
# Bulk Modulus (GPa) = 42.35109 46.94051 44.64580
# Shear Modulus (GPa) = 20.87734 22.79893 21.83814
#
# Velocity S-wave (km/s) = 3.40412 3.55733 3.48157
# Velocity P-wave (km/s) = 6.24162 6.55189 6.39864
#
# Compressibility (1/GPa) = 0.02361214
#
# Stress axis : x y z
#
# Youngs Moduli (GPa) = 68.40253 78.79674 52.68001
#
# Poissons Ratio (x) = 0.44522 0.22059
# Poissons Ratio (y) = 0.38649 0.07916
# Poissons Ratio (z) = 0.28642 0.11841
#
# Static dielectric constant tensor:
#      x y z
#    x 3.821150 0.000000 0.000000 
#    y 0.000000 3.798850 0.000000 
#    z 0.000000 0.000000 3.287170 
# 
# 
# High freq. dielectric constant tensor:
#      x y z
#    x 1.716300 0.000000 0.000000 
#    y 0.000000 1.705620 0.000000 
#    z 0.000000 0.000000 1.658070 
# 
# From -- ./inp_files/17106.got.cif
#   From: 2010.03.12/outbox.cif.g09.slc.cpg/sg38_9_cif.got.tgz:17106.got - 2010.04.14 02:38:36.
