data_PCOD8178738
_publ_section_title
;
Structure prediction by ZEFSAII (Michael W. Deem and Ramdas Pophale) SiO2 
 PCOD8178738
Probable space group: A M M 2
;
_chemical_formula_sum "Si O2"
_cell_formula_units_Z 40
_cell_length_a 8.679710
_cell_length_b 9.706576
_cell_length_c 25.930428
_cell_angle_alpha 90.000000
_cell_angle_beta 90.000000
_cell_angle_gamma 90.000000
_cell_volume 2184.645425
_symmetry_space_group_name_H-M "A M M 2"
_symmetry_group_IT_number 38
_symmetry_cell_setting 'orthorhombic'
loop_
_space_group_symop_operation_xyz
x,y,z
-x,-y,z
-x,y,z
x,-y,z
x,1/2+y,1/2+z
-x,1/2-y,1/2+z
-x,1/2+y,1/2+z
x,1/2-y,1/2+z
loop_
_atom_site_type_symbol
_atom_site_label
_atom_site_fract_x
_atom_site_fract_y
_atom_site_fract_z
Si Si1 0.316916 0.783374 0.550080
Si Si2 0.817535 0.500000 0.696274
Si Si3 0.681594 0.000000 0.747938
Si Si4 0.816278 0.000000 0.474944
Si Si5 0.817612 0.720266 0.777491
Si Si6 0.681946 0.500000 0.132906
Si Si7 0.816826 0.000000 0.080265
Si Si8 0.817624 0.500000 0.858334
O O1 0.500000 0.776447 0.545558
O O2 0.245579 0.632156 0.550236
O O3 0.250377 0.862671 0.500807
O O4 0.263864 0.864063 0.601874
O O5 0.762221 0.636566 0.726606
O O6 0.749285 0.500000 0.638602
O O7 0.000000 0.500000 0.694642
O O8 0.736778 0.132655 0.779130
O O9 0.500000 0.000000 0.744606
O O10 0.754942 0.000000 0.690072
O O11 0.754545 0.000000 0.416281
O O12 0.000000 0.000000 0.478511
O O13 0.761883 0.636661 0.828038
O O14 0.000000 0.740790 0.777112
O O15 0.500000 0.500000 0.136725
O O16 0.000000 0.000000 0.079785
O O17 0.000000 0.500000 0.857887
#
# Coordination Sequence:
#
# PCOD8178738 Si02
#       8
#     8   4   4   4   8   4   4   4
#     4  10  20  35  52  74 103 138 171 204 250 306
#     4   8  16  30  51  76 102 131 170 207 239 284
#     4  11  20  30  45  74 109 136 163 202 241 283
#     4  10  19  36  59  79  95 122 167 218 258 299
#     4   9  17  33  53  74  99 132 167 201 243 298
#     4   8  17  32  49  68 100 141 174 197 235 296
#     4  11  20  31  49  78 109 136 167 210 249 286
#     4   8  17  35  59  77  93 122 165 208 252 302
#
# _framework density 18.309608000000001
#
# number of rings (size 3 to 8) (size 9 to 14) (size 15 to 20)
#    0.000    2.600    0.000    4.500    0.000    0.000 
#    0.000   11.000    0.000    2.400    0.000    0.000 
#    0.000    0.000    0.000    0.000    0.000    0.000 
#
# Total GULP energy -247981.410540 kJ/mol
# GULP energy per Si atom -12399.070527 kJ/mol
# Density = 1.826793 g / cm^3
# Si number density = 18.309608 Si / 1000 Ang^3
#
#
#
# Elastic Constant Matrix: (Units=GPa)
#
#
# Indices 1 2 3 4 5 6 
#
# 1 59.0411 41.7666 33.4352 0.0000 0.0000 0.0000
# 2 41.7666 180.2764 77.3483 0.0000 0.0000 0.0000
# 3 33.4352 77.3483 141.8455 0.0000 0.0000 0.0000
# 4 0.0000 0.0000 0.0000 14.8423 0.0000 0.0000
# 5 0.0000 0.0000 0.0000 0.0000 18.2969 0.0000
# 6 0.0000 0.0000 0.0000 0.0000 0.0000 19.1697
#
#
#
# Elastic Compliance Matrix: (Units=1/GPa)
#
#
# Indices 1 2 3 4 5 6 
#
# 1 0.021209 -0.003614 -0.003028 0.000000 0.000000 0.000000
# 2 -0.003614 0.007857 -0.003433 0.000000 0.000000 0.000000
# 3 -0.003028 -0.003433 0.009636 0.000000 0.000000 0.000000
# 4 0.000000 0.000000 0.000000 0.067375 0.000000 0.000000
# 5 0.000000 0.000000 0.000000 0.000000 0.054654 0.000000
# 6 0.000000 0.000000 0.000000 0.000000 0.000000 0.052166
#
#
# Mechanical properties :
#
#
# Convention : Reuss Voigt Hill
#
# Bulk Modulus (GPa) = 53.90481 76.25148 65.07815
# Shear Modulus (GPa) = 20.90031 25.70265 23.30148
#
# Velocity S-wave (km/s) = 3.38227 3.75077 3.57127
# Velocity P-wave (km/s) = 6.69011 7.77777 7.25435
#
# Compressibility (1/GPa) = 0.01855122
#
# Stress axis : x y z
#
# Youngs Moduli (GPa) = 47.14919 127.27208 103.78261
#
# Poissons Ratio (x) = 0.46002 0.31430
# Poissons Ratio (y) = 0.17042 0.35624
# Poissons Ratio (z) = 0.14279 0.43687
#
# Static dielectric constant tensor:
#      x y z
#    x 3.082160 0.000000 0.000000 
#    y 0.000000 3.427120 0.000000 
#    z 0.000000 0.000000 3.605200 
# 
# 
# High freq. dielectric constant tensor:
#      x y z
#    x 1.690090 0.000000 0.000000 
#    y 0.000000 1.716540 0.000000 
#    z 0.000000 0.000000 1.697490 
# 
# From -- ./inp_files/23325.got.cif
#   From: 2010.03.12/outbox.cif.g09.slc.cpg/sg38_12_cif.got.tgz:23325.got - 2010.04.14 02:38:36.
