data_PCOD8178160
_publ_section_title
;
Structure prediction by ZEFSAII (Michael W. Deem and Ramdas Pophale) SiO2 
 PCOD8178160
Probable space group: A M M 2
;
_chemical_formula_sum "Si O2"
_cell_formula_units_Z 64
_cell_length_a 13.289292
_cell_length_b 22.938273
_cell_length_c 12.193650
_cell_angle_alpha 90.000000
_cell_angle_beta 90.000000
_cell_angle_gamma 90.000000
_cell_volume 3717.031884
_symmetry_space_group_name_H-M "A M M 2"
_symmetry_group_IT_number 38
_symmetry_cell_setting 'orthorhombic'
loop_
_space_group_symop_operation_xyz
x,y,z
-x,-y,z
-x,y,z
x,-y,z
x,1/2+y,1/2+z
-x,1/2-y,1/2+z
-x,1/2+y,1/2+z
x,1/2-y,1/2+z
loop_
_atom_site_type_symbol
_atom_site_label
_atom_site_fract_x
_atom_site_fract_y
_atom_site_fract_z
Si Si1 0.386016 0.331720 0.522810
Si Si2 0.758149 0.741210 0.367656
Si Si3 0.240320 0.931501 0.302718
Si Si4 0.113779 0.435315 0.367373
Si Si5 0.387691 0.833298 0.271822
Si Si6 0.883877 0.334719 0.204596
Si Si7 0.117971 0.343146 0.953197
Si Si8 0.254183 0.566195 0.557212
O O1 0.500000 0.324972 0.474104
O O2 0.298283 0.302017 0.451268
O O3 0.382418 0.309294 0.647461
O O4 0.358048 0.399733 0.535782
O O5 0.673628 0.787141 0.339749
O O6 0.805920 0.709551 0.261862
O O7 0.849272 0.777932 0.419835
O O8 0.347951 0.898780 0.297150
O O9 0.167757 0.896354 0.385153
O O10 0.201982 0.926151 0.176833
O O11 0.250304 0.000000 0.337825
O O12 0.150278 0.500000 0.335497
O O13 0.129780 0.396817 0.260975
O O14 0.173640 0.409805 0.470458
O O15 0.000000 0.435156 0.407576
O O16 0.500000 0.833074 0.316937
O O17 0.000000 0.312170 0.213438
O O18 0.852047 0.347414 0.080421
O O19 0.000000 0.349398 0.934019
O O20 0.283711 0.500000 0.536302
#
# Coordination Sequence:
#
# PCOD8178160 Si02
#       8
#     8   8   8   8   8   8   8   8
#     4  10  19  31  50  76 101 132 172 214 261 305
#     4  11  19  34  52  72 102 137 177 213 255 299
#     4   9  19  34  54  77 102 132 167 208 258 307
#     4   9  17  30  49  73  99 131 170 207 247 300
#     4   9  19  33  50  75 104 131 168 215 257 303
#     4  10  20  34  52  74 101 137 175 211 256 307
#     4  10  22  36  51  75 105 135 172 213 255 307
#     4   9  17  32  51  76 106 133 165 210 258 306
#
# _framework density 17.218039000000001
#
# number of rings (size 3 to 8) (size 9 to 14) (size 15 to 20)
#    0.000    2.375    1.250    1.500    0.000    1.750 
#    0.000    5.000    0.000    0.750    0.000    0.000 
#    0.000    0.000    0.000    0.000    0.000    0.000 
#
# Total GULP energy -396460.641213 kJ/mol
# GULP energy per Si atom -12389.395038 kJ/mol
# Density = 1.717885 g / cm^3
# Si number density = 17.218039 Si / 1000 Ang^3
#
#
#
# Elastic Constant Matrix: (Units=GPa)
#
#
# Indices 1 2 3 4 5 6 
#
# 1 82.3356 43.9056 42.3722 0.0000 0.0000 0.0000
# 2 43.9056 89.7768 41.1359 0.0000 0.0000 0.0000
# 3 42.3722 41.1359 88.3587 0.0000 0.0000 0.0000
# 4 0.0000 0.0000 0.0000 24.5676 0.0000 0.0000
# 5 0.0000 0.0000 0.0000 0.0000 23.9670 0.0000
# 6 0.0000 0.0000 0.0000 0.0000 0.0000 18.3172
#
#
#
# Elastic Compliance Matrix: (Units=1/GPa)
#
#
# Indices 1 2 3 4 5 6 
#
# 1 0.018609 -0.006371 -0.005958 0.000000 0.000000 0.000000
# 2 -0.006371 0.016340 -0.004552 0.000000 0.000000 0.000000
# 3 -0.005958 -0.004552 0.016294 0.000000 0.000000 0.000000
# 4 0.000000 0.000000 0.000000 0.040704 0.000000 0.000000
# 5 0.000000 0.000000 0.000000 0.000000 0.041724 0.000000
# 6 0.000000 0.000000 0.000000 0.000000 0.000000 0.054593
#
#
# Mechanical properties :
#
#
# Convention : Reuss Voigt Hill
#
# Bulk Modulus (GPa) = 57.20421 57.25538 57.22980
# Shear Modulus (GPa) = 21.94398 22.24085 22.09242
#
# Velocity S-wave (km/s) = 3.57385 3.59795 3.58592
# Velocity P-wave (km/s) = 7.09404 7.11236 7.10321
#
# Compressibility (1/GPa) = 0.01748123
#
# Stress axis : x y z
#
# Youngs Moduli (GPa) = 53.73832 61.19882 61.37283
#
# Poissons Ratio (x) = 0.38988 0.36565
# Poissons Ratio (y) = 0.34235 0.27938
# Poissons Ratio (z) = 0.32016 0.27859
#
# Static dielectric constant tensor:
#      x y z
#    x 3.217860 0.000000 0.000000 
#    y 0.000000 3.380920 0.000000 
#    z 0.000000 0.000000 3.220650 
# 
# 
# High freq. dielectric constant tensor:
#      x y z
#    x 1.659810 0.000000 0.000000 
#    y 0.000000 1.669910 0.000000 
#    z 0.000000 0.000000 1.662780 
# 
# From -- ./inp_files/9562.got.cif
#   From: 2010.03.12/outbox.cif.g09.slc.cpg/sg38_5_cif.got.tgz:9562.got - 2010.04.14 02:38:36.
