data_PCOD8178811
_publ_section_title
;
Structure prediction by ZEFSAII (Michael W. Deem and Ramdas Pophale) SiO2 
 PCOD8178811
Probable space group: A M M 2
;
_chemical_formula_sum "Si O2"
_cell_formula_units_Z 64
_cell_length_a 9.064121
_cell_length_b 14.300458
_cell_length_c 27.983903
_cell_angle_alpha 90.000000
_cell_angle_beta 90.000000
_cell_angle_gamma 90.000000
_cell_volume 3627.303776
_symmetry_space_group_name_H-M "A M M 2"
_symmetry_group_IT_number 38
_symmetry_cell_setting 'orthorhombic'
loop_
_space_group_symop_operation_xyz
x,y,z
-x,-y,z
-x,y,z
x,-y,z
x,1/2+y,1/2+z
-x,1/2-y,1/2+z
-x,1/2+y,1/2+z
x,1/2-y,1/2+z
loop_
_atom_site_type_symbol
_atom_site_label
_atom_site_fract_x
_atom_site_fract_y
_atom_site_fract_z
Si Si1 0.329374 0.607277 0.546010
Si Si2 0.831327 0.396326 0.176581
Si Si3 0.325580 0.280371 0.638427
Si Si4 0.826894 0.107627 0.948339
Si Si5 0.661118 0.855702 0.235666
Si Si6 0.169135 0.603815 0.825818
Si Si7 0.660479 0.854851 0.766901
Si Si8 0.324709 0.718281 0.365160
O O1 0.500000 0.625930 0.533139
O O2 0.306349 0.500000 0.561682
O O3 0.275059 0.673603 0.588934
O O4 0.229061 0.633074 0.501039
O O5 0.814542 0.500000 0.153792
O O6 0.745225 0.322311 0.143915
O O7 0.773986 0.403936 0.231266
O O8 0.000000 0.364306 0.178766
O O9 0.500000 0.265939 0.640723
O O10 0.277059 0.351037 0.681244
O O11 0.743821 0.176202 0.912671
O O12 0.000000 0.126699 0.945465
O O13 0.788391 0.000000 0.936199
O O14 0.500000 0.905918 0.237409
O O15 0.775126 0.905538 0.270968
O O16 0.638720 0.750851 0.252101
O O17 0.183905 0.500000 0.848773
O O18 0.262573 0.677203 0.856772
O O19 0.000000 0.637239 0.824976
O O20 0.500000 0.905171 0.764156
O O21 0.718813 0.852233 0.821688
O O22 0.500000 0.726549 0.370201
#
# Coordination Sequence:
#
# PCOD8178811 Si02
#       8
#     8   8   8   8   8   8   8   8
#     4   9  18  34  55  77 100 125 157 200 248 298
#     4  10  20  31  45  69 101 136 170 203 242 287
#     4   9  18  32  51  74  98 129 167 204 245 290
#     4  10  21  36  54  77 103 129 158 197 250 307
#     4   8  15  28  45  67  95 127 165 204 240 282
#     4  10  20  32  47  71 104 139 172 206 246 292
#     4   8  16  30  46  66  92 124 163 203 240 279
#     4  10  20  34  53  75  99 131 170 209 249 294
#
# _framework density 17.64396
#
# number of rings (size 3 to 8) (size 9 to 14) (size 15 to 20)
#    0.000    2.750    0.000    3.000    0.000    9.250 
#    0.000    3.750    0.000    2.250    0.000    3.500 
#    0.000    0.000    0.000    0.000    0.000    0.000 
#
# Total GULP energy -396599.212041 kJ/mol
# GULP energy per Si atom -12393.725376 kJ/mol
# Density = 1.760380 g / cm^3
# Si number density = 17.643960 Si / 1000 Ang^3
#
#
#
# Elastic Constant Matrix: (Units=GPa)
#
#
# Indices 1 2 3 4 5 6 
#
# 1 89.0141 46.8791 51.5736 0.0000 0.0000 0.0000
# 2 46.8791 90.4633 57.1792 0.0000 0.0000 0.0000
# 3 51.5736 57.1792 113.8020 0.0000 0.0000 0.0000
# 4 0.0000 0.0000 0.0000 22.0806 0.0000 0.0000
# 5 0.0000 0.0000 0.0000 0.0000 -38.1554 0.0000
# 6 0.0000 0.0000 0.0000 0.0000 0.0000 37.4615
#
#
#
# Elastic Compliance Matrix: (Units=1/GPa)
#
#
# Indices 1 2 3 4 5 6 
#
# 1 0.017088 -0.005803 -0.004828 0.000000 0.000000 0.000000
# 2 -0.005803 0.018170 -0.006499 0.000000 0.000000 0.000000
# 3 -0.004828 -0.006499 0.014241 0.000000 0.000000 0.000000
# 4 0.000000 0.000000 0.000000 0.045289 0.000000 0.000000
# 5 0.000000 0.000000 0.000000 0.000000 -0.026209 0.000000
# 6 0.000000 0.000000 0.000000 0.000000 0.000000 0.026694
#
#
# Mechanical properties :
#
#
# Convention : Reuss Voigt Hill
#
# Bulk Modulus (GPa) = 65.63084 67.17148 66.40116
# Shear Modulus (GPa) = 37.14367 13.45385 25.29876
#
# Velocity S-wave (km/s) = 4.59320 2.76437 3.79073
# Velocity P-wave (km/s) = 8.08753 6.95285 7.54156
#
# Compressibility (1/GPa) = 0.01523674
#
# Stress axis : x y z
#
# Youngs Moduli (GPa) = 58.52101 55.03721 70.22133
#
# Poissons Ratio (x) = 0.31940 0.33904
# Poissons Ratio (y) = 0.33962 0.45638
# Poissons Ratio (z) = 0.28255 0.35769
#
# Static dielectric constant tensor:
#      x y z
#    x 3.306640 0.000000 0.000000 
#    y 0.000000 3.166900 0.000000 
#    z 0.000000 0.000000 3.429130 
# 
# 
# High freq. dielectric constant tensor:
#      x y z
#    x 1.685340 0.000000 0.000000 
#    y 0.000000 1.673700 0.000000 
#    z 0.000000 0.000000 1.663150 
# 
# From -- ./inp_files/24708.got.cif
#   From: 2010.03.12/outbox.cif.g09.slc.cpg/sg38_13_cif.got.tgz:24708.got - 2010.04.14 02:38:36.
