data_PCOD8178880
_publ_section_title
;
Structure prediction by ZEFSAII (Michael W. Deem and Ramdas Pophale) SiO2 
 PCOD8178880
Probable space group: A M M 2
;
_chemical_formula_sum "Si O2"
_cell_formula_units_Z 64
_cell_length_a 8.934309
_cell_length_b 23.090980
_cell_length_c 18.839174
_cell_angle_alpha 90.000000
_cell_angle_beta 90.000000
_cell_angle_gamma 90.000000
_cell_volume 3886.558341
_symmetry_space_group_name_H-M "A M M 2"
_symmetry_group_IT_number 38
_symmetry_cell_setting 'orthorhombic'
loop_
_space_group_symop_operation_xyz
x,y,z
-x,-y,z
-x,y,z
x,-y,z
x,1/2+y,1/2+z
-x,1/2-y,1/2+z
-x,1/2+y,1/2+z
x,1/2-y,1/2+z
loop_
_atom_site_type_symbol
_atom_site_label
_atom_site_fract_x
_atom_site_fract_y
_atom_site_fract_z
Si Si1 0.826496 0.658141 0.218670
Si Si2 0.674998 0.759661 0.946440
Si Si3 0.329181 0.278518 0.099702
Si Si4 0.672379 0.433024 0.310942
Si Si5 0.176913 0.115802 0.948778
Si Si6 0.671629 0.334444 0.687369
Si Si7 0.671897 0.933748 0.084224
Si Si8 0.826512 0.227405 0.307877
O O1 0.775680 0.675236 0.139361
O O2 0.733793 0.602816 0.244139
O O3 0.792045 0.710786 0.272129
O O4 0.000000 0.642161 0.217399
O O5 0.500000 0.773003 0.938936
O O6 0.760625 0.819832 0.950789
O O7 0.733061 0.722522 0.880125
O O8 0.708481 0.721518 0.016309
O O9 0.500000 0.296586 0.114102
O O10 0.297918 0.214034 0.128036
O O11 0.500000 0.416903 0.324422
O O12 0.692475 0.500000 0.291734
O O13 0.764484 0.418751 0.381136
O O14 0.000000 0.119636 0.943522
O O15 0.223011 0.080634 0.018319
O O16 0.500000 0.333625 0.712563
O O17 0.716614 0.395592 0.652531
O O18 0.774667 0.324029 0.755904
O O19 0.500000 0.920642 0.062270
O O20 0.694886 0.000000 0.106564
O O21 0.000000 0.219635 0.325090
#
# Coordination Sequence:
#
# PCOD8178880 Si02
#       8
#     8   8   8   8   8   8   8   8
#     4  10  20  33  50  74 101 130 163 205 254 298
#     4  11  20  33  53  75 100 134 170 205 247 297
#     4   9  18  32  51  72  97 129 166 204 246 299
#     4  11  23  37  53  71  96 135 177 211 244 288
#     4  12  23  33  47  71 104 137 171 209 246 292
#     4   9  17  32  50  71  96 130 169 205 247 294
#     4  10  20  35  53  72  98 134 176 213 245 289
#     4  10  20  32  48  74 102 130 163 204 255 301
#
# _framework density 16.467010999999999
#
# number of rings (size 3 to 8) (size 9 to 14) (size 15 to 20)
#    0.000    1.750    2.500    3.000    0.000    5.250 
#    0.000    0.000    0.000    0.000    0.000    0.875 
#    0.000    3.000    0.000    0.000    0.000    0.000 
#
# Total GULP energy -396931.738569 kJ/mol
# GULP energy per Si atom -12404.116830 kJ/mol
# Density = 1.642953 g / cm^3
# Si number density = 16.467011 Si / 1000 Ang^3
#
#
#
# Elastic Constant Matrix: (Units=GPa)
#
#
# Indices 1 2 3 4 5 6 
#
# 1 108.9102 49.3295 60.8052 0.0000 0.0000 0.0000
# 2 49.3295 83.4761 53.0889 0.0000 0.0000 0.0000
# 3 60.8052 53.0889 111.5803 0.0000 0.0000 0.0000
# 4 0.0000 0.0000 0.0000 14.6719 0.0000 0.0000
# 5 0.0000 0.0000 0.0000 0.0000 17.8672 0.0000
# 6 0.0000 0.0000 0.0000 0.0000 0.0000 14.6621
#
#
#
# Elastic Compliance Matrix: (Units=1/GPa)
#
#
# Indices 1 2 3 4 5 6 
#
# 1 0.014572 -0.005106 -0.005511 0.000000 0.000000 0.000000
# 2 -0.005106 0.018966 -0.006242 0.000000 0.000000 0.000000
# 3 -0.005511 -0.006242 0.014935 0.000000 0.000000 0.000000
# 4 0.000000 0.000000 0.000000 0.068158 0.000000 0.000000
# 5 0.000000 0.000000 0.000000 0.000000 0.055969 0.000000
# 6 0.000000 0.000000 0.000000 0.000000 0.000000 0.068203
#
#
# Mechanical properties :
#
#
# Convention : Reuss Voigt Hill
#
# Bulk Modulus (GPa) = 67.77155 70.04597 68.90876
# Shear Modulus (GPa) = 17.89306 18.82311 18.35808
#
# Velocity S-wave (km/s) = 3.29994 3.38461 3.34254
# Velocity P-wave (km/s) = 7.46758 7.60944 7.53885
#
# Compressibility (1/GPa) = 0.01475546
#
# Stress axis : x y z
#
# Youngs Moduli (GPa) = 68.62701 52.72535 66.95566
#
# Poissons Ratio (x) = 0.26920 0.36902
# Poissons Ratio (y) = 0.35040 0.41791
# Poissons Ratio (z) = 0.37823 0.32909
#
# Static dielectric constant tensor:
#      x y z
#    x 3.218970 0.000000 0.000000 
#    y 0.000000 2.937180 0.000000 
#    z 0.000000 0.000000 3.145010 
# 
# 
# High freq. dielectric constant tensor:
#      x y z
#    x 1.644850 0.000000 0.000000 
#    y 0.000000 1.606200 0.000000 
#    z 0.000000 0.000000 1.628040 
# 
# From -- ./inp_files/17187.got.cif
#   From: 2010.03.12/outbox.cif.g09.slc.cpg/sg38_9_cif.got.tgz:17187.got - 2010.04.14 02:38:36.
