data_PCOD8178200
_publ_section_title
;
Structure prediction by ZEFSAII (Michael W. Deem and Ramdas Pophale) SiO2 
 PCOD8178200
Probable space group: A M M 2
;
_chemical_formula_sum "Si O2"
_cell_formula_units_Z 64
_cell_length_a 8.903400
_cell_length_b 20.602924
_cell_length_c 19.414948
_cell_angle_alpha 90.000000
_cell_angle_beta 90.000000
_cell_angle_gamma 90.000000
_cell_volume 3561.401829
_symmetry_space_group_name_H-M "A M M 2"
_symmetry_group_IT_number 38
_symmetry_cell_setting 'orthorhombic'
loop_
_space_group_symop_operation_xyz
x,y,z
-x,-y,z
-x,y,z
x,-y,z
x,1/2+y,1/2+z
-x,1/2-y,1/2+z
-x,1/2+y,1/2+z
x,1/2-y,1/2+z
loop_
_atom_site_type_symbol
_atom_site_label
_atom_site_fract_x
_atom_site_fract_y
_atom_site_fract_z
Si Si1 0.822659 0.186117 0.819620
Si Si2 0.671211 0.245271 0.102389
Si Si3 0.327360 0.426500 0.234599
Si Si4 0.672150 0.192344 0.246534
Si Si5 0.172675 0.427078 0.811873
Si Si6 0.673825 0.269280 0.449852
Si Si7 0.173563 0.878894 0.605593
Si Si8 0.171309 0.365008 0.952797
O O1 0.766746 0.121512 0.782241
O O2 0.765561 0.251083 0.782781
O O3 0.766903 0.184434 0.898740
O O4 0.000000 0.186737 0.817847
O O5 0.500000 0.272107 0.100059
O O6 0.692075 0.194131 0.163882
O O7 0.783622 0.304027 0.117159
O O8 0.709312 0.211181 0.029215
O O9 0.500000 0.404562 0.236920
O O10 0.307500 0.500000 0.261606
O O11 0.270747 0.423812 0.155807
O O12 0.500000 0.202269 0.268174
O O13 0.725916 0.121699 0.268807
O O14 0.222238 0.500000 0.793213
O O15 0.195910 0.417995 0.893723
O O16 0.000000 0.414673 0.791998
O O17 0.500000 0.277729 0.431774
O O18 0.718521 0.194578 0.437688
O O19 0.207484 0.898413 0.526349
O O20 0.000000 0.888237 0.624719
O O21 0.000000 0.338419 0.953282
#
# Coordination Sequence:
#
# PCOD8178200 Si02
#       8
#     8   8   8   8   8   8   8   8
#     4  12  23  36  57  84 111 142 181 228 276 328
#     4   9  19  34  54  80 112 143 179 225 273 321
#     4  11  24  40  56  77 109 148 187 229 277 330
#     4  11  21  35  57  83 109 142 184 229 271 320
#     4  10  21  36  53  76 110 150 187 226 272 321
#     4  10  19  33  55  82 110 142 178 225 276 323
#     4  10  19  31  52  80 110 145 184 225 268 319
#     4   9  18  32  50  76 111 148 186 223 265 320
#
# _framework density 17.970452000000002
#
# number of rings (size 3 to 8) (size 9 to 14) (size 15 to 20)
#    0.000    1.750    2.500    2.625    0.000    3.250 
#    0.000    1.250    0.000    0.750    0.000    1.750 
#    0.000    0.000    0.000    0.000    0.000    0.000 
#
# Total GULP energy -396828.066204 kJ/mol
# GULP energy per Si atom -12400.877069 kJ/mol
# Density = 1.792955 g / cm^3
# Si number density = 17.970452 Si / 1000 Ang^3
#
#
#
# Elastic Constant Matrix: (Units=GPa)
#
#
# Indices 1 2 3 4 5 6 
#
# 1 115.1154 47.5167 50.6123 0.0000 0.0000 0.0000
# 2 47.5167 85.5370 49.6687 0.0000 0.0000 0.0000
# 3 50.6123 49.6687 107.9578 0.0000 0.0000 0.0000
# 4 0.0000 0.0000 0.0000 23.7084 0.0000 0.0000
# 5 0.0000 0.0000 0.0000 0.0000 29.4750 0.0000
# 6 0.0000 0.0000 0.0000 0.0000 0.0000 25.4296
#
#
#
# Elastic Compliance Matrix: (Units=1/GPa)
#
#
# Indices 1 2 3 4 5 6 
#
# 1 0.012192 -0.004713 -0.003548 0.000000 0.000000 0.000000
# 2 -0.004713 0.017774 -0.005968 0.000000 0.000000 0.000000
# 3 -0.003548 -0.005968 0.013672 0.000000 0.000000 0.000000
# 4 0.000000 0.000000 0.000000 0.042179 0.000000 0.000000
# 5 0.000000 0.000000 0.000000 0.000000 0.033927 0.000000
# 6 0.000000 0.000000 0.000000 0.000000 0.000000 0.039324
#
#
# Mechanical properties :
#
#
# Convention : Reuss Voigt Hill
#
# Bulk Modulus (GPa) = 65.87087 67.13396 66.50242
# Shear Modulus (GPa) = 25.96242 26.44342 26.20292
#
# Velocity S-wave (km/s) = 3.80508 3.84017 3.82267
# Velocity P-wave (km/s) = 7.48596 7.55656 7.52134
#
# Compressibility (1/GPa) = 0.01518122
#
# Stress axis : x y z
#
# Youngs Moduli (GPa) = 82.02091 56.26083 73.14326
#
# Poissons Ratio (x) = 0.26515 0.25948
# Poissons Ratio (y) = 0.38655 0.43653
# Poissons Ratio (z) = 0.29097 0.33577
#
# Static dielectric constant tensor:
#      x y z
#    x 3.432640 0.000000 0.000000 
#    y 0.000000 2.998510 0.000000 
#    z 0.000000 0.000000 3.630320 
# 
# 
# High freq. dielectric constant tensor:
#      x y z
#    x 1.706800 0.000000 0.000000 
#    y 0.000000 1.659170 0.000000 
#    z 0.000000 0.000000 1.704780 
# 
# From -- ./inp_files/20020.got.cif
#   From: 2010.03.12/outbox.cif.g09.slc.cpg/sg38_11_cif.got.tgz:20020.got - 2010.04.14 02:38:36.
