data_PCOD8178709
_publ_section_title
;
Structure prediction by ZEFSAII (Michael W. Deem and Ramdas Pophale) SiO2 
 PCOD8178709
Probable space group: A M M 2
;
_chemical_formula_sum "Si O2"
_cell_formula_units_Z 48
_cell_length_a 14.049853
_cell_length_b 8.925859
_cell_length_c 20.112014
_cell_angle_alpha 90.000000
_cell_angle_beta 90.000000
_cell_angle_gamma 90.000000
_cell_volume 2522.187477
_symmetry_space_group_name_H-M "A M M 2"
_symmetry_group_IT_number 38
_symmetry_cell_setting 'orthorhombic'
loop_
_space_group_symop_operation_xyz
x,y,z
-x,-y,z
-x,y,z
x,-y,z
x,1/2+y,1/2+z
-x,1/2-y,1/2+z
-x,1/2+y,1/2+z
x,1/2-y,1/2+z
loop_
_atom_site_type_symbol
_atom_site_label
_atom_site_fract_x
_atom_site_fract_y
_atom_site_fract_z
Si Si1 0.789803 0.823875 0.883490
Si Si2 0.792926 0.674347 0.139288
Si Si3 0.890219 0.172134 0.502024
Si Si4 0.109151 0.175677 0.261695
Si Si5 0.607322 0.824796 0.421014
Si Si6 0.396251 0.322207 0.071714
O O1 0.858816 0.754115 0.829026
O O2 0.681781 0.764089 0.874782
O O3 0.790154 0.000000 0.874885
O O4 0.827789 0.778736 0.955950
O O5 0.790879 0.500000 0.159521
O O6 0.864309 0.702335 0.078406
O O7 0.826379 0.770744 0.201114
O O8 0.687608 0.734751 0.119705
O O9 0.000000 0.211076 0.491372
O O10 0.867615 0.000000 0.483359
O O11 0.000000 0.219519 0.247533
O O12 0.121858 0.000000 0.271113
O O13 0.500000 0.791957 0.395916
O O14 0.619501 0.765342 0.496528
O O15 0.630492 0.000000 0.416280
O O16 0.500000 0.267067 0.098059
O O17 0.393580 0.500000 0.068757
#
# Coordination Sequence:
#
# PCOD8178709 Si02
#       6
#     8   8   8   8   8   8
#     4  12  24  37  57  85 117 151 192 241 289 343
#     4  10  19  35  60  87 115 147 188 236 287 345
#     4  10  20  35  57  84 114 148 190 239 289 346
#     4  11  25  43  60  78 109 154 200 245 294 349
#     4   9  17  34  61  88 116 152 191 231 281 342
#     4   8  14  28  55  88 117 147 183 223 272 333
#
# _framework density 19.031099000000001
#
# number of rings (size 3 to 8) (size 9 to 14) (size 15 to 20)
#    0.000    2.000    1.667    4.000    0.000    5.333 
#    0.000    0.833    0.000    3.500    0.000    0.000 
#    0.000    0.000    0.000    0.000    0.000    0.000 
#
# Total GULP energy -297611.641548 kJ/mol
# GULP energy per Si atom -12400.485064 kJ/mol
# Density = 1.898778 g / cm^3
# Si number density = 19.031099 Si / 1000 Ang^3
#
#
#
# Elastic Constant Matrix: (Units=GPa)
#
#
# Indices 1 2 3 4 5 6 
#
# 1 122.6375 43.7318 25.5941 0.0000 0.0000 0.0000
# 2 43.7318 75.0341 28.8062 0.0000 0.0000 0.0000
# 3 25.5941 28.8062 53.1802 0.0000 0.0000 0.0000
# 4 0.0000 0.0000 0.0000 30.8012 0.0000 0.0000
# 5 0.0000 0.0000 0.0000 0.0000 33.0558 0.0000
# 6 0.0000 0.0000 0.0000 0.0000 0.0000 24.3666
#
#
#
# Elastic Compliance Matrix: (Units=1/GPa)
#
#
# Indices 1 2 3 4 5 6 
#
# 1 0.010492 -0.005273 -0.002193 0.000000 0.000000 0.000000
# 2 -0.005273 0.019476 -0.008012 0.000000 0.000000 0.000000
# 3 -0.002193 -0.008012 0.024199 0.000000 0.000000 0.000000
# 4 0.000000 0.000000 0.000000 0.032466 0.000000 0.000000
# 5 0.000000 0.000000 0.000000 0.000000 0.030252 0.000000
# 6 0.000000 0.000000 0.000000 0.000000 0.000000 0.041040
#
#
# Mechanical properties :
#
#
# Convention : Reuss Voigt Hill
#
# Bulk Modulus (GPa) = 43.08263 49.67955 46.38109
# Shear Modulus (GPa) = 25.42975 27.82602 26.62788
#
# Velocity S-wave (km/s) = 3.65940 3.82793 3.74462
# Velocity P-wave (km/s) = 6.36727 6.76007 6.56661
#
# Compressibility (1/GPa) = 0.02321121
#
# Stress axis : x y z
#
# Youngs Moduli (GPa) = 95.30881 51.34405 41.32326
#
# Poissons Ratio (x) = 0.27074 0.09063
# Poissons Ratio (y) = 0.50257 0.33108
# Poissons Ratio (z) = 0.20904 0.41137
#
# Static dielectric constant tensor:
#      x y z
#    x 3.989540 0.000000 0.000000 
#    y 0.000000 3.230040 0.000000 
#    z 0.000000 0.000000 3.285740 
# 
# 
# High freq. dielectric constant tensor:
#      x y z
#    x 1.762620 0.000000 0.000000 
#    y 0.000000 1.714230 0.000000 
#    z 0.000000 0.000000 1.720790 
# 
# From -- ./inp_files/18159.got.cif
#   From: 2010.03.12/outbox.cif.g09.slc.cpg/sg38_10_cif.got.tgz:18159.got - 2010.04.14 02:38:36.
