data_PCOD8178108
_publ_section_title
;
Structure prediction by ZEFSAII (Michael W. Deem and Ramdas Pophale) SiO2 
 PCOD8178108
Probable space group: A M M 2
;
_chemical_formula_sum "Si O2"
_cell_formula_units_Z 48
_cell_length_a 8.977745
_cell_length_b 23.593363
_cell_length_c 13.702164
_cell_angle_alpha 90.000000
_cell_angle_beta 90.000000
_cell_angle_gamma 90.000000
_cell_volume 2902.326563
_symmetry_space_group_name_H-M "A M M 2"
_symmetry_group_IT_number 38
_symmetry_cell_setting 'orthorhombic'
loop_
_space_group_symop_operation_xyz
x,y,z
-x,-y,z
-x,y,z
x,-y,z
x,1/2+y,1/2+z
-x,1/2-y,1/2+z
-x,1/2+y,1/2+z
x,1/2-y,1/2+z
loop_
_atom_site_type_symbol
_atom_site_label
_atom_site_fract_x
_atom_site_fract_y
_atom_site_fract_z
Si Si1 0.672844 0.721948 0.675450
Si Si2 0.825138 0.227874 0.382393
Si Si3 0.328475 0.065533 0.892847
Si Si4 0.673409 0.332317 0.052018
Si Si5 0.322922 0.437681 0.173464
Si Si6 0.825250 0.162558 0.003961
O O1 0.500000 0.707815 0.685455
O O2 0.746141 0.719072 0.780433
O O3 0.701032 0.784084 0.632164
O O4 0.746156 0.674704 0.606620
O O5 0.767880 0.179150 0.455247
O O6 0.781289 0.289200 0.425563
O O7 0.000000 0.221296 0.368365
O O8 0.500000 0.084911 0.901458
O O9 0.267297 0.075462 0.783091
O O10 0.228985 0.102065 0.965812
O O11 0.311332 0.000000 0.922452
O O12 0.500000 0.336314 0.023756
O O13 0.735813 0.390751 0.097988
O O14 0.500000 0.436991 0.176622
O O15 0.265980 0.500000 0.140208
O O16 0.000000 0.161238 0.022700
#
# Coordination Sequence:
#
# PCOD8178108 Si02
#       6
#     8   8   8   8   8   8
#     4  10  19  31  49  70  92 121 158 197 233 275
#     4  10  20  32  46  67  96 126 154 189 235 282
#     4   9  17  30  49  72  97 125 158 195 232 273
#     4   9  17  29  47  70  93 120 154 189 227 273
#     4   8  14  26  46  71  96 121 151 189 229 268
#     4  10  20  32  47  69  98 128 155 189 236 286
#
# _framework density 16.538454999999999
#
# number of rings (size 3 to 8) (size 9 to 14) (size 15 to 20)
#    0.000    2.667    0.000    3.500    0.000    4.333 
#    0.000    0.833    0.000    2.500    0.000    2.333 
#    0.000    0.000    0.000    0.000    0.000    0.000 
#
# Total GULP energy -297613.691532 kJ/mol
# GULP energy per Si atom -12400.570481 kJ/mol
# Density = 1.650081 g / cm^3
# Si number density = 16.538455 Si / 1000 Ang^3
#
#
#
# Elastic Constant Matrix: (Units=GPa)
#
#
# Indices 1 2 3 4 5 6 
#
# 1 70.9997 40.7778 60.2377 0.0000 0.0000 0.0000
# 2 40.7778 94.6178 60.4397 0.0000 0.0000 0.0000
# 3 60.2377 60.4397 133.2544 0.0000 0.0000 0.0000
# 4 0.0000 0.0000 0.0000 24.5564 0.0000 0.0000
# 5 0.0000 0.0000 0.0000 0.0000 21.2509 0.0000
# 6 0.0000 0.0000 0.0000 0.0000 0.0000 20.9575
#
#
#
# Elastic Compliance Matrix: (Units=1/GPa)
#
#
# Indices 1 2 3 4 5 6 
#
# 1 0.024346 -0.004875 -0.008795 0.000000 0.000000 0.000000
# 2 -0.004875 0.015856 -0.004988 0.000000 0.000000 0.000000
# 3 -0.008795 -0.004988 0.013742 0.000000 0.000000 0.000000
# 4 0.000000 0.000000 0.000000 0.040723 0.000000 0.000000
# 5 0.000000 0.000000 0.000000 0.000000 0.047057 0.000000
# 6 0.000000 0.000000 0.000000 0.000000 0.000000 0.047716
#
#
# Mechanical properties :
#
#
# Convention : Reuss Voigt Hill
#
# Bulk Modulus (GPa) = 60.13389 69.08693 64.61041
# Shear Modulus (GPa) = 21.52416 22.51407 22.01912
#
# Velocity S-wave (km/s) = 3.61149 3.69361 3.65278
# Velocity P-wave (km/s) = 7.33686 7.74948 7.54599
#
# Compressibility (1/GPa) = 0.01662956
#
# Stress axis : x y z
#
# Youngs Moduli (GPa) = 41.07499 63.06760 72.76703
#
# Poissons Ratio (x) = 0.30743 0.63995
# Poissons Ratio (y) = 0.20022 0.36298
# Poissons Ratio (z) = 0.36124 0.31459
#
# Static dielectric constant tensor:
#      x y z
#    x 3.005050 0.000000 0.000000 
#    y 0.000000 3.206770 0.000000 
#    z 0.000000 0.000000 3.047450 
# 
# 
# High freq. dielectric constant tensor:
#      x y z
#    x 1.629100 0.000000 0.000000 
#    y 0.000000 1.627570 0.000000 
#    z 0.000000 0.000000 1.629980 
# 
# From -- ./inp_files/8107.got.cif
#   From: 2010.03.12/outbox.cif.g09.slc.cpg/sg38_5_cif.got.tgz:8107.got - 2010.04.14 02:38:36.
