data_PCOD8178059
_publ_section_title
;
Structure prediction by ZEFSAII (Michael W. Deem and Ramdas Pophale) SiO2 
 PCOD8178059
Probable space group: A M M 2
;
_chemical_formula_sum "Si O2"
_cell_formula_units_Z 56
_cell_length_a 14.189640
_cell_length_b 16.419169
_cell_length_c 12.670270
_cell_angle_alpha 90.000000
_cell_angle_beta 90.000000
_cell_angle_gamma 90.000000
_cell_volume 2951.946077
_symmetry_space_group_name_H-M "A M M 2"
_symmetry_group_IT_number 38
_symmetry_cell_setting 'orthorhombic'
loop_
_space_group_symop_operation_xyz
x,y,z
-x,-y,z
-x,y,z
x,-y,z
x,1/2+y,1/2+z
-x,1/2-y,1/2+z
-x,1/2+y,1/2+z
x,1/2-y,1/2+z
loop_
_atom_site_type_symbol
_atom_site_label
_atom_site_fract_x
_atom_site_fract_y
_atom_site_fract_z
Si Si1 0.398227 0.907457 0.337170
Si Si2 0.294341 0.094773 0.138487
Si Si3 0.610374 0.824415 0.953074
Si Si4 0.293914 0.841374 0.523268
Si Si5 0.893289 0.595070 0.952871
Si Si6 0.390474 0.594814 0.228719
Si Si7 0.898708 0.404095 0.708712
O O1 0.500000 0.863925 0.355463
O O2 0.348010 0.863427 0.237862
O O3 0.337131 0.907079 0.443125
O O4 0.415929 0.000000 0.305873
O O5 0.352829 0.106661 0.032502
O O6 0.187185 0.131259 0.136978
O O7 0.283769 0.000000 0.161703
O O8 0.500000 0.807936 0.971720
O O9 0.671908 0.745482 0.979718
O O10 0.630537 0.857609 0.836710
O O11 0.180431 0.850763 0.520719
O O12 0.329626 0.859280 0.640629
O O13 0.875099 0.500000 0.975361
O O14 0.000000 0.618409 0.986538
O O15 0.876729 0.615727 0.830410
O O16 0.500000 0.600966 0.198063
O O17 0.360667 0.500000 0.239413
O O18 0.907715 0.500000 0.694384
O O19 0.000000 0.364877 0.675314
#
# Coordination Sequence:
#
# PCOD8178059 Si02
#       7
#     8   8   8   8   8   8   8
#     4  10  19  30  50  81 110 135 172 228 283 330
#     4  10  19  34  56  80 108 145 189 236 282 337
#     4  11  25  39  54  78 114 157 197 234 284 348
#     4  12  22  35  57  83 114 145 188 240 290 341
#     4   9  17  32  56  85 115 146 185 236 293 351
#     4  10  22  40  59  80 113 160 203 234 277 349
#     4   8  14  27  51  83 111 134 169 222 283 338
#
# _framework density 18.970537
#
# number of rings (size 3 to 8) (size 9 to 14) (size 15 to 20)
#    0.000    2.000    1.429    4.286    2.000    2.571 
#    0.000    0.714    0.000    1.714    0.000    2.000 
#    0.000    0.000    0.000    0.000    0.000    0.000 
#
# Total GULP energy -347005.693540 kJ/mol
# GULP energy per Si atom -12393.060484 kJ/mol
# Density = 1.892736 g / cm^3
# Si number density = 18.970537 Si / 1000 Ang^3
#
#
#
# Elastic Constant Matrix: (Units=GPa)
#
#
# Indices 1 2 3 4 5 6 
#
# 1 147.9478 35.6440 64.0338 0.0000 0.0000 0.0000
# 2 35.6440 56.6654 23.5500 0.0000 0.0000 0.0000
# 3 64.0338 23.5500 113.0258 0.0000 0.0000 0.0000
# 4 0.0000 0.0000 0.0000 21.4897 0.0000 0.0000
# 5 0.0000 0.0000 0.0000 0.0000 24.7344 0.0000
# 6 0.0000 0.0000 0.0000 0.0000 0.0000 22.4331
#
#
#
# Elastic Compliance Matrix: (Units=1/GPa)
#
#
# Indices 1 2 3 4 5 6 
#
# 1 0.009798 -0.004222 -0.004671 0.000000 0.000000 0.000000
# 2 -0.004222 0.021140 -0.002013 0.000000 0.000000 0.000000
# 3 -0.004671 -0.002013 0.011913 0.000000 0.000000 0.000000
# 4 0.000000 0.000000 0.000000 0.046534 0.000000 0.000000
# 5 0.000000 0.000000 0.000000 0.000000 0.040429 0.000000
# 6 0.000000 0.000000 0.000000 0.000000 0.000000 0.044577
#
#
# Mechanical properties :
#
#
# Convention : Reuss Voigt Hill
#
# Bulk Modulus (GPa) = 47.53042 62.67719 55.10381
# Shear Modulus (GPa) = 24.60427 26.69218 25.64822
#
# Velocity S-wave (km/s) = 3.60526 3.75511 3.68095
# Velocity P-wave (km/s) = 6.51458 7.20501 6.86847
#
# Compressibility (1/GPa) = 0.02103916
#
# Stress axis : x y z
#
# Youngs Moduli (GPa) = 102.06032 47.30448 83.93872
#
# Poissons Ratio (x) = 0.19971 0.39211
# Poissons Ratio (y) = 0.43089 0.16895
# Poissons Ratio (z) = 0.47676 0.09521
#
# Static dielectric constant tensor:
#      x y z
#    x 4.181670 0.000000 0.000000 
#    y 0.000000 3.164440 0.000000 
#    z 0.000000 0.000000 3.367350 
# 
# 
# High freq. dielectric constant tensor:
#      x y z
#    x 1.750210 0.000000 0.000000 
#    y 0.000000 1.707530 0.000000 
#    z 0.000000 0.000000 1.721540 
# 
# From -- ./inp_files/10117.got.cif
#   From: 2010.03.12/outbox.cif.g09.slc.cpg/sg38_6_cif.got.tgz:10117.got - 2010.04.14 02:38:36.
