data_PCOD8178475
_publ_section_title
;
Structure prediction by ZEFSAII (Michael W. Deem and Ramdas Pophale) SiO2 
 PCOD8178475
Probable space group: A M M 2
;
_chemical_formula_sum "Si O2"
_cell_formula_units_Z 64
_cell_length_a 9.043732
_cell_length_b 19.900801
_cell_length_c 19.901351
_cell_angle_alpha 90.000000
_cell_angle_beta 90.000000
_cell_angle_gamma 90.000000
_cell_volume 3581.795615
_symmetry_space_group_name_H-M "A M M 2"
_symmetry_group_IT_number 38
_symmetry_cell_setting 'orthorhombic'
loop_
_space_group_symop_operation_xyz
x,y,z
-x,-y,z
-x,y,z
x,-y,z
x,1/2+y,1/2+z
-x,1/2-y,1/2+z
-x,1/2+y,1/2+z
x,1/2-y,1/2+z
loop_
_atom_site_type_symbol
_atom_site_label
_atom_site_fract_x
_atom_site_fract_y
_atom_site_fract_z
Si Si1 0.827389 0.827382 0.295900
Si Si2 0.669907 0.077663 0.398506
Si Si3 0.171991 0.319811 0.148397
Si Si4 0.325287 0.574803 0.400065
Si Si5 0.675631 0.074645 0.049470
Si Si6 0.323902 0.819014 0.157032
Si Si7 0.669722 0.077659 0.553838
Si Si8 0.168052 0.673822 0.302147
O O1 0.777345 0.876871 0.354527
O O2 0.737831 0.843250 0.228434
O O3 0.794977 0.751201 0.318405
O O4 0.000000 0.837493 0.280788
O O5 0.500000 0.094433 0.381277
O O6 0.702613 0.093533 0.476164
O O7 0.703550 0.000000 0.382625
O O8 0.264019 0.252875 0.133424
O O9 0.222108 0.378518 0.099046
O O10 0.201018 0.342980 0.224579
O O11 0.000000 0.303802 0.137041
O O12 0.500000 0.575937 0.399112
O O13 0.268482 0.500000 0.381071
O O14 0.268034 0.593996 0.474718
O O15 0.271328 0.628096 0.346647
O O16 0.500000 0.075311 0.050422
O O17 0.737078 0.127812 0.102785
O O18 0.732677 0.000000 0.068640
O O19 0.500000 0.816333 0.160596
O O20 0.500000 0.094901 0.571025
O O21 0.702623 0.000000 0.569379
O O22 0.000000 0.657109 0.320492
#
# Coordination Sequence:
#
# PCOD8178475 Si02
#       8
#     8   8   8   8   8   8   8   8
#     4  10  21  36  52  75 107 138 170 211 259 310
#     4   9  19  36  56  78 104 135 173 215 258 308
#     4  10  21  36  52  73 105 140 172 211 259 312
#     4   9  18  33  53  76 100 127 163 207 251 296
#     4   8  16  32  52  75 102 129 161 204 252 300
#     4  10  19  33  55  78 101 135 175 214 256 303
#     4   9  19  36  56  78 104 133 171 219 262 306
#     4   9  20  36  50  69 101 137 169 203 247 301
#
# _framework density 17.868131999999999
#
# number of rings (size 3 to 8) (size 9 to 14) (size 15 to 20)
#    0.000    2.750    0.000    3.375    0.000    6.250 
#    0.000   10.000    0.000    2.625    0.000    0.000 
#    0.000    0.000    0.000    0.000    0.000    0.000 
#
# Total GULP energy -396783.100037 kJ/mol
# GULP energy per Si atom -12399.471876 kJ/mol
# Density = 1.782746 g / cm^3
# Si number density = 17.868132 Si / 1000 Ang^3
#
#
#
# Elastic Constant Matrix: (Units=GPa)
#
#
# Indices 1 2 3 4 5 6 
#
# 1 68.4513 48.1364 48.7249 0.0000 0.0000 0.0000
# 2 48.1364 105.2949 81.0102 0.0000 0.0000 0.0000
# 3 48.7249 81.0102 106.5860 0.0000 0.0000 0.0000
# 4 0.0000 0.0000 0.0000 39.4243 0.0000 0.0000
# 5 0.0000 0.0000 0.0000 0.0000 12.2962 0.0000
# 6 0.0000 0.0000 0.0000 0.0000 0.0000 16.5126
#
#
#
# Elastic Compliance Matrix: (Units=1/GPa)
#
#
# Indices 1 2 3 4 5 6 
#
# 1 0.023064 -0.005857 -0.006092 0.000000 0.000000 0.000000
# 2 -0.005857 0.024358 -0.015836 0.000000 0.000000 0.000000
# 3 -0.006092 -0.015836 0.024203 0.000000 0.000000 0.000000
# 4 0.000000 0.000000 0.000000 0.025365 0.000000 0.000000
# 5 0.000000 0.000000 0.000000 0.000000 0.081326 0.000000
# 6 0.000000 0.000000 0.000000 0.000000 0.000000 0.060560
#
#
# Mechanical properties :
#
#
# Convention : Reuss Voigt Hill
#
# Bulk Modulus (GPa) = 62.28354 70.67500 66.47927
# Shear Modulus (GPa) = 16.67789 20.47733 18.57761
#
# Velocity S-wave (km/s) = 3.05845 3.38897 3.22795
# Velocity P-wave (km/s) = 6.88514 7.41303 7.15396
#
# Compressibility (1/GPa) = 0.01605561
#
# Stress axis : x y z
#
# Youngs Moduli (GPa) = 43.35749 41.05375 41.31712
#
# Poissons Ratio (x) = 0.24045 0.25170
# Poissons Ratio (y) = 0.25394 0.65430
# Poissons Ratio (z) = 0.26413 0.65013
#
# Static dielectric constant tensor:
#      x y z
#    x 3.144210 0.000000 0.000000 
#    y 0.000000 3.329660 0.000000 
#    z 0.000000 0.000000 3.379810 
# 
# 
# High freq. dielectric constant tensor:
#      x y z
#    x 1.682280 0.000000 0.000000 
#    y 0.000000 1.694980 0.000000 
#    z 0.000000 0.000000 1.695010 
# 
# From -- ./inp_files/17213.got.cif
#   From: 2010.03.12/outbox.cif.g09.slc.cpg/sg38_9_cif.got.tgz:17213.got - 2010.04.14 02:38:36.
