data_PCOD8178097
_publ_section_title
;
Structure prediction by ZEFSAII (Michael W. Deem and Ramdas Pophale) SiO2 
 PCOD8178097
Probable space group: A M M 2
;
_chemical_formula_sum "Si O2"
_cell_formula_units_Z 64
_cell_length_a 18.310012
_cell_length_b 27.829236
_cell_length_c 7.636697
_cell_angle_alpha 90.000000
_cell_angle_beta 90.000000
_cell_angle_gamma 90.000000
_cell_volume 3891.306793
_symmetry_space_group_name_H-M "A M M 2"
_symmetry_group_IT_number 38
_symmetry_cell_setting 'orthorhombic'
loop_
_space_group_symop_operation_xyz
x,y,z
-x,-y,z
-x,y,z
x,-y,z
x,1/2+y,1/2+z
-x,1/2-y,1/2+z
-x,1/2+y,1/2+z
x,1/2-y,1/2+z
loop_
_atom_site_type_symbol
_atom_site_label
_atom_site_fract_x
_atom_site_fract_y
_atom_site_fract_z
Si Si1 0.336161 0.099982 0.672040
Si Si2 0.413891 0.193243 0.779348
Si Si3 0.416354 0.606147 0.840107
Si Si4 0.188287 0.556425 0.068909
Si Si5 0.189632 0.556825 0.666960
Si Si6 0.345483 0.943572 0.037722
Si Si7 0.584736 0.702567 0.681594
Si Si8 0.080993 0.443549 0.374286
O O1 0.361739 0.155395 0.681782
O O2 0.373053 0.079410 0.495509
O O3 0.250109 0.090832 0.650866
O O4 0.365077 0.072604 0.842176
O O5 0.500000 0.186180 0.729286
O O6 0.382020 0.245271 0.723431
O O7 0.400962 0.186481 0.984292
O O8 0.500000 0.608584 0.894598
O O9 0.408911 0.575197 0.664054
O O10 0.384559 0.660202 0.806025
O O11 0.211533 0.500000 0.083439
O O12 0.116912 0.567038 0.185067
O O13 0.172281 0.571128 0.867864
O O14 0.191400 0.500000 0.646507
O O15 0.267883 0.577735 0.605561
O O16 0.128100 0.578290 0.535974
O O17 0.343890 0.000000 0.042974
O O18 0.500000 0.707783 0.722316
O O19 0.074759 0.500000 0.402707
O O20 0.000000 0.420299 0.376454
#
# Coordination Sequence:
#
# PCOD8178097 Si02
#       8
#     8   8   8   8   8   8   8   8
#     4  12  21  32  53  74  96 132 173 209 253 307
#     4  10  19  32  51  73  96 125 164 210 262 315
#     4  11  23  37  52  72  97 128 174 224 263 300
#     4  10  19  31  48  70  98 134 170 201 243 299
#     4   9  17  31  49  66  90 129 169 201 241 292
#     4  11  22  36  52  69  95 134 177 214 251 300
#     4   9  18  34  52  71  96 123 158 210 269 323
#     4   9  17  29  47  72  97 122 161 208 245 288
#
# _framework density 16.446916000000002
#
# number of rings (size 3 to 8) (size 9 to 14) (size 15 to 20)
#    0.000    1.875    3.750    1.500    0.000    3.750 
#    0.000    2.500    0.000    3.375    0.000    0.000 
#    0.000    0.000    0.000   10.125    0.750    0.750 
#
# Total GULP energy -396656.268658 kJ/mol
# GULP energy per Si atom -12395.508396 kJ/mol
# Density = 1.640948 g / cm^3
# Si number density = 16.446916 Si / 1000 Ang^3
#
#
#
# Elastic Constant Matrix: (Units=GPa)
#
#
# Indices 1 2 3 4 5 6 
#
# 1 62.3673 28.7973 21.7495 0.0000 0.0000 0.0000
# 2 28.7973 54.0440 18.7063 0.0000 0.0000 0.0000
# 3 21.7495 18.7063 127.7614 0.0000 0.0000 0.0000
# 4 0.0000 0.0000 0.0000 23.6696 0.0000 0.0000
# 5 0.0000 0.0000 0.0000 0.0000 8.9224 0.0000
# 6 0.0000 0.0000 0.0000 0.0000 0.0000 7.2805
#
#
#
# Elastic Compliance Matrix: (Units=1/GPa)
#
#
# Indices 1 2 3 4 5 6 
#
# 1 0.021797 -0.010882 -0.002117 0.000000 0.000000 0.000000
# 2 -0.010882 0.024924 -0.001797 0.000000 0.000000 0.000000
# 3 -0.002117 -0.001797 0.008451 0.000000 0.000000 0.000000
# 4 0.000000 0.000000 0.000000 0.042248 0.000000 0.000000
# 5 0.000000 0.000000 0.000000 0.000000 0.112077 0.000000
# 6 0.000000 0.000000 0.000000 0.000000 0.000000 0.137353
#
#
# Mechanical properties :
#
#
# Convention : Reuss Voigt Hill
#
# Bulk Modulus (GPa) = 39.09353 42.51985 40.80669
# Shear Modulus (GPa) = 12.98814 19.63584 16.31199
#
# Velocity S-wave (km/s) = 2.81321 3.45902 3.15270
# Velocity P-wave (km/s) = 5.86288 6.47009 6.17395
#
# Compressibility (1/GPa) = 0.02557968
#
# Stress axis : x y z
#
# Youngs Moduli (GPa) = 45.87817 40.12268 118.33457
#
# Poissons Ratio (x) = 0.43660 0.25056
# Poissons Ratio (y) = 0.49922 0.21262
# Poissons Ratio (z) = 0.09714 0.07209
#
# Static dielectric constant tensor:
#      x y z
#    x 3.049430 0.000000 0.000000 
#    y 0.000000 2.923780 0.000000 
#    z 0.000000 0.000000 3.377440 
# 
# 
# High freq. dielectric constant tensor:
#      x y z
#    x 1.599990 0.000000 0.000000 
#    y 0.000000 1.594230 0.000000 
#    z 0.000000 0.000000 1.661490 
# 
# From -- ./inp_files/6579.got.cif
#   From: 2010.03.12/outbox.cif.g09.slc.cpg/sg38_4_cif.got.tgz:6579.got - 2010.04.14 02:38:36.
