data_PCOD8178202
_publ_section_title
;
Structure prediction by ZEFSAII (Michael W. Deem and Ramdas Pophale) SiO2 
 PCOD8178202
Probable space group: A M M 2
;
_chemical_formula_sum "Si O2"
_cell_formula_units_Z 64
_cell_length_a 14.358905
_cell_length_b 16.595032
_cell_length_c 12.957227
_cell_angle_alpha 90.000000
_cell_angle_beta 90.000000
_cell_angle_gamma 90.000000
_cell_volume 3087.532116
_symmetry_space_group_name_H-M "A M M 2"
_symmetry_group_IT_number 38
_symmetry_cell_setting 'orthorhombic'
loop_
_space_group_symop_operation_xyz
x,y,z
-x,-y,z
-x,y,z
x,-y,z
x,1/2+y,1/2+z
-x,1/2-y,1/2+z
-x,1/2+y,1/2+z
x,1/2-y,1/2+z
loop_
_atom_site_type_symbol
_atom_site_label
_atom_site_fract_x
_atom_site_fract_y
_atom_site_fract_z
Si Si1 0.604522 0.095845 0.476830
Si Si2 0.105204 0.842817 0.142995
Si Si3 0.283964 0.905660 0.060271
Si Si4 0.716036 0.594339 0.167681
Si Si5 0.604522 0.095845 0.251122
Si Si6 0.606413 0.596314 0.363976
Si Si7 0.105204 0.157182 0.584957
Si Si8 0.890467 0.409080 0.863976
O O1 0.500000 0.128593 0.492881
O O2 0.670138 0.133118 0.565031
O O3 0.642648 0.122466 0.363976
O O4 0.603575 0.000000 0.484415
O O5 0.173775 0.886969 0.062297
O O6 0.109446 0.750000 0.113976
O O7 0.139603 0.860840 0.260520
O O8 0.000000 0.875855 0.127002
O O9 0.329862 0.866883 0.162921
O O10 0.299465 0.000000 0.057517
O O11 0.337388 0.868563 0.962064
O O12 0.700534 0.500000 0.170435
O O13 0.662612 0.631437 0.265888
O O14 0.826225 0.613030 0.165655
O O15 0.500000 0.128593 0.235071
O O16 0.603575 0.000000 0.243537
O O17 0.500000 0.628523 0.363976
O O18 0.605930 0.500000 0.363976
O O19 0.139603 0.139159 0.467432
O O20 0.000000 0.124145 0.600949
O O21 0.846024 0.500000 0.863976
O O22 0.000000 0.417703 0.863976
#
# Coordination Sequence:
#
# PCOD8178202 Si02
#       8
#     8   8   8   8   8   8   8   8
#     4   8  14  25  44  74 108 137 171 226 294 352
#     4  10  22  38  55  80 115 155 197 243 301 362
#     4  10  19  31  53  81 107 143 193 242 292 348
#     4  10  19  31  53  81 107 143 193 242 292 348
#     4   8  14  25  44  74 108 137 171 226 294 352
#     4   9  18  33  53  79 109 142 183 229 284 359
#     4  10  22  38  55  80 115 155 197 243 301 362
#     4   9  18  35  60  86 112 147 194 250 302 349
#
# _framework density 20.728529000000002
#
# number of rings (size 3 to 8) (size 9 to 14) (size 15 to 20)
#    0.000    2.750    0.000    2.250    1.750    5.500 
#    0.000    1.875    0.000    5.250    0.000    0.000 
#    0.000    0.000    0.000    0.000    0.000    0.000 
#
# Total GULP energy -396568.186867 kJ/mol
# GULP energy per Si atom -12392.755840 kJ/mol
# Density = 2.068135 g / cm^3
# Si number density = 20.728529 Si / 1000 Ang^3
#
#
#
# Elastic Constant Matrix: (Units=GPa)
#
#
# Indices 1 2 3 4 5 6 
#
# 1 132.9431 9.5173 98.1669 0.0000 0.0000 0.0000
# 2 9.5173 34.2499 35.3774 0.0000 0.0000 0.0000
# 3 98.1669 35.3774 170.4130 0.0000 0.0000 0.0000
# 4 0.0000 0.0000 0.0000 22.3722 0.0000 0.0000
# 5 0.0000 0.0000 0.0000 0.0000 38.5304 0.0000
# 6 0.0000 0.0000 0.0000 0.0000 0.0000 27.9568
#
#
#
# Elastic Compliance Matrix: (Units=1/GPa)
#
#
# Indices 1 2 3 4 5 6 
#
# 1 0.013887 0.005606 -0.009164 0.000000 0.000000 0.000000
# 2 0.005606 0.039430 -0.011415 0.000000 0.000000 0.000000
# 3 -0.009164 -0.011415 0.013517 0.000000 0.000000 0.000000
# 4 0.000000 0.000000 0.000000 0.044698 0.000000 0.000000
# 5 0.000000 0.000000 0.000000 0.000000 0.025954 0.000000
# 6 0.000000 0.000000 0.000000 0.000000 0.000000 0.035769
#
#
# Mechanical properties :
#
#
# Convention : Reuss Voigt Hill
#
# Bulk Modulus (GPa) = 27.10824 69.30322 48.20573
# Shear Modulus (GPa) = 23.20221 30.74152 26.97187
#
# Velocity S-wave (km/s) = 3.34928 3.85522 3.61112
# Velocity P-wave (km/s) = 5.29746 7.30228 6.37912
#
# Compressibility (1/GPa) = 0.03688915
#
# Stress axis : x y z
#
# Youngs Moduli (GPa) = 72.00880 25.36121 73.98318
#
# Poissons Ratio (x) = -0.14218 0.67795
# Poissons Ratio (y) = -0.40371 0.84453
# Poissons Ratio (z) = 0.65986 0.28950
#
# Static dielectric constant tensor:
#      x y z
#    x 3.989120 0.000000 0.000000 
#    y 0.000000 3.162470 0.000000 
#    z 0.000000 0.000000 4.178560 
# 
# 
# High freq. dielectric constant tensor:
#      x y z
#    x 1.822660 0.000000 0.000000 
#    y 0.000000 1.752970 0.000000 
#    z 0.000000 0.000000 1.815160 
# 
# From -- ./inp_files/10257.got.cif
#   From: 2010.03.12/outbox.cif.g09.slc.cpg/sg38_6_cif.got.tgz:10257.got - 2010.04.14 02:38:36.
