data_PCOD8178788
_publ_section_title
;
Structure prediction by ZEFSAII (Michael W. Deem and Ramdas Pophale) SiO2 
 PCOD8178788
Probable space group: A M M 2
;
_chemical_formula_sum "Si O2"
_cell_formula_units_Z 64
_cell_length_a 14.206756
_cell_length_b 25.113807
_cell_length_c 9.779777
_cell_angle_alpha 90.000000
_cell_angle_beta 90.000000
_cell_angle_gamma 90.000000
_cell_volume 3489.284859
_symmetry_space_group_name_H-M "A M M 2"
_symmetry_group_IT_number 38
_symmetry_cell_setting 'orthorhombic'
loop_
_space_group_symop_operation_xyz
x,y,z
-x,-y,z
-x,y,z
x,-y,z
x,1/2+y,1/2+z
-x,1/2-y,1/2+z
-x,1/2+y,1/2+z
x,1/2-y,1/2+z
loop_
_atom_site_type_symbol
_atom_site_label
_atom_site_fract_x
_atom_site_fract_y
_atom_site_fract_z
Si Si1 0.893696 0.687123 0.151740
Si Si2 0.609507 0.866984 0.490304
Si Si3 0.700594 0.167343 0.765289
Si Si4 0.104441 0.691030 0.618502
Si Si5 0.610126 0.282291 0.762330
Si Si6 0.290418 0.141055 0.057106
Si Si7 0.719370 0.562550 0.792293
Si Si8 0.895669 0.374218 0.877563
O O1 0.814155 0.673630 0.262769
O O2 0.878185 0.746645 0.096624
O O3 0.000000 0.681413 0.212957
O O4 0.877193 0.646227 0.029056
O O5 0.500000 0.873700 0.520553
O O6 0.663729 0.864212 0.633573
O O7 0.631401 0.814011 0.402419
O O8 0.644264 0.917830 0.404408
O O9 0.653096 0.224512 0.776378
O O10 0.671683 0.134448 0.902047
O O11 0.180868 0.656591 0.537705
O O12 0.116225 0.676903 0.779168
O O13 0.000000 0.675221 0.566162
O O14 0.500000 0.277982 0.732941
O O15 0.656150 0.311209 0.633130
O O16 0.304034 0.086925 0.142771
O O17 0.712128 0.500000 0.778485
O O18 0.823368 0.579307 0.839755
O O19 0.000000 0.398927 0.863782
#
# Coordination Sequence:
#
# PCOD8178788 Si02
#       8
#     8   8   8   8   8   8   8   8
#     4  10  20  30  48  78 117 153 177 210 262 321
#     4  10  22  39  58  82 110 143 188 231 272 327
#     4  12  21  32  54  83 118 151 177 216 267 327
#     4   9  18  30  48  76 113 155 185 210 250 312
#     4  10  21  36  54  78 113 154 187 217 259 320
#     4  10  22  34  54  82 114 146 183 228 268 326
#     4  10  21  41  63  80 101 137 186 240 291 330
#     4   9  18  34  54  81 111 143 189 227 257 315
#
# _framework density 18.341868000000002
#
# number of rings (size 3 to 8) (size 9 to 14) (size 15 to 20)
#    0.000    2.000    2.500    1.125    1.750    3.000 
#    0.000    0.625    0.000    0.000    0.000    0.000 
#    0.000    0.000    0.000    0.000    0.000    0.000 
#
# Total GULP energy -396738.413351 kJ/mol
# GULP energy per Si atom -12398.075417 kJ/mol
# Density = 1.830012 g / cm^3
# Si number density = 18.341868 Si / 1000 Ang^3
#
#
#
# Elastic Constant Matrix: (Units=GPa)
#
#
# Indices 1 2 3 4 5 6 
#
# 1 87.4025 32.1436 34.2207 0.0000 0.0000 0.0000
# 2 32.1436 108.5519 45.2030 0.0000 0.0000 0.0000
# 3 34.2207 45.2030 101.4293 0.0000 0.0000 0.0000
# 4 0.0000 0.0000 0.0000 8.9613 0.0000 0.0000
# 5 0.0000 0.0000 0.0000 0.0000 17.5501 0.0000
# 6 0.0000 0.0000 0.0000 0.0000 0.0000 15.6071
#
#
#
# Elastic Compliance Matrix: (Units=1/GPa)
#
#
# Indices 1 2 3 4 5 6 
#
# 1 0.013769 -0.002631 -0.003473 0.000000 0.000000 0.000000
# 2 -0.002631 0.011814 -0.004377 0.000000 0.000000 0.000000
# 3 -0.003473 -0.004377 0.012982 0.000000 0.000000 0.000000
# 4 0.000000 0.000000 0.000000 0.111592 0.000000 0.000000
# 5 0.000000 0.000000 0.000000 0.000000 0.056980 0.000000
# 6 0.000000 0.000000 0.000000 0.000000 0.000000 0.064074
#
#
# Mechanical properties :
#
#
# Convention : Reuss Voigt Hill
#
# Bulk Modulus (GPa) = 56.81190 57.83536 57.32363
# Shear Modulus (GPa) = 16.77635 20.81146 18.79390
#
# Velocity S-wave (km/s) = 3.02760 3.37210 3.20448
# Velocity P-wave (km/s) = 6.57745 6.83826 6.70912
#
# Compressibility (1/GPa) = 0.01760195
#
# Stress axis : x y z
#
# Youngs Moduli (GPa) = 72.62907 84.64481 77.03212
#
# Poissons Ratio (x) = 0.22269 0.26752
# Poissons Ratio (y) = 0.19108 0.33720
# Poissons Ratio (z) = 0.25223 0.37053
#
# Static dielectric constant tensor:
#      x y z
#    x 3.793530 0.000000 0.000000 
#    y 0.000000 2.901840 0.000000 
#    z 0.000000 0.000000 3.398420 
# 
# 
# High freq. dielectric constant tensor:
#      x y z
#    x 1.732220 0.000000 0.000000 
#    y 0.000000 1.659780 0.000000 
#    z 0.000000 0.000000 1.711140 
# 
# From -- ./inp_files/5883.got.cif
#   From: 2010.03.12/outbox.cif.g09.slc.cpg/sg38_3_cif.got.tgz:5883.got - 2010.04.14 02:38:36.
