data_PCOD8178974
_publ_section_title
;
Structure prediction by ZEFSAII (Michael W. Deem and Ramdas Pophale) SiO2 
 PCOD8178974
Probable space group: A M M 2
;
_chemical_formula_sum "Si O2"
_cell_formula_units_Z 64
_cell_length_a 9.125808
_cell_length_b 14.185926
_cell_length_c 28.333617
_cell_angle_alpha 90.000000
_cell_angle_beta 90.000000
_cell_angle_gamma 90.000000
_cell_volume 3668.014437
_symmetry_space_group_name_H-M "A M M 2"
_symmetry_group_IT_number 38
_symmetry_cell_setting 'orthorhombic'
loop_
_space_group_symop_operation_xyz
x,y,z
-x,-y,z
-x,y,z
x,-y,z
x,1/2+y,1/2+z
-x,1/2-y,1/2+z
-x,1/2+y,1/2+z
x,1/2-y,1/2+z
loop_
_atom_site_type_symbol
_atom_site_label
_atom_site_fract_x
_atom_site_fract_y
_atom_site_fract_z
Si Si1 0.828907 0.749434 0.437550
Si Si2 0.671126 0.392780 0.111206
Si Si3 0.329271 0.262691 0.685336
Si Si4 0.827954 0.106754 0.116691
Si Si5 0.826746 0.391763 0.359457
Si Si6 0.173388 0.761643 0.542252
Si Si7 0.326478 0.251609 0.293465
Si Si8 0.828515 0.608166 0.858565
O O1 0.773100 0.659495 0.407493
O O2 0.758121 0.751839 0.489632
O O3 0.790698 0.844695 0.408983
O O4 0.000000 0.738510 0.445194
O O5 0.500000 0.385328 0.100111
O O6 0.719730 0.500000 0.120661
O O7 0.713394 0.332679 0.157509
O O8 0.756679 0.353729 0.065891
O O9 0.500000 0.284347 0.681389
O O10 0.246823 0.352367 0.663543
O O11 0.279994 0.249845 0.739014
O O12 0.781917 0.167775 0.071006
O O13 0.000000 0.111276 0.125131
O O14 0.774424 0.000000 0.108191
O O15 0.780841 0.500000 0.362987
O O16 0.744479 0.345443 0.315322
O O17 0.000000 0.378005 0.352113
O O18 0.000000 0.776483 0.541572
O O19 0.500000 0.255025 0.300438
O O20 0.263384 0.157536 0.317418
O O21 0.780908 0.500000 0.861307
O O22 0.000000 0.620587 0.847033
#
# Coordination Sequence:
#
# PCOD8178974 Si02
#       8
#     8   8   8   8   8   8   8   8
#     4   8  15  29  49  72  96 123 156 192 230 274
#     4   9  18  33  50  67  91 123 157 192 231 278
#     4   9  19  34  50  68  91 123 160 194 231 278
#     4   9  18  31  47  70  98 124 152 190 235 278
#     4   9  18  33  52  73  97 126 160 195 232 280
#     4   9  17  30  49  72  97 123 153 192 233 274
#     4  10  20  33  50  72  97 124 157 200 243 282
#     4   9  18  33  51  70  95 128 163 197 235 282
#
# _framework density 17.448132000000001
#
# number of rings (size 3 to 8) (size 9 to 14) (size 15 to 20)
#    0.000    3.000    0.000    1.125    0.000    4.000 
#    0.000   10.000    0.000    0.000    0.000    5.250 
#    0.000    0.000    0.000    0.000    0.000    0.000 
#
# Total GULP energy -396768.779913 kJ/mol
# GULP energy per Si atom -12399.024372 kJ/mol
# Density = 1.740842 g / cm^3
# Si number density = 17.448132 Si / 1000 Ang^3
#
#
#
# Elastic Constant Matrix: (Units=GPa)
#
#
# Indices 1 2 3 4 5 6 
#
# 1 33.6907 37.1144 40.9670 0.0000 0.0000 0.0000
# 2 37.1144 155.1846 71.8450 0.0000 0.0000 0.0000
# 3 40.9670 71.8450 160.5970 0.0000 0.0000 0.0000
# 4 0.0000 0.0000 0.0000 13.3014 0.0000 0.0000
# 5 0.0000 0.0000 0.0000 0.0000 22.0106 0.0000
# 6 0.0000 0.0000 0.0000 0.0000 0.0000 23.7203
#
#
#
# Elastic Compliance Matrix: (Units=1/GPa)
#
#
# Indices 1 2 3 4 5 6 
#
# 1 0.049088 -0.007495 -0.009169 0.000000 0.000000 0.000000
# 2 -0.007495 0.009272 -0.002236 0.000000 0.000000 0.000000
# 3 -0.009169 -0.002236 0.009566 0.000000 0.000000 0.000000
# 4 0.000000 0.000000 0.000000 0.075180 0.000000 0.000000
# 5 0.000000 0.000000 0.000000 0.000000 0.045433 0.000000
# 6 0.000000 0.000000 0.000000 0.000000 0.000000 0.042158
#
#
# Mechanical properties :
#
#
# Convention : Reuss Voigt Hill
#
# Bulk Modulus (GPa) = 33.19436 72.14721 52.67079
# Shear Modulus (GPa) = 17.95092 25.10952 21.53022
#
# Velocity S-wave (km/s) = 3.21100 3.79766 3.51658
# Velocity P-wave (km/s) = 5.72828 7.78902 6.83674
#
# Compressibility (1/GPa) = 0.03012560
#
# Stress axis : x y z
#
# Youngs Moduli (GPa) = 20.37175 107.85638 104.53829
#
# Poissons Ratio (x) = 0.80839 0.95849
# Poissons Ratio (y) = 0.15269 0.23373
# Poissons Ratio (z) = 0.18678 0.24115
#
# Static dielectric constant tensor:
#      x y z
#    x 3.055150 0.000000 0.000000 
#    y 0.000000 3.382660 0.000000 
#    z 0.000000 0.000000 3.414820 
# 
# 
# High freq. dielectric constant tensor:
#      x y z
#    x 1.655620 0.000000 0.000000 
#    y 0.000000 1.677830 0.000000 
#    z 0.000000 0.000000 1.676730 
# 
# From -- ./inp_files/24787.got.cif
#   From: 2010.03.12/outbox.cif.g09.slc.cpg/sg38_13_cif.got.tgz:24787.got - 2010.04.14 02:38:36.
