data_PCOD8178891
_publ_section_title
;
Structure prediction by ZEFSAII (Michael W. Deem and Ramdas Pophale) SiO2 
 PCOD8178891
Probable space group: A M M 2
;
_chemical_formula_sum "Si O2"
_cell_formula_units_Z 40
_cell_length_a 8.777376
_cell_length_b 9.590848
_cell_length_c 25.737437
_cell_angle_alpha 90.000000
_cell_angle_beta 90.000000
_cell_angle_gamma 90.000000
_cell_volume 2166.641251
_symmetry_space_group_name_H-M "A M M 2"
_symmetry_group_IT_number 38
_symmetry_cell_setting 'orthorhombic'
loop_
_space_group_symop_operation_xyz
x,y,z
-x,-y,z
-x,y,z
x,-y,z
x,1/2+y,1/2+z
-x,1/2-y,1/2+z
-x,1/2+y,1/2+z
x,1/2-y,1/2+z
loop_
_atom_site_type_symbol
_atom_site_label
_atom_site_fract_x
_atom_site_fract_y
_atom_site_fract_z
Si Si1 0.181305 0.656743 0.651320
Si Si2 0.819081 0.156426 0.266177
Si Si3 0.321203 0.340170 0.468129
Si Si4 0.181050 0.658200 0.057600
Si Si5 0.824085 0.338833 0.360112
O O1 0.238998 0.500000 0.638435
O O2 0.239345 0.702122 0.708782
O O3 0.246992 0.763813 0.608686
O O4 0.000000 0.658347 0.650197
O O5 0.754068 0.256772 0.310857
O O6 0.000000 0.164176 0.266389
O O7 0.763407 0.000000 0.278187
O O8 0.500000 0.320933 0.474430
O O9 0.271352 0.500000 0.479198
O O10 0.236459 0.237959 0.506943
O O11 0.272627 0.296260 0.410321
O O12 0.243233 0.500000 0.057358
O O13 0.000000 0.659672 0.057898
O O14 0.805479 0.500000 0.346616
O O15 0.000000 0.299585 0.370572
#
# Coordination Sequence:
#
# PCOD8178891 Si02
#       5
#     8   8   8   8   8
#     4   8  14  26  45  69  97 127 157 192 236 285
#     4   8  14  25  43  69  98 125 154 190 233 280
#     4  10  21  36  52  69  93 129 169 205 243 289
#     4  10  20  32  49  75 102 127 159 201 246 289
#     4   9  17  29  47  71  96 122 155 197 242 286
#
# _framework density 18.461753999999999
#
# number of rings (size 3 to 8) (size 9 to 14) (size 15 to 20)
#    0.000    3.000    0.000    2.400    0.000    4.000 
#    0.000    6.000    0.000    1.200    0.000    5.600 
#    0.000    0.000    0.000    0.000    0.000    0.000 
#
# Total GULP energy -247926.960912 kJ/mol
# GULP energy per Si atom -12396.348046 kJ/mol
# Density = 1.841973 g / cm^3
# Si number density = 18.461754 Si / 1000 Ang^3
#
#
#
# Elastic Constant Matrix: (Units=GPa)
#
#
# Indices 1 2 3 4 5 6 
#
# 1 9.9315 13.9255 8.3249 0.0000 0.0000 0.0000
# 2 13.9255 121.0283 95.9586 0.0000 0.0000 0.0000
# 3 8.3249 95.9586 151.1770 0.0000 0.0000 0.0000
# 4 0.0000 0.0000 0.0000 42.8741 0.0000 0.0000
# 5 0.0000 0.0000 0.0000 0.0000 -1.1352 0.0000
# 6 0.0000 0.0000 0.0000 0.0000 0.0000 13.3330
#
#
#
# Elastic Compliance Matrix: (Units=1/GPa)
#
#
# Indices 1 2 3 4 5 6 
#
# 1 0.121493 -0.017463 0.004394 0.000000 0.000000 0.000000
# 2 -0.017463 0.019144 -0.011190 0.000000 0.000000 0.000000
# 3 0.004394 -0.011190 0.013475 0.000000 0.000000 0.000000
# 4 0.000000 0.000000 0.000000 0.023324 0.000000 0.000000
# 5 0.000000 0.000000 0.000000 0.000000 -0.880930 0.000000
# 6 0.000000 0.000000 0.000000 0.000000 0.000000 0.075002
#
#
# Mechanical properties :
#
#
# Convention : Reuss Voigt Hill
#
# Bulk Modulus (GPa) = 9.47016 57.61718 33.54367
# Shear Modulus (GPa) = -9.17807 21.94290 6.38242
#
# Velocity S-wave (km/s) = -2.23208 3.45129 1.86135
# Velocity P-wave (km/s) = 1.22563 6.86721 4.77789
#
# Compressibility (1/GPa) = 0.10559483
#
# Stress axis : x y z
#
# Youngs Moduli (GPa) = 8.23096 52.23662 74.20951
#
# Poissons Ratio (x) = 0.91220 -0.32609
# Poissons Ratio (y) = 0.14374 0.83038
# Poissons Ratio (z) = -0.03617 0.58451
#
# Static dielectric constant tensor:
#      x y z
#    x 2.902090 0.000000 0.000000 
#    y 0.000000 3.573830 0.000000 
#    z 0.000000 0.000000 3.745160 
# 
# 
# High freq. dielectric constant tensor:
#      x y z
#    x 1.664570 0.000000 0.000000 
#    y 0.000000 1.714280 0.000000 
#    z 0.000000 0.000000 1.731600 
# 
# From -- ./inp_files/19462.got.cif
#   From: 2010.03.12/outbox.cif.g09.slc.cpg/sg38_10_cif.got.tgz:19462.got - 2010.04.14 02:38:36.
