data_PCOD8178482
_publ_section_title
;
Structure prediction by ZEFSAII (Michael W. Deem and Ramdas Pophale) SiO2 
 PCOD8178482
Probable space group: A M M 2
;
_chemical_formula_sum "Si O2"
_cell_formula_units_Z 64
_cell_length_a 23.905999
_cell_length_b 8.645032
_cell_length_c 15.503089
_cell_angle_alpha 90.000000
_cell_angle_beta 90.000000
_cell_angle_gamma 90.000000
_cell_volume 3203.994356
_symmetry_space_group_name_H-M "A M M 2"
_symmetry_group_IT_number 38
_symmetry_cell_setting 'orthorhombic'
loop_
_space_group_symop_operation_xyz
x,y,z
-x,-y,z
-x,y,z
x,-y,z
x,1/2+y,1/2+z
-x,1/2-y,1/2+z
-x,1/2+y,1/2+z
x,1/2-y,1/2+z
loop_
_atom_site_type_symbol
_atom_site_label
_atom_site_fract_x
_atom_site_fract_y
_atom_site_fract_z
Si Si1 0.065573 0.821278 0.917750
Si Si2 0.753934 0.316692 0.815702
Si Si3 0.125850 0.317851 0.755742
Si Si4 0.635800 0.816448 0.251787
Si Si5 0.437066 0.815792 0.411424
Si Si6 0.634308 0.816506 0.572264
Si Si7 0.129230 0.682016 0.076496
Si Si8 0.247036 0.316240 0.008762
O O1 0.088205 0.767942 0.825506
O O2 0.000000 0.791370 0.918765
O O3 0.080564 0.000000 0.932516
O O4 0.092147 0.720873 0.993809
O O5 0.750371 0.500000 0.821192
O O6 0.809657 0.263759 0.765926
O O7 0.698863 0.253120 0.767282
O O8 0.755655 0.247519 0.912198
O O9 0.118832 0.500000 0.769279
O O10 0.105429 0.269166 0.660582
O O11 0.595972 0.753978 0.327865
O O12 0.634676 0.000000 0.248757
O O13 0.612365 0.750198 0.162392
O O14 0.500000 0.749797 0.409617
O O15 0.406296 0.754199 0.497159
O O16 0.437125 0.000000 0.411388
O O17 0.697143 0.754098 0.555088
O O18 0.633305 0.000000 0.575300
O O19 0.126805 0.500000 0.092976
O O20 0.192658 0.740608 0.060616
O O21 0.247958 0.500000 0.003212
#
# Coordination Sequence:
#
# PCOD8178482 Si02
#       8
#     8   8   8   8   8   8   8   8
#     4  11  25  44  63  85 115 151 194 239 280 328
#     4   9  16  31  56  83 110 144 182 222 275 334
#     4  11  22  38  62  89 118 150 187 232 284 342
#     4  10  19  33  55  79 108 142 180 226 274 329
#     4   9  18  33  53  75 101 143 192 227 264 324
#     4  10  19  33  55  79 108 142 180 226 274 329
#     4  11  22  38  62  89 118 150 187 232 284 342
#     4   9  16  31  56  83 110 144 182 222 275 334
#
# _framework density 19.975066000000002
#
# number of rings (size 3 to 8) (size 9 to 14) (size 15 to 20)
#    0.000    2.000    2.500    1.875    0.000    2.000 
#    0.000    1.875    0.000    0.750    0.000    0.000 
#    0.000    0.000    0.000    0.000    0.000    0.000 
#
# Total GULP energy -396846.935112 kJ/mol
# GULP energy per Si atom -12401.466722 kJ/mol
# Density = 1.992960 g / cm^3
# Si number density = 19.975066 Si / 1000 Ang^3
#
#
#
# Elastic Constant Matrix: (Units=GPa)
#
#
# Indices 1 2 3 4 5 6 
#
# 1 116.8741 28.6042 45.1809 0.0000 0.0000 0.0000
# 2 28.6042 24.2211 14.3692 0.0000 0.0000 0.0000
# 3 45.1809 14.3692 149.6658 0.0000 0.0000 0.0000
# 4 0.0000 0.0000 0.0000 30.6555 0.0000 0.0000
# 5 0.0000 0.0000 0.0000 0.0000 11.9610 0.0000
# 6 0.0000 0.0000 0.0000 0.0000 0.0000 13.9641
#
#
#
# Elastic Compliance Matrix: (Units=1/GPa)
#
#
# Indices 1 2 3 4 5 6 
#
# 1 0.012911 -0.013716 -0.002581 0.000000 0.000000 0.000000
# 2 -0.013716 0.058352 -0.001462 0.000000 0.000000 0.000000
# 3 -0.002581 -0.001462 0.007601 0.000000 0.000000 0.000000
# 4 0.000000 0.000000 0.000000 0.032621 0.000000 0.000000
# 5 0.000000 0.000000 0.000000 0.000000 0.083605 0.000000
# 6 0.000000 0.000000 0.000000 0.000000 0.000000 0.071612
#
#
# Mechanical properties :
#
#
# Convention : Reuss Voigt Hill
#
# Bulk Modulus (GPa) = 23.06995 51.89662 37.48329
# Shear Modulus (GPa) = 15.78948 24.82325 20.30637
#
# Velocity S-wave (km/s) = 2.81456 3.52904 3.19185
# Velocity P-wave (km/s) = 4.70498 6.53013 5.69119
#
# Compressibility (1/GPa) = 0.04334643
#
# Stress axis : x y z
#
# Youngs Moduli (GPa) = 77.45483 17.13751 131.56313
#
# Poissons Ratio (x) = 0.23506 0.33951
# Poissons Ratio (y) = 1.06238 0.19230
# Poissons Ratio (z) = 0.19988 0.02505
#
# Static dielectric constant tensor:
#      x y z
#    x 3.812420 0.000000 0.000000 
#    y 0.000000 3.167730 0.000000 
#    z 0.000000 0.000000 3.740560 
# 
# 
# High freq. dielectric constant tensor:
#      x y z
#    x 1.779960 0.000000 0.000000 
#    y 0.000000 1.739610 0.000000 
#    z 0.000000 0.000000 1.795330 
# 
# From -- ./inp_files/15845.got.cif
#   From: 2010.03.12/outbox.cif.g09.slc.cpg/sg38_8_cif.got.tgz:15845.got - 2010.04.14 02:38:36.
