data_PCOD8178595
_publ_section_title
;
Structure prediction by ZEFSAII (Michael W. Deem and Ramdas Pophale) SiO2 
 PCOD8178595
Probable space group: A M M 2
;
_chemical_formula_sum "Si O2"
_cell_formula_units_Z 64
_cell_length_a 24.096894
_cell_length_b 8.914251
_cell_length_c 15.361090
_cell_angle_alpha 90.000000
_cell_angle_beta 90.000000
_cell_angle_gamma 90.000000
_cell_volume 3299.650634
_symmetry_space_group_name_H-M "A M M 2"
_symmetry_group_IT_number 38
_symmetry_cell_setting 'orthorhombic'
loop_
_space_group_symop_operation_xyz
x,y,z
-x,-y,z
-x,y,z
x,-y,z
x,1/2+y,1/2+z
-x,1/2-y,1/2+z
-x,1/2+y,1/2+z
x,1/2-y,1/2+z
loop_
_atom_site_type_symbol
_atom_site_label
_atom_site_fract_x
_atom_site_fract_y
_atom_site_fract_z
Si Si1 0.637405 0.320206 0.582130
Si Si2 0.859762 0.673600 0.834691
Si Si3 0.363085 0.822309 0.399232
Si Si4 0.248798 0.669982 0.380832
Si Si5 0.562119 0.822103 0.239798
Si Si6 0.759011 0.831569 0.083311
Si Si7 0.874448 0.674343 0.641780
Si Si8 0.062603 0.177585 0.489653
O O1 0.638865 0.500000 0.572477
O O2 0.618794 0.252979 0.489796
O O3 0.595471 0.261865 0.655749
O O4 0.699256 0.257764 0.606388
O O5 0.846084 0.500000 0.852047
O O6 0.801879 0.761016 0.827060
O O7 0.891380 0.694845 0.742617
O O8 0.898910 0.738782 0.911065
O O9 0.303817 0.766604 0.364281
O O10 0.408532 0.770977 0.328570
O O11 0.360969 0.000000 0.410802
O O12 0.259881 0.500000 0.350235
O O13 0.231378 0.675812 0.480793
O O14 0.500000 0.754964 0.237684
O O15 0.560619 0.000000 0.234768
O O16 0.812604 0.753921 0.127307
O O17 0.756602 0.000000 0.119033
O O18 0.874123 0.500000 0.614215
O O19 0.918694 0.758723 0.582482
O O20 0.000000 0.231757 0.471492
O O21 0.065927 0.000000 0.493973
#
# Coordination Sequence:
#
# PCOD8178595 Si02
#       8
#     8   8   8   8   8   8   8   8
#     4   9  18  34  55  78 109 146 182 224 274 330
#     4  10  21  35  57  86 113 143 182 228 279 326
#     4  10  20  34  55  82 112 144 184 233 280 326
#     4  10  19  34  56  81 114 148 183 226 275 334
#     4   9  19  35  56  81 109 147 191 227 268 332
#     4   8  15  29  51  77 105 137 174 219 265 314
#     4  10  20  35  57  84 110 142 187 226 266 329
#     4  10  22  40  57  78 114 150 180 224 277 324
#
# _framework density 19.395994000000002
#
# number of rings (size 3 to 8) (size 9 to 14) (size 15 to 20)
#    0.000    2.500    1.250    1.500    1.750    1.750 
#    0.000    2.500    0.000    2.625    0.000    0.000 
#    0.000    0.000    0.000    0.000    0.000    0.000 
#
# Total GULP energy -396717.036096 kJ/mol
# GULP energy per Si atom -12397.407378 kJ/mol
# Density = 1.935185 g / cm^3
# Si number density = 19.395994 Si / 1000 Ang^3
#
#
#
# Elastic Constant Matrix: (Units=GPa)
#
#
# Indices 1 2 3 4 5 6 
#
# 1 128.6263 27.1078 61.4669 0.0000 0.0000 0.0000
# 2 27.1078 38.0509 25.7078 0.0000 0.0000 0.0000
# 3 61.4669 25.7078 101.7464 0.0000 0.0000 0.0000
# 4 0.0000 0.0000 0.0000 27.0499 0.0000 0.0000
# 5 0.0000 0.0000 0.0000 0.0000 28.3781 0.0000
# 6 0.0000 0.0000 0.0000 0.0000 0.0000 21.0935
#
#
#
# Elastic Compliance Matrix: (Units=1/GPa)
#
#
# Indices 1 2 3 4 5 6 
#
# 1 0.011462 -0.004205 -0.005862 0.000000 0.000000 0.000000
# 2 -0.004205 0.033233 -0.005856 0.000000 0.000000 0.000000
# 3 -0.005862 -0.005856 0.014849 0.000000 0.000000 0.000000
# 4 0.000000 0.000000 0.000000 0.036969 0.000000 0.000000
# 5 0.000000 0.000000 0.000000 0.000000 0.035238 0.000000
# 6 0.000000 0.000000 0.000000 0.000000 0.000000 0.047408
#
#
# Mechanical properties :
#
#
# Convention : Reuss Voigt Hill
#
# Bulk Modulus (GPa) = 36.10445 55.22097 45.66271
# Shear Modulus (GPa) = 22.70261 25.58036 24.14148
#
# Velocity S-wave (km/s) = 3.42494 3.63553 3.53181
# Velocity P-wave (km/s) = 5.85620 6.79374 6.34232
#
# Compressibility (1/GPa) = 0.02769742
#
# Stress axis : x y z
#
# Youngs Moduli (GPa) = 87.24541 30.09044 67.34313
#
# Poissons Ratio (x) = 0.12654 0.39476
# Poissons Ratio (y) = 0.36689 0.39439
# Poissons Ratio (z) = 0.51142 0.17622
#
# Static dielectric constant tensor:
#      x y z
#    x 3.716180 0.000000 0.000000 
#    y 0.000000 3.235610 0.000000 
#    z 0.000000 0.000000 3.523570 
# 
# 
# High freq. dielectric constant tensor:
#      x y z
#    x 1.756160 0.000000 0.000000 
#    y 0.000000 1.721560 0.000000 
#    z 0.000000 0.000000 1.758510 
# 
# From -- ./inp_files/15873.got.cif
#   From: 2010.03.12/outbox.cif.g09.slc.cpg/sg38_8_cif.got.tgz:15873.got - 2010.04.14 02:38:36.
