data_PCOD8178519
_publ_section_title
;
Structure prediction by ZEFSAII (Michael W. Deem and Ramdas Pophale) SiO2 
 PCOD8178519
Probable space group: A M M 2
;
_chemical_formula_sum "Si O2"
_cell_formula_units_Z 64
_cell_length_a 9.026788
_cell_length_b 18.465420
_cell_length_c 20.656121
_cell_angle_alpha 90.000000
_cell_angle_beta 90.000000
_cell_angle_gamma 90.000000
_cell_volume 3443.033133
_symmetry_space_group_name_H-M "A M M 2"
_symmetry_group_IT_number 38
_symmetry_cell_setting 'orthorhombic'
loop_
_space_group_symop_operation_xyz
x,y,z
-x,-y,z
-x,y,z
x,-y,z
x,1/2+y,1/2+z
-x,1/2-y,1/2+z
-x,1/2+y,1/2+z
x,1/2-y,1/2+z
loop_
_atom_site_type_symbol
_atom_site_label
_atom_site_fract_x
_atom_site_fract_y
_atom_site_fract_z
Si Si1 0.173431 0.583441 0.965330
Si Si2 0.830342 0.320845 0.726472
Si Si3 0.665933 0.658762 0.359046
Si Si4 0.173483 0.314766 0.583578
Si Si5 0.666646 0.823335 0.719694
Si Si6 0.330069 0.161369 0.578178
Si Si7 0.670888 0.329841 0.852396
Si Si8 0.825113 0.919329 0.971060
O O1 0.211004 0.500000 0.952204
O O2 0.241360 0.630888 0.908641
O O3 0.000000 0.598122 0.967726
O O4 0.240721 0.605897 0.034139
O O5 0.799677 0.351813 0.654204
O O6 0.794354 0.236217 0.720668
O O7 0.730487 0.357498 0.782349
O O8 0.000000 0.331506 0.747044
O O9 0.500000 0.643946 0.384407
O O10 0.685128 0.628887 0.285021
O O11 0.699386 0.744407 0.359432
O O12 0.779628 0.616998 0.403804
O O13 0.266879 0.242268 0.572824
O O14 0.232685 0.372216 0.531283
O O15 0.000000 0.296041 0.574414
O O16 0.500000 0.787620 0.722110
O O17 0.682639 0.867755 0.652605
O O18 0.500000 0.163334 0.554865
O O19 0.500000 0.350774 0.857890
O O20 0.000000 0.923214 0.972525
O O21 0.757213 0.000000 0.976056
#
# Coordination Sequence:
#
# PCOD8178519 Si02
#       8
#     8   8   8   8   8   8   8   8
#     4  11  24  39  53  73 104 139 174 213 257 309
#     4   9  16  28  50  79 105 131 167 210 256 302
#     4   9  18  33  53  77 102 130 166 207 252 300
#     4   9  18  33  53  76 104 138 174 212 255 305
#     4   8  16  31  50  75 105 133 165 208 256 306
#     4  10  19  33  56  81 103 131 169 213 260 309
#     4  10  20  35  56  80 105 133 167 209 257 310
#     4  10  21  35  49  69 100 137 174 210 249 294
#
# _framework density 18.588260999999999
#
# number of rings (size 3 to 8) (size 9 to 14) (size 15 to 20)
#    0.000    2.500    0.000    3.000    0.000    7.250 
#    0.000    1.250    0.000    6.000    0.000    0.000 
#    0.000    0.000    0.000    0.000    0.000    0.000 
#
# Total GULP energy -396638.447196 kJ/mol
# GULP energy per Si atom -12394.951475 kJ/mol
# Density = 1.854595 g / cm^3
# Si number density = 18.588261 Si / 1000 Ang^3
#
#
#
# Elastic Constant Matrix: (Units=GPa)
#
#
# Indices 1 2 3 4 5 6 
#
# 1 66.8247 29.2021 40.1833 0.0000 0.0000 0.0000
# 2 29.2021 45.0140 30.3328 0.0000 0.0000 0.0000
# 3 40.1833 30.3328 128.0853 0.0000 0.0000 0.0000
# 4 0.0000 0.0000 0.0000 0.8164 0.0000 0.0000
# 5 0.0000 0.0000 0.0000 0.0000 34.1195 0.0000
# 6 0.0000 0.0000 0.0000 0.0000 0.0000 13.9003
#
#
#
# Elastic Compliance Matrix: (Units=1/GPa)
#
#
# Indices 1 2 3 4 5 6 
#
# 1 0.022741 -0.011834 -0.004332 0.000000 0.000000 0.000000
# 2 -0.011834 0.032591 -0.004006 0.000000 0.000000 0.000000
# 3 -0.004332 -0.004006 0.010115 0.000000 0.000000 0.000000
# 4 0.000000 0.000000 0.000000 1.224844 0.000000 0.000000
# 5 0.000000 0.000000 0.000000 0.000000 0.029309 0.000000
# 6 0.000000 0.000000 0.000000 0.000000 0.000000 0.071941
#
#
# Mechanical properties :
#
#
# Convention : Reuss Voigt Hill
#
# Bulk Modulus (GPa) = 39.83331 48.81783 44.32557
# Shear Modulus (GPa) = 3.47162 19.11429 11.29295
#
# Velocity S-wave (km/s) = 1.36810 3.21019 2.46749
# Velocity P-wave (km/s) = 4.89606 6.32931 5.65825
#
# Compressibility (1/GPa) = 0.02510462
#
# Stress axis : x y z
#
# Youngs Moduli (GPa) = 43.97420 30.68288 98.86366
#
# Poissons Ratio (x) = 0.36309 0.42826
# Poissons Ratio (y) = 0.52037 0.39602
# Poissons Ratio (z) = 0.19049 0.12291
#
# Static dielectric constant tensor:
#      x y z
#    x 3.457780 0.000000 0.000000 
#    y 0.000000 3.088430 0.000000 
#    z 0.000000 0.000000 3.858080 
# 
# 
# High freq. dielectric constant tensor:
#      x y z
#    x 1.727110 0.000000 0.000000 
#    y 0.000000 1.672260 0.000000 
#    z 0.000000 0.000000 1.746530 
# 
# From -- ./inp_files/20110.got.cif
#   From: 2010.03.12/outbox.cif.g09.slc.cpg/sg38_11_cif.got.tgz:20110.got - 2010.04.14 02:38:36.
