data_PCOD8178802
_publ_section_title
;
Structure prediction by ZEFSAII (Michael W. Deem and Ramdas Pophale) SiO2 
 PCOD8178802
Probable space group: A M M 2
;
_chemical_formula_sum "Si O2"
_cell_formula_units_Z 64
_cell_length_a 14.658470
_cell_length_b 14.276860
_cell_length_c 17.657206
_cell_angle_alpha 90.000000
_cell_angle_beta 90.000000
_cell_angle_gamma 90.000000
_cell_volume 3695.245758
_symmetry_space_group_name_H-M "A M M 2"
_symmetry_group_IT_number 38
_symmetry_cell_setting 'orthorhombic'
loop_
_space_group_symop_operation_xyz
x,y,z
-x,-y,z
-x,y,z
x,-y,z
x,1/2+y,1/2+z
-x,1/2-y,1/2+z
-x,1/2+y,1/2+z
x,1/2-y,1/2+z
loop_
_atom_site_type_symbol
_atom_site_label
_atom_site_fract_x
_atom_site_fract_y
_atom_site_fract_z
Si Si1 0.893150 0.390876 0.968910
Si Si2 0.794882 0.247963 0.219645
Si Si3 0.897803 0.402228 0.636914
Si Si4 0.250377 0.606423 0.841641
Si Si5 0.741125 0.282610 0.055467
Si Si6 0.397944 0.392412 0.967275
Si Si7 0.192893 0.393129 0.484571
Si Si8 0.105462 0.890139 0.824361
O O1 0.885996 0.500000 0.991158
O O2 0.843515 0.373913 0.888067
O O3 0.000000 0.359661 0.965123
O O4 0.836981 0.332562 0.031956
O O5 0.875960 0.183223 0.190648
O O6 0.736626 0.183353 0.276378
O O7 0.735187 0.274535 0.146379
O O8 0.836770 0.339052 0.259360
O O9 0.844046 0.500000 0.657309
O O10 0.884606 0.381001 0.548185
O O11 0.000000 0.424320 0.652650
O O12 0.248658 0.500000 0.810051
O O13 0.339345 0.622398 0.892141
O O14 0.730969 0.182423 0.011093
O O15 0.651204 0.340407 0.036150
O O16 0.500000 0.352730 0.954628
O O17 0.401500 0.500000 0.990710
O O18 0.231817 0.500000 0.480842
O O19 0.148474 0.363268 0.405223
O O20 0.000000 0.858310 0.822947
O O21 0.113829 0.000000 0.808635
#
# Coordination Sequence:
#
# PCOD8178802 Si02
#       8
#     8   8   8   8   8   8   8   8
#     4   9  18  32  50  71  97 133 175 216 253 287
#     4  11  21  30  43  68 101 131 153 189 248 300
#     4   9  17  29  45  65  90 125 169 208 238 272
#     4   9  18  33  52  76 102 125 156 199 247 298
#     4  10  20  32  50  74 100 129 161 197 240 291
#     4   9  18  36  62  83  95 115 153 200 245 289
#     4   9  18  32  48  64  87 126 173 211 234 260
#     4  10  20  31  42  59  88 130 176 211 233 262
#
# _framework density 17.319552000000002
#
# number of rings (size 3 to 8) (size 9 to 14) (size 15 to 20)
#    0.000    2.500    0.000    3.750    0.000    8.000 
#    0.000    3.125    0.000    0.375    0.000    0.000 
#    0.000    0.000    0.000    0.000    0.000    0.000 
#
# Total GULP energy -396490.923826 kJ/mol
# GULP energy per Si atom -12390.341370 kJ/mol
# Density = 1.728013 g / cm^3
# Si number density = 17.319552 Si / 1000 Ang^3
#
#
#
# Elastic Constant Matrix: (Units=GPa)
#
#
# Indices 1 2 3 4 5 6 
#
# 1 102.9719 36.7112 41.3654 0.0000 0.0000 0.0000
# 2 36.7112 78.2096 57.3904 0.0000 0.0000 0.0000
# 3 41.3654 57.3904 112.0162 0.0000 0.0000 0.0000
# 4 0.0000 0.0000 0.0000 21.7689 0.0000 0.0000
# 5 0.0000 0.0000 0.0000 0.0000 4.5790 0.0000
# 6 0.0000 0.0000 0.0000 0.0000 0.0000 18.2284
#
#
#
# Elastic Compliance Matrix: (Units=1/GPa)
#
#
# Indices 1 2 3 4 5 6 
#
# 1 0.012083 -0.003842 -0.002494 0.000000 0.000000 0.000000
# 2 -0.003842 0.021711 -0.009705 0.000000 0.000000 0.000000
# 3 -0.002494 -0.009705 0.014820 0.000000 0.000000 0.000000
# 4 0.000000 0.000000 0.000000 0.045937 0.000000 0.000000
# 5 0.000000 0.000000 0.000000 0.000000 0.218386 0.000000
# 6 0.000000 0.000000 0.000000 0.000000 0.000000 0.054859
#
#
# Mechanical properties :
#
#
# Convention : Reuss Voigt Hill
#
# Bulk Modulus (GPa) = 60.48254 62.68130 61.58192
# Shear Modulus (GPa) = 12.33388 19.43066 15.88227
#
# Velocity S-wave (km/s) = 2.67148 3.35310 3.03151
# Velocity P-wave (km/s) = 6.67181 7.15965 6.92003
#
# Compressibility (1/GPa) = 0.01653370
#
# Stress axis : x y z
#
# Youngs Moduli (GPa) = 82.76243 46.06024 67.47560
#
# Poissons Ratio (x) = 0.17695 0.16826
# Poissons Ratio (y) = 0.31795 0.65482
# Poissons Ratio (z) = 0.20638 0.44699
#
# Static dielectric constant tensor:
#      x y z
#    x 2.977100 0.000000 0.000000 
#    y 0.000000 3.529010 0.000000 
#    z 0.000000 0.000000 3.232310 
# 
# 
# High freq. dielectric constant tensor:
#      x y z
#    x 1.620570 0.000000 0.000000 
#    y 0.000000 1.689230 0.000000 
#    z 0.000000 0.000000 1.667080 
# 
# From -- ./inp_files/18505.got.cif
#   From: 2010.03.12/outbox.cif.g09.slc.cpg/sg38_10_cif.got.tgz:18505.got - 2010.04.14 02:38:36.
