data_PCOD8178685
_publ_section_title
;
Structure prediction by ZEFSAII (Michael W. Deem and Ramdas Pophale) SiO2 
 PCOD8178685
Probable space group: A M M 2
;
_chemical_formula_sum "Si O2"
_cell_formula_units_Z 48
_cell_length_a 15.538031
_cell_length_b 9.098327
_cell_length_c 17.897012
_cell_angle_alpha 90.000000
_cell_angle_beta 90.000000
_cell_angle_gamma 90.000000
_cell_volume 2530.102143
_symmetry_space_group_name_H-M "A M M 2"
_symmetry_group_IT_number 38
_symmetry_cell_setting 'orthorhombic'
loop_
_space_group_symop_operation_xyz
x,y,z
-x,-y,z
-x,y,z
x,-y,z
x,1/2+y,1/2+z
-x,1/2-y,1/2+z
-x,1/2+y,1/2+z
x,1/2-y,1/2+z
loop_
_atom_site_type_symbol
_atom_site_label
_atom_site_fract_x
_atom_site_fract_y
_atom_site_fract_z
Si Si1 0.500000 0.174408 0.819790
Si Si2 0.171648 0.172780 0.145330
Si Si3 0.340279 0.671685 0.894438
Si Si4 0.329788 0.171941 0.568501
Si Si5 0.833032 0.174168 0.313911
Si Si6 0.000000 0.175218 0.400078
Si Si7 0.500000 0.674273 0.149536
Si Si8 0.000000 0.829115 0.057535
O O1 0.583915 0.235049 0.859447
O O2 0.500000 0.229650 0.734448
O O3 0.500000 0.000000 0.824746
O O4 0.247481 0.247721 0.100399
O O5 0.169168 0.235607 0.229638
O O6 0.082353 0.213563 0.106430
O O7 0.188513 0.000000 0.145706
O O8 0.357267 0.500000 0.879288
O O9 0.251890 0.726393 0.857261
O O10 0.336540 0.706826 0.981491
O O11 0.415121 0.235499 0.608412
O O12 0.318800 0.000000 0.583832
O O13 0.916303 0.236695 0.356897
O O14 0.839330 0.000000 0.312436
O O15 0.000000 0.233712 0.483525
O O16 0.000000 0.000000 0.403514
O O17 0.500000 0.500000 0.143895
O O18 0.000000 0.000000 0.035817
#
# Coordination Sequence:
#
# PCOD8178685 Si02
#       8
#     4   8   8   8   8   4   4   4
#     4  11  22  35  53  77 104 137 176 214 256 311
#     4  10  20  35  54  77 108 142 174 212 259 311
#     4  10  20  35  55  78 105 137 173 216 263 308
#     4  10  20  36  57  79 104 136 174 215 261 311
#     4   9  18  33  55  81 105 135 177 218 257 304
#     4  10  19  35  59  81 103 136 180 222 254 300
#     4   9  19  35  53  75 106 139 168 208 266 319
#     4  10  21  35  51  75 109 144 172 208 266 318
#
# _framework density 18.971565999999999
#
# number of rings (size 3 to 8) (size 9 to 14) (size 15 to 20)
#    0.000    2.167    0.000    3.250    0.000    6.000 
#    0.000    2.917    0.000    1.000    0.000    0.000 
#    0.000    0.000    0.000    0.000    0.000    0.000 
#
# Total GULP energy -297673.263816 kJ/mol
# GULP energy per Si atom -12403.052659 kJ/mol
# Density = 1.892839 g / cm^3
# Si number density = 18.971566 Si / 1000 Ang^3
#
#
#
# Elastic Constant Matrix: (Units=GPa)
#
#
# Indices 1 2 3 4 5 6 
#
# 1 202.0164 52.6136 101.0671 0.0000 0.0000 0.0000
# 2 52.6136 34.8371 53.3783 0.0000 0.0000 0.0000
# 3 101.0671 53.3783 168.6578 0.0000 0.0000 0.0000
# 4 0.0000 0.0000 0.0000 15.7123 0.0000 0.0000
# 5 0.0000 0.0000 0.0000 0.0000 40.5551 0.0000
# 6 0.0000 0.0000 0.0000 0.0000 0.0000 14.1746
#
#
#
# Elastic Compliance Matrix: (Units=1/GPa)
#
#
# Indices 1 2 3 4 5 6 
#
# 1 0.008493 -0.009763 -0.002000 0.000000 0.000000 0.000000
# 2 -0.009763 0.066954 -0.015340 0.000000 0.000000 0.000000
# 3 -0.002000 -0.015340 0.011982 0.000000 0.000000 0.000000
# 4 0.000000 0.000000 0.000000 0.063644 0.000000 0.000000
# 5 0.000000 0.000000 0.000000 0.000000 0.024658 0.000000
# 6 0.000000 0.000000 0.000000 0.000000 0.000000 0.070549
#
#
# Mechanical properties :
#
#
# Convention : Reuss Voigt Hill
#
# Bulk Modulus (GPa) = 30.09828 91.06993 60.58410
# Shear Modulus (GPa) = 16.04827 27.31856 21.68341
#
# Velocity S-wave (km/s) = 2.91161 3.79882 3.38441
# Velocity P-wave (km/s) = 5.21562 8.20664 6.87574
#
# Compressibility (1/GPa) = 0.03322450
#
# Stress axis : x y z
#
# Youngs Moduli (GPa) = 117.74070 14.93562 83.45755
#
# Poissons Ratio (x) = 0.14582 0.16687
# Poissons Ratio (y) = 1.14955 1.28020
# Poissons Ratio (z) = 0.23542 0.22911
#
# Static dielectric constant tensor:
#      x y z
#    x 3.634790 0.000000 0.000000 
#    y 0.000000 3.133520 0.000000 
#    z 0.000000 0.000000 3.720250 
# 
# 
# High freq. dielectric constant tensor:
#      x y z
#    x 1.758710 0.000000 0.000000 
#    y 0.000000 1.701660 0.000000 
#    z 0.000000 0.000000 1.757770 
# 
# From -- ./inp_files/18236.got.cif
#   From: 2010.03.12/outbox.cif.g09.slc.cpg/sg38_10_cif.got.tgz:18236.got - 2010.04.14 02:38:36.
