data_PCOD8178805
_publ_section_title
;
Structure prediction by ZEFSAII (Michael W. Deem and Ramdas Pophale) SiO2 
 PCOD8178805
Probable space group: A M M 2
;
_chemical_formula_sum "Si O2"
_cell_formula_units_Z 48
_cell_length_a 9.542551
_cell_length_b 8.879072
_cell_length_c 30.935897
_cell_angle_alpha 90.000000
_cell_angle_beta 90.000000
_cell_angle_gamma 90.000000
_cell_volume 2621.167536
_symmetry_space_group_name_H-M "A M M 2"
_symmetry_group_IT_number 38
_symmetry_cell_setting 'orthorhombic'
loop_
_space_group_symop_operation_xyz
x,y,z
-x,-y,z
-x,y,z
x,-y,z
x,1/2+y,1/2+z
-x,1/2-y,1/2+z
-x,1/2+y,1/2+z
x,1/2-y,1/2+z
loop_
_atom_site_type_symbol
_atom_site_label
_atom_site_fract_x
_atom_site_fract_y
_atom_site_fract_z
Si Si1 0.157148 0.820921 0.486510
Si Si2 0.657617 0.319985 0.064609
Si Si3 0.155211 0.178803 0.642230
Si Si4 0.157144 0.179120 0.390636
Si Si5 0.162224 0.824488 0.739403
Si Si6 0.341865 0.678772 0.812628
O O1 0.263629 0.755818 0.522191
O O2 0.203401 0.766148 0.438578
O O3 0.000000 0.763285 0.496801
O O4 0.158531 0.000000 0.488174
O O5 0.500000 0.256891 0.064441
O O6 0.658290 0.500000 0.064515
O O7 0.734885 0.256875 0.107411
O O8 0.199748 0.226371 0.690564
O O9 0.000000 0.242102 0.631497
O O10 0.149890 0.000000 0.639642
O O11 0.263633 0.245237 0.355030
O O12 0.000000 0.237489 0.380354
O O13 0.158257 0.000000 0.389173
O O14 0.261540 0.729097 0.769992
O O15 0.000000 0.788590 0.749532
O O16 0.193324 0.000000 0.746236
O O17 0.500000 0.742343 0.812134
O O18 0.342434 0.500000 0.814052
#
# Coordination Sequence:
#
# PCOD8178805 Si02
#       6
#     8   8   8   8   8   8
#     4   8  13  21  33  49  71 102 138 172 207 248
#     4   9  15  20  29  49  76 105 135 166 204 252
#     4   8  14  25  39  54  75 104 137 173 212 253
#     4   8  14  25  40  56  76 107 145 180 214 253
#     4   9  18  32  49  67  86 113 151 190 225 261
#     4  10  20  31  44  65  92 120 148 180 222 269
#
# _framework density 18.312450999999999
#
# number of rings (size 3 to 8) (size 9 to 14) (size 15 to 20)
#    0.000    3.333    0.000    3.000    0.000    4.667 
#    0.000    5.000    0.000    0.000    0.000    0.000 
#    0.000    1.333    0.000    7.333    0.000   12.167 
#
# Total GULP energy -297447.319778 kJ/mol
# GULP energy per Si atom -12393.638324 kJ/mol
# Density = 1.827077 g / cm^3
# Si number density = 18.312451 Si / 1000 Ang^3
#
#
#
# Elastic Constant Matrix: (Units=GPa)
#
#
# Indices 1 2 3 4 5 6 
#
# 1 150.6076 9.2827 111.1162 0.0000 0.0000 0.0000
# 2 9.2827 3.9599 8.3411 0.0000 0.0000 0.0000
# 3 111.1162 8.3411 173.6625 0.0000 0.0000 0.0000
# 4 0.0000 0.0000 0.0000 16.2058 0.0000 0.0000
# 5 0.0000 0.0000 0.0000 0.0000 20.8945 0.0000
# 6 0.0000 0.0000 0.0000 0.0000 0.0000 12.7850
#
#
#
# Elastic Compliance Matrix: (Units=1/GPa)
#
#
# Indices 1 2 3 4 5 6 
#
# 1 0.013309 -0.014754 -0.007807 0.000000 0.000000 0.000000
# 2 -0.014754 0.297315 -0.004840 0.000000 0.000000 0.000000
# 3 -0.007807 -0.004840 0.010986 0.000000 0.000000 0.000000
# 4 0.000000 0.000000 0.000000 0.061706 0.000000 0.000000
# 5 0.000000 0.000000 0.000000 0.000000 0.047859 0.000000
# 6 0.000000 0.000000 0.000000 0.000000 0.000000 0.078217
#
#
# Mechanical properties :
#
#
# Convention : Reuss Voigt Hill
#
# Bulk Modulus (GPa) = 3.74802 65.07888 34.41345
# Shear Modulus (GPa) = 7.65544 23.27640 15.46592
#
# Velocity S-wave (km/s) = 2.04683 3.56907 2.90928
# Velocity P-wave (km/s) = 2.76355 7.25256 5.48802
#
# Compressibility (1/GPa) = 0.26680767
#
# Stress axis : x y z
#
# Youngs Moduli (GPa) = 75.13689 3.36344 91.02503
#
# Poissons Ratio (x) = 0.04962 0.71063
# Poissons Ratio (y) = 1.10858 0.44056
# Poissons Ratio (z) = 0.58659 0.01628
#
# Static dielectric constant tensor:
#      x y z
#    x 3.643980 0.000000 0.000000 
#    y 0.000000 2.594710 0.000000 
#    z 0.000000 0.000000 3.743320 
# 
# 
# High freq. dielectric constant tensor:
#      x y z
#    x 1.711290 0.000000 0.000000 
#    y 0.000000 1.626900 0.000000 
#    z 0.000000 0.000000 1.728020 
# 
# From -- ./inp_files/23339.got.cif
#   From: 2010.03.12/outbox.cif.g09.slc.cpg/sg38_12_cif.got.tgz:23339.got - 2010.04.14 02:38:36.
