data_PCOD8178152
_publ_section_title
;
Structure prediction by ZEFSAII (Michael W. Deem and Ramdas Pophale) SiO2 
 PCOD8178152
Probable space group: A M M 2
;
_chemical_formula_sum "Si O2"
_cell_formula_units_Z 64
_cell_length_a 19.236116
_cell_length_b 8.940492
_cell_length_c 20.802902
_cell_angle_alpha 90.000000
_cell_angle_beta 90.000000
_cell_angle_gamma 90.000000
_cell_volume 3577.690184
_symmetry_space_group_name_H-M "A M M 2"
_symmetry_group_IT_number 38
_symmetry_cell_setting 'orthorhombic'
loop_
_space_group_symop_operation_xyz
x,y,z
-x,-y,z
-x,y,z
x,-y,z
x,1/2+y,1/2+z
-x,1/2-y,1/2+z
-x,1/2+y,1/2+z
x,1/2-y,1/2+z
loop_
_atom_site_type_symbol
_atom_site_label
_atom_site_fract_x
_atom_site_fract_y
_atom_site_fract_z
Si Si1 0.076749 0.328849 0.513750
Si Si2 0.781665 0.327170 0.456999
Si Si3 0.292963 0.676752 0.326681
Si Si4 0.076366 0.322887 0.147047
Si Si5 0.579178 0.824674 0.381967
Si Si6 0.578971 0.325847 0.517695
Si Si7 0.782019 0.177616 0.699633
Si Si8 0.296416 0.176949 0.572955
O O1 0.079332 0.500000 0.536889
O O2 0.134952 0.299486 0.459247
O O3 0.093963 0.229283 0.575365
O O4 0.000000 0.289863 0.485614
O O5 0.763241 0.500000 0.470647
O O6 0.754541 0.278251 0.387301
O O7 0.746147 0.226858 0.510788
O O8 0.305074 0.500000 0.322263
O O9 0.368121 0.756569 0.329649
O O10 0.253337 0.740714 0.264071
O O11 0.076244 0.500000 0.145158
O O12 0.137553 0.266182 0.194688
O O13 0.000000 0.263039 0.169339
O O14 0.500000 0.790586 0.360170
O O15 0.596198 0.746813 0.449287
O O16 0.591919 0.000000 0.389931
O O17 0.500000 0.295765 0.538554
O O18 0.595798 0.500000 0.511576
O O19 0.627078 0.250410 0.571568
O O20 0.740405 0.236122 0.637451
O O21 0.780490 0.000000 0.701344
O O22 0.303786 0.000000 0.572823
#
# Coordination Sequence:
#
# PCOD8178152 Si02
#       8
#     8   8   8   8   8   8   8   8
#     4   9  17  29  46  72 104 133 167 215 267 313
#     4  10  19  31  50  75 101 133 173 215 260 309
#     4  10  20  35  53  73 104 141 176 212 254 312
#     4   9  16  29  50  73  98 131 173 216 257 305
#     4  10  20  34  53  78 105 132 169 215 258 304
#     4  10  20  34  53  78 106 135 169 210 259 313
#     4   9  19  34  50  75 106 138 175 214 258 306
#     4  11  20  32  53  77 104 134 170 217 260 303
#
# _framework density 17.888636999999999
#
# number of rings (size 3 to 8) (size 9 to 14) (size 15 to 20)
#    0.000    2.250    2.500    1.125    0.000    1.500 
#    0.000    3.125    0.000    7.500    0.000    0.000 
#    0.000    5.000    0.000    0.000    0.000    0.000 
#
# Total GULP energy -396715.154873 kJ/mol
# GULP energy per Si atom -12397.348590 kJ/mol
# Density = 1.784792 g / cm^3
# Si number density = 17.888637 Si / 1000 Ang^3
#
#
#
# Elastic Constant Matrix: (Units=GPa)
#
#
# Indices 1 2 3 4 5 6 
#
# 1 163.2505 40.4763 77.7453 0.0000 0.0000 0.0000
# 2 40.4763 45.9483 31.3740 0.0000 0.0000 0.0000
# 3 77.7453 31.3740 110.9881 0.0000 0.0000 0.0000
# 4 0.0000 0.0000 0.0000 19.3481 0.0000 0.0000
# 5 0.0000 0.0000 0.0000 0.0000 30.6212 0.0000
# 6 0.0000 0.0000 0.0000 0.0000 0.0000 25.3713
#
#
#
# Elastic Compliance Matrix: (Units=1/GPa)
#
#
# Indices 1 2 3 4 5 6 
#
# 1 0.010044 -0.005011 -0.005619 0.000000 0.000000 0.000000
# 2 -0.005011 0.029469 -0.004820 0.000000 0.000000 0.000000
# 3 -0.005619 -0.004820 0.014309 0.000000 0.000000 0.000000
# 4 0.000000 0.000000 0.000000 0.051685 0.000000 0.000000
# 5 0.000000 0.000000 0.000000 0.000000 0.032657 0.000000
# 6 0.000000 0.000000 0.000000 0.000000 0.000000 0.039415
#
#
# Mechanical properties :
#
#
# Convention : Reuss Voigt Hill
#
# Bulk Modulus (GPa) = 43.62788 68.81978 56.22383
# Shear Modulus (GPa) = 23.13537 26.44088 24.78813
#
# Velocity S-wave (km/s) = 3.60015 3.84875 3.72653
# Velocity P-wave (km/s) = 6.45933 7.63579 7.07207
#
# Compressibility (1/GPa) = 0.02292112
#
# Stress axis : x y z
#
# Youngs Moduli (GPa) = 99.56175 33.93378 69.88791
#
# Poissons Ratio (x) = 0.17004 0.39271
# Poissons Ratio (y) = 0.49891 0.33687
# Poissons Ratio (z) = 0.55945 0.16357
#
# Static dielectric constant tensor:
#      x y z
#    x 3.839250 0.000000 0.000000 
#    y 0.000000 3.192670 0.000000 
#    z 0.000000 0.000000 3.175330 
# 
# 
# High freq. dielectric constant tensor:
#      x y z
#    x 1.715780 0.000000 0.000000 
#    y 0.000000 1.681280 0.000000 
#    z 0.000000 0.000000 1.656310 
# 
# From -- ./inp_files/21539.got.cif
#   From: 2010.03.12/outbox.cif.g09.slc.cpg/sg38_11_cif.got.tgz:21539.got - 2010.04.14 02:38:36.
