data_PCOD8178767
_publ_section_title
;
Structure prediction by ZEFSAII (Michael W. Deem and Ramdas Pophale) SiO2 
 PCOD8178767
Probable space group: A M M 2
;
_chemical_formula_sum "Si O2"
_cell_formula_units_Z 40
_cell_length_a 16.608343
_cell_length_b 8.611929
_cell_length_c 14.686487
_cell_angle_alpha 90.000000
_cell_angle_beta 90.000000
_cell_angle_gamma 90.000000
_cell_volume 2100.606337
_symmetry_space_group_name_H-M "A M M 2"
_symmetry_group_IT_number 38
_symmetry_cell_setting 'orthorhombic'
loop_
_space_group_symop_operation_xyz
x,y,z
-x,-y,z
-x,y,z
x,-y,z
x,1/2+y,1/2+z
-x,1/2-y,1/2+z
-x,1/2+y,1/2+z
x,1/2-y,1/2+z
loop_
_atom_site_type_symbol
_atom_site_label
_atom_site_fract_x
_atom_site_fract_y
_atom_site_fract_z
Si Si1 0.000000 0.683754 0.370510
Si Si2 0.880257 0.818004 0.511413
Si Si3 0.000000 0.683168 0.164486
Si Si4 0.407202 0.820513 0.381467
Si Si5 0.706415 0.319144 0.523259
Si Si6 0.588076 0.183229 0.174595
O O1 0.920271 0.738357 0.423442
O O2 0.000000 0.500000 0.366216
O O3 0.000000 0.754189 0.266906
O O4 0.921941 0.762117 0.606006
O O5 0.787146 0.777821 0.514261
O O6 0.892931 0.000000 0.498990
O O7 0.000000 0.500000 0.174773
O O8 0.500000 0.789476 0.407309
O O9 0.349845 0.706289 0.436421
O O10 0.390586 0.774501 0.277508
O O11 0.385036 0.000000 0.399765
O O12 0.727565 0.500000 0.533240
O O13 0.657777 0.250362 0.609817
O O14 0.500000 0.253427 0.148763
O O15 0.583258 0.000000 0.161779
#
# Coordination Sequence:
#
# PCOD8178767 Si02
#       6
#     4   8   4   8   8   8
#     4  10  19  37  62  85 106 131 167 212 260 306
#     4  10  21  38  55  78 110 141 172 206 253 314
#     4   8  18  37  60  79 102 135 167 208 260 308
#     4   9  18  34  54  75 102 139 179 217 262 316
#     4  11  21  33  52  79 108 138 174 219 263 300
#     4   8  16  32  52  73 101 138 178 218 262 312
#
# _framework density 19.042120000000001
#
# number of rings (size 3 to 8) (size 9 to 14) (size 15 to 20)
#    0.000    2.600    0.000    3.900    0.000    2.800 
#    0.000   12.000    0.000    2.400    0.000    0.000 
#    0.000    0.000    0.000    0.000    0.000    0.000 
#
# Total GULP energy -247944.028345 kJ/mol
# GULP energy per Si atom -12397.201417 kJ/mol
# Density = 1.899878 g / cm^3
# Si number density = 19.042120 Si / 1000 Ang^3
#
#
#
# Elastic Constant Matrix: (Units=GPa)
#
#
# Indices 1 2 3 4 5 6 
#
# 1 124.5948 18.0155 68.8633 0.0000 0.0000 0.0000
# 2 18.0155 40.0113 23.0822 0.0000 0.0000 0.0000
# 3 68.8633 23.0822 144.0820 0.0000 0.0000 0.0000
# 4 0.0000 0.0000 0.0000 25.4768 0.0000 0.0000
# 5 0.0000 0.0000 0.0000 0.0000 62.1062 0.0000
# 6 0.0000 0.0000 0.0000 0.0000 0.0000 15.2586
#
#
#
# Elastic Compliance Matrix: (Units=1/GPa)
#
#
# Indices 1 2 3 4 5 6 
#
# 1 0.011069 -0.002129 -0.004950 0.000000 0.000000 0.000000
# 2 -0.002129 0.027947 -0.003460 0.000000 0.000000 0.000000
# 3 -0.004950 -0.003460 0.009860 0.000000 0.000000 0.000000
# 4 0.000000 0.000000 0.000000 0.039251 0.000000 0.000000
# 5 0.000000 0.000000 0.000000 0.000000 0.016101 0.000000
# 6 0.000000 0.000000 0.000000 0.000000 0.000000 0.065537
#
#
# Mechanical properties :
#
#
# Convention : Reuss Voigt Hill
#
# Bulk Modulus (GPa) = 35.96996 58.73445 47.35220
# Shear Modulus (GPa) = 24.98627 33.81679 29.40153
#
# Velocity S-wave (km/s) = 3.62630 4.21871 3.93367
# Velocity P-wave (km/s) = 6.03855 7.39199 6.74928
#
# Compressibility (1/GPa) = 0.02780098
#
# Stress axis : x y z
#
# Youngs Moduli (GPa) = 90.33894 35.78154 101.41606
#
# Poissons Ratio (x) = 0.07617 0.50196
# Poissons Ratio (y) = 0.19231 0.35088
# Poissons Ratio (z) = 0.44714 0.12380
#
# Static dielectric constant tensor:
#      x y z
#    x 3.121320 0.000000 0.000000 
#    y 0.000000 3.168090 0.000000 
#    z 0.000000 0.000000 3.752840 
# 
# 
# High freq. dielectric constant tensor:
#      x y z
#    x 1.741930 0.000000 0.000000 
#    y 0.000000 1.715950 0.000000 
#    z 0.000000 0.000000 1.748700 
# 
# From -- ./inp_files/14281.got.cif
#   From: 2010.03.12/outbox.cif.g09.slc.cpg/sg38_8_cif.got.tgz:14281.got - 2010.04.14 02:38:36.
