data_PCOD8178991
_publ_section_title
;
Structure prediction by ZEFSAII (Michael W. Deem and Ramdas Pophale) SiO2 
 PCOD8178991
Probable space group: A M M 2
;
_chemical_formula_sum "Si O2"
_cell_formula_units_Z 40
_cell_length_a 9.212895
_cell_length_b 13.568159
_cell_length_c 18.315937
_cell_angle_alpha 90.000000
_cell_angle_beta 90.000000
_cell_angle_gamma 90.000000
_cell_volume 2289.529200
_symmetry_space_group_name_H-M "A M M 2"
_symmetry_group_IT_number 38
_symmetry_cell_setting 'orthorhombic'
loop_
_space_group_symop_operation_xyz
x,y,z
-x,-y,z
-x,y,z
x,-y,z
x,1/2+y,1/2+z
-x,1/2-y,1/2+z
-x,1/2+y,1/2+z
x,1/2-y,1/2+z
loop_
_atom_site_type_symbol
_atom_site_label
_atom_site_fract_x
_atom_site_fract_y
_atom_site_fract_z
Si Si1 0.171516 0.888518 0.454990
Si Si2 0.665859 0.798843 0.588751
Si Si3 0.333697 0.610948 0.675028
Si Si4 0.331120 0.611974 0.243279
Si Si5 0.828114 0.208948 0.304162
O O1 0.231858 0.828744 0.523107
O O2 0.221724 0.833988 0.381659
O O3 0.000000 0.889549 0.461349
O O4 0.232729 0.000000 0.454665
O O5 0.500000 0.815501 0.564912
O O6 0.697132 0.684286 0.607648
O O7 0.704318 0.865078 0.659006
O O8 0.500000 0.625026 0.701190
O O9 0.303129 0.500000 0.648036
O O10 0.230741 0.635193 0.742733
O O11 0.500000 0.631585 0.258798
O O12 0.286949 0.500000 0.260430
O O13 0.238393 0.681997 0.296003
O O14 0.000000 0.215394 0.296748
#
# Coordination Sequence:
#
# PCOD8178991 Si02
#       5
#     8   8   8   8   8
#     4  10  21  35  49  69 100 133 162 197 243 292
#     4   9  18  32  51  75  99 124 160 203 244 288
#     4   9  18  34  54  74  98 129 165 205 247 292
#     4   9  18  34  54  75 100 129 163 204 246 290
#     4  10  20  33  50  74 103 131 163 204 246 291
#
# _framework density 17.470839000000002
#
# number of rings (size 3 to 8) (size 9 to 14) (size 15 to 20)
#    0.000    2.600    0.000    3.000    0.000    7.600 
#    0.000    1.000    0.000    3.600    0.000    0.000 
#    0.000    0.000    0.000    0.000    0.000    0.000 
#
# Total GULP energy -248018.676385 kJ/mol
# GULP energy per Si atom -12400.933819 kJ/mol
# Density = 1.743107 g / cm^3
# Si number density = 17.470839 Si / 1000 Ang^3
#
#
#
# Elastic Constant Matrix: (Units=GPa)
#
#
# Indices 1 2 3 4 5 6 
#
# 1 46.7509 44.0576 42.3595 0.0000 0.0000 0.0000
# 2 44.0576 160.8630 67.1292 0.0000 0.0000 0.0000
# 3 42.3595 67.1292 107.4180 0.0000 0.0000 0.0000
# 4 0.0000 0.0000 0.0000 20.7772 0.0000 0.0000
# 5 0.0000 0.0000 0.0000 0.0000 19.9769 0.0000
# 6 0.0000 0.0000 0.0000 0.0000 0.0000 27.6006
#
#
#
# Elastic Compliance Matrix: (Units=1/GPa)
#
#
# Indices 1 2 3 4 5 6 
#
# 1 0.036435 -0.005388 -0.011001 0.000000 0.000000 0.000000
# 2 -0.005388 0.009206 -0.003629 0.000000 0.000000 0.000000
# 3 -0.011001 -0.003629 0.015915 0.000000 0.000000 0.000000
# 4 0.000000 0.000000 0.000000 0.048130 0.000000 0.000000
# 5 0.000000 0.000000 0.000000 0.000000 0.050058 0.000000
# 6 0.000000 0.000000 0.000000 0.000000 0.000000 0.036231
#
#
# Mechanical properties :
#
#
# Convention : Reuss Voigt Hill
#
# Bulk Modulus (GPa) = 46.46476 69.12492 57.79484
# Shear Modulus (GPa) = 20.56052 24.43663 22.49858
#
# Velocity S-wave (km/s) = 3.43424 3.74399 3.59246
# Velocity P-wave (km/s) = 6.50989 7.63818 7.09649
#
# Compressibility (1/GPa) = 0.02152169
#
# Stress axis : x y z
#
# Youngs Moduli (GPa) = 27.44597 108.61919 62.83355
#
# Poissons Ratio (x) = 0.58528 0.69121
# Poissons Ratio (y) = 0.14789 0.22800
# Poissons Ratio (z) = 0.30192 0.39413
#
# Static dielectric constant tensor:
#      x y z
#    x 3.171990 0.000000 0.000000 
#    y 0.000000 3.538270 0.000000 
#    z 0.000000 0.000000 3.056560 
# 
# 
# High freq. dielectric constant tensor:
#      x y z
#    x 1.672100 0.000000 0.000000 
#    y 0.000000 1.688950 0.000000 
#    z 0.000000 0.000000 1.657120 
# 
# From -- ./inp_files/11660.got.cif
#   From: 2010.03.12/outbox.cif.g09.slc.cpg/sg38_6_cif.got.tgz:11660.got - 2010.04.14 02:38:36.
