data_PCOD8178246
_publ_section_title
;
Structure prediction by ZEFSAII (Michael W. Deem and Ramdas Pophale) SiO2 
 PCOD8178246
Probable space group: A M M 2
;
_chemical_formula_sum "Si O2"
_cell_formula_units_Z 64
_cell_length_a 8.701711
_cell_length_b 22.972858
_cell_length_c 18.968256
_cell_angle_alpha 90.000000
_cell_angle_beta 90.000000
_cell_angle_gamma 90.000000
_cell_volume 3791.814526
_symmetry_space_group_name_H-M "A M M 2"
_symmetry_group_IT_number 38
_symmetry_cell_setting 'orthorhombic'
loop_
_space_group_symop_operation_xyz
x,y,z
-x,-y,z
-x,y,z
x,-y,z
x,1/2+y,1/2+z
-x,1/2-y,1/2+z
-x,1/2+y,1/2+z
x,1/2-y,1/2+z
loop_
_atom_site_type_symbol
_atom_site_label
_atom_site_fract_x
_atom_site_fract_y
_atom_site_fract_z
Si Si1 0.821248 0.724417 0.785910
Si Si2 0.676985 0.328162 0.657054
Si Si3 0.324294 0.934188 0.063461
Si Si4 0.322970 0.567068 0.300226
Si Si5 0.821595 0.624722 0.433428
Si Si6 0.177218 0.343008 0.207381
Si Si7 0.179103 0.226044 0.572181
Si Si8 0.320462 0.749461 0.930226
O O1 0.732098 0.677633 0.737689
O O2 0.784439 0.789357 0.759064
O O3 0.765730 0.718431 0.865784
O O4 0.000000 0.710246 0.780351
O O5 0.500000 0.309035 0.650569
O O6 0.702374 0.394498 0.632370
O O7 0.777429 0.287671 0.606255
O O8 0.500000 0.928695 0.036782
O O9 0.284436 0.000000 0.085610
O O10 0.214011 0.915598 0.000045
O O11 0.500000 0.576804 0.320537
O O12 0.286902 0.500000 0.284910
O O13 0.217060 0.589145 0.363381
O O14 0.282330 0.602693 0.229401
O O15 0.723748 0.683296 0.438139
O O16 0.000000 0.641839 0.432030
O O17 0.217043 0.325641 0.127047
O O18 0.000000 0.360744 0.214551
O O19 0.274205 0.214965 0.501041
O O20 0.000000 0.228225 0.553723
O O21 0.500000 0.744307 0.917013
#
# Coordination Sequence:
#
# PCOD8178246 Si02
#       8
#     8   8   8   8   8   8   8   8
#     4  10  20  34  52  74 102 132 166 211 259 302
#     4  10  19  32  51  74 100 135 173 209 253 300
#     4  10  21  36  52  72 102 138 176 214 250 293
#     4  11  23  36  51  72 101 137 175 214 253 294
#     4  12  23  34  49  71 102 138 177 214 249 295
#     4   9  19  34  52  73  98 132 169 207 252 300
#     4  10  20  34  52  74 103 132 165 210 258 303
#     4  12  22  33  52  77 103 135 171 207 254 312
#
# _framework density 16.878463
#
# number of rings (size 3 to 8) (size 9 to 14) (size 15 to 20)
#    0.000    1.500    2.500    4.875    0.000    5.750 
#    0.000    0.000    0.000    0.000    0.000    0.875 
#    0.000    5.000    0.000    0.000    0.000    0.000 
#
# Total GULP energy -396933.806294 kJ/mol
# GULP energy per Si atom -12404.181447 kJ/mol
# Density = 1.684005 g / cm^3
# Si number density = 16.878463 Si / 1000 Ang^3
#
#
#
# Elastic Constant Matrix: (Units=GPa)
#
#
# Indices 1 2 3 4 5 6 
#
# 1 55.9493 25.1494 16.9135 0.0000 0.0000 0.0000
# 2 25.1494 70.9515 42.8443 0.0000 0.0000 0.0000
# 3 16.9135 42.8443 104.2620 0.0000 0.0000 0.0000
# 4 0.0000 0.0000 0.0000 20.7594 0.0000 0.0000
# 5 0.0000 0.0000 0.0000 0.0000 31.6833 0.0000
# 6 0.0000 0.0000 0.0000 0.0000 0.0000 16.1910
#
#
#
# Elastic Compliance Matrix: (Units=1/GPa)
#
#
# Indices 1 2 3 4 5 6 
#
# 1 0.021278 -0.007259 -0.000469 0.000000 0.000000 0.000000
# 2 -0.007259 0.021222 -0.007543 0.000000 0.000000 0.000000
# 3 -0.000469 -0.007543 0.012767 0.000000 0.000000 0.000000
# 4 0.000000 0.000000 0.000000 0.048171 0.000000 0.000000
# 5 0.000000 0.000000 0.000000 0.000000 0.031562 0.000000
# 6 0.000000 0.000000 0.000000 0.000000 0.000000 0.061763
#
#
# Mechanical properties :
#
#
# Convention : Reuss Voigt Hill
#
# Bulk Modulus (GPa) = 40.44491 44.55302 42.49896
# Shear Modulus (GPa) = 21.22718 23.47712 22.35215
#
# Velocity S-wave (km/s) = 3.55018 3.73359 3.64304
# Velocity P-wave (km/s) = 6.38902 6.71118 6.55208
#
# Compressibility (1/GPa) = 0.02472499
#
# Stress axis : x y z
#
# Youngs Moduli (GPa) = 46.99683 47.12044 78.32694
#
# Poissons Ratio (x) = 0.34205 0.03672
# Poissons Ratio (y) = 0.34116 0.59084
# Poissons Ratio (z) = 0.02203 0.35544
#
# Static dielectric constant tensor:
#      x y z
#    x 3.273950 0.000000 0.000000 
#    y 0.000000 2.998400 0.000000 
#    z 0.000000 0.000000 3.283530 
# 
# 
# High freq. dielectric constant tensor:
#      x y z
#    x 1.665080 0.000000 0.000000 
#    y 0.000000 1.616650 0.000000 
#    z 0.000000 0.000000 1.649160 
# 
# From -- ./inp_files/17286.got.cif
#   From: 2010.03.12/outbox.cif.g09.slc.cpg/sg38_9_cif.got.tgz:17286.got - 2010.04.14 02:38:36.
