data_PCOD8178520
_publ_section_title
;
Structure prediction by ZEFSAII (Michael W. Deem and Ramdas Pophale) SiO2 
 PCOD8178520
Probable space group: A M M 2
;
_chemical_formula_sum "Si O2"
_cell_formula_units_Z 56
_cell_length_a 8.874110
_cell_length_b 14.232311
_cell_length_c 22.957568
_cell_angle_alpha 90.000000
_cell_angle_beta 90.000000
_cell_angle_gamma 90.000000
_cell_volume 2899.520024
_symmetry_space_group_name_H-M "A M M 2"
_symmetry_group_IT_number 38
_symmetry_cell_setting 'orthorhombic'
loop_
_space_group_symop_operation_xyz
x,y,z
-x,-y,z
-x,y,z
x,-y,z
x,1/2+y,1/2+z
-x,1/2-y,1/2+z
-x,1/2+y,1/2+z
x,1/2-y,1/2+z
loop_
_atom_site_type_symbol
_atom_site_label
_atom_site_fract_x
_atom_site_fract_y
_atom_site_fract_z
Si Si1 0.172439 0.390751 0.531770
Si Si2 0.323262 0.390815 0.760596
Si Si3 0.677231 0.898632 0.597186
Si Si4 0.322204 0.106767 0.911932
Si Si5 0.323321 0.704138 0.640713
Si Si6 0.327831 0.109172 0.466878
Si Si7 0.823035 0.718996 0.865639
O O1 0.191611 0.500000 0.544299
O O2 0.270209 0.360495 0.476049
O O3 0.230661 0.339172 0.588486
O O4 0.000000 0.363240 0.519363
O O5 0.500000 0.377276 0.771363
O O6 0.279003 0.500000 0.758113
O O7 0.271260 0.342528 0.700633
O O8 0.234905 0.341197 0.811839
O O9 0.500000 0.910043 0.590910
O O10 0.717041 0.815712 0.642447
O O11 0.735254 0.873935 0.532187
O O12 0.744338 0.000000 0.618280
O O13 0.500000 0.114699 0.907892
O O14 0.248937 0.176454 0.864506
O O15 0.268006 0.000000 0.899146
O O16 0.500000 0.686973 0.629521
O O17 0.500000 0.145030 0.459570
O O18 0.220184 0.167244 0.425008
O O19 0.318625 0.000000 0.449992
O O20 0.000000 0.729453 0.860907
#
# Coordination Sequence:
#
# PCOD8178520 Si02
#       7
#     8   8   8   8   8   8   8
#     4  10  20  33  52  82 118 148 174 215 274 332
#     4  10  22  39  56  76 106 144 188 235 276 322
#     4   8  15  29  51  80 109 135 167 212 266 318
#     4  10  21  38  60  83 108 141 181 222 266 325
#     4  10  19  33  56  81 106 143 190 234 272 315
#     4   9  17  31  53  80 111 146 181 219 267 326
#     4  12  24  36  54  79 108 142 180 227 283 335
#
# _framework density 19.313542999999999
#
# number of rings (size 3 to 8) (size 9 to 14) (size 15 to 20)
#    0.000    2.143    0.000    4.714    0.000    6.286 
#    0.000    0.714    0.000    3.857    0.000    0.000 
#    0.000    0.000    0.000    0.000    0.000    0.000 
#
# Total GULP energy -347189.949504 kJ/mol
# GULP energy per Si atom -12399.641054 kJ/mol
# Density = 1.926958 g / cm^3
# Si number density = 19.313543 Si / 1000 Ang^3
#
#
#
# Elastic Constant Matrix: (Units=GPa)
#
#
# Indices 1 2 3 4 5 6 
#
# 1 68.0780 53.2269 36.3360 0.0000 0.0000 0.0000
# 2 53.2269 133.6376 81.0461 0.0000 0.0000 0.0000
# 3 36.3360 81.0461 82.3524 0.0000 0.0000 0.0000
# 4 0.0000 0.0000 0.0000 35.5227 0.0000 0.0000
# 5 0.0000 0.0000 0.0000 0.0000 0.0485 0.0000
# 6 0.0000 0.0000 0.0000 0.0000 0.0000 21.6983
#
#
#
# Elastic Compliance Matrix: (Units=1/GPa)
#
#
# Indices 1 2 3 4 5 6 
#
# 1 0.021560 -0.006990 -0.002634 0.000000 0.000000 0.000000
# 2 -0.006990 0.020827 -0.017412 0.000000 0.000000 0.000000
# 3 -0.002634 -0.017412 0.030441 0.000000 0.000000 0.000000
# 4 0.000000 0.000000 0.000000 0.028151 0.000000 0.000000
# 5 0.000000 0.000000 0.000000 0.000000 20.614796 0.000000
# 6 0.000000 0.000000 0.000000 0.000000 0.000000 0.046087
#
#
# Mechanical properties :
#
#
# Convention : Reuss Voigt Hill
#
# Bulk Modulus (GPa) = 53.31670 69.47621 61.39645
# Shear Modulus (GPa) = 0.24013 19.01783 9.62898
#
# Velocity S-wave (km/s) = 0.35299 3.14138 2.23527
# Velocity P-wave (km/s) = 5.27560 7.01488 6.20647
#
# Compressibility (1/GPa) = 0.01875585
#
# Stress axis : x y z
#
# Youngs Moduli (GPa) = 46.38263 48.01489 32.85017
#
# Poissons Ratio (x) = 0.33561 0.08652
# Poissons Ratio (y) = 0.32421 0.57200
# Poissons Ratio (z) = 0.12216 0.83606
#
# Static dielectric constant tensor:
#      x y z
#    x 3.308110 0.000000 0.000000 
#    y 0.000000 4.063110 0.000000 
#    z 0.000000 0.000000 3.428900 
# 
# 
# High freq. dielectric constant tensor:
#      x y z
#    x 1.731330 0.000000 0.000000 
#    y 0.000000 1.773000 0.000000 
#    z 0.000000 0.000000 1.731910 
# 
# From -- ./inp_files/19753.got.cif
#   From: 2010.03.12/outbox.cif.g09.slc.cpg/sg38_10_cif.got.tgz:19753.got - 2010.04.14 02:38:36.
