data_PCOD8178336
_publ_section_title
;
Structure prediction by ZEFSAII (Michael W. Deem and Ramdas Pophale) SiO2 
 PCOD8178336
Probable space group: A M M 2
;
_chemical_formula_sum "Si O2"
_cell_formula_units_Z 32
_cell_length_a 12.355803
_cell_length_b 8.739563
_cell_length_c 15.200065
_cell_angle_alpha 90.000000
_cell_angle_beta 90.000000
_cell_angle_gamma 90.000000
_cell_volume 1641.368664
_symmetry_space_group_name_H-M "A M M 2"
_symmetry_group_IT_number 38
_symmetry_cell_setting 'orthorhombic'
loop_
_space_group_symop_operation_xyz
x,y,z
-x,-y,z
-x,y,z
x,-y,z
x,1/2+y,1/2+z
-x,1/2-y,1/2+z
-x,1/2+y,1/2+z
x,1/2-y,1/2+z
loop_
_atom_site_type_symbol
_atom_site_label
_atom_site_fract_x
_atom_site_fract_y
_atom_site_fract_z
Si Si1 0.500000 0.333804 0.329440
Si Si2 0.277405 0.181216 0.530163
Si Si3 0.500000 0.668747 0.537265
Si Si4 0.878980 0.818300 0.683936
Si Si5 0.731318 0.316400 0.341353
O O1 0.500000 0.500000 0.283480
O O2 0.500000 0.350971 0.433771
O O3 0.613973 0.251550 0.305639
O O4 0.392929 0.239682 0.566116
O O5 0.187087 0.237872 0.599100
O O6 0.241738 0.249450 0.436649
O O7 0.282856 0.000000 0.522634
O O8 0.500000 0.500000 0.581432
O O9 0.822141 0.759850 0.773456
O O10 0.000000 0.749461 0.680084
O O11 0.882539 0.000000 0.685464
O O12 0.724484 0.500000 0.348926
#
# Coordination Sequence:
#
# PCOD8178336 Si02
#       5
#     4   8   4   8   8
#     4   7  12  24  45  71  92 116 156 203 245 289
#     4  10  19  32  53  80 107 134 169 216 265 306
#     4   9  17  32  53  77 106 136 168 207 257 319
#     4   9  19  34  51  74 105 142 182 216 250 304
#     4   9  17  32  53  73  99 137 175 211 256 312
#
# _framework density 19.495926000000001
#
# number of rings (size 3 to 8) (size 9 to 14) (size 15 to 20)
#    0.000    3.000    0.000    2.625    0.000    2.000 
#    0.000    6.250    0.000    5.250    0.000    0.000 
#    0.000    0.000    0.000    0.000    0.000    0.000 
#
# Total GULP energy -198258.181825 kJ/mol
# GULP energy per Si atom -12391.136364 kJ/mol
# Density = 1.945155 g / cm^3
# Si number density = 19.495926 Si / 1000 Ang^3
#
#
#
# Elastic Constant Matrix: (Units=GPa)
#
#
# Indices 1 2 3 4 5 6 
#
# 1 207.3867 31.1862 97.8079 0.0000 0.0000 0.0000
# 2 31.1862 49.7120 29.5878 0.0000 0.0000 0.0000
# 3 97.8079 29.5878 123.5043 0.0000 0.0000 0.0000
# 4 0.0000 0.0000 0.0000 22.5711 0.0000 0.0000
# 5 0.0000 0.0000 0.0000 0.0000 34.0042 0.0000
# 6 0.0000 0.0000 0.0000 0.0000 0.0000 17.7210
#
#
#
# Elastic Compliance Matrix: (Units=1/GPa)
#
#
# Indices 1 2 3 4 5 6 
#
# 1 0.007781 -0.001416 -0.005823 0.000000 0.000000 0.000000
# 2 -0.001416 0.023719 -0.004561 0.000000 0.000000 0.000000
# 3 -0.005823 -0.004561 0.013801 0.000000 0.000000 0.000000
# 4 0.000000 0.000000 0.000000 0.044304 0.000000 0.000000
# 5 0.000000 0.000000 0.000000 0.000000 0.029408 0.000000
# 6 0.000000 0.000000 0.000000 0.000000 0.000000 0.056430
#
#
# Mechanical properties :
#
#
# Convention : Reuss Voigt Hill
#
# Bulk Modulus (GPa) = 46.08035 77.52964 61.80500
# Shear Modulus (GPa) = 24.23928 29.66067 26.94998
#
# Velocity S-wave (km/s) = 3.52987 3.90472 3.72202
# Velocity P-wave (km/s) = 6.34827 7.75774 7.08812
#
# Compressibility (1/GPa) = 0.02170122
#
# Stress axis : x y z
#
# Youngs Moduli (GPa) = 128.51803 42.16092 72.45831
#
# Poissons Ratio (x) = 0.05968 0.42192
# Poissons Ratio (y) = 0.18193 0.33050
# Poissons Ratio (z) = 0.74836 0.19230
#
# Static dielectric constant tensor:
#      x y z
#    x 4.089890 0.000000 0.000000 
#    y 0.000000 3.203670 0.000000 
#    z 0.000000 0.000000 3.419170 
# 
# 
# High freq. dielectric constant tensor:
#      x y z
#    x 1.770310 0.000000 0.000000 
#    y 0.000000 1.719740 0.000000 
#    z 0.000000 0.000000 1.749240 
# 
# From -- ./inp_files/13304.got.cif
#   From: 2010.03.12/outbox.cif.g09.slc.cpg/sg38_7_cif.got.tgz:13304.got - 2010.04.14 02:38:36.
