data_PCOD8178712
_publ_section_title
;
Structure prediction by ZEFSAII (Michael W. Deem and Ramdas Pophale) SiO2 
 PCOD8178712
Probable space group: A M M 2
;
_chemical_formula_sum "Si O2"
_cell_formula_units_Z 64
_cell_length_a 18.057777
_cell_length_b 18.845681
_cell_length_c 9.406187
_cell_angle_alpha 90.000000
_cell_angle_beta 90.000000
_cell_angle_gamma 90.000000
_cell_volume 3201.029891
_symmetry_space_group_name_H-M "A M M 2"
_symmetry_group_IT_number 38
_symmetry_cell_setting 'orthorhombic'
loop_
_space_group_symop_operation_xyz
x,y,z
-x,-y,z
-x,y,z
x,-y,z
x,1/2+y,1/2+z
-x,1/2-y,1/2+z
-x,1/2+y,1/2+z
x,1/2-y,1/2+z
loop_
_atom_site_type_symbol
_atom_site_label
_atom_site_fract_x
_atom_site_fract_y
_atom_site_fract_z
Si Si1 0.083418 0.922684 0.446090
Si Si2 0.303644 0.420811 0.787651
Si Si3 0.584307 0.167431 0.648784
Si Si4 0.087966 0.697795 0.479372
Si Si5 0.276531 0.418872 0.113376
Si Si6 0.583747 0.301569 0.826039
Si Si7 0.140710 0.677445 0.165325
Si Si8 0.152001 0.581983 0.664366
O O1 0.087324 0.879552 0.591632
O O2 0.123398 0.884661 0.313473
O O3 0.000000 0.931274 0.398578
O O4 0.120167 0.000000 0.473771
O O5 0.337682 0.500000 0.774722
O O6 0.367556 0.364268 0.759087
O O7 0.240989 0.409274 0.667086
O O8 0.267154 0.412320 0.943628
O O9 0.500000 0.140476 0.673516
O O10 0.639789 0.100845 0.661010
O O11 0.608383 0.225951 0.763821
O O12 0.592463 0.203442 0.494809
O O13 0.107333 0.701765 0.314183
O O14 0.139463 0.753594 0.563980
O O15 0.112824 0.620535 0.533244
O O16 0.000000 0.711517 0.502287
O O17 0.261076 0.500000 0.164548
O O18 0.220991 0.360431 0.181411
O O19 0.500000 0.318403 0.779690
O O20 0.128443 0.500000 0.652980
#
# Coordination Sequence:
#
# PCOD8178712 Si02
#       8
#     8   8   8   8   8   8   8   8
#     4  10  19  35  61  85 111 150 190 231 288 353
#     4   9  18  35  59  86 119 155 196 244 288 344
#     4   9  19  35  59  88 123 162 199 242 288 343
#     4  12  27  43  61  85 116 152 195 251 305 365
#     4  10  21  38  62  91 121 155 201 247 294 352
#     4   9  18  33  56  86 119 156 198 239 287 344
#     4  12  25  41  61  85 117 153 193 248 301 356
#     4  10  21  39  61  86 116 153 195 240 294 353
#
# _framework density 19.993565
#
# number of rings (size 3 to 8) (size 9 to 14) (size 15 to 20)
#    0.000    1.875    1.250    2.625    1.750    3.250 
#    0.000    2.500    0.000    0.000    0.000    3.500 
#    0.000    0.000    0.000    0.000    0.000    0.000 
#
# Total GULP energy -396713.212843 kJ/mol
# GULP energy per Si atom -12397.287901 kJ/mol
# Density = 1.994806 g / cm^3
# Si number density = 19.993565 Si / 1000 Ang^3
#
#
#
# Elastic Constant Matrix: (Units=GPa)
#
#
# Indices 1 2 3 4 5 6 
#
# 1 88.6802 42.0862 17.7616 0.0000 0.0000 0.0000
# 2 42.0862 95.6243 36.9220 0.0000 0.0000 0.0000
# 3 17.7616 36.9220 76.5615 0.0000 0.0000 0.0000
# 4 0.0000 0.0000 0.0000 30.2342 0.0000 0.0000
# 5 0.0000 0.0000 0.0000 0.0000 26.2178 0.0000
# 6 0.0000 0.0000 0.0000 0.0000 0.0000 36.5315
#
#
#
# Elastic Compliance Matrix: (Units=1/GPa)
#
#
# Indices 1 2 3 4 5 6 
#
# 1 0.014261 -0.006143 -0.000346 0.000000 0.000000 0.000000
# 2 -0.006143 0.015497 -0.006048 0.000000 0.000000 0.000000
# 3 -0.000346 -0.006048 0.016058 0.000000 0.000000 0.000000
# 4 0.000000 0.000000 0.000000 0.033075 0.000000 0.000000
# 5 0.000000 0.000000 0.000000 0.000000 0.038142 0.000000
# 6 0.000000 0.000000 0.000000 0.000000 0.000000 0.027374
#
#
# Mechanical properties :
#
#
# Convention : Reuss Voigt Hill
#
# Bulk Modulus (GPa) = 48.21175 50.48949 49.35062
# Shear Modulus (GPa) = 28.34546 29.53644 28.94095
#
# Velocity S-wave (km/s) = 3.76936 3.84773 3.80875
# Velocity P-wave (km/s) = 6.56583 6.71176 6.63920
#
# Compressibility (1/GPa) = 0.02074183
#
# Stress axis : x y z
#
# Youngs Moduli (GPa) = 70.12050 64.53050 62.27284
#
# Poissons Ratio (x) = 0.39641 0.02154
# Poissons Ratio (y) = 0.43075 0.37663
# Poissons Ratio (z) = 0.02426 0.39029
#
# Static dielectric constant tensor:
#      x y z
#    x 3.670880 0.000000 0.000000 
#    y 0.000000 3.711530 0.000000 
#    z 0.000000 0.000000 3.440570 
# 
# 
# High freq. dielectric constant tensor:
#      x y z
#    x 1.785080 0.000000 0.000000 
#    y 0.000000 1.781680 0.000000 
#    z 0.000000 0.000000 1.757110 
# 
# From -- ./inp_files/6501.got.cif
#   From: 2010.03.12/outbox.cif.g09.slc.cpg/sg38_4_cif.got.tgz:6501.got - 2010.04.14 02:38:36.
