data_PCOD8178497
_publ_section_title
;
Structure prediction by ZEFSAII (Michael W. Deem and Ramdas Pophale) SiO2 
 PCOD8178497
Probable space group: A M M 2
;
_chemical_formula_sum "Si O2"
_cell_formula_units_Z 64
_cell_length_a 18.970496
_cell_length_b 9.047798
_cell_length_c 20.569088
_cell_angle_alpha 90.000000
_cell_angle_beta 90.000000
_cell_angle_gamma 90.000000
_cell_volume 3530.503272
_symmetry_space_group_name_H-M "A M M 2"
_symmetry_group_IT_number 38
_symmetry_cell_setting 'orthorhombic'
loop_
_space_group_symop_operation_xyz
x,y,z
-x,-y,z
-x,y,z
x,-y,z
x,1/2+y,1/2+z
-x,1/2-y,1/2+z
-x,1/2+y,1/2+z
x,1/2-y,1/2+z
loop_
_atom_site_type_symbol
_atom_site_label
_atom_site_fract_x
_atom_site_fract_y
_atom_site_fract_z
Si Si1 0.419559 0.170492 0.735820
Si Si2 0.700670 0.170468 0.297976
Si Si3 0.079917 0.673376 0.368816
Si Si4 0.420093 0.173729 0.100250
Si Si5 0.290085 0.673905 0.050517
Si Si6 0.784351 0.168373 0.166233
Si Si7 0.921004 0.168964 0.235527
Si Si8 0.790501 0.326172 0.921269
O O1 0.500000 0.191915 0.758183
O O2 0.370523 0.232896 0.793199
O O3 0.402976 0.262526 0.671095
O O4 0.402380 0.000000 0.721484
O O5 0.747748 0.198053 0.234904
O O6 0.743456 0.226489 0.360503
O O7 0.679134 0.000000 0.306014
O O8 0.091728 0.500000 0.370745
O O9 0.096555 0.727886 0.296268
O O10 0.133322 0.748317 0.419524
O O11 0.000000 0.716333 0.388670
O O12 0.500000 0.211730 0.078971
O O13 0.366479 0.247119 0.049278
O O14 0.406872 0.000000 0.103281
O O15 0.302706 0.500000 0.052044
O O16 0.245029 0.720547 0.112966
O O17 0.248617 0.724417 0.986563
O O18 0.867475 0.201827 0.176412
O O19 0.771457 0.000000 0.142989
O O20 0.000000 0.197282 0.209261
O O21 0.910882 0.000000 0.259471
O O22 0.803397 0.500000 0.919407
#
# Coordination Sequence:
#
# PCOD8178497 Si02
#       8
#     8   8   8   8   8   8   8   8
#     4  10  20  33  52  81 112 140 176 224 274 320
#     4  10  19  34  56  80 106 139 181 222 264 319
#     4  10  20  33  53  83 112 139 177 226 275 319
#     4  10  20  35  56  80 107 142 181 219 265 323
#     4  11  23  37  56  81 110 144 182 225 271 319
#     4  10  19  33  55  81 109 140 178 223 268 320
#     4   9  17  32  55  80 107 143 183 222 268 322
#     4  10  22  40  57  78 109 148 188 221 263 324
#
# _framework density 18.127727
#
# number of rings (size 3 to 8) (size 9 to 14) (size 15 to 20)
#    0.000    2.000    2.500    1.500    0.000    4.250 
#    0.000    1.250    0.000    6.000    0.000    0.000 
#    0.000    0.000    0.000    0.000    0.000    0.000 
#
# Total GULP energy -396873.886864 kJ/mol
# GULP energy per Si atom -12402.308965 kJ/mol
# Density = 1.808647 g / cm^3
# Si number density = 18.127727 Si / 1000 Ang^3
#
#
#
# Elastic Constant Matrix: (Units=GPa)
#
#
# Indices 1 2 3 4 5 6 
#
# 1 141.1295 57.4854 57.8681 0.0000 0.0000 0.0000
# 2 57.4854 75.1019 40.4964 0.0000 0.0000 0.0000
# 3 57.8681 40.4964 89.0671 0.0000 0.0000 0.0000
# 4 0.0000 0.0000 0.0000 23.6266 0.0000 0.0000
# 5 0.0000 0.0000 0.0000 0.0000 29.5878 0.0000
# 6 0.0000 0.0000 0.0000 0.0000 0.0000 32.8246
#
#
#
# Elastic Compliance Matrix: (Units=1/GPa)
#
#
# Indices 1 2 3 4 5 6 
#
# 1 0.011576 -0.006366 -0.004627 0.000000 0.000000 0.000000
# 2 -0.006366 0.021141 -0.005476 0.000000 0.000000 0.000000
# 3 -0.004627 -0.005476 0.016723 0.000000 0.000000 0.000000
# 4 0.000000 0.000000 0.000000 0.042325 0.000000 0.000000
# 5 0.000000 0.000000 0.000000 0.000000 0.033798 0.000000
# 6 0.000000 0.000000 0.000000 0.000000 0.000000 0.030465
#
#
# Mechanical properties :
#
#
# Convention : Reuss Voigt Hill
#
# Bulk Modulus (GPa) = 60.59609 68.55537 64.57573
# Shear Modulus (GPa) = 25.71157 27.17105 26.44131
#
# Velocity S-wave (km/s) = 3.77019 3.87572 3.82332
# Velocity P-wave (km/s) = 7.24240 7.61107 7.42902
#
# Compressibility (1/GPa) = 0.01650271
#
# Stress axis : x y z
#
# Youngs Moduli (GPa) = 86.38860 47.30237 59.79677
#
# Poissons Ratio (x) = 0.30111 0.27665
# Poissons Ratio (y) = 0.54992 0.32746
# Poissons Ratio (z) = 0.39968 0.25904
#
# Static dielectric constant tensor:
#      x y z
#    x 3.692350 0.000000 0.000000 
#    y 0.000000 3.344520 0.000000 
#    z 0.000000 0.000000 3.096880 
# 
# 
# High freq. dielectric constant tensor:
#      x y z
#    x 1.720750 0.000000 0.000000 
#    y 0.000000 1.705180 0.000000 
#    z 0.000000 0.000000 1.666720 
# 
# From -- ./inp_files/21455.got.cif
#   From: 2010.03.12/outbox.cif.g09.slc.cpg/sg38_11_cif.got.tgz:21455.got - 2010.04.14 02:38:36.
