data_PCOD8178153
_publ_section_title
;
Structure prediction by ZEFSAII (Michael W. Deem and Ramdas Pophale) SiO2 
 PCOD8178153
Probable space group: A M M 2
;
_chemical_formula_sum "Si O2"
_cell_formula_units_Z 64
_cell_length_a 17.751149
_cell_length_b 9.160072
_cell_length_c 22.456595
_cell_angle_alpha 90.000000
_cell_angle_beta 90.000000
_cell_angle_gamma 90.000000
_cell_volume 3651.482835
_symmetry_space_group_name_H-M "A M M 2"
_symmetry_group_IT_number 38
_symmetry_cell_setting 'orthorhombic'
loop_
_space_group_symop_operation_xyz
x,y,z
-x,-y,z
-x,y,z
x,-y,z
x,1/2+y,1/2+z
-x,1/2-y,1/2+z
-x,1/2+y,1/2+z
x,1/2-y,1/2+z
loop_
_atom_site_type_symbol
_atom_site_label
_atom_site_fract_x
_atom_site_fract_y
_atom_site_fract_z
Si Si1 0.300404 0.840882 0.504750
Si Si2 0.799107 0.824487 0.607784
Si Si3 0.914017 0.662895 0.530977
Si Si4 0.213300 0.324639 0.733614
Si Si5 0.413081 0.174110 0.411772
Si Si6 0.698724 0.335729 0.331002
Si Si7 0.918431 0.334506 0.814707
Si Si8 0.178446 0.252570 0.420777
O O1 0.268281 0.764550 0.564314
O O2 0.372537 0.766457 0.472728
O O3 0.232447 0.857401 0.456771
O O4 0.326495 0.000000 0.524722
O O5 0.877971 0.773161 0.579078
O O6 0.783019 0.746295 0.669311
O O7 0.800129 0.000000 0.613904
O O8 0.911711 0.500000 0.558201
O O9 0.869584 0.655152 0.468262
O O10 0.000000 0.713677 0.519918
O O11 0.219821 0.500000 0.730897
O O12 0.280635 0.260741 0.773436
O O13 0.135605 0.268371 0.763926
O O14 0.500000 0.216908 0.415137
O O15 0.375519 0.257677 0.356846
O O16 0.400647 0.000000 0.404675
O O17 0.678060 0.500000 0.311203
O O18 0.767047 0.348802 0.378661
O O19 0.932313 0.500000 0.797404
O O20 0.880649 0.331997 0.879618
O O21 0.000000 0.252834 0.814846
#
# Coordination Sequence:
#
# PCOD8178153 Si02
#       8
#     8   8   8   8   8   8   8   8
#     4   8  15  28  47  72  98 123 154 192 235 286
#     4  10  20  34  51  69  91 123 166 212 250 286
#     4  10  20  32  46  66  94 127 161 200 249 302
#     4  10  20  34  51  69  93 128 169 209 249 294
#     4   9  17  31  53  80 108 133 154 182 229 290
#     4  10  19  31  50  75 102 130 163 202 240 283
#     4   9  17  28  44  67  93 122 158 203 254 302
#     4   9  16  28  46  68  94 125 160 199 243 292
#
# _framework density 17.527125999999999
#
# number of rings (size 3 to 8) (size 9 to 14) (size 15 to 20)
#    0.000    2.625    0.000    2.250    0.000    4.500 
#    0.000    1.875    0.000    7.875    0.000    1.750 
#    0.000    0.000    0.000    0.000    0.000    0.000 
#
# Total GULP energy -396425.829240 kJ/mol
# GULP energy per Si atom -12388.307164 kJ/mol
# Density = 1.748723 g / cm^3
# Si number density = 17.527126 Si / 1000 Ang^3
#
#
#
# Elastic Constant Matrix: (Units=GPa)
#
#
# Indices 1 2 3 4 5 6 
#
# 1 133.6690 35.3601 64.2882 0.0000 0.0000 0.0000
# 2 35.3601 76.9566 39.1754 0.0000 0.0000 0.0000
# 3 64.2882 39.1754 132.9418 0.0000 0.0000 0.0000
# 4 0.0000 0.0000 0.0000 25.1660 0.0000 0.0000
# 5 0.0000 0.0000 0.0000 0.0000 15.2598 0.0000
# 6 0.0000 0.0000 0.0000 0.0000 0.0000 17.6086
#
#
#
# Elastic Compliance Matrix: (Units=1/GPa)
#
#
# Indices 1 2 3 4 5 6 
#
# 1 0.010156 -0.002549 -0.004160 0.000000 0.000000 0.000000
# 2 -0.002549 0.015927 -0.003461 0.000000 0.000000 0.000000
# 3 -0.004160 -0.003461 0.010554 0.000000 0.000000 0.000000
# 4 0.000000 0.000000 0.000000 0.039736 0.000000 0.000000
# 5 0.000000 0.000000 0.000000 0.000000 0.065531 0.000000
# 6 0.000000 0.000000 0.000000 0.000000 0.000000 0.056790
#
#
# Mechanical properties :
#
#
# Convention : Reuss Voigt Hill
#
# Bulk Modulus (GPa) = 61.35972 69.02385 65.19179
# Shear Modulus (GPa) = 22.27491 25.25648 23.76569
#
# Velocity S-wave (km/s) = 3.56881 3.80016 3.68630
# Velocity P-wave (km/s) = 7.21570 7.66300 7.44271
#
# Compressibility (1/GPa) = 0.01629734
#
# Stress axis : x y z
#
# Youngs Moduli (GPa) = 98.46079 62.78545 94.75257
#
# Poissons Ratio (x) = 0.16003 0.39420
# Poissons Ratio (y) = 0.25096 0.32793
# Poissons Ratio (z) = 0.40963 0.21729
#
# Static dielectric constant tensor:
#      x y z
#    x 3.340380 0.000000 0.000000 
#    y 0.000000 3.039920 0.000000 
#    z 0.000000 0.000000 3.232490 
# 
# 
# High freq. dielectric constant tensor:
#      x y z
#    x 1.664960 0.000000 0.000000 
#    y 0.000000 1.660800 0.000000 
#    z 0.000000 0.000000 1.670400 
# 
# From -- ./inp_files/21352.got.cif
#   From: 2010.03.12/outbox.cif.g09.slc.cpg/sg38_11_cif.got.tgz:21352.got - 2010.04.14 02:38:36.
