data_PCOD8178161
_publ_section_title
;
Structure prediction by ZEFSAII (Michael W. Deem and Ramdas Pophale) SiO2 
 PCOD8178161
Probable space group: A M M 2
;
_chemical_formula_sum "Si O2"
_cell_formula_units_Z 56
_cell_length_a 19.143677
_cell_length_b 9.094198
_cell_length_c 19.247878
_cell_angle_alpha 90.000000
_cell_angle_beta 90.000000
_cell_angle_gamma 90.000000
_cell_volume 3350.986057
_symmetry_space_group_name_H-M "A M M 2"
_symmetry_group_IT_number 38
_symmetry_cell_setting 'orthorhombic'
loop_
_space_group_symop_operation_xyz
x,y,z
-x,-y,z
-x,y,z
x,-y,z
x,1/2+y,1/2+z
-x,1/2-y,1/2+z
-x,1/2+y,1/2+z
x,1/2-y,1/2+z
loop_
_atom_site_type_symbol
_atom_site_label
_atom_site_fract_x
_atom_site_fract_y
_atom_site_fract_z
Si Si1 0.298537 0.172019 0.003530
Si Si2 0.921687 0.832608 0.161873
Si Si3 0.299068 0.327957 0.343968
Si Si4 0.208881 0.832549 0.239514
Si Si5 0.800594 0.825502 0.604649
Si Si6 0.578764 0.671078 0.604075
Si Si7 0.578581 0.172333 0.743752
O O1 0.235681 0.266774 0.035199
O O2 0.371359 0.214056 0.040261
O O3 0.281231 0.000000 0.012207
O O4 0.305939 0.218288 0.923668
O O5 0.876334 0.826480 0.233814
O O6 0.881650 0.730457 0.105169
O O7 0.000000 0.773284 0.175121
O O8 0.923330 0.000000 0.133879
O O9 0.284965 0.500000 0.335655
O O10 0.233474 0.243416 0.310327
O O11 0.370458 0.279335 0.305979
O O12 0.239237 0.744570 0.172020
O O13 0.236176 0.000000 0.236657
O O14 0.797219 0.000000 0.607967
O O15 0.500000 0.718808 0.583661
O O16 0.582638 0.500000 0.620713
O O17 0.604399 0.753253 0.672992
O O18 0.500000 0.223330 0.763297
O O19 0.581640 0.000000 0.731285
#
# Coordination Sequence:
#
# PCOD8178161 Si02
#       7
#     8   8   8   8   8   8   8
#     4  10  20  33  48  69 100 135 170 208 252 298
#     4   8  16  32  54  79 103 128 159 198 245 292
#     4  10  20  32  48  71  99 132 170 209 248 295
#     4   9  18  32  51  74  99 129 162 199 245 293
#     4  10  19  31  50  76 102 129 165 204 241 288
#     4   9  18  32  50  70  92 124 168 214 255 297
#     4   9  18  32  49  69  94 125 163 209 257 299
#
# _framework density 16.711500000000001
#
# number of rings (size 3 to 8) (size 9 to 14) (size 15 to 20)
#    0.857    1.857    0.000    2.143    0.000    4.857 
#    0.000    2.857    0.000    0.857    0.000   10.000 
#    0.000    0.000    0.000    0.000    0.000    0.000 
#
# Total GULP energy -347017.905294 kJ/mol
# GULP energy per Si atom -12393.496618 kJ/mol
# Density = 1.667346 g / cm^3
# Si number density = 16.711500 Si / 1000 Ang^3
#
#
#
# Elastic Constant Matrix: (Units=GPa)
#
#
# Indices 1 2 3 4 5 6 
#
# 1 116.0049 48.7676 69.9671 0.0000 0.0000 0.0000
# 2 48.7676 70.2975 53.7309 0.0000 0.0000 0.0000
# 3 69.9671 53.7309 131.8273 0.0000 0.0000 0.0000
# 4 0.0000 0.0000 0.0000 25.9339 0.0000 0.0000
# 5 0.0000 0.0000 0.0000 0.0000 9.1052 0.0000
# 6 0.0000 0.0000 0.0000 0.0000 0.0000 19.6158
#
#
#
# Elastic Compliance Matrix: (Units=1/GPa)
#
#
# Indices 1 2 3 4 5 6 
#
# 1 0.014205 -0.005944 -0.005117 0.000000 0.000000 0.000000
# 2 -0.005944 0.023149 -0.006281 0.000000 0.000000 0.000000
# 3 -0.005117 -0.006281 0.012861 0.000000 0.000000 0.000000
# 4 0.000000 0.000000 0.000000 0.038560 0.000000 0.000000
# 5 0.000000 0.000000 0.000000 0.000000 0.109828 0.000000
# 6 0.000000 0.000000 0.000000 0.000000 0.000000 0.050979
#
#
# Mechanical properties :
#
#
# Convention : Reuss Voigt Hill
#
# Bulk Modulus (GPa) = 64.37756 73.67343 69.02549
# Shear Modulus (GPa) = 17.27462 20.64191 18.95827
#
# Velocity S-wave (km/s) = 3.21860 3.51834 3.37181
# Velocity P-wave (km/s) = 7.24010 7.79013 7.52015
#
# Compressibility (1/GPa) = 0.01553336
#
# Stress axis : x y z
#
# Youngs Moduli (GPa) = 70.39710 43.19828 77.75241
#
# Poissons Ratio (x) = 0.25675 0.39785
# Poissons Ratio (y) = 0.41841 0.48834
# Poissons Ratio (z) = 0.36021 0.27131
#
# Static dielectric constant tensor:
#      x y z
#    x 3.195400 0.000000 0.000000 
#    y 0.000000 3.060710 0.000000 
#    z 0.000000 0.000000 2.991910 
# 
# 
# High freq. dielectric constant tensor:
#      x y z
#    x 1.640340 0.000000 0.000000 
#    y 0.000000 1.642880 0.000000 
#    z 0.000000 0.000000 1.617850 
# 
# From -- ./inp_files/18822.got.cif
#   From: 2010.03.12/outbox.cif.g09.slc.cpg/sg38_10_cif.got.tgz:18822.got - 2010.04.14 02:38:36.
