data_PCOD8178151
_publ_section_title
;
Structure prediction by ZEFSAII (Michael W. Deem and Ramdas Pophale) SiO2 
 PCOD8178151
Probable space group: A M M 2
;
_chemical_formula_sum "Si O2"
_cell_formula_units_Z 64
_cell_length_a 9.059685
_cell_length_b 27.815795
_cell_length_c 14.296795
_cell_angle_alpha 90.000000
_cell_angle_beta 90.000000
_cell_angle_gamma 90.000000
_cell_volume 3602.825805
_symmetry_space_group_name_H-M "A M M 2"
_symmetry_group_IT_number 38
_symmetry_cell_setting 'orthorhombic'
loop_
_space_group_symop_operation_xyz
x,y,z
-x,-y,z
-x,y,z
x,-y,z
x,1/2+y,1/2+z
-x,1/2-y,1/2+z
-x,1/2+y,1/2+z
x,1/2-y,1/2+z
loop_
_atom_site_type_symbol
_atom_site_label
_atom_site_fract_x
_atom_site_fract_y
_atom_site_fract_z
Si Si1 0.327972 0.634477 0.055550
Si Si2 0.325138 0.368766 0.595981
Si Si3 0.173363 0.822249 0.931848
Si Si4 0.329178 0.944744 0.411609
Si Si5 0.669576 0.774845 0.431423
Si Si6 0.828964 0.056199 0.221665
Si Si7 0.669839 0.777351 0.216276
Si Si8 0.827188 0.820185 0.717018
O O1 0.500000 0.633718 0.079264
O O2 0.239230 0.637495 0.152753
O O3 0.279856 0.586293 0.001144
O O4 0.284080 0.679608 0.991829
O O5 0.500000 0.374355 0.589696
O O6 0.257084 0.362391 0.492691
O O7 0.257719 0.416705 0.640055
O O8 0.276073 0.323237 0.658237
O O9 0.229294 0.769589 0.962126
O O10 0.214745 0.831922 0.823927
O O11 0.000000 0.825569 0.950036
O O12 0.500000 0.934688 0.386848
O O13 0.234828 0.928649 0.322327
O O14 0.300636 0.000000 0.437895
O O15 0.500000 0.759773 0.448327
O O16 0.697123 0.789492 0.324385
O O17 0.000000 0.070420 0.218838
O O18 0.803719 0.000000 0.204071
O O19 0.500000 0.765689 0.194815
O O20 0.760454 0.730745 0.184635
O O21 0.000000 0.817432 0.702523
#
# Coordination Sequence:
#
# PCOD8178151 Si02
#       8
#     8   8   8   8   8   8   8   8
#     4  10  19  31  50  74  99 130 168 207 248 295
#     4  11  21  33  53  77  99 130 171 209 248 295
#     4  10  21  35  48  67  98 132 168 210 252 294
#     4   9  18  34  55  78 104 132 163 202 247 295
#     4   9  17  30  47  69  99 132 164 198 242 298
#     4  10  21  36  54  78 107 135 161 195 244 298
#     4   9  18  32  49  71 101 133 165 203 247 296
#     4  10  21  34  48  69  99 135 172 209 250 296
#
# _framework density 17.763833999999999
#
# number of rings (size 3 to 8) (size 9 to 14) (size 15 to 20)
#    0.000    2.250    0.000    3.000    0.000    9.250 
#    0.000    2.500    0.000    0.750    0.000    3.500 
#    0.000    0.000    0.000    0.000    0.000    0.000 
#
# Total GULP energy -396929.704591 kJ/mol
# GULP energy per Si atom -12404.053268 kJ/mol
# Density = 1.772340 g / cm^3
# Si number density = 17.763834 Si / 1000 Ang^3
#
#
#
# Elastic Constant Matrix: (Units=GPa)
#
#
# Indices 1 2 3 4 5 6 
#
# 1 81.9440 48.2187 51.1177 0.0000 0.0000 0.0000
# 2 48.2187 79.3650 59.3730 0.0000 0.0000 0.0000
# 3 51.1177 59.3730 93.0970 0.0000 0.0000 0.0000
# 4 0.0000 0.0000 0.0000 32.9635 0.0000 0.0000
# 5 0.0000 0.0000 0.0000 0.0000 31.2938 0.0000
# 6 0.0000 0.0000 0.0000 0.0000 0.0000 21.5382
#
#
#
# Elastic Compliance Matrix: (Units=1/GPa)
#
#
# Indices 1 2 3 4 5 6 
#
# 1 0.020834 -0.007841 -0.006439 0.000000 0.000000 0.000000
# 2 -0.007841 0.027047 -0.012944 0.000000 0.000000 0.000000
# 3 -0.006439 -0.012944 0.022532 0.000000 0.000000 0.000000
# 4 0.000000 0.000000 0.000000 0.030337 0.000000 0.000000
# 5 0.000000 0.000000 0.000000 0.000000 0.031955 0.000000
# 6 0.000000 0.000000 0.000000 0.000000 0.000000 0.046429
#
#
# Mechanical properties :
#
#
# Convention : Reuss Voigt Hill
#
# Bulk Modulus (GPa) = 62.63555 63.53608 63.08582
# Shear Modulus (GPa) = 20.92883 23.53889 22.23386
#
# Velocity S-wave (km/s) = 3.43617 3.64414 3.54169
# Velocity P-wave (km/s) = 7.14701 7.31786 7.23294
#
# Compressibility (1/GPa) = 0.01596537
#
# Stress axis : x y z
#
# Youngs Moduli (GPa) = 47.99854 36.97210 44.38052
#
# Poissons Ratio (x) = 0.28989 0.28577
# Poissons Ratio (y) = 0.37634 0.57448
# Poissons Ratio (z) = 0.30907 0.47858
#
# Static dielectric constant tensor:
#      x y z
#    x 3.290560 0.000000 0.000000 
#    y 0.000000 3.189340 0.000000 
#    z 0.000000 0.000000 3.399660 
# 
# 
# High freq. dielectric constant tensor:
#      x y z
#    x 1.689430 0.000000 0.000000 
#    y 0.000000 1.666450 0.000000 
#    z 0.000000 0.000000 1.690480 
# 
# From -- ./inp_files/12705.got.cif
#   From: 2010.03.12/outbox.cif.g09.slc.cpg/sg38_7_cif.got.tgz:12705.got - 2010.04.14 02:38:36.
