data_PCOD8178913
_publ_section_title
;
Structure prediction by ZEFSAII (Michael W. Deem and Ramdas Pophale) SiO2 
 PCOD8178913
Probable space group: A M M 2
;
_chemical_formula_sum "Si O2"
_cell_formula_units_Z 56
_cell_length_a 15.453571
_cell_length_b 8.998877
_cell_length_c 20.095959
_cell_angle_alpha 90.000000
_cell_angle_beta 90.000000
_cell_angle_gamma 90.000000
_cell_volume 2794.640210
_symmetry_space_group_name_H-M "A M M 2"
_symmetry_group_IT_number 38
_symmetry_cell_setting 'orthorhombic'
loop_
_space_group_symop_operation_xyz
x,y,z
-x,-y,z
-x,y,z
x,-y,z
x,1/2+y,1/2+z
-x,1/2-y,1/2+z
-x,1/2+y,1/2+z
x,1/2-y,1/2+z
loop_
_atom_site_type_symbol
_atom_site_label
_atom_site_fract_x
_atom_site_fract_y
_atom_site_fract_z
Si Si1 0.094067 0.825227 0.936640
Si Si2 0.675023 0.328950 0.757311
Si Si3 0.095094 0.329691 0.658738
Si Si4 0.267333 0.175882 0.626113
Si Si5 0.725389 0.676769 0.492044
Si Si6 0.597657 0.170048 0.875507
Si Si7 0.134584 0.166169 0.306281
O O1 0.098798 0.779522 0.859896
O O2 0.000000 0.772912 0.965778
O O3 0.100013 0.000000 0.938522
O O4 0.176428 0.764302 0.977685
O O5 0.653816 0.500000 0.741575
O O6 0.678430 0.241941 0.687556
O O7 0.603766 0.261658 0.806779
O O8 0.764126 0.309179 0.796303
O O9 0.124624 0.500000 0.644578
O O10 0.166166 0.221675 0.627665
O O11 0.086239 0.303225 0.737294
O O12 0.000000 0.299414 0.627166
O O13 0.307792 0.241719 0.558453
O O14 0.275650 0.000000 0.627232
O O15 0.721086 0.500000 0.502131
O O16 0.662957 0.729087 0.432207
O O17 0.500000 0.186654 0.902633
O O18 0.620474 0.000000 0.858751
O O19 0.115288 0.000000 0.331803
#
# Coordination Sequence:
#
# PCOD8178913 Si02
#       7
#     8   8   8   8   8   8   8
#     4  10  20  32  50  78 111 152 198 238 283 340
#     4  10  20  37  61  87 116 152 194 236 290 355
#     4   9  18  33  52  76 110 153 199 246 299 356
#     4  11  23  37  57  83 115 155 201 249 298 346
#     4  10  21  39  58  81 120 161 196 238 294 354
#     4  10  21  39  66  96 121 148 187 238 296 355
#     4   9  17  30  50  77 109 145 187 236 287 337
#
# _framework density 20.038357999999999
#
# number of rings (size 3 to 8) (size 9 to 14) (size 15 to 20)
#    0.000    2.143    1.429    3.000    0.000    5.429 
#    0.000    2.143    0.000    2.571    0.000    0.000 
#    0.000    0.000    0.000    0.000    0.000    0.000 
#
# Total GULP energy -347130.548227 kJ/mol
# GULP energy per Si atom -12397.519580 kJ/mol
# Density = 1.999275 g / cm^3
# Si number density = 20.038358 Si / 1000 Ang^3
#
#
#
# Elastic Constant Matrix: (Units=GPa)
#
#
# Indices 1 2 3 4 5 6 
#
# 1 84.0099 31.5097 42.9035 0.0000 0.0000 0.0000
# 2 31.5097 74.7081 53.1013 0.0000 0.0000 0.0000
# 3 42.9035 53.1013 126.7289 0.0000 0.0000 0.0000
# 4 0.0000 0.0000 0.0000 34.8706 0.0000 0.0000
# 5 0.0000 0.0000 0.0000 0.0000 18.9479 0.0000
# 6 0.0000 0.0000 0.0000 0.0000 0.0000 19.2736
#
#
#
# Elastic Compliance Matrix: (Units=1/GPa)
#
#
# Indices 1 2 3 4 5 6 
#
# 1 0.015153 -0.003909 -0.003492 0.000000 0.000000 0.000000
# 2 -0.003909 0.020071 -0.007087 0.000000 0.000000 0.000000
# 3 -0.003492 -0.007087 0.012043 0.000000 0.000000 0.000000
# 4 0.000000 0.000000 0.000000 0.028677 0.000000 0.000000
# 5 0.000000 0.000000 0.000000 0.000000 0.052776 0.000000
# 6 0.000000 0.000000 0.000000 0.000000 0.000000 0.051884
#
#
# Mechanical properties :
#
#
# Convention : Reuss Voigt Hill
#
# Bulk Modulus (GPa) = 54.67133 60.05289 57.36211
# Shear Modulus (GPa) = 23.18273 25.14722 24.16498
#
# Velocity S-wave (km/s) = 3.40504 3.54638 3.47643
# Velocity P-wave (km/s) = 6.54230 6.84128 6.69346
#
# Compressibility (1/GPa) = 0.01829112
#
# Stress axis : x y z
#
# Youngs Moduli (GPa) = 65.99412 49.82232 83.03881
#
# Poissons Ratio (x) = 0.19475 0.28997
# Poissons Ratio (y) = 0.25797 0.58848
# Poissons Ratio (z) = 0.23045 0.35308
#
# Static dielectric constant tensor:
#      x y z
#    x 3.428710 0.000000 0.000000 
#    y 0.000000 3.465480 0.000000 
#    z 0.000000 0.000000 3.568930 
# 
# 
# High freq. dielectric constant tensor:
#      x y z
#    x 1.770500 0.000000 0.000000 
#    y 0.000000 1.765900 0.000000 
#    z 0.000000 0.000000 1.780210 
# 
# From -- ./inp_files/21062.got.cif
#   From: 2010.03.12/outbox.cif.g09.slc.cpg/sg38_11_cif.got.tgz:21062.got - 2010.04.14 02:38:36.
