data_PCOD8178778
_publ_section_title
;
Structure prediction by ZEFSAII (Michael W. Deem and Ramdas Pophale) SiO2 
 PCOD8178778
Probable space group: A M M 2
;
_chemical_formula_sum "Si O2"
_cell_formula_units_Z 56
_cell_length_a 21.301616
_cell_length_b 8.958603
_cell_length_c 15.330894
_cell_angle_alpha 90.000000
_cell_angle_beta 90.000000
_cell_angle_gamma 90.000000
_cell_volume 2925.636217
_symmetry_space_group_name_H-M "A M M 2"
_symmetry_group_IT_number 38
_symmetry_cell_setting 'orthorhombic'
loop_
_space_group_symop_operation_xyz
x,y,z
-x,-y,z
-x,y,z
x,-y,z
x,1/2+y,1/2+z
-x,1/2-y,1/2+z
-x,1/2+y,1/2+z
x,1/2-y,1/2+z
loop_
_atom_site_type_symbol
_atom_site_label
_atom_site_fract_x
_atom_site_fract_y
_atom_site_fract_z
Si Si1 0.847551 0.323431 0.105630
Si Si2 0.073233 0.327324 0.752533
Si Si3 0.624995 0.824831 0.949339
Si Si4 0.930549 0.322861 0.948376
Si Si5 0.632935 0.172421 0.275009
Si Si6 0.713950 0.825687 0.108304
Si Si7 0.500000 0.176289 0.512523
Si Si8 0.500000 0.829217 0.195127
O O1 0.845986 0.500000 0.103379
O O2 0.885321 0.273690 0.190329
O O3 0.777569 0.264842 0.108098
O O4 0.881709 0.258623 0.019031
O O5 0.090628 0.500000 0.737762
O O6 0.090173 0.276470 0.850988
O O7 0.000000 0.299719 0.733563
O O8 0.653407 0.773426 0.856744
O O9 0.560617 0.738736 0.964228
O O10 0.611447 0.000000 0.950226
O O11 0.674431 0.780290 0.023527
O O12 0.933775 0.500000 0.953473
O O13 0.000000 0.258059 0.969036
O O14 0.674536 0.221575 0.192972
O O15 0.560258 0.202832 0.253974
O O16 0.644453 0.000000 0.298313
O O17 0.729530 0.000000 0.108943
O O18 0.500000 0.220438 0.613326
O O19 0.500000 0.000000 0.503267
O O20 0.500000 0.000000 0.160095
#
# Coordination Sequence:
#
# PCOD8178778 Si02
#       8
#     8   8   8   8   8   8   4   4
#     4  11  22  35  56  84 115 149 190 238 282 331
#     4   9  18  35  59  84 111 146 188 231 282 346
#     4  11  23  41  63  87 116 151 192 240 293 344
#     4   8  16  33  56  81 110 146 186 227 276 335
#     4  10  21  39  63  87 114 150 191 238 294 352
#     4  10  23  42  59  78 114 159 194 232 284 342
#     4  12  23  36  61  92 120 150 189 237 288 347
#     4  10  19  38  63  86 116 150 189 237 294 345
#
# _framework density 19.141134999999998
#
# number of rings (size 3 to 8) (size 9 to 14) (size 15 to 20)
#    0.000    2.000    1.429    3.214    0.000    4.857 
#    0.000    5.714    0.000    1.714    0.000    0.000 
#    0.000    0.000    0.000    0.000    0.000    0.000 
#
# Total GULP energy -347273.528258 kJ/mol
# GULP energy per Si atom -12402.626009 kJ/mol
# Density = 1.909757 g / cm^3
# Si number density = 19.141135 Si / 1000 Ang^3
#
#
#
# Elastic Constant Matrix: (Units=GPa)
#
#
# Indices 1 2 3 4 5 6 
#
# 1 133.6044 53.3193 83.4144 0.0000 0.0000 0.0000
# 2 53.3193 63.4964 54.9105 0.0000 0.0000 0.0000
# 3 83.4144 54.9105 163.8899 0.0000 0.0000 0.0000
# 4 0.0000 0.0000 0.0000 33.6489 0.0000 0.0000
# 5 0.0000 0.0000 0.0000 0.0000 5.0883 0.0000
# 6 0.0000 0.0000 0.0000 0.0000 0.0000 16.8922
#
#
#
# Elastic Compliance Matrix: (Units=1/GPa)
#
#
# Indices 1 2 3 4 5 6 
#
# 1 0.013008 -0.007318 -0.004169 0.000000 0.000000 0.000000
# 2 -0.007318 0.026290 -0.005084 0.000000 0.000000 0.000000
# 3 -0.004169 -0.005084 0.009927 0.000000 0.000000 0.000000
# 4 0.000000 0.000000 0.000000 0.029719 0.000000 0.000000
# 5 0.000000 0.000000 0.000000 0.000000 0.196528 0.000000
# 6 0.000000 0.000000 0.000000 0.000000 0.000000 0.059199
#
#
# Mechanical properties :
#
#
# Convention : Reuss Voigt Hill
#
# Bulk Modulus (GPa) = 62.17403 82.69767 72.43585
# Shear Modulus (GPa) = 13.39860 22.41566 17.90713
#
# Velocity S-wave (km/s) = 2.64860 3.42581 3.06196
# Velocity P-wave (km/s) = 6.47347 7.67764 7.10113
#
# Compressibility (1/GPa) = 0.01608389
#
# Stress axis : x y z
#
# Youngs Moduli (GPa) = 76.87577 38.03665 100.73798
#
# Poissons Ratio (x) = 0.27835 0.41995
# Poissons Ratio (y) = 0.56258 0.51214
# Poissons Ratio (z) = 0.32048 0.19337
#
# Static dielectric constant tensor:
#      x y z
#    x 3.432950 0.000000 0.000000 
#    y 0.000000 3.301190 0.000000 
#    z 0.000000 0.000000 3.755900 
# 
# 
# High freq. dielectric constant tensor:
#      x y z
#    x 1.744320 0.000000 0.000000 
#    y 0.000000 1.727390 0.000000 
#    z 0.000000 0.000000 1.760740 
# 
# From -- ./inp_files/15562.got.cif
#   From: 2010.03.12/outbox.cif.g09.slc.cpg/sg38_8_cif.got.tgz:15562.got - 2010.04.14 02:38:36.
