data_PCOD8178061
_publ_section_title
;
Structure prediction by ZEFSAII (Michael W. Deem and Ramdas Pophale) SiO2 
 PCOD8178061
Probable space group: A M M 2
;
_chemical_formula_sum "Si O2"
_cell_formula_units_Z 64
_cell_length_a 19.920427
_cell_length_b 8.943381
_cell_length_c 19.886133
_cell_angle_alpha 90.000000
_cell_angle_beta 90.000000
_cell_angle_gamma 90.000000
_cell_volume 3542.833281
_symmetry_space_group_name_H-M "A M M 2"
_symmetry_group_IT_number 38
_symmetry_cell_setting 'orthorhombic'
loop_
_space_group_symop_operation_xyz
x,y,z
-x,-y,z
-x,y,z
x,-y,z
x,1/2+y,1/2+z
-x,1/2-y,1/2+z
-x,1/2+y,1/2+z
x,1/2-y,1/2+z
loop_
_atom_site_type_symbol
_atom_site_label
_atom_site_fract_x
_atom_site_fract_y
_atom_site_fract_z
Si Si1 0.178811 0.323954 0.019450
Si Si2 0.791951 0.327143 0.651187
Si Si3 0.925783 0.176189 0.409425
Si Si4 0.327460 0.824495 0.471058
Si Si5 0.422750 0.673702 0.578958
Si Si6 0.174405 0.328203 0.798613
Si Si7 0.308893 0.826016 0.836255
Si Si8 0.345198 0.175002 0.688332
O O1 0.172542 0.500000 0.031099
O O2 0.165715 0.240435 0.089785
O O3 0.122388 0.262517 0.968312
O O4 0.251456 0.281278 0.990031
O O5 0.775754 0.500000 0.638104
O O6 0.835720 0.305162 0.718924
O O7 0.722398 0.239585 0.656199
O O8 0.894196 0.215725 0.336573
O O9 0.000000 0.249459 0.414291
O O10 0.931809 0.000000 0.417447
O O11 0.378302 0.748629 0.521914
O O12 0.343576 0.764517 0.396422
O O13 0.339590 0.000000 0.473046
O O14 0.500000 0.701516 0.560993
O O15 0.405109 0.500000 0.582875
O O16 0.407771 0.747416 0.651573
O O17 0.194714 0.500000 0.815102
O O18 0.232375 0.223135 0.826805
O O19 0.349915 0.791521 0.767833
O O20 0.310298 0.000000 0.854011
O O21 0.345639 0.000000 0.672964
#
# Coordination Sequence:
#
# PCOD8178061 Si02
#       8
#     8   8   8   8   8   8   8   8
#     4  10  19  32  52  79 108 138 181 229 269 321
#     4  10  19  30  51  79 108 139 174 223 276 319
#     4   9  17  32  54  76 102 141 186 227 270 323
#     4  11  21  35  57  83 112 145 183 228 273 323
#     4  11  24  40  58  82 112 145 182 225 274 330
#     4   9  17  32  51  76 105 136 180 226 269 322
#     4  10  20  33  54  83 112 141 178 225 275 319
#     4  10  20  35  55  81 110 142 180 222 269 324
#
# _framework density 18.064637999999999
#
# number of rings (size 3 to 8) (size 9 to 14) (size 15 to 20)
#    0.000    2.000    2.500    1.875    0.000    3.500 
#    0.000    1.250    0.000    3.000    0.000    0.000 
#    0.000    0.000    0.000    0.000    0.000    0.000 
#
# Total GULP energy -396830.743082 kJ/mol
# GULP energy per Si atom -12400.960721 kJ/mol
# Density = 1.802352 g / cm^3
# Si number density = 18.064638 Si / 1000 Ang^3
#
#
#
# Elastic Constant Matrix: (Units=GPa)
#
#
# Indices 1 2 3 4 5 6 
#
# 1 102.7825 50.9420 64.4907 0.0000 0.0000 0.0000
# 2 50.9420 81.2816 62.4938 0.0000 0.0000 0.0000
# 3 64.4907 62.4938 144.8604 0.0000 0.0000 0.0000
# 4 0.0000 0.0000 0.0000 34.5354 0.0000 0.0000
# 5 0.0000 0.0000 0.0000 0.0000 25.3374 0.0000
# 6 0.0000 0.0000 0.0000 0.0000 0.0000 18.1003
#
#
#
# Elastic Compliance Matrix: (Units=1/GPa)
#
#
# Indices 1 2 3 4 5 6 
#
# 1 0.015569 -0.006626 -0.004072 0.000000 0.000000 0.000000
# 2 -0.006626 0.021229 -0.006208 0.000000 0.000000 0.000000
# 3 -0.004072 -0.006208 0.011395 0.000000 0.000000 0.000000
# 4 0.000000 0.000000 0.000000 0.028956 0.000000 0.000000
# 5 0.000000 0.000000 0.000000 0.000000 0.039467 0.000000
# 6 0.000000 0.000000 0.000000 0.000000 0.000000 0.055248
#
#
# Mechanical properties :
#
#
# Convention : Reuss Voigt Hill
#
# Bulk Modulus (GPa) = 69.55016 76.08641 72.81828
# Shear Modulus (GPa) = 23.75630 25.66117 24.70873
#
# Velocity S-wave (km/s) = 3.63033 3.77307 3.70238
# Velocity P-wave (km/s) = 7.49377 7.82252 7.65991
#
# Compressibility (1/GPa) = 0.01437811
#
# Stress axis : x y z
#
# Youngs Moduli (GPa) = 64.23132 47.10478 87.76103
#
# Poissons Ratio (x) = 0.31213 0.35740
# Poissons Ratio (y) = 0.42562 0.54486
# Poissons Ratio (z) = 0.26158 0.29245
#
# Static dielectric constant tensor:
#      x y z
#    x 3.230110 0.000000 0.000000 
#    y 0.000000 3.317020 0.000000 
#    z 0.000000 0.000000 3.654720 
# 
# 
# High freq. dielectric constant tensor:
#      x y z
#    x 1.668140 0.000000 0.000000 
#    y 0.000000 1.697190 0.000000 
#    z 0.000000 0.000000 1.716190 
# 
# From -- ./inp_files/21412.got.cif
#   From: 2010.03.12/outbox.cif.g09.slc.cpg/sg38_11_cif.got.tgz:21412.got - 2010.04.14 02:38:36.
