data_PCOD8178300
_publ_section_title
;
Structure prediction by ZEFSAII (Michael W. Deem and Ramdas Pophale) SiO2 
 PCOD8178300
Probable space group: A M M 2
;
_chemical_formula_sum "Si O2"
_cell_formula_units_Z 56
_cell_length_a 9.092757
_cell_length_b 23.721419
_cell_length_c 13.632306
_cell_angle_alpha 90.000000
_cell_angle_beta 90.000000
_cell_angle_gamma 90.000000
_cell_volume 2940.394323
_symmetry_space_group_name_H-M "A M M 2"
_symmetry_group_IT_number 38
_symmetry_cell_setting 'orthorhombic'
loop_
_space_group_symop_operation_xyz
x,y,z
-x,-y,z
-x,y,z
x,-y,z
x,1/2+y,1/2+z
-x,1/2-y,1/2+z
-x,1/2+y,1/2+z
x,1/2-y,1/2+z
loop_
_atom_site_type_symbol
_atom_site_label
_atom_site_fract_x
_atom_site_fract_y
_atom_site_fract_z
Si Si1 0.669676 0.658878 0.428280
Si Si2 0.172974 0.127426 0.444392
Si Si3 0.172433 0.562930 0.749622
Si Si4 0.669108 0.659531 0.649323
Si Si5 0.328607 0.775458 0.339229
Si Si6 0.672299 0.064671 0.617410
Si Si7 0.170801 0.435565 0.320190
O O1 0.500000 0.640823 0.416760
O O2 0.701989 0.680149 0.539147
O O3 0.709584 0.709917 0.354928
O O4 0.771200 0.605236 0.405610
O O5 0.213558 0.084161 0.357964
O O6 0.234143 0.188726 0.416465
O O7 0.251022 0.106190 0.541800
O O8 0.000000 0.131396 0.463115
O O9 0.235200 0.500000 0.737751
O O10 0.243424 0.602019 0.667300
O O11 0.000000 0.564518 0.732782
O O12 0.500000 0.644398 0.664461
O O13 0.715261 0.708035 0.727394
O O14 0.500000 0.786921 0.360628
O O15 0.500000 0.077465 0.620020
O O16 0.737889 0.078452 0.723208
O O17 0.705286 0.000000 0.588169
O O18 0.196604 0.500000 0.353989
O O19 0.000000 0.424018 0.299530
#
# Coordination Sequence:
#
# PCOD8178300 Si02
#       7
#     8   8   8   8   8   8   8
#     4  10  21  37  58  81 106 140 179 221 271 324
#     4  10  19  32  52  79 111 145 181 224 272 320
#     4   9  18  32  50  74 106 143 179 216 262 314
#     4   9  19  35  53  76 105 136 175 221 264 309
#     4   9  19  36  55  77 108 144 182 223 266 318
#     4  10  20  34  54  80 110 145 183 223 270 325
#     4  10  22  39  57  79 108 140 177 223 271 323
#
# _framework density 19.045065000000001
#
# number of rings (size 3 to 8) (size 9 to 14) (size 15 to 20)
#    0.000    2.429    0.000    1.714    0.000    6.000 
#    0.000    5.714    0.000    0.000    0.000    0.000 
#    0.000    0.000    0.000    0.000    0.000    0.000 
#
# Total GULP energy -347258.384396 kJ/mol
# GULP energy per Si atom -12402.085157 kJ/mol
# Density = 1.900172 g / cm^3
# Si number density = 19.045065 Si / 1000 Ang^3
#
#
#
# Elastic Constant Matrix: (Units=GPa)
#
#
# Indices 1 2 3 4 5 6 
#
# 1 69.4072 41.9661 38.0053 0.0000 0.0000 0.0000
# 2 41.9661 108.9472 51.2615 0.0000 0.0000 0.0000
# 3 38.0053 51.2615 93.4481 0.0000 0.0000 0.0000
# 4 0.0000 0.0000 0.0000 27.7657 0.0000 0.0000
# 5 0.0000 0.0000 0.0000 0.0000 30.9762 0.0000
# 6 0.0000 0.0000 0.0000 0.0000 0.0000 29.7830
#
#
#
# Elastic Compliance Matrix: (Units=1/GPa)
#
#
# Indices 1 2 3 4 5 6 
#
# 1 0.020647 -0.005395 -0.005438 0.000000 0.000000 0.000000
# 2 -0.005395 0.013781 -0.005366 0.000000 0.000000 0.000000
# 3 -0.005438 -0.005366 0.015856 0.000000 0.000000 0.000000
# 4 0.000000 0.000000 0.000000 0.036016 0.000000 0.000000
# 5 0.000000 0.000000 0.000000 0.000000 0.032283 0.000000
# 6 0.000000 0.000000 0.000000 0.000000 0.000000 0.033576
#
#
# Mechanical properties :
#
#
# Convention : Reuss Voigt Hill
#
# Bulk Modulus (GPa) = 55.90352 59.36312 57.63332
# Shear Modulus (GPa) = 26.24407 27.07628 26.66017
#
# Velocity S-wave (km/s) = 3.71617 3.77463 3.74551
# Velocity P-wave (km/s) = 6.91594 7.08764 7.00231
#
# Compressibility (1/GPa) = 0.01788796
#
# Stress axis : x y z
#
# Youngs Moduli (GPa) = 48.43286 72.56110 63.06656
#
# Poissons Ratio (x) = 0.39143 0.34295
# Poissons Ratio (y) = 0.26127 0.33841
# Poissons Ratio (z) = 0.26338 0.38936
#
# Static dielectric constant tensor:
#      x y z
#    x 3.489240 0.000000 0.000000 
#    y 0.000000 3.501320 0.000000 
#    z 0.000000 0.000000 3.450200 
# 
# 
# High freq. dielectric constant tensor:
#      x y z
#    x 1.740810 0.000000 0.000000 
#    y 0.000000 1.735840 0.000000 
#    z 0.000000 0.000000 1.737920 
# 
# From -- ./inp_files/12414.got.cif
#   From: 2010.03.12/outbox.cif.g09.slc.cpg/sg38_7_cif.got.tgz:12414.got - 2010.04.14 02:38:36.
