data_PCOD8178405
_publ_section_title
;
Structure prediction by ZEFSAII (Michael W. Deem and Ramdas Pophale) SiO2 
 PCOD8178405
Probable space group: A M M 2
;
_chemical_formula_sum "Si O2"
_cell_formula_units_Z 64
_cell_length_a 21.314054
_cell_length_b 26.819535
_cell_length_c 5.465828
_cell_angle_alpha 90.000000
_cell_angle_beta 90.000000
_cell_angle_gamma 90.000000
_cell_volume 3124.447751
_symmetry_space_group_name_H-M "A M M 2"
_symmetry_group_IT_number 38
_symmetry_cell_setting 'orthorhombic'
loop_
_space_group_symop_operation_xyz
x,y,z
-x,-y,z
-x,y,z
x,-y,z
x,1/2+y,1/2+z
-x,1/2-y,1/2+z
-x,1/2+y,1/2+z
x,1/2-y,1/2+z
loop_
_atom_site_type_symbol
_atom_site_label
_atom_site_fract_x
_atom_site_fract_y
_atom_site_fract_z
Si Si1 0.759175 0.376264 0.114580
Si Si2 0.357650 0.624784 0.830182
Si Si3 0.348942 0.728218 0.643549
Si Si4 0.930148 0.058748 0.904664
Si Si5 0.140138 0.440766 0.902982
Si Si6 0.207588 0.267328 0.172467
Si Si7 0.569540 0.555577 0.131163
Si Si8 0.309024 0.444059 0.459876
O O1 0.797224 0.406824 0.907218
O O2 0.793393 0.326747 0.208688
O O3 0.747716 0.414745 0.333949
O O4 0.691029 0.354730 0.032374
O O5 0.367588 0.669421 0.637786
O O6 0.319111 0.577846 0.726362
O O7 0.421462 0.600705 0.936442
O O8 0.379586 0.749622 0.393719
O O9 0.274692 0.738916 0.645168
O O10 0.895536 0.075672 0.154909
O O11 0.000000 0.082262 0.906272
O O12 0.935598 0.000000 0.907500
O O13 0.896567 0.075079 0.651961
O O14 0.155299 0.500000 0.900950
O O15 0.172778 0.245339 0.414232
O O16 0.500000 0.562210 0.246935
O O17 0.574594 0.500000 0.010380
O O18 0.623188 0.560986 0.332278
O O19 0.284784 0.500000 0.480534
#
# Coordination Sequence:
#
# PCOD8178405 Si02
#       8
#     8   8   8   8   8   8   8   8
#     4  11  22  33  51  78 118 146 180 224 289 344
#     4  11  21  33  58  79 106 148 184 227 283 347
#     4  10  19  34  55  81 105 141 182 225 273 332
#     4   9  18  35  55  74 104 151 200 235 268 314
#     4  10  21  33  50  80 114 151 186 230 278 325
#     4  10  19  33  52  75 105 146 182 227 269 333
#     4   9  20  38  55  77 106 137 186 239 277 328
#     4  10  21  34  51  77 109 149 183 220 278 346
#
# _framework density 20.483619999999998
#
# number of rings (size 3 to 8) (size 9 to 14) (size 15 to 20)
#    0.000    2.000    2.500    2.625    3.500    3.500 
#    0.000    1.250    0.000    0.750    0.000    0.000 
#    0.000   10.000    0.000    0.000    0.000    0.000 
#
# Total GULP energy -396435.723674 kJ/mol
# GULP energy per Si atom -12388.616365 kJ/mol
# Density = 2.043700 g / cm^3
# Si number density = 20.483620 Si / 1000 Ang^3
#
#
#
# Elastic Constant Matrix: (Units=GPa)
#
#
# Indices 1 2 3 4 5 6 
#
# 1 57.4371 7.1522 10.1210 0.0000 0.0000 0.0000
# 2 7.1522 87.9134 15.4952 0.0000 0.0000 0.0000
# 3 10.1210 15.4952 119.4086 0.0000 0.0000 0.0000
# 4 0.0000 0.0000 0.0000 25.6823 0.0000 0.0000
# 5 0.0000 0.0000 0.0000 0.0000 19.4705 0.0000
# 6 0.0000 0.0000 0.0000 0.0000 0.0000 10.2003
#
#
#
# Elastic Compliance Matrix: (Units=1/GPa)
#
#
# Indices 1 2 3 4 5 6 
#
# 1 0.017799 -0.001210 -0.001352 0.000000 0.000000 0.000000
# 2 -0.001210 0.011723 -0.001419 0.000000 0.000000 0.000000
# 3 -0.001352 -0.001419 0.008673 0.000000 0.000000 0.000000
# 4 0.000000 0.000000 0.000000 0.038937 0.000000 0.000000
# 5 0.000000 0.000000 0.000000 0.000000 0.051360 0.000000
# 6 0.000000 0.000000 0.000000 0.000000 0.000000 0.098036
#
#
# Mechanical properties :
#
#
# Convention : Reuss Voigt Hill
#
# Bulk Modulus (GPa) = 33.07390 36.69955 34.88672
# Shear Modulus (GPa) = 20.44419 26.53666 23.49042
#
# Velocity S-wave (km/s) = 3.16266 3.60322 3.39010
# Velocity P-wave (km/s) = 5.43306 5.93855 5.69142
#
# Compressibility (1/GPa) = 0.03023532
#
# Stress axis : x y z
#
# Youngs Moduli (GPa) = 56.18243 85.30012 115.29663
#
# Poissons Ratio (x) = 0.10320 0.15584
# Poissons Ratio (y) = 0.06797 0.16358
# Poissons Ratio (z) = 0.07594 0.12102
#
# Static dielectric constant tensor:
#      x y z
#    x 3.410850 0.000000 0.000000 
#    y 0.000000 3.660060 0.000000 
#    z 0.000000 0.000000 4.139880 
# 
# 
# High freq. dielectric constant tensor:
#      x y z
#    x 1.743630 0.000000 0.000000 
#    y 0.000000 1.794200 0.000000 
#    z 0.000000 0.000000 1.811710 
# 
# From -- ./inp_files/1979.got.cif
#   From: 2010.03.12/outbox.cif.g09.slc.cpg/sg38_1_cif.got.tgz:1979.got - 2010.04.14 02:38:36.
