data_PCOD8178749
_publ_section_title
;
Structure prediction by ZEFSAII (Michael W. Deem and Ramdas Pophale) SiO2 
 PCOD8178749
Probable space group: A M M 2
;
_chemical_formula_sum "Si O2"
_cell_formula_units_Z 64
_cell_length_a 8.925195
_cell_length_b 30.597134
_cell_length_c 11.981487
_cell_angle_alpha 90.000000
_cell_angle_beta 90.000000
_cell_angle_gamma 90.000000
_cell_volume 3271.969019
_symmetry_space_group_name_H-M "A M M 2"
_symmetry_group_IT_number 38
_symmetry_cell_setting 'orthorhombic'
loop_
_space_group_symop_operation_xyz
x,y,z
-x,-y,z
-x,y,z
x,-y,z
x,1/2+y,1/2+z
-x,1/2-y,1/2+z
-x,1/2+y,1/2+z
x,1/2-y,1/2+z
loop_
_atom_site_type_symbol
_atom_site_label
_atom_site_fract_x
_atom_site_fract_y
_atom_site_fract_z
Si Si1 0.822332 0.372782 0.240220
Si Si2 0.821880 0.374938 0.493377
Si Si3 0.675978 0.301023 0.639329
Si Si4 0.329622 0.327151 0.887755
Si Si5 0.329010 0.428711 0.879379
Si Si6 0.674544 0.050406 0.133411
Si Si7 0.176245 0.790296 0.595230
Si Si8 0.827683 0.452086 0.096514
O O1 0.762273 0.372931 0.366349
O O2 0.769499 0.328966 0.177319
O O3 0.754291 0.415172 0.176117
O O4 0.000000 0.375605 0.240598
O O5 0.759253 0.332090 0.552753
O O6 0.764042 0.419763 0.547058
O O7 0.000000 0.374124 0.499778
O O8 0.500000 0.303492 0.615553
O O9 0.717210 0.317097 0.762129
O O10 0.732743 0.252045 0.629571
O O11 0.500000 0.312022 0.911814
O O12 0.310430 0.378159 0.907511
O O13 0.216110 0.301951 0.968168
O O14 0.500000 0.444121 0.881281
O O15 0.262478 0.440482 0.757802
O O16 0.244078 0.454903 0.974535
O O17 0.500000 0.063600 0.127918
O O18 0.700315 0.000000 0.100559
O O19 0.000000 0.781456 0.604592
O O20 0.807645 0.500000 0.152663
O O21 0.000000 0.440212 0.078305
#
# Coordination Sequence:
#
# PCOD8178749 Si02
#       8
#     8   8   8   8   8   8   8   8
#     4   9  21  40  58  83 118 155 192 240 296 349
#     4  11  23  40  62  88 118 155 202 248 297 350
#     4  11  24  43  63  88 122 157 199 243 296 356
#     4  10  21  39  63  89 118 155 196 241 294 354
#     4  10  19  36  60  86 118 152 191 237 291 350
#     4  10  21  39  61  86 120 160 197 240 299 356
#     4  11  23  40  63  90 121 154 196 245 300 355
#     4  10  20  36  59  86 116 152 193 237 291 350
#
# _framework density 19.560086999999999
#
# number of rings (size 3 to 8) (size 9 to 14) (size 15 to 20)
#    0.000    1.750    2.500    1.500    1.750    3.000 
#    0.000    4.375    0.000    0.000    0.000    0.000 
#    0.000    0.000    0.000    0.000    0.000    0.000 
#
# Total GULP energy -396878.019294 kJ/mol
# GULP energy per Si atom -12402.438103 kJ/mol
# Density = 1.951557 g / cm^3
# Si number density = 19.560087 Si / 1000 Ang^3
#
#
#
# Elastic Constant Matrix: (Units=GPa)
#
#
# Indices 1 2 3 4 5 6 
#
# 1 53.8351 33.4223 43.8804 0.0000 0.0000 0.0000
# 2 33.4223 117.1620 59.2295 0.0000 0.0000 0.0000
# 3 43.8804 59.2295 136.8897 0.0000 0.0000 0.0000
# 4 0.0000 0.0000 0.0000 56.8790 0.0000 0.0000
# 5 0.0000 0.0000 0.0000 0.0000 28.2446 0.0000
# 6 0.0000 0.0000 0.0000 0.0000 0.0000 30.1131
#
#
#
# Elastic Compliance Matrix: (Units=1/GPa)
#
#
# Indices 1 2 3 4 5 6 
#
# 1 0.026672 -0.004206 -0.006730 0.000000 0.000000 0.000000
# 2 -0.004206 0.011588 -0.003666 0.000000 0.000000 0.000000
# 3 -0.006730 -0.003666 0.011048 0.000000 0.000000 0.000000
# 4 0.000000 0.000000 0.000000 0.017581 0.000000 0.000000
# 5 0.000000 0.000000 0.000000 0.000000 0.035405 0.000000
# 6 0.000000 0.000000 0.000000 0.000000 0.000000 0.033208
#
#
# Mechanical properties :
#
#
# Convention : Reuss Voigt Hill
#
# Bulk Modulus (GPa) = 49.73872 64.55015 57.14444
# Shear Modulus (GPa) = 29.17008 34.47098 31.82053
#
# Velocity S-wave (km/s) = 3.86593 4.20254 4.03775
# Velocity P-wave (km/s) = 6.73878 7.52470 7.14256
#
# Compressibility (1/GPa) = 0.02010506
#
# Stress axis : x y z
#
# Youngs Moduli (GPa) = 37.49235 86.29431 90.51055
#
# Poissons Ratio (x) = 0.36300 0.60911
# Poissons Ratio (y) = 0.15771 0.33178
# Poissons Ratio (z) = 0.25231 0.31632
#
# Static dielectric constant tensor:
#      x y z
#    x 3.395690 0.000000 0.000000 
#    y 0.000000 3.555100 0.000000 
#    z 0.000000 0.000000 3.697390 
# 
# 
# High freq. dielectric constant tensor:
#      x y z
#    x 1.745760 0.000000 0.000000 
#    y 0.000000 1.778400 0.000000 
#    z 0.000000 0.000000 1.766240 
# 
# From -- ./inp_files/8591.got.cif
#   From: 2010.03.12/outbox.cif.g09.slc.cpg/sg38_5_cif.got.tgz:8591.got - 2010.04.14 02:38:36.
