data_PCOD8178652
_publ_section_title
;
Structure prediction by ZEFSAII (Michael W. Deem and Ramdas Pophale) SiO2 
 PCOD8178652
Probable space group: A M M 2
;
_chemical_formula_sum "Si O2"
_cell_formula_units_Z 64
_cell_length_a 12.741301
_cell_length_b 24.148200
_cell_length_c 10.525651
_cell_angle_alpha 90.000000
_cell_angle_beta 90.000000
_cell_angle_gamma 90.000000
_cell_volume 3238.526877
_symmetry_space_group_name_H-M "A M M 2"
_symmetry_group_IT_number 38
_symmetry_cell_setting 'orthorhombic'
loop_
_space_group_symop_operation_xyz
x,y,z
-x,-y,z
-x,y,z
x,-y,z
x,1/2+y,1/2+z
-x,1/2-y,1/2+z
-x,1/2+y,1/2+z
x,1/2-y,1/2+z
loop_
_atom_site_type_symbol
_atom_site_label
_atom_site_fract_x
_atom_site_fract_y
_atom_site_fract_z
Si Si1 0.119412 0.343560 0.879670
Si Si2 0.623420 0.710010 0.608071
Si Si3 0.119140 0.639140 0.308754
Si Si4 0.114521 0.059309 0.036082
Si Si5 0.270566 0.390435 0.698644
Si Si6 0.182256 0.934902 0.578098
Si Si7 0.615366 0.937071 0.438364
Si Si8 0.260991 0.255773 0.358306
O O1 0.166520 0.356698 0.741405
O O2 0.127093 0.397642 0.970077
O O3 0.185184 0.289902 0.924377
O O4 0.000000 0.325080 0.866998
O O5 0.500000 0.718124 0.621407
O O6 0.656175 0.645303 0.605382
O O7 0.657575 0.733331 0.471667
O O8 0.677307 0.736757 0.732444
O O9 0.124973 0.611360 0.445188
O O10 0.193948 0.691887 0.310608
O O11 0.000000 0.657333 0.274560
O O12 0.156342 0.591512 0.212529
O O13 0.000000 0.063573 0.106025
O O14 0.118794 0.000000 0.963712
O O15 0.216395 0.057884 0.128385
O O16 0.340650 0.403937 0.819604
O O17 0.308217 0.930796 0.558975
O O18 0.146192 0.000000 0.569721
O O19 0.500000 0.914090 0.475811
O O20 0.607595 0.000000 0.393591
#
# Coordination Sequence:
#
# PCOD8178652 Si02
#       8
#     8   8   8   8   8   8   8   8
#     4  10  21  36  57  86 118 155 194 244 300 359
#     4  11  23  40  62  86 117 155 205 261 319 371
#     4  11  22  38  59  87 121 164 202 243 301 367
#     4  10  20  34  55  84 119 158 197 239 294 361
#     4  10  19  35  55  83 115 149 197 245 303 362
#     4  10  21  37  59  89 125 160 203 253 305 372
#     4   9  18  34  57  83 113 154 201 251 307 360
#     4  11  23  42  62  90 121 161 209 260 310 374
#
# _framework density 19.762070999999999
#
# number of rings (size 3 to 8) (size 9 to 14) (size 15 to 20)
#    0.000    1.750    1.250    3.375    0.000    2.000 
#    0.000    6.875    0.000    0.000    0.000    0.000 
#    0.000    0.000    0.000    0.000    0.000    0.000 
#
# Total GULP energy -396454.702404 kJ/mol
# GULP energy per Si atom -12389.209450 kJ/mol
# Density = 1.971709 g / cm^3
# Si number density = 19.762071 Si / 1000 Ang^3
#
#
#
# Elastic Constant Matrix: (Units=GPa)
#
#
# Indices 1 2 3 4 5 6 
#
# 1 155.4009 49.5470 41.4199 0.0000 0.0000 0.0000
# 2 49.5470 105.0977 23.0522 0.0000 0.0000 0.0000
# 3 41.4199 23.0522 72.4634 0.0000 0.0000 0.0000
# 4 0.0000 0.0000 0.0000 32.5510 0.0000 0.0000
# 5 0.0000 0.0000 0.0000 0.0000 27.4693 0.0000
# 6 0.0000 0.0000 0.0000 0.0000 0.0000 25.0982
#
#
#
# Elastic Compliance Matrix: (Units=1/GPa)
#
#
# Indices 1 2 3 4 5 6 
#
# 1 0.008461 -0.003148 -0.003835 0.000000 0.000000 0.000000
# 2 -0.003148 0.011400 -0.001827 0.000000 0.000000 0.000000
# 3 -0.003835 -0.001827 0.016573 0.000000 0.000000 0.000000
# 4 0.000000 0.000000 0.000000 0.030721 0.000000 0.000000
# 5 0.000000 0.000000 0.000000 0.000000 0.036404 0.000000
# 6 0.000000 0.000000 0.000000 0.000000 0.000000 0.039844
#
#
# Mechanical properties :
#
#
# Convention : Reuss Voigt Hill
#
# Bulk Modulus (GPa) = 53.15111 62.33335 57.74223
# Shear Modulus (GPa) = 29.88766 31.61989 30.75377
#
# Velocity S-wave (km/s) = 3.89315 4.00438 3.94915
# Velocity P-wave (km/s) = 6.86751 7.27945 7.07648
#
# Compressibility (1/GPa) = 0.01881428
#
# Stress axis : x y z
#
# Youngs Moduli (GPa) = 118.19486 87.72213 60.33786
#
# Poissons Ratio (x) = 0.27611 0.23138
# Poissons Ratio (y) = 0.37202 0.11026
# Poissons Ratio (z) = 0.45325 0.16030
#
# Static dielectric constant tensor:
#      x y z
#    x 3.861610 0.000000 0.000000 
#    y 0.000000 3.741290 0.000000 
#    z 0.000000 0.000000 3.394760 
# 
# 
# High freq. dielectric constant tensor:
#      x y z
#    x 1.779110 0.000000 0.000000 
#    y 0.000000 1.778790 0.000000 
#    z 0.000000 0.000000 1.754400 
# 
# From -- ./inp_files/9558.got.cif
#   From: 2010.03.12/outbox.cif.g09.slc.cpg/sg38_5_cif.got.tgz:9558.got - 2010.04.14 02:38:36.
