data_PCOD8178985
_publ_section_title
;
Structure prediction by ZEFSAII (Michael W. Deem and Ramdas Pophale) SiO2 
 PCOD8178985
Probable space group: A M M 2
;
_chemical_formula_sum "Si O2"
_cell_formula_units_Z 40
_cell_length_a 9.047532
_cell_length_b 25.689262
_cell_length_c 9.541031
_cell_angle_alpha 90.000000
_cell_angle_beta 90.000000
_cell_angle_gamma 90.000000
_cell_volume 2217.568596
_symmetry_space_group_name_H-M "A M M 2"
_symmetry_group_IT_number 38
_symmetry_cell_setting 'orthorhombic'
loop_
_space_group_symop_operation_xyz
x,y,z
-x,-y,z
-x,y,z
x,-y,z
x,1/2+y,1/2+z
-x,1/2-y,1/2+z
-x,1/2+y,1/2+z
x,1/2-y,1/2+z
loop_
_atom_site_type_symbol
_atom_site_label
_atom_site_fract_x
_atom_site_fract_y
_atom_site_fract_z
Si Si1 0.171751 0.866940 0.676560
Si Si2 0.328125 0.940984 0.882372
Si Si3 0.668498 0.145223 0.098247
Si Si4 0.329260 0.170973 0.407210
Si Si5 0.828556 0.279777 0.402164
O O1 0.239490 0.916911 0.752800
O O2 0.246379 0.861066 0.526259
O O3 0.201182 0.814746 0.765470
O O4 0.000000 0.877179 0.654970
O O5 0.500000 0.938105 0.843989
O O6 0.275286 0.000000 0.906001
O O7 0.292856 0.909686 0.025148
O O8 0.500000 0.161687 0.063987
O O9 0.692018 0.138604 0.263918
O O10 0.775653 0.190074 0.040642
O O11 0.500000 0.176668 0.448761
O O12 0.263228 0.227772 0.383593
O O13 0.000000 0.265908 0.421663
#
# Coordination Sequence:
#
# PCOD8178985 Si02
#       5
#     8   8   8   8   8
#     4  10  21  35  52  76 106 138 172 210 252 303
#     4   9  18  36  60  79  97 127 169 216 262 307
#     4   9  19  34  52  76 103 133 171 212 255 303
#     4  11  21  32  49  75 107 139 170 208 253 301
#     4  10  20  33  50  73 102 139 177 209 248 300
#
# _framework density 18.037773999999999
#
# number of rings (size 3 to 8) (size 9 to 14) (size 15 to 20)
#    0.000    2.200    0.000    3.000    0.000    7.600 
#    0.000    1.000    0.000    3.600    0.000    0.000 
#    0.000    0.000    0.000    0.000    0.000    0.000 
#
# Total GULP energy -248075.001606 kJ/mol
# GULP energy per Si atom -12403.750080 kJ/mol
# Density = 1.799672 g / cm^3
# Si number density = 18.037774 Si / 1000 Ang^3
#
#
#
# Elastic Constant Matrix: (Units=GPa)
#
#
# Indices 1 2 3 4 5 6 
#
# 1 91.5808 53.8235 58.9410 0.0000 0.0000 0.0000
# 2 53.8235 121.7427 57.8356 0.0000 0.0000 0.0000
# 3 58.9410 57.8356 127.7436 0.0000 0.0000 0.0000
# 4 0.0000 0.0000 0.0000 11.0543 0.0000 0.0000
# 5 0.0000 0.0000 0.0000 0.0000 27.1740 0.0000
# 6 0.0000 0.0000 0.0000 0.0000 0.0000 19.7296
#
#
#
# Elastic Compliance Matrix: (Units=1/GPa)
#
#
# Indices 1 2 3 4 5 6 
#
# 1 0.017643 -0.005011 -0.005872 0.000000 0.000000 0.000000
# 2 -0.005011 0.011888 -0.003070 0.000000 0.000000 0.000000
# 3 -0.005872 -0.003070 0.011928 0.000000 0.000000 0.000000
# 4 0.000000 0.000000 0.000000 0.090462 0.000000 0.000000
# 5 0.000000 0.000000 0.000000 0.000000 0.036800 0.000000
# 6 0.000000 0.000000 0.000000 0.000000 0.000000 0.050685
#
#
# Mechanical properties :
#
#
# Convention : Reuss Voigt Hill
#
# Bulk Modulus (GPa) = 73.78547 75.80750 74.79648
# Shear Modulus (GPa) = 19.85465 22.95604 21.40535
#
# Velocity S-wave (km/s) = 3.32132 3.57131 3.44858
# Velocity P-wave (km/s) = 7.46345 7.68921 7.57717
#
# Compressibility (1/GPa) = 0.01355280
#
# Stress axis : x y z
#
# Youngs Moduli (GPa) = 56.67825 84.11919 83.83877
#
# Poissons Ratio (x) = 0.42149 0.49231
# Poissons Ratio (y) = 0.28400 0.25741
# Poissons Ratio (z) = 0.33282 0.25827
#
# Static dielectric constant tensor:
#      x y z
#    x 3.446030 0.000000 0.000000 
#    y 0.000000 3.234600 0.000000 
#    z 0.000000 0.000000 3.385190 
# 
# 
# High freq. dielectric constant tensor:
#      x y z
#    x 1.708380 0.000000 0.000000 
#    y 0.000000 1.680470 0.000000 
#    z 0.000000 0.000000 1.701660 
# 
# From -- ./inp_files/3292.got.cif
#   From: 2010.03.12/outbox.cif.g09.slc.cpg/sg38_2_cif.got.tgz:3292.got - 2010.04.14 02:38:36.
