data_PCOD8178894
_publ_section_title
;
Structure prediction by ZEFSAII (Michael W. Deem and Ramdas Pophale) SiO2 
 PCOD8178894
Probable space group: A M M 2
;
_chemical_formula_sum "Si O2"
_cell_formula_units_Z 64
_cell_length_a 16.024453
_cell_length_b 9.175761
_cell_length_c 23.364082
_cell_angle_alpha 90.000000
_cell_angle_beta 90.000000
_cell_angle_gamma 90.000000
_cell_volume 3435.374032
_symmetry_space_group_name_H-M "A M M 2"
_symmetry_group_IT_number 38
_symmetry_cell_setting 'orthorhombic'
loop_
_space_group_symop_operation_xyz
x,y,z
-x,-y,z
-x,y,z
x,-y,z
x,1/2+y,1/2+z
-x,1/2-y,1/2+z
-x,1/2+y,1/2+z
x,1/2-y,1/2+z
loop_
_atom_site_type_symbol
_atom_site_label
_atom_site_fract_x
_atom_site_fract_y
_atom_site_fract_z
Si Si1 0.406270 0.326895 0.402720
Si Si2 0.089867 0.161523 0.139318
Si Si3 0.243567 0.827927 0.835189
Si Si4 0.403869 0.658124 0.527862
Si Si5 0.902651 0.170812 0.923360
Si Si6 0.690269 0.331073 0.112028
Si Si7 0.146134 0.330215 0.038721
Si Si8 0.240385 0.327825 0.714835
O O1 0.500000 0.266981 0.385540
O O2 0.410284 0.500000 0.401969
O O3 0.330997 0.272008 0.362536
O O4 0.378140 0.275280 0.466156
O O5 0.081468 0.266335 0.084534
O O6 0.151851 0.217393 0.187845
O O7 0.000000 0.157854 0.169326
O O8 0.117070 0.000000 0.118213
O O9 0.160272 0.787497 0.871534
O O10 0.240715 0.742901 0.776349
O O11 0.246206 0.000000 0.824066
O O12 0.500000 0.625748 0.524203
O O13 0.359129 0.500000 0.539248
O O14 0.389784 0.773669 0.578286
O O15 0.000000 0.214833 0.910021
O O16 0.897476 0.000000 0.936170
O O17 0.866752 0.253364 0.978274
O O18 0.683297 0.500000 0.127055
O O19 0.764404 0.295950 0.067261
O O20 0.692636 0.243772 0.171844
O O21 0.130104 0.500000 0.029812
O O22 0.255734 0.500000 0.719646
#
# Coordination Sequence:
#
# PCOD8178894 Si02
#       8
#     8   8   8   8   8   8   8   8
#     4   8  15  30  54  81 104 130 167 207 250 303
#     4   9  18  33  52  72  95 127 167 210 258 312
#     4  10  20  35  54  74 100 135 174 216 257 300
#     4   9  17  31  54  83 110 134 164 204 251 307
#     4  10  21  35  51  74 105 141 176 208 253 318
#     4  10  20  34  52  75 104 136 170 209 257 311
#     4  10  20  32  49  76 105 132 167 213 261 307
#     4  10  21  36  53  72  97 132 174 216 257 305
#
# _framework density 18.629702999999999
#
# number of rings (size 3 to 8) (size 9 to 14) (size 15 to 20)
#    0.000    2.500    0.000    3.000    0.000    6.250 
#    0.000    1.250    0.000    3.375    0.000    0.000 
#    0.000    0.000    0.000    0.000    0.000    0.000 
#
# Total GULP energy -396497.932183 kJ/mol
# GULP energy per Si atom -12390.560381 kJ/mol
# Density = 1.858730 g / cm^3
# Si number density = 18.629703 Si / 1000 Ang^3
#
#
#
# Elastic Constant Matrix: (Units=GPa)
#
#
# Indices 1 2 3 4 5 6 
#
# 1 55.3803 31.6077 58.7942 0.0000 0.0000 0.0000
# 2 31.6077 70.3541 68.6637 0.0000 0.0000 0.0000
# 3 58.7942 68.6637 163.9871 0.0000 0.0000 0.0000
# 4 0.0000 0.0000 0.0000 36.1455 0.0000 0.0000
# 5 0.0000 0.0000 0.0000 0.0000 16.9825 0.0000
# 6 0.0000 0.0000 0.0000 0.0000 0.0000 16.5001
#
#
#
# Elastic Compliance Matrix: (Units=1/GPa)
#
#
# Indices 1 2 3 4 5 6 
#
# 1 0.030187 -0.005072 -0.008699 0.000000 0.000000 0.000000
# 2 -0.005072 0.024888 -0.008603 0.000000 0.000000 0.000000
# 3 -0.008699 -0.008603 0.012819 0.000000 0.000000 0.000000
# 4 0.000000 0.000000 0.000000 0.027666 0.000000 0.000000
# 5 0.000000 0.000000 0.000000 0.000000 0.058884 0.000000
# 6 0.000000 0.000000 0.000000 0.000000 0.000000 0.060606
#
#
# Mechanical properties :
#
#
# Convention : Reuss Voigt Hill
#
# Bulk Modulus (GPa) = 43.20208 67.53918 55.37063
# Shear Modulus (GPa) = 18.69061 22.63603 20.66332
#
# Velocity S-wave (km/s) = 3.17088 3.48954 3.33402
# Velocity P-wave (km/s) = 6.05361 7.25038 6.67886
#
# Compressibility (1/GPa) = 0.02314704
#
# Stress axis : x y z
#
# Youngs Moduli (GPa) = 33.12651 40.17936 78.00836
#
# Poissons Ratio (x) = 0.20378 0.67863
# Poissons Ratio (y) = 0.16801 0.67109
# Poissons Ratio (z) = 0.28818 0.34565
#
# Static dielectric constant tensor:
#      x y z
#    x 3.615660 0.000000 0.000000 
#    y 0.000000 3.267810 0.000000 
#    z 0.000000 0.000000 3.374380 
# 
# 
# High freq. dielectric constant tensor:
#      x y z
#    x 1.723590 0.000000 0.000000 
#    y 0.000000 1.710520 0.000000 
#    z 0.000000 0.000000 1.714900 
# 
# From -- ./inp_files/21421.got.cif
#   From: 2010.03.12/outbox.cif.g09.slc.cpg/sg38_11_cif.got.tgz:21421.got - 2010.04.14 02:38:36.
