data_PCOD8178907
_publ_section_title
;
Structure prediction by ZEFSAII (Michael W. Deem and Ramdas Pophale) SiO2 
 PCOD8178907
Probable space group: A M M 2
;
_chemical_formula_sum "Si O2"
_cell_formula_units_Z 64
_cell_length_a 8.917451
_cell_length_b 27.410424
_cell_length_c 14.484367
_cell_angle_alpha 90.000000
_cell_angle_beta 90.000000
_cell_angle_gamma 90.000000
_cell_volume 3540.429946
_symmetry_space_group_name_H-M "A M M 2"
_symmetry_group_IT_number 38
_symmetry_cell_setting 'orthorhombic'
loop_
_space_group_symop_operation_xyz
x,y,z
-x,-y,z
-x,y,z
x,-y,z
x,1/2+y,1/2+z
-x,1/2-y,1/2+z
-x,1/2+y,1/2+z
x,1/2-y,1/2+z
loop_
_atom_site_type_symbol
_atom_site_label
_atom_site_fract_x
_atom_site_fract_y
_atom_site_fract_z
Si Si1 0.177478 0.636996 0.300050
Si Si2 0.663665 0.770291 0.430547
Si Si3 0.672448 0.942949 0.685284
Si Si4 0.176983 0.322778 0.669097
Si Si5 0.333239 0.270384 0.227592
Si Si6 0.321861 0.333718 0.487893
Si Si7 0.676411 0.445210 0.975868
Si Si8 0.825272 0.639595 0.869720
O O1 0.219057 0.585340 0.255130
O O2 0.245380 0.678626 0.233555
O O3 0.246466 0.638247 0.402742
O O4 0.000000 0.643674 0.306917
O O5 0.500000 0.787348 0.466423
O O6 0.648476 0.752256 0.327135
O O7 0.722441 0.723765 0.487295
O O8 0.774879 0.816112 0.436880
O O9 0.500000 0.927754 0.702889
O O10 0.719670 0.930244 0.580280
O O11 0.694141 0.000000 0.704263
O O12 0.239678 0.267525 0.666209
O O13 0.253675 0.352932 0.584889
O O14 0.221350 0.349969 0.763970
O O15 0.000000 0.321112 0.655583
O O16 0.500000 0.278800 0.184765
O O17 0.500000 0.341733 0.482754
O O18 0.500000 0.442211 0.963241
O O19 0.733189 0.500000 0.955725
O O20 0.751108 0.410436 0.900917
O O21 0.000000 0.634087 0.880898
#
# Coordination Sequence:
#
# PCOD8178907 Si02
#       8
#     8   8   8   8   8   8   8   8
#     4  11  21  33  52  78 107 137 170 213 262 309
#     4   8  16  30  47  67  93 127 168 209 243 283
#     4   9  19  37  58  78 101 130 166 209 257 312
#     4  10  20  33  49  74 107 140 175 215 259 303
#     4   9  17  31  49  69  96 133 175 211 246 294
#     4  10  20  34  52  74 102 141 182 215 252 300
#     4   9  19  36  57  78  99 127 165 208 253 302
#     4  10  20  32  50  76 105 136 167 204 254 307
#
# _framework density 18.076899000000001
#
# number of rings (size 3 to 8) (size 9 to 14) (size 15 to 20)
#    0.000    2.500    0.000    4.125    0.000    7.000 
#    0.000    2.500    0.000    0.750    0.000    3.500 
#    0.000    0.000    0.000    0.000    0.000    0.000 
#
# Total GULP energy -396695.587597 kJ/mol
# GULP energy per Si atom -12396.737112 kJ/mol
# Density = 1.803576 g / cm^3
# Si number density = 18.076899 Si / 1000 Ang^3
#
#
#
# Elastic Constant Matrix: (Units=GPa)
#
#
# Indices 1 2 3 4 5 6 
#
# 1 101.5805 45.1589 50.1832 0.0000 0.0000 0.0000
# 2 45.1589 82.3272 45.9709 0.0000 0.0000 0.0000
# 3 50.1832 45.9709 95.0295 0.0000 0.0000 0.0000
# 4 0.0000 0.0000 0.0000 20.8761 0.0000 0.0000
# 5 0.0000 0.0000 0.0000 0.0000 27.6562 0.0000
# 6 0.0000 0.0000 0.0000 0.0000 0.0000 22.5594
#
#
#
# Elastic Compliance Matrix: (Units=1/GPa)
#
#
# Indices 1 2 3 4 5 6 
#
# 1 0.014744 -0.005124 -0.005307 0.000000 0.000000 0.000000
# 2 -0.005124 0.018423 -0.006206 0.000000 0.000000 0.000000
# 3 -0.005307 -0.006206 0.016328 0.000000 0.000000 0.000000
# 4 0.000000 0.000000 0.000000 0.047902 0.000000 0.000000
# 5 0.000000 0.000000 0.000000 0.000000 0.036158 0.000000
# 6 0.000000 0.000000 0.000000 0.000000 0.000000 0.044327
#
#
# Mechanical properties :
#
#
# Convention : Reuss Voigt Hill
#
# Bulk Modulus (GPa) = 61.65274 62.39592 62.02433
# Shear Modulus (GPa) = 23.08779 23.39330 23.24054
#
# Velocity S-wave (km/s) = 3.57767 3.60126 3.58948
# Velocity P-wave (km/s) = 7.15864 7.20305 7.18088
#
# Compressibility (1/GPa) = 0.01621988
#
# Stress axis : x y z
#
# Youngs Moduli (GPa) = 67.82248 54.28037 61.24421
#
# Poissons Ratio (x) = 0.27814 0.32505
# Poissons Ratio (y) = 0.34753 0.38009
# Poissons Ratio (z) = 0.35996 0.33688
#
# Static dielectric constant tensor:
#      x y z
#    x 3.365780 0.000000 0.000000 
#    y 0.000000 3.243970 0.000000 
#    z 0.000000 0.000000 3.437730 
# 
# 
# High freq. dielectric constant tensor:
#      x y z
#    x 1.704990 0.000000 0.000000 
#    y 0.000000 1.674950 0.000000 
#    z 0.000000 0.000000 1.697630 
# 
# From -- ./inp_files/12727.got.cif
#   From: 2010.03.12/outbox.cif.g09.slc.cpg/sg38_7_cif.got.tgz:12727.got - 2010.04.14 02:38:36.
