data_PCOD8178138
_publ_section_title
;
Structure prediction by ZEFSAII (Michael W. Deem and Ramdas Pophale) SiO2 
 PCOD8178138
Probable space group: A M M 2
;
_chemical_formula_sum "Si O2"
_cell_formula_units_Z 32
_cell_length_a 7.512819
_cell_length_b 10.512374
_cell_length_c 21.242962
_cell_angle_alpha 90.000000
_cell_angle_beta 90.000000
_cell_angle_gamma 90.000000
_cell_volume 1677.717372
_symmetry_space_group_name_H-M "A M M 2"
_symmetry_group_IT_number 38
_symmetry_cell_setting 'orthorhombic'
loop_
_space_group_symop_operation_xyz
x,y,z
-x,-y,z
-x,y,z
x,-y,z
x,1/2+y,1/2+z
-x,1/2-y,1/2+z
-x,1/2+y,1/2+z
x,1/2-y,1/2+z
loop_
_atom_site_type_symbol
_atom_site_label
_atom_site_fract_x
_atom_site_fract_y
_atom_site_fract_z
Si Si1 0.000000 0.000000 0.149820
Si Si2 0.296222 0.000000 0.051354
Si Si3 0.000000 0.216532 0.246373
Si Si4 0.286815 0.000000 0.452290
Si Si5 0.000000 0.500000 0.847989
Si Si6 0.297040 0.150617 0.678415
Si Si7 0.706509 0.777164 0.540808
O O1 0.000000 0.125396 0.188404
O O2 0.817367 0.000000 0.113180
O O3 0.254276 0.867193 0.014736
O O4 0.500000 0.000000 0.073405
O O5 0.000000 0.132587 0.309470
O O6 0.178178 0.301902 0.237665
O O7 0.182970 0.000000 0.386832
O O8 0.216304 0.123223 0.490749
O O9 0.500000 0.000000 0.439710
O O10 0.500000 0.196815 0.689731
O O11 0.218706 0.203592 0.611629
O O12 0.286614 0.000000 0.675452
O O13 0.500000 0.807781 0.545597
#
# Coordination Sequence:
#
# PCOD8178138 Si02
#       7
#     2   4   4   4   2   8   8
#     4  11  20  28  48  76 112 158 181 208 290 347
#     4  10  19  31  49  84 122 146 177 231 296 360
#     4  11  23  37  51  81 117 152 203 245 272 343
#     4  10  21  41  63  84 116 156 204 252 288 346
#     4  11  28  42  58  82 112 168 221 238 276 341
#     4  10  19  34  60  91 119 149 184 240 316 367
#     4   9  17  32  58  89 118 147 184 238 305 362
#
# _framework density 19.073535
#
# number of rings (size 3 to 8) (size 9 to 14) (size 15 to 20)
#    0.000    2.000    3.750    0.375    0.000    3.000 
#    0.000    2.500    5.500    0.000    0.000    0.000 
#    0.000    0.000    0.000    0.000    0.000    0.000 
#
# Total GULP energy -198216.894411 kJ/mol
# GULP energy per Si atom -12388.555901 kJ/mol
# Density = 1.903012 g / cm^3
# Si number density = 19.073535 Si / 1000 Ang^3
#
#
#
# Elastic Constant Matrix: (Units=GPa)
#
#
# Indices 1 2 3 4 5 6 
#
# 1 88.5683 39.4295 42.0324 0.0000 0.0000 0.0000
# 2 39.4295 149.6282 51.0890 0.0000 0.0000 0.0000
# 3 42.0324 51.0890 92.0137 0.0000 0.0000 0.0000
# 4 0.0000 0.0000 0.0000 37.7467 0.0000 0.0000
# 5 0.0000 0.0000 0.0000 0.0000 27.9831 0.0000
# 6 0.0000 0.0000 0.0000 0.0000 0.0000 23.4511
#
#
#
# Elastic Compliance Matrix: (Units=1/GPa)
#
#
# Indices 1 2 3 4 5 6 
#
# 1 0.014874 -0.001974 -0.005699 0.000000 0.000000 0.000000
# 2 -0.001974 0.008509 -0.003823 0.000000 0.000000 0.000000
# 3 -0.005699 -0.003823 0.015593 0.000000 0.000000 0.000000
# 4 0.000000 0.000000 0.000000 0.026492 0.000000 0.000000
# 5 0.000000 0.000000 0.000000 0.000000 0.035736 0.000000
# 6 0.000000 0.000000 0.000000 0.000000 0.000000 0.042642
#
#
# Mechanical properties :
#
#
# Convention : Reuss Voigt Hill
#
# Bulk Modulus (GPa) = 62.55457 66.14577 64.35017
# Shear Modulus (GPa) = 29.04199 31.01346 30.02773
#
# Velocity S-wave (km/s) = 3.90633 4.03674 3.97207
# Velocity P-wave (km/s) = 7.29476 7.51543 7.40592
#
# Compressibility (1/GPa) = 0.01598604
#
# Stress axis : x y z
#
# Youngs Moduli (GPa) = 67.23220 117.52893 64.12929
#
# Poissons Ratio (x) = 0.23198 0.36544
# Poissons Ratio (y) = 0.13270 0.24514
# Poissons Ratio (z) = 0.38312 0.44926
#
# Static dielectric constant tensor:
#      x y z
#    x 3.366190 0.000000 0.000000 
#    y 0.000000 3.934520 0.000000 
#    z 0.000000 0.000000 3.111980 
# 
# 
# High freq. dielectric constant tensor:
#      x y z
#    x 1.745660 0.000000 0.000000 
#    y 0.000000 1.767830 0.000000 
#    z 0.000000 0.000000 1.682730 
# 
# From -- ./inp_files/16307.got.cif
#   From: 2010.03.12/outbox.cif.g09.slc.cpg/sg38_9_cif.got.tgz:16307.got - 2010.04.14 02:38:36.
