data_PCOD8178629
_publ_section_title
;
Structure prediction by ZEFSAII (Michael W. Deem and Ramdas Pophale) SiO2 
 PCOD8178629
Probable space group: A M M 2
;
_chemical_formula_sum "Si O2"
_cell_formula_units_Z 56
_cell_length_a 16.649222
_cell_length_b 8.838470
_cell_length_c 19.308536
_cell_angle_alpha 90.000000
_cell_angle_beta 90.000000
_cell_angle_gamma 90.000000
_cell_volume 2841.321533
_symmetry_space_group_name_H-M "A M M 2"
_symmetry_group_IT_number 38
_symmetry_cell_setting 'orthorhombic'
loop_
_space_group_symop_operation_xyz
x,y,z
-x,-y,z
-x,y,z
x,-y,z
x,1/2+y,1/2+z
-x,1/2-y,1/2+z
-x,1/2+y,1/2+z
x,1/2-y,1/2+z
loop_
_atom_site_type_symbol
_atom_site_label
_atom_site_fract_x
_atom_site_fract_y
_atom_site_fract_z
Si Si1 0.643896 0.318858 0.474800
Si Si2 0.091306 0.170553 0.897818
Si Si3 0.809399 0.824587 0.288218
Si Si4 0.354996 0.820967 0.815995
Si Si5 0.187636 0.670808 0.531422
Si Si6 0.090423 0.680352 0.657668
Si Si7 0.500000 0.319487 0.061947
Si Si8 0.500000 0.320338 0.221869
O O1 0.637104 0.500000 0.478072
O O2 0.632821 0.262988 0.395164
O O3 0.730088 0.256106 0.502208
O O4 0.577789 0.244736 0.523675
O O5 0.148353 0.289384 0.860457
O O6 0.000000 0.222992 0.889705
O O7 0.104358 0.000000 0.868891
O O8 0.114940 0.176126 0.977567
O O9 0.727178 0.734336 0.282240
O O10 0.871678 0.769332 0.230135
O O11 0.789132 0.000000 0.282033
O O12 0.423639 0.758344 0.764732
O O13 0.354404 0.000000 0.817526
O O14 0.211017 0.500000 0.550468
O O15 0.150141 0.750513 0.599414
O O16 0.086379 0.500000 0.650227
O O17 0.000000 0.747179 0.652135
O O18 0.500000 0.500000 0.057975
O O19 0.500000 0.262684 0.142204
O O20 0.500000 0.500000 0.221792
#
# Coordination Sequence:
#
# PCOD8178629 Si02
#       8
#     8   8   8   8   8   8   4   4
#     4  10  20  37  62  86 110 145 188 233 277 322
#     4  10  19  34  58  84 109 144 192 238 274 319
#     4  11  22  34  53  83 118 152 184 225 286 340
#     4  10  20  40  64  83 108 145 192 233 273 329
#     4   9  17  32  55  83 109 140 188 236 275 319
#     4   9  18  32  50  76 113 152 186 227 279 329
#     4  11  24  39  57  87 120 147 178 218 278 347
#     4   9  21  39  61  85 112 149 182 222 282 339
#
# _framework density 19.709140000000001
#
# number of rings (size 3 to 8) (size 9 to 14) (size 15 to 20)
#    0.000    2.143    1.429    1.929    2.000    4.286 
#    0.000    1.071    0.000    1.714    0.000    0.000 
#    0.000    0.000    0.000    0.000    0.000    0.000 
#
# Total GULP energy -347103.797450 kJ/mol
# GULP energy per Si atom -12396.564195 kJ/mol
# Density = 1.966428 g / cm^3
# Si number density = 19.709140 Si / 1000 Ang^3
#
#
#
# Elastic Constant Matrix: (Units=GPa)
#
#
# Indices 1 2 3 4 5 6 
#
# 1 157.7902 18.3964 62.3764 0.0000 0.0000 0.0000
# 2 18.3964 12.8497 22.0567 0.0000 0.0000 0.0000
# 3 62.3764 22.0567 119.1798 0.0000 0.0000 0.0000
# 4 0.0000 0.0000 0.0000 16.5499 0.0000 0.0000
# 5 0.0000 0.0000 0.0000 0.0000 41.1517 0.0000
# 6 0.0000 0.0000 0.0000 0.0000 0.0000 24.9704
#
#
#
# Elastic Compliance Matrix: (Units=1/GPa)
#
#
# Indices 1 2 3 4 5 6 
#
# 1 0.008348 -0.006524 -0.003162 0.000000 0.000000 0.000000
# 2 -0.006524 0.119154 -0.018637 0.000000 0.000000 0.000000
# 3 -0.003162 -0.018637 0.013495 0.000000 0.000000 0.000000
# 4 0.000000 0.000000 0.000000 0.060423 0.000000 0.000000
# 5 0.000000 0.000000 0.000000 0.000000 0.024300 0.000000
# 6 0.000000 0.000000 0.000000 0.000000 0.000000 0.040047
#
#
# Mechanical properties :
#
#
# Convention : Reuss Voigt Hill
#
# Bulk Modulus (GPa) = 11.85533 55.05319 33.45426
# Shear Modulus (GPa) = 14.26406 29.00042 21.63224
#
# Velocity S-wave (km/s) = 2.69314 3.84007 3.31656
# Velocity P-wave (km/s) = 3.96218 6.90326 5.62823
#
# Compressibility (1/GPa) = 0.08435022
#
# Stress axis : x y z
#
# Youngs Moduli (GPa) = 119.78818 8.39250 74.10329
#
# Poissons Ratio (x) = 0.05476 0.23430
# Poissons Ratio (y) = 0.78154 1.38108
# Poissons Ratio (z) = 0.37874 0.15641
#
# Static dielectric constant tensor:
#      x y z
#    x 3.853340 0.000000 0.000000 
#    y 0.000000 3.148800 0.000000 
#    z 0.000000 0.000000 3.782130 
# 
# 
# High freq. dielectric constant tensor:
#      x y z
#    x 1.786370 0.000000 0.000000 
#    y 0.000000 1.718070 0.000000 
#    z 0.000000 0.000000 1.779180 
# 
# From -- ./inp_files/21170.got.cif
#   From: 2010.03.12/outbox.cif.g09.slc.cpg/sg38_11_cif.got.tgz:21170.got - 2010.04.14 02:38:36.
