data_PCOD8178018
_publ_section_title
;
Structure prediction by ZEFSAII (Michael W. Deem and Ramdas Pophale) SiO2 
 PCOD8178018
Probable space group: A M M 2
;
_chemical_formula_sum "Si O2"
_cell_formula_units_Z 56
_cell_length_a 8.938300
_cell_length_b 19.083999
_cell_length_c 17.969102
_cell_angle_alpha 90.000000
_cell_angle_beta 90.000000
_cell_angle_gamma 90.000000
_cell_volume 3065.142614
_symmetry_space_group_name_H-M "A M M 2"
_symmetry_group_IT_number 38
_symmetry_cell_setting 'orthorhombic'
loop_
_space_group_symop_operation_xyz
x,y,z
-x,-y,z
-x,y,z
x,-y,z
x,1/2+y,1/2+z
-x,1/2-y,1/2+z
-x,1/2+y,1/2+z
x,1/2-y,1/2+z
loop_
_atom_site_type_symbol
_atom_site_label
_atom_site_fract_x
_atom_site_fract_y
_atom_site_fract_z
Si Si1 0.325572 0.076774 0.623480
Si Si2 0.674308 0.203945 0.005737
Si Si3 0.163042 0.293351 0.124182
Si Si4 0.164661 0.667237 0.731654
Si Si5 0.177370 0.580783 0.591417
Si Si6 0.673360 0.193358 0.378944
Si Si7 0.829529 0.923077 0.468048
O O1 0.500000 0.090062 0.632158
O O2 0.236007 0.138594 0.664768
O O3 0.279827 0.082881 0.537770
O O4 0.281869 0.000000 0.655479
O O5 0.500000 0.192048 0.019887
O O6 0.731219 0.266927 0.057688
O O7 0.754148 0.130066 0.025984
O O8 0.705038 0.231745 0.920834
O O9 0.139963 0.236347 0.185478
O O10 0.000000 0.312637 0.090583
O O11 0.225755 0.607214 0.674381
O O12 0.286019 0.691628 0.792026
O O13 0.000000 0.645335 0.764376
O O14 0.229997 0.500000 0.580785
O O15 0.000000 0.587705 0.584048
O O16 0.500000 0.173835 0.389207
O O17 0.779960 0.132816 0.408254
O O18 0.000000 0.909724 0.493018
O O19 0.813405 0.000000 0.431432
#
# Coordination Sequence:
#
# PCOD8178018 Si02
#       7
#     8   8   8   8   8   8   8
#     4  10  19  30  47  73 103 132 163 204 253 302
#     4  10  20  33  52  78 106 137 175 220 267 315
#     4  10  19  33  53  75  99 132 175 218 259 308
#     4   9  20  35  52  76 105 138 175 216 264 318
#     4   9  19  37  59  82 107 137 178 226 273 324
#     4  11  22  34  50  76 108 142 177 216 264 317
#     4  10  20  32  48  71 100 136 173 207 245 294
#
# _framework density 18.269947999999999
#
# number of rings (size 3 to 8) (size 9 to 14) (size 15 to 20)
#    0.000    2.143    1.429    3.000    0.000    7.143 
#    0.000    1.429    0.000    0.857    0.000    0.000 
#    0.000    0.000    0.000    0.000    0.000    0.000 
#
# Total GULP energy -346887.950423 kJ/mol
# GULP energy per Si atom -12388.855372 kJ/mol
# Density = 1.822836 g / cm^3
# Si number density = 18.269948 Si / 1000 Ang^3
#
#
#
# Elastic Constant Matrix: (Units=GPa)
#
#
# Indices 1 2 3 4 5 6 
#
# 1 63.3326 49.0863 18.4638 0.0000 0.0000 0.0000
# 2 49.0863 137.4329 29.4533 0.0000 0.0000 0.0000
# 3 18.4638 29.4533 52.1092 0.0000 0.0000 0.0000
# 4 0.0000 0.0000 0.0000 15.0312 0.0000 0.0000
# 5 0.0000 0.0000 0.0000 0.0000 25.7792 0.0000
# 6 0.0000 0.0000 0.0000 0.0000 0.0000 10.8991
#
#
#
# Elastic Compliance Matrix: (Units=1/GPa)
#
#
# Indices 1 2 3 4 5 6 
#
# 1 0.022511 -0.007203 -0.003905 0.000000 0.000000 0.000000
# 2 -0.007203 0.010584 -0.003430 0.000000 0.000000 0.000000
# 3 -0.003905 -0.003430 0.022513 0.000000 0.000000 0.000000
# 4 0.000000 0.000000 0.000000 0.066528 0.000000 0.000000
# 5 0.000000 0.000000 0.000000 0.000000 0.038791 0.000000
# 6 0.000000 0.000000 0.000000 0.000000 0.000000 0.091750
#
#
# Mechanical properties :
#
#
# Convention : Reuss Voigt Hill
#
# Bulk Modulus (GPa) = 37.69093 49.65348 43.67220
# Shear Modulus (GPa) = 17.20589 20.73331 18.96960
#
# Velocity S-wave (km/s) = 3.07214 3.37238 3.22575
# Velocity P-wave (km/s) = 5.76705 6.51158 6.15059
#
# Compressibility (1/GPa) = 0.02653158
#
# Stress axis : x y z
#
# Youngs Moduli (GPa) = 44.42266 94.48090 44.41917
#
# Poissons Ratio (x) = 0.68058 0.17345
# Poissons Ratio (y) = 0.31999 0.15236
# Poissons Ratio (z) = 0.17346 0.32407
#
# Static dielectric constant tensor:
#      x y z
#    x 3.402610 0.000000 0.000000 
#    y 0.000000 3.742860 0.000000 
#    z 0.000000 0.000000 3.116860 
# 
# 
# High freq. dielectric constant tensor:
#      x y z
#    x 1.718550 0.000000 0.000000 
#    y 0.000000 1.717720 0.000000 
#    z 0.000000 0.000000 1.665350 
# 
# From -- ./inp_files/17081.got.cif
#   From: 2010.03.12/outbox.cif.g09.slc.cpg/sg38_9_cif.got.tgz:17081.got - 2010.04.14 02:38:36.
