data_PCOD8178585
_publ_section_title
;
Structure prediction by ZEFSAII (Michael W. Deem and Ramdas Pophale) SiO2 
 PCOD8178585
Probable space group: A M M 2
;
_chemical_formula_sum "Si O2"
_cell_formula_units_Z 56
_cell_length_a 19.224091
_cell_length_b 9.286238
_cell_length_c 16.106876
_cell_angle_alpha 90.000000
_cell_angle_beta 90.000000
_cell_angle_gamma 90.000000
_cell_volume 2875.391198
_symmetry_space_group_name_H-M "A M M 2"
_symmetry_group_IT_number 38
_symmetry_cell_setting 'orthorhombic'
loop_
_space_group_symop_operation_xyz
x,y,z
-x,-y,z
-x,y,z
x,-y,z
x,1/2+y,1/2+z
-x,1/2-y,1/2+z
-x,1/2+y,1/2+z
x,1/2-y,1/2+z
loop_
_atom_site_type_symbol
_atom_site_label
_atom_site_fract_x
_atom_site_fract_y
_atom_site_fract_z
Si Si1 0.653305 0.167578 0.052980
Si Si2 0.210183 0.163340 0.322966
Si Si3 0.652357 0.834519 0.236302
Si Si4 0.077548 0.337043 0.722847
Si Si5 0.418595 0.668398 0.902389
Si Si6 0.078772 0.332363 0.057211
Si Si7 0.201952 0.665044 0.479297
O O1 0.632749 0.229055 0.145034
O O2 0.736993 0.184613 0.046538
O O3 0.633007 0.000000 0.043153
O O4 0.613782 0.255286 0.982419
O O5 0.264707 0.184006 0.248114
O O6 0.132333 0.200648 0.293995
O O7 0.232798 0.273921 0.393756
O O8 0.214157 0.000000 0.357263
O O9 0.611553 0.766157 0.315399
O O10 0.630586 0.000000 0.233013
O O11 0.090343 0.500000 0.689489
O O12 0.088762 0.225978 0.649388
O O13 0.000000 0.322380 0.760654
O O14 0.500000 0.697463 0.902893
O O15 0.399846 0.500000 0.909038
O O16 0.096237 0.500000 0.057402
O O17 0.132472 0.253646 0.997690
O O18 0.000000 0.303132 0.026015
O O19 0.180400 0.500000 0.469000
#
# Coordination Sequence:
#
# PCOD8178585 Si02
#       7
#     8   8   8   8   8   8   8
#     4  10  21  38  61  88 117 153 195 237 286 346
#     4  10  19  34  56  79 109 149 192 235 286 346
#     4   9  18  35  59  83 111 152 196 234 279 341
#     4   9  18  33  53  77 106 141 184 238 293 343
#     4  10  21  38  60  87 118 151 191 238 287 343
#     4  10  21  36  54  77 107 147 194 239 288 349
#     4  11  22  35  54  82 115 147 190 244 294 343
#
# _framework density 19.475611000000001
#
# number of rings (size 3 to 8) (size 9 to 14) (size 15 to 20)
#    0.000    2.143    1.429    1.714    0.000    5.714 
#    0.000    4.286    0.000    0.000    0.000    0.000 
#    0.000    0.000    0.000    0.000    0.000    0.000 
#
# Total GULP energy -347099.316558 kJ/mol
# GULP energy per Si atom -12396.404163 kJ/mol
# Density = 1.943128 g / cm^3
# Si number density = 19.475611 Si / 1000 Ang^3
#
#
#
# Elastic Constant Matrix: (Units=GPa)
#
#
# Indices 1 2 3 4 5 6 
#
# 1 101.2644 43.2205 58.4942 0.0000 0.0000 0.0000
# 2 43.2205 81.1395 51.2855 0.0000 0.0000 0.0000
# 3 58.4942 51.2855 152.0081 0.0000 0.0000 0.0000
# 4 0.0000 0.0000 0.0000 30.9435 0.0000 0.0000
# 5 0.0000 0.0000 0.0000 0.0000 25.7743 0.0000
# 6 0.0000 0.0000 0.0000 0.0000 0.0000 24.8943
#
#
#
# Elastic Compliance Matrix: (Units=1/GPa)
#
#
# Indices 1 2 3 4 5 6 
#
# 1 0.014262 -0.005247 -0.003718 0.000000 0.000000 0.000000
# 2 -0.005247 0.017595 -0.003917 0.000000 0.000000 0.000000
# 3 -0.003718 -0.003917 0.009331 0.000000 0.000000 0.000000
# 4 0.000000 0.000000 0.000000 0.032317 0.000000 0.000000
# 5 0.000000 0.000000 0.000000 0.000000 0.038798 0.000000
# 6 0.000000 0.000000 0.000000 0.000000 0.000000 0.040170
#
#
# Mechanical properties :
#
#
# Convention : Reuss Voigt Hill
#
# Bulk Modulus (GPa) = 64.83441 71.15694 67.99567
# Shear Modulus (GPa) = 27.26582 28.41654 27.84118
#
# Velocity S-wave (km/s) = 3.74571 3.82394 3.78503
# Velocity P-wave (km/s) = 7.21592 7.49082 7.35466
#
# Compressibility (1/GPa) = 0.01542391
#
# Stress axis : x y z
#
# Youngs Moduli (GPa) = 70.11508 56.83294 107.16996
#
# Poissons Ratio (x) = 0.29821 0.39846
# Poissons Ratio (y) = 0.36790 0.41982
# Poissons Ratio (z) = 0.26069 0.22263
#
# Static dielectric constant tensor:
#      x y z
#    x 3.652070 0.000000 0.000000 
#    y 0.000000 3.439520 0.000000 
#    z 0.000000 0.000000 3.578090 
# 
# 
# High freq. dielectric constant tensor:
#      x y z
#    x 1.765060 0.000000 0.000000 
#    y 0.000000 1.736550 0.000000 
#    z 0.000000 0.000000 1.757380 
# 
# From -- ./inp_files/15443.got.cif
#   From: 2010.03.12/outbox.cif.g09.slc.cpg/sg38_8_cif.got.tgz:15443.got - 2010.04.14 02:38:36.
