data_PCOD8178680
_publ_section_title
;
Structure prediction by ZEFSAII (Michael W. Deem and Ramdas Pophale) SiO2 
 PCOD8178680
Probable space group: A M M 2
;
_chemical_formula_sum "Si O2"
_cell_formula_units_Z 40
_cell_length_a 9.014484
_cell_length_b 11.518515
_cell_length_c 19.854621
_cell_angle_alpha 90.000000
_cell_angle_beta 90.000000
_cell_angle_gamma 90.000000
_cell_volume 2061.574178
_symmetry_space_group_name_H-M "A M M 2"
_symmetry_group_IT_number 38
_symmetry_cell_setting 'orthorhombic'
loop_
_space_group_symop_operation_xyz
x,y,z
-x,-y,z
-x,y,z
x,-y,z
x,1/2+y,1/2+z
-x,1/2-y,1/2+z
-x,1/2+y,1/2+z
x,1/2-y,1/2+z
loop_
_atom_site_type_symbol
_atom_site_label
_atom_site_fract_x
_atom_site_fract_y
_atom_site_fract_z
Si Si1 0.175706 0.500000 0.430321
Si Si2 0.674084 0.765406 0.766592
Si Si3 0.176760 0.500000 0.278154
Si Si4 0.827203 0.721294 0.509824
Si Si5 0.326744 0.868912 0.133567
Si Si6 0.826613 0.132620 0.385828
O O1 0.235110 0.500000 0.354705
O O2 0.236370 0.387665 0.468309
O O3 0.000000 0.500000 0.427797
O O4 0.500000 0.788881 0.774083
O O5 0.709674 0.671914 0.708916
O O6 0.735592 0.715477 0.836573
O O7 0.755667 0.884335 0.744796
O O8 0.000000 0.500000 0.269959
O O9 0.745662 0.722527 0.581559
O O10 0.793771 0.834289 0.463953
O O11 0.000000 0.708642 0.525121
O O12 0.500000 0.867911 0.119861
O O13 0.262862 0.000000 0.124797
O O14 0.000000 0.152355 0.370265
O O15 0.778019 0.000000 0.375159
#
# Coordination Sequence:
#
# PCOD8178680 Si02
#       6
#     4   8   4   8   8   8
#     4   9  16  31  57  85 111 136 173 236 291 333
#     4  11  23  39  59  85 119 154 192 238 292 349
#     4  11  21  39  63  87 117 148 189 240 289 343
#     4  10  19  35  58  84 113 146 188 239 290 341
#     4  10  22  39  57  81 115 153 191 236 286 340
#     4  10  21  38  60  86 117 152 194 242 291 344
#
# _framework density 19.402649
#
# number of rings (size 3 to 8) (size 9 to 14) (size 15 to 20)
#    0.000    1.800    3.000    1.500    0.000    3.600 
#    1.800    0.000    0.000    0.000    0.000    0.000 
#    0.000    0.000    0.000    0.000    0.000    0.000 
#
# Total GULP energy -248008.914878 kJ/mol
# GULP energy per Si atom -12400.445744 kJ/mol
# Density = 1.935849 g / cm^3
# Si number density = 19.402649 Si / 1000 Ang^3
#
#
#
# Elastic Constant Matrix: (Units=GPa)
#
#
# Indices 1 2 3 4 5 6 
#
# 1 69.0865 44.3322 43.7189 0.0000 0.0000 0.0000
# 2 44.3322 108.8804 27.6753 0.0000 0.0000 0.0000
# 3 43.7189 27.6753 93.0689 0.0000 0.0000 0.0000
# 4 0.0000 0.0000 0.0000 28.2412 0.0000 0.0000
# 5 0.0000 0.0000 0.0000 0.0000 34.1381 0.0000
# 6 0.0000 0.0000 0.0000 0.0000 0.0000 26.3292
#
#
#
# Elastic Compliance Matrix: (Units=1/GPa)
#
#
# Indices 1 2 3 4 5 6 
#
# 1 0.025776 -0.008024 -0.009722 0.000000 0.000000 0.000000
# 2 -0.008024 0.012433 0.000072 0.000000 0.000000 0.000000
# 3 -0.009722 0.000072 0.015290 0.000000 0.000000 0.000000
# 4 0.000000 0.000000 0.000000 0.035409 0.000000 0.000000
# 5 0.000000 0.000000 0.000000 0.000000 0.029293 0.000000
# 6 0.000000 0.000000 0.000000 0.000000 0.000000 0.037981
#
#
# Mechanical properties :
#
#
# Convention : Reuss Voigt Hill
#
# Bulk Modulus (GPa) = 55.09250 55.83207 55.46228
# Shear Modulus (GPa) = 25.30625 28.09566 26.70095
#
# Velocity S-wave (km/s) = 3.61538 3.80943 3.71367
# Velocity P-wave (km/s) = 6.77377 6.94168 6.85824
#
# Compressibility (1/GPa) = 0.01815129
#
# Stress axis : x y z
#
# Youngs Moduli (GPa) = 38.79637 80.43064 65.40128
#
# Poissons Ratio (x) = 0.64536 0.63583
# Poissons Ratio (y) = 0.31129 -0.00471
# Poissons Ratio (z) = 0.37718 -0.00579
#
# Static dielectric constant tensor:
#      x y z
#    x 3.327000 0.000000 0.000000 
#    y 0.000000 3.665330 0.000000 
#    z 0.000000 0.000000 3.496990 
# 
# 
# High freq. dielectric constant tensor:
#      x y z
#    x 1.740190 0.000000 0.000000 
#    y 0.000000 1.757530 0.000000 
#    z 0.000000 0.000000 1.753200 
# 
# From -- ./inp_files/19500.got.cif
#   From: 2010.03.12/outbox.cif.g09.slc.cpg/sg38_10_cif.got.tgz:19500.got - 2010.04.14 02:38:36.
