data_PCOD8178406
_publ_section_title
;
Structure prediction by ZEFSAII (Michael W. Deem and Ramdas Pophale) SiO2 
 PCOD8178406
Probable space group: A M M 2
;
_chemical_formula_sum "Si O2"
_cell_formula_units_Z 32
_cell_length_a 9.035455
_cell_length_b 7.290298
_cell_length_c 27.591185
_cell_angle_alpha 90.000000
_cell_angle_beta 90.000000
_cell_angle_gamma 90.000000
_cell_volume 1817.463348
_symmetry_space_group_name_H-M "A M M 2"
_symmetry_group_IT_number 38
_symmetry_cell_setting 'orthorhombic'
loop_
_space_group_symop_operation_xyz
x,y,z
-x,-y,z
-x,y,z
x,-y,z
x,1/2+y,1/2+z
-x,1/2-y,1/2+z
-x,1/2+y,1/2+z
x,1/2-y,1/2+z
loop_
_atom_site_type_symbol
_atom_site_label
_atom_site_fract_x
_atom_site_fract_y
_atom_site_fract_z
Si Si1 0.162905 0.700128 0.337310
Si Si2 0.175999 0.500000 0.910716
Si Si3 0.168323 0.500000 0.161439
Si Si4 0.324331 0.000000 0.513695
Si Si5 0.326391 0.000000 0.761476
Si Si6 0.171888 0.712419 0.579874
O O1 0.150225 0.500000 0.361772
O O2 0.229362 0.827925 0.378752
O O3 0.264201 0.683243 0.288809
O O4 0.000000 0.772438 0.321393
O O5 0.269459 0.500000 0.959034
O O6 0.000000 0.500000 0.921841
O O7 0.278980 0.500000 0.206034
O O8 0.199938 0.316404 0.130517
O O9 0.000000 0.500000 0.180557
O O10 0.265446 0.185756 0.538604
O O11 0.500000 0.000000 0.515869
O O12 0.500000 0.000000 0.764693
O O13 0.221809 0.500000 0.584479
O O14 0.000000 0.727299 0.565296
#
# Coordination Sequence:
#
# PCOD8178406 Si02
#       6
#     8   4   4   4   4   8
#     4   8  17  34  53  73  99 132 177 225 258 294
#     4  10  19  35  58  79  98 137 187 222 259 308
#     4   9  17  33  56  80 108 136 175 225 267 308
#     4  11  23  35  52  82 118 146 169 213 277 334
#     4  10  19  33  52  75 110 147 171 206 265 324
#     4   9  19  38  61  82 103 137 186 231 264 308
#
# _framework density 17.606957999999999
#
# number of rings (size 3 to 8) (size 9 to 14) (size 15 to 20)
#    0.750    2.000    0.000    2.625    0.000    4.500 
#    2.250    2.500    0.000    0.000    0.000    0.000 
#    0.000    0.000    0.000    0.000    0.000    0.000 
#
# Total GULP energy -198264.675948 kJ/mol
# GULP energy per Si atom -12391.542247 kJ/mol
# Density = 1.756688 g / cm^3
# Si number density = 17.606958 Si / 1000 Ang^3
#
#
#
# Elastic Constant Matrix: (Units=GPa)
#
#
# Indices 1 2 3 4 5 6 
#
# 1 109.8616 47.3092 74.5180 0.0000 0.0000 0.0000
# 2 47.3092 131.1569 62.1428 0.0000 0.0000 0.0000
# 3 74.5180 62.1428 134.9226 0.0000 0.0000 0.0000
# 4 0.0000 0.0000 0.0000 21.0668 0.0000 0.0000
# 5 0.0000 0.0000 0.0000 0.0000 9.6368 0.0000
# 6 0.0000 0.0000 0.0000 0.0000 0.0000 2.5171
#
#
#
# Elastic Compliance Matrix: (Units=1/GPa)
#
#
# Indices 1 2 3 4 5 6 
#
# 1 0.014912 -0.001889 -0.007366 0.000000 0.000000 0.000000
# 2 -0.001889 0.009992 -0.003559 0.000000 0.000000 0.000000
# 3 -0.007366 -0.003559 0.013119 0.000000 0.000000 0.000000
# 4 0.000000 0.000000 0.000000 0.047468 0.000000 0.000000
# 5 0.000000 0.000000 0.000000 0.000000 0.103769 0.000000
# 6 0.000000 0.000000 0.000000 0.000000 0.000000 0.397280
#
#
# Mechanical properties :
#
#
# Convention : Reuss Voigt Hill
#
# Bulk Modulus (GPa) = 80.67360 82.65346 81.66353
# Shear Modulus (GPa) = 8.11295 19.44221 13.77758
#
# Velocity S-wave (km/s) = 2.14891 3.32661 2.80037
# Velocity P-wave (km/s) = 7.21635 7.86134 7.54574
#
# Compressibility (1/GPa) = 0.01239563
#
# Stress axis : x y z
#
# Youngs Moduli (GPa) = 67.06014 100.07997 76.22496
#
# Poissons Ratio (x) = 0.18903 0.56147
# Poissons Ratio (y) = 0.12667 0.27128
# Poissons Ratio (z) = 0.49396 0.35618
#
# Static dielectric constant tensor:
#      x y z
#    x 3.128470 0.000000 0.000000 
#    y 0.000000 3.360140 0.000000 
#    z 0.000000 0.000000 3.107780 
# 
# 
# High freq. dielectric constant tensor:
#      x y z
#    x 1.668620 0.000000 0.000000 
#    y 0.000000 1.677110 0.000000 
#    z 0.000000 0.000000 1.673120 
# 
# From -- ./inp_files/21651.got.cif
#   From: 2010.03.12/outbox.cif.g09.slc.cpg/sg38_11_cif.got.tgz:21651.got - 2010.04.14 02:38:36.
