data_PCOD8178747
_publ_section_title
;
Structure prediction by ZEFSAII (Michael W. Deem and Ramdas Pophale) SiO2 
 PCOD8178747
Probable space group: A M M 2
;
_chemical_formula_sum "Si O2"
_cell_formula_units_Z 40
_cell_length_a 8.591223
_cell_length_b 25.969713
_cell_length_c 8.991553
_cell_angle_alpha 90.000000
_cell_angle_beta 90.000000
_cell_angle_gamma 90.000000
_cell_volume 2006.119737
_symmetry_space_group_name_H-M "A M M 2"
_symmetry_group_IT_number 38
_symmetry_cell_setting 'orthorhombic'
loop_
_space_group_symop_operation_xyz
x,y,z
-x,-y,z
-x,y,z
x,-y,z
x,1/2+y,1/2+z
-x,1/2-y,1/2+z
-x,1/2+y,1/2+z
x,1/2-y,1/2+z
loop_
_atom_site_type_symbol
_atom_site_label
_atom_site_fract_x
_atom_site_fract_y
_atom_site_fract_z
Si Si1 0.314775 0.899794 0.668650
Si Si2 0.314502 0.302782 0.682609
Si Si3 0.684486 0.000000 0.845351
Si Si4 0.316128 0.500000 0.678936
Si Si5 0.315711 0.200157 0.844853
Si Si6 0.817450 0.098156 0.341838
O O1 0.500000 0.899430 0.645363
O O2 0.255367 0.850014 0.758502
O O3 0.231548 0.899682 0.511899
O O4 0.257034 0.949560 0.759146
O O5 0.500000 0.308859 0.692919
O O6 0.254479 0.251094 0.762677
O O7 0.254500 0.300806 0.513345
O O8 0.234609 0.350147 0.762207
O O9 0.500000 0.000000 0.853343
O O10 0.754050 0.000000 0.011944
O O11 0.500000 0.500000 0.671523
O O12 0.263705 0.449657 0.764471
O O13 0.500000 0.200413 0.845308
O O14 0.000000 0.090989 0.328634
#
# Coordination Sequence:
#
# PCOD8178747 Si02
#       6
#     8   8   4   4   8   8
#     4  10  19  36  60  87 115 149 190 236 285 339
#     4  10  19  36  60  86 113 149 193 241 289 337
#     4   9  19  35  62  92 112 135 182 237 288 340
#     4  11  22  41  66  88 110 145 188 235 284 338
#     4   9  18  33  60  90 114 144 195 248 287 331
#     4  12  25  39  55  84 120 154 189 231 281 341
#
# _framework density 19.938987999999998
#
# number of rings (size 3 to 8) (size 9 to 14) (size 15 to 20)
#    0.000    1.800    0.000    5.100    0.000    7.200 
#    0.000    9.000    0.000    0.000    0.000    0.000 
#    0.000    0.000    0.000    0.000    0.000    0.000 
#
# Total GULP energy -248062.241228 kJ/mol
# GULP energy per Si atom -12403.112061 kJ/mol
# Density = 1.989361 g / cm^3
# Si number density = 19.938988 Si / 1000 Ang^3
#
#
#
# Elastic Constant Matrix: (Units=GPa)
#
#
# Indices 1 2 3 4 5 6 
#
# 1 48.8644 26.4279 28.5485 0.0000 0.0000 0.0000
# 2 26.4279 197.8600 101.9420 0.0000 0.0000 0.0000
# 3 28.5485 101.9420 198.1245 0.0000 0.0000 0.0000
# 4 0.0000 0.0000 0.0000 51.3382 0.0000 0.0000
# 5 0.0000 0.0000 0.0000 0.0000 -2.6607 0.0000
# 6 0.0000 0.0000 0.0000 0.0000 0.0000 3.6188
#
#
#
# Elastic Compliance Matrix: (Units=1/GPa)
#
#
# Indices 1 2 3 4 5 6 
#
# 1 0.022829 -0.001843 -0.002341 0.000000 0.000000 0.000000
# 2 -0.001843 0.007026 -0.003350 0.000000 0.000000 0.000000
# 3 -0.002341 -0.003350 0.007108 0.000000 0.000000 0.000000
# 4 0.000000 0.000000 0.000000 0.019479 0.000000 0.000000
# 5 0.000000 0.000000 0.000000 0.000000 -0.375840 0.000000
# 6 0.000000 0.000000 0.000000 0.000000 0.000000 0.276335
#
#
# Mechanical properties :
#
#
# Convention : Reuss Voigt Hill
#
# Bulk Modulus (GPa) = 45.67062 84.29839 64.98450
# Shear Modulus (GPa) = -241.58668 29.65462 -105.96603
#
# Velocity S-wave (km/s) = -11.01935 3.86070 -7.29798
# Velocity P-wave (km/s) = 11.78755 7.88944 6.19287
#
# Compressibility (1/GPa) = 0.02189592
#
# Stress axis : x y z
#
# Youngs Moduli (GPa) = 43.80304 142.32807 140.68334
#
# Poissons Ratio (x) = 0.26231 0.32938
# Poissons Ratio (y) = 0.08073 0.47123
# Poissons Ratio (z) = 0.10256 0.47674
#
# Static dielectric constant tensor:
#      x y z
#    x 3.228460 0.000000 0.000000 
#    y 0.000000 3.885460 0.000000 
#    z 0.000000 0.000000 4.019750 
# 
# 
# High freq. dielectric constant tensor:
#      x y z
#    x 1.737280 0.000000 0.000000 
#    y 0.000000 1.800990 0.000000 
#    z 0.000000 0.000000 1.801120 
# 
# From -- ./inp_files/3347.got.cif
#   From: 2010.03.12/outbox.cif.g09.slc.cpg/sg38_2_cif.got.tgz:3347.got - 2010.04.14 02:38:36.
