data_PCOD8178316
_publ_section_title
;
Structure prediction by ZEFSAII (Michael W. Deem and Ramdas Pophale) SiO2 
 PCOD8178316
Probable space group: A M M 2
;
_chemical_formula_sum "Si O2"
_cell_formula_units_Z 64
_cell_length_a 9.123030
_cell_length_b 27.299701
_cell_length_c 14.415018
_cell_angle_alpha 90.000000
_cell_angle_beta 90.000000
_cell_angle_gamma 90.000000
_cell_volume 3590.146596
_symmetry_space_group_name_H-M "A M M 2"
_symmetry_group_IT_number 38
_symmetry_cell_setting 'orthorhombic'
loop_
_space_group_symop_operation_xyz
x,y,z
-x,-y,z
-x,y,z
x,-y,z
x,1/2+y,1/2+z
-x,1/2-y,1/2+z
-x,1/2+y,1/2+z
x,1/2-y,1/2+z
loop_
_atom_site_type_symbol
_atom_site_label
_atom_site_fract_x
_atom_site_fract_y
_atom_site_fract_z
Si Si1 0.169115 0.865547 0.348990
Si Si2 0.667201 0.722120 0.531320
Si Si3 0.328612 0.443189 0.732037
Si Si4 0.168647 0.321558 0.041926
Si Si5 0.329241 0.629177 0.417573
Si Si6 0.169256 0.557108 0.544154
Si Si7 0.330756 0.328193 0.224890
Si Si8 0.333541 0.217488 0.244114
O O1 0.261832 0.912346 0.316390
O O2 0.189498 0.860745 0.459625
O O3 0.223463 0.815878 0.301288
O O4 0.000000 0.873535 0.322449
O O5 0.500000 0.735090 0.506217
O O6 0.759835 0.770457 0.511625
O O7 0.726178 0.678804 0.466387
O O8 0.681692 0.703697 0.636419
O O9 0.500000 0.432023 0.723648
O O10 0.296560 0.500000 0.752437
O O11 0.254078 0.426043 0.636443
O O12 0.239753 0.344184 0.134727
O O13 0.000000 0.311092 0.062576
O O14 0.500000 0.620184 0.439452
O O15 0.235480 0.583933 0.454760
O O16 0.301109 0.633474 0.307367
O O17 0.191794 0.500000 0.526009
O O18 0.000000 0.571062 0.556531
O O19 0.500000 0.327115 0.194764
O O20 0.286704 0.273860 0.259356
O O21 0.500000 0.208478 0.278450
#
# Coordination Sequence:
#
# PCOD8178316 Si02
#       8
#     8   8   8   8   8   8   8   8
#     4  11  22  33  49  75 103 132 167 206 251 301
#     4   9  18  32  49  71 101 134 167 204 247 295
#     4  10  21  37  57  79 101 128 163 202 246 297
#     4  10  21  34  48  70 101 136 172 208 248 295
#     4  10  19  32  53  78 101 130 171 212 249 293
#     4  10  21  36  54  78 107 135 161 195 245 301
#     4   9  19  34  51  72  99 134 174 213 251 288
#     4   9  17  30  49  73 101 134 169 203 243 294
#
# _framework density 17.82657
#
# number of rings (size 3 to 8) (size 9 to 14) (size 15 to 20)
#    0.000    2.250    0.000    3.750    0.000    8.500 
#    0.000    0.000    0.000    0.750    0.000    0.000 
#    0.000    0.000    0.000    0.000    0.000    0.000 
#
# Total GULP energy -396899.464108 kJ/mol
# GULP energy per Si atom -12403.108253 kJ/mol
# Density = 1.778600 g / cm^3
# Si number density = 17.826570 Si / 1000 Ang^3
#
#
#
# Elastic Constant Matrix: (Units=GPa)
#
#
# Indices 1 2 3 4 5 6 
#
# 1 106.7331 52.1158 57.0590 0.0000 0.0000 0.0000
# 2 52.1158 66.5900 53.0877 0.0000 0.0000 0.0000
# 3 57.0590 53.0877 91.7204 0.0000 0.0000 0.0000
# 4 0.0000 0.0000 0.0000 28.4012 0.0000 0.0000
# 5 0.0000 0.0000 0.0000 0.0000 30.5718 0.0000
# 6 0.0000 0.0000 0.0000 0.0000 0.0000 27.8553
#
#
#
# Elastic Compliance Matrix: (Units=1/GPa)
#
#
# Indices 1 2 3 4 5 6 
#
# 1 0.016373 -0.008716 -0.005141 0.000000 0.000000 0.000000
# 2 -0.008716 0.032523 -0.013403 0.000000 0.000000 0.000000
# 3 -0.005141 -0.013403 0.021858 0.000000 0.000000 0.000000
# 4 0.000000 0.000000 0.000000 0.035210 0.000000 0.000000
# 5 0.000000 0.000000 0.000000 0.000000 0.032710 0.000000
# 6 0.000000 0.000000 0.000000 0.000000 0.000000 0.035900
#
#
# Mechanical properties :
#
#
# Convention : Reuss Voigt Hill
#
# Bulk Modulus (GPa) = 61.59015 65.50762 63.54888
# Shear Modulus (GPa) = 21.32144 24.21770 22.76957
#
# Velocity S-wave (km/s) = 3.46215 3.68981 3.57779
# Velocity P-wave (km/s) = 7.11383 7.41484 7.26589
#
# Compressibility (1/GPa) = 0.01623636
#
# Stress axis : x y z
#
# Youngs Moduli (GPa) = 61.07497 30.74705 45.74896
#
# Poissons Ratio (x) = 0.26798 0.23520
# Poissons Ratio (y) = 0.53231 0.61315
# Poissons Ratio (z) = 0.31400 0.41209
#
# Static dielectric constant tensor:
#      x y z
#    x 3.324920 0.000000 0.000000 
#    y 0.000000 3.106430 0.000000 
#    z 0.000000 0.000000 3.331880 
# 
# 
# High freq. dielectric constant tensor:
#      x y z
#    x 1.693900 0.000000 0.000000 
#    y 0.000000 1.666640 0.000000 
#    z 0.000000 0.000000 1.690060 
# 
# From -- ./inp_files/12813.got.cif
#   From: 2010.03.12/outbox.cif.g09.slc.cpg/sg38_7_cif.got.tgz:12813.got - 2010.04.14 02:38:36.
