data_PCOD8178122
_publ_section_title
;
Structure prediction by ZEFSAII (Michael W. Deem and Ramdas Pophale) SiO2 
 PCOD8178122
Probable space group: A M M 2
;
_chemical_formula_sum "Si O2"
_cell_formula_units_Z 56
_cell_length_a 14.215303
_cell_length_b 9.399044
_cell_length_c 25.521699
_cell_angle_alpha 90.000000
_cell_angle_beta 90.000000
_cell_angle_gamma 90.000000
_cell_volume 3409.960797
_symmetry_space_group_name_H-M "A M M 2"
_symmetry_group_IT_number 38
_symmetry_cell_setting 'orthorhombic'
loop_
_space_group_symop_operation_xyz
x,y,z
-x,-y,z
-x,y,z
x,-y,z
x,1/2+y,1/2+z
-x,1/2-y,1/2+z
-x,1/2+y,1/2+z
x,1/2-y,1/2+z
loop_
_atom_site_type_symbol
_atom_site_label
_atom_site_fract_x
_atom_site_fract_y
_atom_site_fract_z
Si Si1 0.109185 0.835841 0.918670
Si Si2 0.109203 0.833695 0.617633
Si Si3 0.395822 0.164614 0.374043
Si Si4 0.604447 0.837287 0.977047
Si Si5 0.793268 0.335939 0.526892
Si Si6 0.891097 0.335755 0.720359
Si Si7 0.204746 0.665804 0.826326
O O1 0.147457 0.745573 0.870767
O O2 0.000000 0.803129 0.926324
O O3 0.128593 0.000000 0.905786
O O4 0.160321 0.790930 0.972086
O O5 0.169684 0.766905 0.571473
O O6 0.139961 0.760173 0.671622
O O7 0.000000 0.803838 0.605910
O O8 0.131232 0.000000 0.621731
O O9 0.500000 0.209449 0.353255
O O10 0.368776 0.246392 0.426578
O O11 0.316677 0.198454 0.330479
O O12 0.394445 0.000000 0.389115
O O13 0.500000 0.798446 0.998362
O O14 0.609293 0.000000 0.958372
O O15 0.680695 0.810947 0.022681
O O16 0.817504 0.500000 0.540596
O O17 0.870979 0.500000 0.706317
O O18 0.829406 0.283036 0.769444
O O19 0.000000 0.312020 0.734647
O O20 0.182570 0.500000 0.833515
#
# Coordination Sequence:
#
# PCOD8178122 Si02
#       7
#     8   8   8   8   8   8   8
#     4  10  20  31  44  68 101 132 159 190 236 290
#     4  10  21  35  51  72  95 123 164 208 244 282
#     4   9  17  29  46  70 100 130 159 195 239 283
#     4   9  17  30  49  72  97 126 162 199 233 279
#     4  10  19  32  50  71  98 130 161 195 239 290
#     4   9  18  33  51  69  91 124 165 204 243 287
#     4  10  19  31  49  72  98 128 163 199 236 285
#
# _framework density 16.422477000000001
#
# number of rings (size 3 to 8) (size 9 to 14) (size 15 to 20)
#    0.000    2.429    1.429    1.286    0.000    4.000 
#    0.000    1.429    0.000    0.857    0.000    4.000 
#    0.000    0.000    0.000    0.000    0.000    0.000 
#
# Total GULP energy -347186.523916 kJ/mol
# GULP energy per Si atom -12399.518711 kJ/mol
# Density = 1.638510 g / cm^3
# Si number density = 16.422477 Si / 1000 Ang^3
#
#
#
# Elastic Constant Matrix: (Units=GPa)
#
#
# Indices 1 2 3 4 5 6 
#
# 1 100.0338 45.1042 67.6424 0.0000 0.0000 0.0000
# 2 45.1042 65.2004 61.9753 0.0000 0.0000 0.0000
# 3 67.6424 61.9753 122.9326 0.0000 0.0000 0.0000
# 4 0.0000 0.0000 0.0000 28.9374 0.0000 0.0000
# 5 0.0000 0.0000 0.0000 0.0000 18.8585 0.0000
# 6 0.0000 0.0000 0.0000 0.0000 0.0000 21.7581
#
#
#
# Elastic Compliance Matrix: (Units=1/GPa)
#
#
# Indices 1 2 3 4 5 6 
#
# 1 0.016878 -0.005469 -0.006530 0.000000 0.000000 0.000000
# 2 -0.005469 0.031222 -0.012731 0.000000 0.000000 0.000000
# 3 -0.006530 -0.012731 0.018146 0.000000 0.000000 0.000000
# 4 0.000000 0.000000 0.000000 0.034557 0.000000 0.000000
# 5 0.000000 0.000000 0.000000 0.000000 0.053026 0.000000
# 6 0.000000 0.000000 0.000000 0.000000 0.000000 0.045960
#
#
# Mechanical properties :
#
#
# Convention : Reuss Voigt Hill
#
# Bulk Modulus (GPa) = 59.57331 70.84560 65.20946
# Shear Modulus (GPa) = 19.61985 21.47380 20.54682
#
# Velocity S-wave (km/s) = 3.46019 3.61998 3.54098
# Velocity P-wave (km/s) = 7.23312 7.79137 7.51743
#
# Compressibility (1/GPa) = 0.01678604
#
# Stress axis : x y z
#
# Youngs Moduli (GPa) = 59.24897 32.02882 55.10965
#
# Poissons Ratio (x) = 0.17517 0.35985
# Poissons Ratio (y) = 0.32403 0.70160
# Poissons Ratio (z) = 0.38688 0.40776
#
# Static dielectric constant tensor:
#      x y z
#    x 3.403730 0.000000 0.000000 
#    y 0.000000 3.114100 0.000000 
#    z 0.000000 0.000000 2.955040 
# 
# 
# High freq. dielectric constant tensor:
#      x y z
#    x 1.638700 0.000000 0.000000 
#    y 0.000000 1.633580 0.000000 
#    z 0.000000 0.000000 1.610210 
# 
# From -- ./inp_files/21021.got.cif
#   From: 2010.03.12/outbox.cif.g09.slc.cpg/sg38_11_cif.got.tgz:21021.got - 2010.04.14 02:38:36.
