data_PCOD8178111
_publ_section_title
;
Structure prediction by ZEFSAII (Michael W. Deem and Ramdas Pophale) SiO2 
 PCOD8178111
Probable space group: A M M 2
;
_chemical_formula_sum "Si O2"
_cell_formula_units_Z 48
_cell_length_a 8.904512
_cell_length_b 13.705723
_cell_length_c 23.818462
_cell_angle_alpha 90.000000
_cell_angle_beta 90.000000
_cell_angle_gamma 90.000000
_cell_volume 2906.871197
_symmetry_space_group_name_H-M "A M M 2"
_symmetry_group_IT_number 38
_symmetry_cell_setting 'orthorhombic'
loop_
_space_group_symop_operation_xyz
x,y,z
-x,-y,z
-x,y,z
x,-y,z
x,1/2+y,1/2+z
-x,1/2-y,1/2+z
-x,1/2+y,1/2+z
x,1/2-y,1/2+z
loop_
_atom_site_type_symbol
_atom_site_label
_atom_site_fract_x
_atom_site_fract_y
_atom_site_fract_z
Si Si1 0.823860 0.887928 0.683890
Si Si2 0.322197 0.780725 0.582439
Si Si3 0.677405 0.797391 0.914520
Si Si4 0.826074 0.612341 0.519748
Si Si5 0.672687 0.612648 0.298561
Si Si6 0.677264 0.893323 0.473272
O O1 0.739475 0.817390 0.641400
O O2 0.775164 0.856695 0.746293
O O3 0.000000 0.873242 0.677277
O O4 0.776005 0.000000 0.672655
O O5 0.500000 0.772043 0.585675
O O6 0.256144 0.674684 0.567946
O O7 0.269294 0.856157 0.534251
O O8 0.500000 0.811784 0.923154
O O9 0.726741 0.823885 0.851637
O O10 0.726426 0.685040 0.926100
O O11 0.757976 0.868343 0.958332
O O12 0.801754 0.500000 0.535518
O O13 0.000000 0.641170 0.518539
O O14 0.500000 0.634393 0.283241
O O15 0.695493 0.500000 0.314563
O O16 0.500000 0.903167 0.473507
O O17 0.749846 0.000000 0.461097
#
# Coordination Sequence:
#
# PCOD8178111 Si02
#       6
#     8   8   8   8   8   8
#     4  10  20  32  47  69  96 124 155 193 238 287
#     4  10  19  31  49  70  93 123 158 194 232 279
#     4   9  17  29  47  70  94 123 159 196 233 276
#     4  10  20  32  47  69  97 126 154 189 237 288
#     4   9  17  29  45  65  90 121 158 198 237 279
#     4   8  14  25  43  68  94 118 146 183 227 271
#
# _framework density 16.512599000000002
#
# number of rings (size 3 to 8) (size 9 to 14) (size 15 to 20)
#    0.000    2.667    0.000    3.500    0.000    4.333 
#    0.000    1.667    0.000    5.500    0.000    2.333 
#    0.000    0.000    0.000    0.000    0.000    0.000 
#
# Total GULP energy -297577.614713 kJ/mol
# GULP energy per Si atom -12399.067280 kJ/mol
# Density = 1.647502 g / cm^3
# Si number density = 16.512599 Si / 1000 Ang^3
#
#
#
# Elastic Constant Matrix: (Units=GPa)
#
#
# Indices 1 2 3 4 5 6 
#
# 1 67.5439 41.8043 46.0538 0.0000 0.0000 0.0000
# 2 41.8043 107.7300 67.9388 0.0000 0.0000 0.0000
# 3 46.0538 67.9388 121.5713 0.0000 0.0000 0.0000
# 4 0.0000 0.0000 0.0000 27.0021 0.0000 0.0000
# 5 0.0000 0.0000 0.0000 0.0000 19.6448 0.0000
# 6 0.0000 0.0000 0.0000 0.0000 0.0000 20.7595
#
#
#
# Elastic Compliance Matrix: (Units=1/GPa)
#
#
# Indices 1 2 3 4 5 6 
#
# 1 0.021553 -0.004964 -0.005391 0.000000 0.000000 0.000000
# 2 -0.004964 0.015478 -0.006769 0.000000 0.000000 0.000000
# 3 -0.005391 -0.006769 0.014050 0.000000 0.000000 0.000000
# 4 0.000000 0.000000 0.000000 0.037034 0.000000 0.000000
# 5 0.000000 0.000000 0.000000 0.000000 0.050904 0.000000
# 6 0.000000 0.000000 0.000000 0.000000 0.000000 0.048171
#
#
# Mechanical properties :
#
#
# Convention : Reuss Voigt Hill
#
# Bulk Modulus (GPa) = 59.40446 67.60433 63.50439
# Shear Modulus (GPa) = 22.02173 22.88451 22.45312
#
# Velocity S-wave (km/s) = 3.65585 3.72678 3.69149
# Velocity P-wave (km/s) = 7.33987 7.71677 7.53068
#
# Compressibility (1/GPa) = 0.01683375
#
# Stress axis : x y z
#
# Youngs Moduli (GPa) = 46.39712 64.60986 71.17197
#
# Poissons Ratio (x) = 0.32073 0.38366
# Poissons Ratio (y) = 0.23032 0.48176
# Poissons Ratio (z) = 0.25011 0.43734
#
# Static dielectric constant tensor:
#      x y z
#    x 3.026770 0.000000 0.000000 
#    y 0.000000 3.272900 0.000000 
#    z 0.000000 0.000000 3.057370 
# 
# 
# High freq. dielectric constant tensor:
#      x y z
#    x 1.629360 0.000000 0.000000 
#    y 0.000000 1.628450 0.000000 
#    z 0.000000 0.000000 1.626200 
# 
# From -- ./inp_files/19622.got.cif
#   From: 2010.03.12/outbox.cif.g09.slc.cpg/sg38_10_cif.got.tgz:19622.got - 2010.04.14 02:38:36.
