data_PCOD8178750
_publ_section_title
;
Structure prediction by ZEFSAII (Michael W. Deem and Ramdas Pophale) SiO2 
 PCOD8178750
Probable space group: A M M 2
;
_chemical_formula_sum "Si O2"
_cell_formula_units_Z 64
_cell_length_a 9.128888
_cell_length_b 30.549526
_cell_length_c 11.900216
_cell_angle_alpha 90.000000
_cell_angle_beta 90.000000
_cell_angle_gamma 90.000000
_cell_volume 3318.770334
_symmetry_space_group_name_H-M "A M M 2"
_symmetry_group_IT_number 38
_symmetry_cell_setting 'orthorhombic'
loop_
_space_group_symop_operation_xyz
x,y,z
-x,-y,z
-x,y,z
x,-y,z
x,1/2+y,1/2+z
-x,1/2-y,1/2+z
-x,1/2+y,1/2+z
x,1/2-y,1/2+z
loop_
_atom_site_type_symbol
_atom_site_label
_atom_site_fract_x
_atom_site_fract_y
_atom_site_fract_z
Si Si1 0.335402 0.327330 0.513200
Si Si2 0.670412 0.208213 0.772660
Si Si3 0.831667 0.451846 0.284671
Si Si4 0.173579 0.369609 0.143411
Si Si5 0.329327 0.550226 0.747345
Si Si6 0.333263 0.428156 0.500400
Si Si7 0.828296 0.298145 0.725697
Si Si8 0.171697 0.377162 0.886440
O O1 0.500000 0.318959 0.560544
O O2 0.304364 0.297960 0.404838
O O3 0.318726 0.377068 0.475014
O O4 0.212734 0.316913 0.604324
O O5 0.500000 0.207033 0.740712
O O6 0.750668 0.171302 0.701398
O O7 0.736501 0.254785 0.743609
O O8 0.810827 0.500000 0.228775
O O9 0.770092 0.414651 0.201032
O O10 0.752935 0.453247 0.404324
O O11 0.000000 0.441742 0.309295
O O12 0.000000 0.363894 0.154276
O O13 0.222977 0.370820 0.014159
O O14 0.500000 0.562220 0.750444
O O15 0.299904 0.500000 0.779863
O O16 0.267114 0.560026 0.622555
O O17 0.249206 0.580171 0.837597
O O18 0.500000 0.444492 0.495507
O O19 0.782821 0.333650 0.818971
O O20 0.000000 0.287473 0.729655
O O21 0.000000 0.385696 0.877604
#
# Coordination Sequence:
#
# PCOD8178750 Si02
#       8
#     8   8   8   8   8   8   8   8
#     4  10  21  39  63  90 119 154 195 240 292 350
#     4  11  24  41  62  90 120 153 197 243 294 351
#     4  10  21  36  57  86 118 154 196 242 292 346
#     4  10  22  41  61  84 118 157 198 243 293 347
#     4  10  21  37  59  87 118 154 194 239 293 348
#     4  10  19  36  60  86 119 153 190 237 291 348
#     4  11  24  40  61  89 120 154 197 244 295 351
#     4  10  23  41  60  85 116 155 198 242 291 345
#
# _framework density 19.284251999999999
#
# number of rings (size 3 to 8) (size 9 to 14) (size 15 to 20)
#    0.000    1.750    2.500    1.125    1.750    4.500 
#    0.000    1.250    0.000    0.000    0.000    0.000 
#    0.000    0.000    0.000    0.000    0.000    0.000 
#
# Total GULP energy -396898.850993 kJ/mol
# GULP energy per Si atom -12403.089094 kJ/mol
# Density = 1.924036 g / cm^3
# Si number density = 19.284252 Si / 1000 Ang^3
#
#
#
# Elastic Constant Matrix: (Units=GPa)
#
#
# Indices 1 2 3 4 5 6 
#
# 1 46.4022 37.9203 44.4010 0.0000 0.0000 0.0000
# 2 37.9203 118.6925 58.8969 0.0000 0.0000 0.0000
# 3 44.4010 58.8969 120.7970 0.0000 0.0000 0.0000
# 4 0.0000 0.0000 0.0000 15.4965 0.0000 0.0000
# 5 0.0000 0.0000 0.0000 0.0000 31.7964 0.0000
# 6 0.0000 0.0000 0.0000 0.0000 0.0000 43.7795
#
#
#
# Elastic Compliance Matrix: (Units=1/GPa)
#
#
# Indices 1 2 3 4 5 6 
#
# 1 0.036847 -0.006664 -0.010295 0.000000 0.000000 0.000000
# 2 -0.006664 0.012319 -0.003557 0.000000 0.000000 0.000000
# 3 -0.010295 -0.003557 0.013797 0.000000 0.000000 0.000000
# 4 0.000000 0.000000 0.000000 0.064531 0.000000 0.000000
# 5 0.000000 0.000000 0.000000 0.000000 0.031450 0.000000
# 6 0.000000 0.000000 0.000000 0.000000 0.000000 0.022842
#
#
# Mechanical properties :
#
#
# Convention : Reuss Voigt Hill
#
# Bulk Modulus (GPa) = 45.59568 63.14757 54.37162
# Shear Modulus (GPa) = 21.72712 27.85939 24.79325
#
# Velocity S-wave (km/s) = 3.36024 3.80501 3.58952
# Velocity P-wave (km/s) = 6.22497 7.21948 6.74059
#
# Compressibility (1/GPa) = 0.02193190
#
# Stress axis : x y z
#
# Youngs Moduli (GPa) = 27.13918 81.17463 72.48098
#
# Poissons Ratio (x) = 0.54091 0.74618
# Poissons Ratio (y) = 0.18084 0.25782
# Poissons Ratio (z) = 0.27939 0.28875
#
# Static dielectric constant tensor:
#      x y z
#    x 3.458790 0.000000 0.000000 
#    y 0.000000 3.634780 0.000000 
#    z 0.000000 0.000000 3.542760 
# 
# 
# High freq. dielectric constant tensor:
#      x y z
#    x 1.743770 0.000000 0.000000 
#    y 0.000000 1.765610 0.000000 
#    z 0.000000 0.000000 1.751830 
# 
# From -- ./inp_files/8555.got.cif
#   From: 2010.03.12/outbox.cif.g09.slc.cpg/sg38_5_cif.got.tgz:8555.got - 2010.04.14 02:38:36.
