data_PCOD8178214
_publ_section_title
;
Structure prediction by ZEFSAII (Michael W. Deem and Ramdas Pophale) SiO2 
 PCOD8178214
Probable space group: A M M 2
;
_chemical_formula_sum "Si O2"
_cell_formula_units_Z 64
_cell_length_a 24.643769
_cell_length_b 8.940877
_cell_length_c 15.229752
_cell_angle_alpha 90.000000
_cell_angle_beta 90.000000
_cell_angle_gamma 90.000000
_cell_volume 3355.676457
_symmetry_space_group_name_H-M "A M M 2"
_symmetry_group_IT_number 38
_symmetry_cell_setting 'orthorhombic'
loop_
_space_group_symop_operation_xyz
x,y,z
-x,-y,z
-x,y,z
x,-y,z
x,1/2+y,1/2+z
-x,1/2-y,1/2+z
-x,1/2+y,1/2+z
x,1/2-y,1/2+z
loop_
_atom_site_type_symbol
_atom_site_label
_atom_site_fract_x
_atom_site_fract_y
_atom_site_fract_z
Si Si1 0.057018 0.333353 0.646880
Si Si2 0.827177 0.820542 0.133319
Si Si3 0.167436 0.676741 0.946276
Si Si4 0.245407 0.822502 0.291893
Si Si5 0.562834 0.673907 0.442761
Si Si6 0.940680 0.333015 0.438626
Si Si7 0.559941 0.322469 0.640142
Si Si8 0.367161 0.322271 0.796433
O O1 0.054628 0.500000 0.685944
O O2 0.114745 0.259915 0.673759
O O3 0.058371 0.339933 0.542618
O O4 0.000000 0.250634 0.676458
O O5 0.781078 0.766219 0.200606
O O6 0.829571 0.000000 0.123481
O O7 0.815774 0.751578 0.038144
O O8 0.168089 0.500000 0.958219
O O9 0.211311 0.733606 0.875438
O O10 0.108040 0.723953 0.909655
O O11 0.306192 0.757156 0.297927
O O12 0.246087 0.000000 0.291243
O O13 0.500000 0.707478 0.421472
O O14 0.575730 0.500000 0.428380
O O15 0.576788 0.724620 0.541964
O O16 0.601114 0.771832 0.382181
O O17 0.929885 0.500000 0.401615
O O18 0.000000 0.275128 0.404579
O O19 0.500000 0.258583 0.662637
O O20 0.557715 0.500000 0.645338
O O21 0.602896 0.257464 0.709838
O O22 0.366196 0.500000 0.794346
#
# Coordination Sequence:
#
# PCOD8178214 Si02
#       8
#     8   8   8   8   8   8   8   8
#     4   7  10  19  40  67  87 107 145 195 237 276
#     4   9  17  33  53  69  91 130 174 207 243 298
#     4  10  19  32  49  72 103 132 160 205 262 302
#     4   9  20  35  49  70 102 136 170 210 250 290
#     4   9  18  33  52  77 108 133 155 196 255 305
#     4   8  14  27  48  72  96 125 163 203 246 303
#     4   8  15  29  50  74  98 126 161 200 243 292
#     4  10  19  33  53  74  98 133 176 212 240 282
#
# _framework density 19.072161999999999
#
# number of rings (size 3 to 8) (size 9 to 14) (size 15 to 20)
#    0.000    3.250    0.000    3.000    0.000    2.000 
#    0.000    5.625    0.000    3.000    0.000    0.000 
#    0.000    0.000    0.000    0.000    0.000    0.000 
#
# Total GULP energy -396426.893789 kJ/mol
# GULP energy per Si atom -12388.340431 kJ/mol
# Density = 1.902875 g / cm^3
# Si number density = 19.072162 Si / 1000 Ang^3
#
#
#
# Elastic Constant Matrix: (Units=GPa)
#
#
# Indices 1 2 3 4 5 6 
#
# 1 171.7534 26.2757 87.5509 0.0000 0.0000 0.0000
# 2 26.2757 28.1793 22.9042 0.0000 0.0000 0.0000
# 3 87.5509 22.9042 113.6172 0.0000 0.0000 0.0000
# 4 0.0000 0.0000 0.0000 21.9092 0.0000 0.0000
# 5 0.0000 0.0000 0.0000 0.0000 14.9951 0.0000
# 6 0.0000 0.0000 0.0000 0.0000 0.0000 21.5136
#
#
#
# Elastic Compliance Matrix: (Units=1/GPa)
#
#
# Indices 1 2 3 4 5 6 
#
# 1 0.009888 -0.003620 -0.006890 0.000000 0.000000 0.000000
# 2 -0.003620 0.043767 -0.006033 0.000000 0.000000 0.000000
# 3 -0.006890 -0.006033 0.015327 0.000000 0.000000 0.000000
# 4 0.000000 0.000000 0.000000 0.045643 0.000000 0.000000
# 5 0.000000 0.000000 0.000000 0.000000 0.066689 0.000000
# 6 0.000000 0.000000 0.000000 0.000000 0.000000 0.046482
#
#
# Mechanical properties :
#
#
# Convention : Reuss Voigt Hill
#
# Bulk Modulus (GPa) = 27.85903 65.22350 46.54127
# Shear Modulus (GPa) = 18.32529 23.47152 20.89841
#
# Velocity S-wave (km/s) = 3.10310 3.51190 3.31381
# Velocity P-wave (km/s) = 5.24194 7.12159 6.25280
#
# Compressibility (1/GPa) = 0.03589501
#
# Stress axis : x y z
#
# Youngs Moduli (GPa) = 101.13054 22.84849 65.24464
#
# Poissons Ratio (x) = 0.08271 0.44953
# Poissons Ratio (y) = 0.36611 0.39365
# Poissons Ratio (z) = 0.69677 0.13785
#
# Static dielectric constant tensor:
#      x y z
#    x 4.171810 0.000000 0.000000 
#    y 0.000000 3.019740 0.000000 
#    z 0.000000 0.000000 3.392310 
# 
# 
# High freq. dielectric constant tensor:
#      x y z
#    x 1.754500 0.000000 0.000000 
#    y 0.000000 1.691360 0.000000 
#    z 0.000000 0.000000 1.731610 
# 
# From -- ./inp_files/15886.got.cif
#   From: 2010.03.12/outbox.cif.g09.slc.cpg/sg38_8_cif.got.tgz:15886.got - 2010.04.14 02:38:36.
