data_PCOD8178901
_publ_section_title
;
Structure prediction by ZEFSAII (Michael W. Deem and Ramdas Pophale) SiO2 
 PCOD8178901
Probable space group: A M M 2
;
_chemical_formula_sum "Si O2"
_cell_formula_units_Z 48
_cell_length_a 9.253109
_cell_length_b 7.631899
_cell_length_c 34.295811
_cell_angle_alpha 90.000000
_cell_angle_beta 90.000000
_cell_angle_gamma 90.000000
_cell_volume 2421.928789
_symmetry_space_group_name_H-M "A M M 2"
_symmetry_group_IT_number 38
_symmetry_cell_setting 'orthorhombic'
loop_
_space_group_symop_operation_xyz
x,y,z
-x,-y,z
-x,y,z
x,-y,z
x,1/2+y,1/2+z
-x,1/2-y,1/2+z
-x,1/2+y,1/2+z
x,1/2-y,1/2+z
loop_
_atom_site_type_symbol
_atom_site_label
_atom_site_fract_x
_atom_site_fract_y
_atom_site_fract_z
Si Si1 0.672643 0.500000 0.957770
Si Si2 0.831469 0.702557 0.411723
Si Si3 0.329404 0.500000 0.045814
Si Si4 0.341779 0.200067 0.251075
Si Si5 0.161324 0.707989 0.679922
Si Si6 0.160707 0.294746 0.322888
Si Si7 0.669639 0.200534 0.103150
O O1 0.500000 0.500000 0.954902
O O2 0.732702 0.324085 0.938339
O O3 0.731225 0.500000 0.002082
O O4 0.795266 0.500000 0.420924
O O5 0.793181 0.748129 0.367031
O O6 0.000000 0.740373 0.419705
O O7 0.500000 0.500000 0.044050
O O8 0.276835 0.675743 0.067939
O O9 0.500000 0.291491 0.251876
O O10 0.240769 0.288835 0.218085
O O11 0.272517 0.206355 0.293796
O O12 0.362448 0.000000 0.239050
O O13 0.153456 0.500000 0.682844
O O14 0.248544 0.765221 0.641700
O O15 0.000000 0.787351 0.678116
O O16 0.161425 0.500000 0.315688
O O17 0.000000 0.219972 0.314880
O O18 0.500000 0.221799 0.111354
O O19 0.708526 0.000000 0.092251
#
# Coordination Sequence:
#
# PCOD8178901 Si02
#       7
#     4   8   4   8   8   8   8
#     4  11  23  37  59  91 123 151 189 241 295 353
#     4   9  20  40  62  83 112 154 198 238 288 351
#     4   9  20  37  55  83 115 143 181 227 279 347
#     4  10  20  32  49  77 110 142 180 224 270 326
#     4   9  17  31  51  75 104 139 181 224 269 322
#     4   9  19  36  55  75 102 139 185 231 275 327
#     4   9  17  33  57  78 102 141 183 225 275 330
#
# _framework density 19.818913999999999
#
# number of rings (size 3 to 8) (size 9 to 14) (size 15 to 20)
#    0.000    2.667    0.000    2.250    1.167    5.000 
#    1.500    5.417    0.000    2.000    0.000    0.000 
#    0.000    0.000    0.000    0.000    0.000    0.000 
#
# Total GULP energy -297547.575782 kJ/mol
# GULP energy per Si atom -12397.815658 kJ/mol
# Density = 1.977381 g / cm^3
# Si number density = 19.818914 Si / 1000 Ang^3
#
#
#
# Elastic Constant Matrix: (Units=GPa)
#
#
# Indices 1 2 3 4 5 6 
#
# 1 118.2885 40.7631 80.7767 0.0000 0.0000 0.0000
# 2 40.7631 75.6358 57.6279 0.0000 0.0000 0.0000
# 3 80.7767 57.6279 164.9727 0.0000 0.0000 0.0000
# 4 0.0000 0.0000 0.0000 3.0547 0.0000 0.0000
# 5 0.0000 0.0000 0.0000 0.0000 20.7270 0.0000
# 6 0.0000 0.0000 0.0000 0.0000 0.0000 19.0178
#
#
#
# Elastic Compliance Matrix: (Units=1/GPa)
#
#
# Indices 1 2 3 4 5 6 
#
# 1 0.013175 -0.002978 -0.005411 0.000000 0.000000 0.000000
# 2 -0.002978 0.018689 -0.005070 0.000000 0.000000 0.000000
# 3 -0.005411 -0.005070 0.010482 0.000000 0.000000 0.000000
# 4 0.000000 0.000000 0.000000 0.327365 0.000000 0.000000
# 5 0.000000 0.000000 0.000000 0.000000 0.048246 0.000000
# 6 0.000000 0.000000 0.000000 0.000000 0.000000 0.052582
#
#
# Mechanical properties :
#
#
# Convention : Reuss Voigt Hill
#
# Bulk Modulus (GPa) = 64.81618 79.69249 72.25433
# Shear Modulus (GPa) = 9.94825 20.54187 15.24506
#
# Velocity S-wave (km/s) = 2.24287 3.22293 2.77649
# Velocity P-wave (km/s) = 6.28351 7.35849 6.84214
#
# Compressibility (1/GPa) = 0.01542825
#
# Stress axis : x y z
#
# Youngs Moduli (GPa) = 75.90134 53.50612 95.40129
#
# Poissons Ratio (x) = 0.15935 0.51618
# Poissons Ratio (y) = 0.22604 0.48372
# Poissons Ratio (z) = 0.41068 0.27130
#
# Static dielectric constant tensor:
#      x y z
#    x 3.687550 0.000000 0.000000 
#    y 0.000000 3.438730 0.000000 
#    z 0.000000 0.000000 3.718760 
# 
# 
# High freq. dielectric constant tensor:
#      x y z
#    x 1.765750 0.000000 0.000000 
#    y 0.000000 1.763840 0.000000 
#    z 0.000000 0.000000 1.770670 
# 
# From -- ./inp_files/24383.got.cif
#   From: 2010.03.12/outbox.cif.g09.slc.cpg/sg38_13_cif.got.tgz:24383.got - 2010.04.14 02:38:36.
