data_PCOD8178021
_publ_section_title
;
Structure prediction by ZEFSAII (Michael W. Deem and Ramdas Pophale) SiO2 
 PCOD8178021
Probable space group: A M M 2
;
_chemical_formula_sum "Si O2"
_cell_formula_units_Z 40
_cell_length_a 13.910091
_cell_length_b 9.115201
_cell_length_c 20.299047
_cell_angle_alpha 90.000000
_cell_angle_beta 90.000000
_cell_angle_gamma 90.000000
_cell_volume 2573.782656
_symmetry_space_group_name_H-M "A M M 2"
_symmetry_group_IT_number 38
_symmetry_cell_setting 'orthorhombic'
loop_
_space_group_symop_operation_xyz
x,y,z
-x,-y,z
-x,y,z
x,-y,z
x,1/2+y,1/2+z
-x,1/2-y,1/2+z
-x,1/2+y,1/2+z
x,1/2-y,1/2+z
loop_
_atom_site_type_symbol
_atom_site_label
_atom_site_fract_x
_atom_site_fract_y
_atom_site_fract_z
Si Si1 0.725350 0.826676 0.696560
Si Si2 0.388375 0.667522 0.805923
Si Si3 0.390533 0.669935 0.957410
Si Si4 0.287006 0.333632 0.569821
Si Si5 0.107684 0.166630 0.144286
O O1 0.673438 0.779199 0.763160
O O2 0.670412 0.755343 0.633085
O O3 0.836178 0.767757 0.697781
O O4 0.723700 0.000000 0.690110
O O5 0.500000 0.694817 0.791499
O O6 0.360781 0.500000 0.788740
O O7 0.365023 0.701719 0.881801
O O8 0.500000 0.717204 0.972507
O O9 0.376268 0.500000 0.973964
O O10 0.318054 0.763062 0.001437
O O11 0.325364 0.500000 0.573066
O O12 0.169789 0.328178 0.576013
O O13 0.000000 0.226783 0.132001
O O14 0.104657 0.000000 0.171159
#
# Coordination Sequence:
#
# PCOD8178021 Si02
#       5
#     8   8   8   8   8
#     4  10  19  30  47  73  98 122 157 198 236 277
#     4   9  18  33  50  67  93 130 165 194 231 280
#     4   9  18  32  49  69  95 127 160 195 234 276
#     4   9  18  31  48  71  94 123 159 193 235 280
#     4   8  16  32  51  70  93 122 155 192 238 285
#
# _framework density 15.541328
#
# number of rings (size 3 to 8) (size 9 to 14) (size 15 to 20)
#    1.200    1.800    0.000    3.000    0.000    2.800 
#    0.000    2.000    0.000    1.200    0.000    5.600 
#    0.000    0.000    0.000    0.000    0.000    0.000 
#
# Total GULP energy -247786.430471 kJ/mol
# GULP energy per Si atom -12389.321524 kJ/mol
# Density = 1.550596 g / cm^3
# Si number density = 15.541328 Si / 1000 Ang^3
#
#
#
# Elastic Constant Matrix: (Units=GPa)
#
#
# Indices 1 2 3 4 5 6 
#
# 1 80.9016 51.0988 53.0052 0.0000 0.0000 0.0000
# 2 51.0988 111.2565 58.9338 0.0000 0.0000 0.0000
# 3 53.0052 58.9338 85.1439 0.0000 0.0000 0.0000
# 4 0.0000 0.0000 0.0000 31.4471 0.0000 0.0000
# 5 0.0000 0.0000 0.0000 0.0000 6.2713 0.0000
# 6 0.0000 0.0000 0.0000 0.0000 0.0000 19.2789
#
#
#
# Elastic Compliance Matrix: (Units=1/GPa)
#
#
# Indices 1 2 3 4 5 6 
#
# 1 0.022244 -0.004549 -0.010699 0.000000 0.000000 0.000000
# 2 -0.004549 0.015122 -0.007635 0.000000 0.000000 0.000000
# 3 -0.010699 -0.007635 0.023690 0.000000 0.000000 0.000000
# 4 0.000000 0.000000 0.000000 0.031799 0.000000 0.000000
# 5 0.000000 0.000000 0.000000 0.000000 0.159457 0.000000
# 6 0.000000 0.000000 0.000000 0.000000 0.000000 0.051870
#
#
# Mechanical properties :
#
#
# Convention : Reuss Voigt Hill
#
# Bulk Modulus (GPa) = 65.40276 67.04198 66.22237
# Shear Modulus (GPa) = 14.08276 19.01707 16.54991
#
# Velocity S-wave (km/s) = 3.01350 3.50186 3.26682
# Velocity P-wave (km/s) = 7.36768 7.71895 7.54536
#
# Compressibility (1/GPa) = 0.01528987
#
# Stress axis : x y z
#
# Youngs Moduli (GPa) = 44.95691 66.12960 42.21208
#
# Poissons Ratio (x) = 0.30082 0.45162
# Poissons Ratio (y) = 0.20450 0.32229
# Poissons Ratio (z) = 0.48099 0.50490
#
# Static dielectric constant tensor:
#      x y z
#    x 2.836730 0.000000 0.000000 
#    y 0.000000 2.904760 0.000000 
#    z 0.000000 0.000000 2.749370 
# 
# 
# High freq. dielectric constant tensor:
#      x y z
#    x 1.576540 0.000000 0.000000 
#    y 0.000000 1.601600 0.000000 
#    z 0.000000 0.000000 1.577760 
# 
# From -- ./inp_files/20445.got.cif
#   From: 2010.03.12/outbox.cif.g09.slc.cpg/sg38_11_cif.got.tgz:20445.got - 2010.04.14 02:38:36.
