data_PCOD8178415
_publ_section_title
;
Structure prediction by ZEFSAII (Michael W. Deem and Ramdas Pophale) SiO2 
 PCOD8178415
Probable space group: A M M 2
;
_chemical_formula_sum "Si O2"
_cell_formula_units_Z 48
_cell_length_a 9.393928
_cell_length_b 7.959581
_cell_length_c 34.021171
_cell_angle_alpha 90.000000
_cell_angle_beta 90.000000
_cell_angle_gamma 90.000000
_cell_volume 2543.821840
_symmetry_space_group_name_H-M "A M M 2"
_symmetry_group_IT_number 38
_symmetry_cell_setting 'orthorhombic'
loop_
_space_group_symop_operation_xyz
x,y,z
-x,-y,z
-x,y,z
x,-y,z
x,1/2+y,1/2+z
-x,1/2-y,1/2+z
-x,1/2+y,1/2+z
x,1/2-y,1/2+z
loop_
_atom_site_type_symbol
_atom_site_label
_atom_site_fract_x
_atom_site_fract_y
_atom_site_fract_z
Si Si1 0.158809 0.808665 0.635960
Si Si2 0.169934 0.000000 0.856141
Si Si3 0.838808 0.695438 0.994454
Si Si4 0.830714 0.686169 0.905729
Si Si5 0.339716 0.808338 0.065323
Si Si6 0.169193 0.685284 0.718115
Si Si7 0.829996 0.000000 0.767170
O O1 0.258382 0.796732 0.598234
O O2 0.222062 0.707017 0.673138
O O3 0.000000 0.743958 0.624737
O O4 0.151047 0.000000 0.649963
O O5 0.229825 0.168346 0.877289
O O6 0.226727 0.000000 0.811712
O O7 0.000000 0.000000 0.857842
O O8 0.833409 0.500000 0.005177
O O9 0.783117 0.727000 0.950230
O O10 0.000000 0.762926 0.999316
O O11 0.735996 0.795207 0.023335
O O12 0.773896 0.500000 0.893076
O O13 0.000000 0.682396 0.904235
O O14 0.500000 0.738396 0.061550
O O15 0.339576 0.000000 0.078993
O O16 0.217852 0.500000 0.733122
O O17 0.000000 0.700183 0.718205
O O18 0.231182 0.831765 0.746177
O O19 0.000000 0.000000 0.766458
#
# Coordination Sequence:
#
# PCOD8178415 Si02
#       7
#     8   4   8   8   8   8   4
#     4  10  19  33  53  73  95 127 172 216 251 299
#     4   9  16  24  40  64  95 133 165 199 251 299
#     4   9  18  33  52  72  94 126 171 214 251 297
#     4   8  15  27  42  64  93 124 163 206 243 292
#     4  11  24  36  46  69 103 132 164 209 256 306
#     4   9  16  27  44  65  93 129 165 205 248 291
#     4   9  16  26  38  64  99 129 167 205 243 301
#
# _framework density 18.869247000000001
#
# number of rings (size 3 to 8) (size 9 to 14) (size 15 to 20)
#    0.000    2.667    0.833    2.500    1.167    5.333 
#    0.000    3.333    0.000    0.000    0.000    0.000 
#    0.000    2.667    0.000    4.667    0.000    5.333 
#
# Total GULP energy -297510.343255 kJ/mol
# GULP energy per Si atom -12396.264302 kJ/mol
# Density = 1.882630 g / cm^3
# Si number density = 18.869247 Si / 1000 Ang^3
#
#
#
# Elastic Constant Matrix: (Units=GPa)
#
#
# Indices 1 2 3 4 5 6 
#
# 1 49.4034 18.2552 32.1163 0.0000 0.0000 0.0000
# 2 18.2552 124.0060 69.5890 0.0000 0.0000 0.0000
# 3 32.1163 69.5890 136.2009 0.0000 0.0000 0.0000
# 4 0.0000 0.0000 0.0000 30.6154 0.0000 0.0000
# 5 0.0000 0.0000 0.0000 0.0000 -0.4235 0.0000
# 6 0.0000 0.0000 0.0000 0.0000 0.0000 11.8381
#
#
#
# Elastic Compliance Matrix: (Units=1/GPa)
#
#
# Indices 1 2 3 4 5 6 
#
# 1 0.023928 -0.000499 -0.005387 0.000000 0.000000 0.000000
# 2 -0.000499 0.011316 -0.005664 0.000000 0.000000 0.000000
# 3 -0.005387 -0.005664 0.011506 0.000000 0.000000 0.000000
# 4 0.000000 0.000000 0.000000 0.032663 0.000000 0.000000
# 5 0.000000 0.000000 0.000000 0.000000 -2.361211 0.000000
# 6 0.000000 0.000000 0.000000 0.000000 0.000000 0.084473
#
#
# Mechanical properties :
#
#
# Convention : Reuss Voigt Hill
#
# Bulk Modulus (GPa) = 42.28415 61.05904 51.67160
# Shear Modulus (GPa) = -2.30804 21.04931 9.37064
#
# Velocity S-wave (km/s) = -1.10717 3.34359 2.23089
# Velocity P-wave (km/s) = 4.56325 6.88007 5.83775
#
# Compressibility (1/GPa) = 0.02364952
#
# Stress axis : x y z
#
# Youngs Moduli (GPa) = 41.79184 88.36948 86.90913
#
# Poissons Ratio (x) = 0.04413 0.46819
# Poissons Ratio (y) = 0.02087 0.49225
# Poissons Ratio (z) = 0.22514 0.50052
#
# Static dielectric constant tensor:
#      x y z
#    x 2.882240 0.000000 0.000000 
#    y 0.000000 3.672260 0.000000 
#    z 0.000000 0.000000 3.468160 
# 
# 
# High freq. dielectric constant tensor:
#      x y z
#    x 1.659500 0.000000 0.000000 
#    y 0.000000 1.746450 0.000000 
#    z 0.000000 0.000000 1.733090 
# 
# From -- ./inp_files/24309.got.cif
#   From: 2010.03.12/outbox.cif.g09.slc.cpg/sg38_13_cif.got.tgz:24309.got - 2010.04.14 02:38:36.
