data_PCOD8178450
_publ_section_title
;
Structure prediction by ZEFSAII (Michael W. Deem and Ramdas Pophale) SiO2 
 PCOD8178450
Probable space group: A M M 2
;
_chemical_formula_sum "Si O2"
_cell_formula_units_Z 48
_cell_length_a 12.067999
_cell_length_b 10.981269
_cell_length_c 19.528710
_cell_angle_alpha 90.000000
_cell_angle_beta 90.000000
_cell_angle_gamma 90.000000
_cell_volume 2587.982600
_symmetry_space_group_name_H-M "A M M 2"
_symmetry_group_IT_number 38
_symmetry_cell_setting 'orthorhombic'
loop_
_space_group_symop_operation_xyz
x,y,z
-x,-y,z
-x,y,z
x,-y,z
x,1/2+y,1/2+z
-x,1/2-y,1/2+z
-x,1/2+y,1/2+z
x,1/2-y,1/2+z
loop_
_atom_site_type_symbol
_atom_site_label
_atom_site_fract_x
_atom_site_fract_y
_atom_site_fract_z
Si Si1 0.627800 0.730781 0.347180
Si Si2 0.368720 0.000000 0.608302
Si Si3 0.369253 0.000000 0.764255
Si Si4 0.000000 0.865454 0.980707
Si Si5 0.000000 0.856015 0.583643
Si Si6 0.762372 0.136455 0.963371
Si Si7 0.763754 0.773254 0.603229
Si Si8 0.373882 0.860728 0.215687
O O1 0.500000 0.717851 0.367366
O O2 0.674456 0.617384 0.303850
O O3 0.693872 0.734214 0.418662
O O4 0.649135 0.846267 0.297445
O O5 0.314935 0.880650 0.574286
O O6 0.500000 0.000000 0.597251
O O7 0.326819 0.000000 0.686846
O O8 0.500000 0.000000 0.761903
O O9 0.000000 0.738484 0.021356
O O10 0.111337 0.863434 0.935051
O O11 0.000000 0.000000 0.020602
O O12 0.114061 0.824677 0.624026
O O13 0.000000 0.000000 0.562283
O O14 0.710399 0.000000 0.957994
O O15 0.766760 0.173199 0.043254
O O16 0.711391 0.716656 0.671455
O O17 0.500000 0.814283 0.200667
O O18 0.360460 0.000000 0.195338
#
# Coordination Sequence:
#
# PCOD8178450 Si02
#       8
#     8   4   4   4   4   8   8   8
#     4  10  19  33  54  78 107 143 183 228 277 334
#     4  11  20  33  55  81 111 145 182 223 276 339
#     4   9  16  30  53  75 101 140 177 215 266 333
#     4   8  18  36  55  76 109 151 191 233 287 344
#     4  10  20  36  57  84 113 151 197 239 287 342
#     4  10  20  35  56  80 107 141 185 233 282 332
#     4  11  21  36  57  82 113 145 188 235 284 333
#     4  10  21  38  58  81 113 153 190 227 281 348
#
# _framework density 18.547263999999998
#
# number of rings (size 3 to 8) (size 9 to 14) (size 15 to 20)
#    0.000    2.000    3.333    1.000    0.000    2.000 
#    1.500    0.833    0.000    1.000    0.000    0.000 
#    0.000    0.000    0.000    0.000    0.000    0.000 
#
# Total GULP energy -297340.800798 kJ/mol
# GULP energy per Si atom -12389.200033 kJ/mol
# Density = 1.850505 g / cm^3
# Si number density = 18.547264 Si / 1000 Ang^3
#
#
#
# Elastic Constant Matrix: (Units=GPa)
#
#
# Indices 1 2 3 4 5 6 
#
# 1 129.8881 45.4239 44.2998 0.0000 0.0000 0.0000
# 2 45.4239 89.4879 21.7662 0.0000 0.0000 0.0000
# 3 44.2998 21.7662 66.4001 0.0000 0.0000 0.0000
# 4 0.0000 0.0000 0.0000 23.9542 0.0000 0.0000
# 5 0.0000 0.0000 0.0000 0.0000 17.7120 0.0000
# 6 0.0000 0.0000 0.0000 0.0000 0.0000 25.1586
#
#
#
# Elastic Compliance Matrix: (Units=1/GPa)
#
#
# Indices 1 2 3 4 5 6 
#
# 1 0.011269 -0.004229 -0.006132 0.000000 0.000000 0.000000
# 2 -0.004229 0.013730 -0.001679 0.000000 0.000000 0.000000
# 3 -0.006132 -0.001679 0.019702 0.000000 0.000000 0.000000
# 4 0.000000 0.000000 0.000000 0.041746 0.000000 0.000000
# 5 0.000000 0.000000 0.000000 0.000000 0.056459 0.000000
# 6 0.000000 0.000000 0.000000 0.000000 0.000000 0.039748
#
#
# Mechanical properties :
#
#
# Convention : Reuss Voigt Hill
#
# Bulk Modulus (GPa) = 48.49621 56.52841 52.51231
# Shear Modulus (GPa) = 23.40735 24.98403 24.19569
#
# Velocity S-wave (km/s) = 3.55637 3.67420 3.61576
# Velocity P-wave (km/s) = 6.56261 6.96734 6.76800
#
# Compressibility (1/GPa) = 0.02062017
#
# Stress axis : x y z
#
# Youngs Moduli (GPa) = 88.73708 72.83501 50.75636
#
# Poissons Ratio (x) = 0.30800 0.31125
# Poissons Ratio (y) = 0.37524 0.08524
# Poissons Ratio (z) = 0.54416 0.12232
#
# Static dielectric constant tensor:
#      x y z
#    x 3.605000 0.000000 0.000000 
#    y 0.000000 3.577600 0.000000 
#    z 0.000000 0.000000 3.116970 
# 
# 
# High freq. dielectric constant tensor:
#      x y z
#    x 1.718950 0.000000 0.000000 
#    y 0.000000 1.730260 0.000000 
#    z 0.000000 0.000000 1.683170 
# 
# From -- ./inp_files/20646.got.cif
#   From: 2010.03.12/outbox.cif.g09.slc.cpg/sg38_11_cif.got.tgz:20646.got - 2010.04.14 02:38:36.
