data_PCOD8178626
_publ_section_title
;
Structure prediction by ZEFSAII (Michael W. Deem and Ramdas Pophale) SiO2 
 PCOD8178626
Probable space group: A M M 2
;
_chemical_formula_sum "Si O2"
_cell_formula_units_Z 56
_cell_length_a 13.586521
_cell_length_b 14.045366
_cell_length_c 12.694214
_cell_angle_alpha 90.000000
_cell_angle_beta 90.000000
_cell_angle_gamma 90.000000
_cell_volume 2422.407155
_symmetry_space_group_name_H-M "A M M 2"
_symmetry_group_IT_number 38
_symmetry_cell_setting 'orthorhombic'
loop_
_space_group_symop_operation_xyz
x,y,z
-x,-y,z
-x,y,z
x,-y,z
x,1/2+y,1/2+z
-x,1/2-y,1/2+z
-x,1/2+y,1/2+z
x,1/2-y,1/2+z
loop_
_atom_site_type_symbol
_atom_site_label
_atom_site_fract_x
_atom_site_fract_y
_atom_site_fract_z
Si Si1 0.395401 0.893730 0.133580
Si Si2 0.112489 0.700878 0.226570
Si Si3 0.183844 0.892832 0.168694
Si Si4 0.389343 0.755030 0.448502
Si Si5 0.615794 0.603832 0.286154
Si Si6 0.110994 0.109407 0.940516
Si Si7 0.270406 0.890824 0.580232
O O1 0.500000 0.883893 0.197739
O O2 0.298071 0.878855 0.205187
O O3 0.388539 0.000000 0.084019
O O4 0.396933 0.818109 0.042892
O O5 0.118378 0.816066 0.229736
O O6 0.154364 0.663190 0.338101
O O7 0.173073 0.658831 0.128002
O O8 0.000000 0.668342 0.212494
O O9 0.145317 0.000000 0.193484
O O10 0.178478 0.872105 0.042711
O O11 0.500000 0.795377 0.425030
O O12 0.344266 0.694200 0.351355
O O13 0.311389 0.838781 0.475404
O O14 0.500000 0.601808 0.298212
O O15 0.658691 0.500000 0.323568
O O16 0.642388 0.619098 0.164652
O O17 0.000000 0.145142 0.966813
O O18 0.109394 0.000000 0.908924
O O19 0.245802 0.000000 0.551495
#
# Coordination Sequence:
#
# PCOD8178626 Si02
#       7
#     8   8   8   8   8   8   8
#     4   9  17  30  52  85 120 150 184 228 278 335
#     4  11  23  38  57  85 117 149 191 243 297 344
#     4  10  20  37  64  91 116 149 190 236 288 345
#     4  10  19  34  57  85 118 153 188 231 283 335
#     4   9  19  36  60  90 119 149 190 236 281 339
#     4   9  19  36  59  87 115 145 187 239 287 333
#     4  11  23  37  57  85 116 153 198 241 285 337
#
# _framework density 23.117502999999999
#
# number of rings (size 3 to 8) (size 9 to 14) (size 15 to 20)
#    0.000    2.143    1.429    1.714    2.000    4.286 
#    0.000    0.000    0.000    6.857    0.000   10.000 
#    0.000    0.000    0.000    0.000    0.000    0.000 
#
# Total GULP energy -347007.343483 kJ/mol
# GULP energy per Si atom -12393.119410 kJ/mol
# Density = 2.306489 g / cm^3
# Si number density = 23.117503 Si / 1000 Ang^3
#
#
#
# Elastic Constant Matrix: (Units=GPa)
#
#
# Indices 1 2 3 4 5 6 
#
# 1 93.0055 30.6631 12.1408 0.0000 0.0000 0.0000
# 2 30.6631 135.1510 39.9631 0.0000 0.0000 0.0000
# 3 12.1408 39.9631 50.9221 0.0000 0.0000 0.0000
# 4 0.0000 0.0000 0.0000 36.5492 0.0000 0.0000
# 5 0.0000 0.0000 0.0000 0.0000 16.3939 0.0000
# 6 0.0000 0.0000 0.0000 0.0000 0.0000 -21.8523
#
#
#
# Elastic Compliance Matrix: (Units=1/GPa)
#
#
# Indices 1 2 3 4 5 6 
#
# 1 0.011654 -0.002373 -0.000916 0.000000 0.000000 0.000000
# 2 -0.002373 0.010118 -0.007375 0.000000 0.000000 0.000000
# 3 -0.000916 -0.007375 0.025644 0.000000 0.000000 0.000000
# 4 0.000000 0.000000 0.000000 0.027360 0.000000 0.000000
# 5 0.000000 0.000000 0.000000 0.000000 0.060998 0.000000
# 6 0.000000 0.000000 0.000000 0.000000 0.000000 -0.045762
#
#
# Mechanical properties :
#
#
# Convention : Reuss Voigt Hill
#
# Bulk Modulus (GPa) = 38.33185 49.40138 43.86662
# Shear Modulus (GPa) = 41.65372 19.30562 30.47967
#
# Velocity S-wave (km/s) = 4.24940 2.89296 3.63501
# Velocity P-wave (km/s) = 6.37917 5.70745 6.05264
#
# Compressibility (1/GPa) = 0.02608797
#
# Stress axis : x y z
#
# Youngs Moduli (GPa) = 85.80702 98.83133 38.99552
#
# Poissons Ratio (x) = 0.23455 0.03572
# Poissons Ratio (y) = 0.20364 0.28759
# Poissons Ratio (z) = 0.07861 0.72887
#
# Static dielectric constant tensor:
#      x y z
#    x 4.449280 0.000000 0.000000 
#    y 0.000000 6.141860 0.000000 
#    z 0.000000 0.000000 3.713600 
# 
# 
# High freq. dielectric constant tensor:
#      x y z
#    x 1.923070 0.000000 0.000000 
#    y 0.000000 1.920080 0.000000 
#    z 0.000000 0.000000 1.863630 
# 
# From -- ./inp_files/10098.got.cif
#   From: 2010.03.12/outbox.cif.g09.slc.cpg/sg38_6_cif.got.tgz:10098.got - 2010.04.14 02:38:36.
