data_PCOD8178887
_publ_section_title
;
Structure prediction by ZEFSAII (Michael W. Deem and Ramdas Pophale) SiO2 
 PCOD8178887
Probable space group: A M M 2
;
_chemical_formula_sum "Si O2"
_cell_formula_units_Z 64
_cell_length_a 14.204759
_cell_length_b 9.248816
_cell_length_c 26.191967
_cell_angle_alpha 90.000000
_cell_angle_beta 90.000000
_cell_angle_gamma 90.000000
_cell_volume 3441.027348
_symmetry_space_group_name_H-M "A M M 2"
_symmetry_group_IT_number 38
_symmetry_cell_setting 'orthorhombic'
loop_
_space_group_symop_operation_xyz
x,y,z
-x,-y,z
-x,y,z
x,-y,z
x,1/2+y,1/2+z
-x,1/2-y,1/2+z
-x,1/2+y,1/2+z
x,1/2-y,1/2+z
loop_
_atom_site_type_symbol
_atom_site_label
_atom_site_fract_x
_atom_site_fract_y
_atom_site_fract_z
Si Si1 0.106421 0.327711 0.585330
Si Si2 0.792862 0.671477 0.484897
Si Si3 0.392710 0.172547 0.720947
Si Si4 0.396227 0.327337 0.441176
Si Si5 0.610777 0.843488 0.831476
Si Si6 0.891181 0.668665 0.783847
Si Si7 0.221354 0.329306 0.683452
Si Si8 0.109395 0.331525 0.382819
O O1 0.104541 0.500000 0.583683
O O2 0.158938 0.263044 0.535391
O O3 0.161924 0.273965 0.635068
O O4 0.000000 0.267251 0.586796
O O5 0.803614 0.500000 0.486527
O O6 0.682279 0.717970 0.482756
O O7 0.843070 0.730870 0.434008
O O8 0.500000 0.214912 0.706672
O O9 0.364600 0.235102 0.777780
O O10 0.322374 0.249767 0.681514
O O11 0.380708 0.000000 0.719329
O O12 0.500000 0.269182 0.457617
O O13 0.399989 0.500000 0.435525
O O14 0.364464 0.263242 0.385154
O O15 0.500000 0.868634 0.831155
O O16 0.661595 0.000000 0.831397
O O17 0.879231 0.500000 0.794320
O O18 0.835604 0.717681 0.733650
O O19 0.848503 0.752398 0.832817
O O20 0.000000 0.710365 0.775164
O O21 0.238250 0.500000 0.680977
O O22 0.129795 0.500000 0.376320
O O23 0.000000 0.296154 0.387789
#
# Coordination Sequence:
#
# PCOD8178887 Si02
#       8
#     8   8   8   8   8   8   8   8
#     4   9  17  31  49  66  89 126 170 209 244 291
#     4   9  16  25  42  68  95 124 157 196 247 296
#     4   9  18  32  50  72  99 132 167 199 239 294
#     4   8  13  21  34  57  91 124 152 185 229 284
#     4   7  11  21  37  58  86 121 155 183 217 270
#     4   9  18  32  47  65  94 131 166 198 241 301
#     4  10  20  32  49  72  96 128 170 208 244 283
#     4   9  17  28  44  70  98 119 148 197 252 298
#
# _framework density 18.599098000000001
#
# number of rings (size 3 to 8) (size 9 to 14) (size 15 to 20)
#    0.000    3.250    0.000    2.250    1.750    3.750 
#    0.000    0.625    0.000    4.125    0.000    0.000 
#    0.000    0.000    0.000    0.000    0.000    0.000 
#
# Total GULP energy -396476.063223 kJ/mol
# GULP energy per Si atom -12389.876976 kJ/mol
# Density = 1.855677 g / cm^3
# Si number density = 18.599098 Si / 1000 Ang^3
#
#
#
# Elastic Constant Matrix: (Units=GPa)
#
#
# Indices 1 2 3 4 5 6 
#
# 1 127.9425 23.1427 88.5436 0.0000 0.0000 0.0000
# 2 23.1427 16.1531 25.3875 0.0000 0.0000 0.0000
# 3 88.5436 25.3875 151.7844 0.0000 0.0000 0.0000
# 4 0.0000 0.0000 0.0000 17.3485 0.0000 0.0000
# 5 0.0000 0.0000 0.0000 0.0000 36.0583 0.0000
# 6 0.0000 0.0000 0.0000 0.0000 0.0000 18.4834
#
#
#
# Elastic Compliance Matrix: (Units=1/GPa)
#
#
# Indices 1 2 3 4 5 6 
#
# 1 0.014193 -0.009933 -0.006618 0.000000 0.000000 0.000000
# 2 -0.009933 0.090937 -0.009416 0.000000 0.000000 0.000000
# 3 -0.006618 -0.009416 0.012024 0.000000 0.000000 0.000000
# 4 0.000000 0.000000 0.000000 0.057642 0.000000 0.000000
# 5 0.000000 0.000000 0.000000 0.000000 0.027733 0.000000
# 6 0.000000 0.000000 0.000000 0.000000 0.000000 0.054103
#
#
# Mechanical properties :
#
#
# Convention : Reuss Voigt Hill
#
# Bulk Modulus (GPa) = 15.33259 63.33639 39.33449
# Shear Modulus (GPa) = 15.13756 24.96513 20.05134
#
# Velocity S-wave (km/s) = 2.85596 3.66768 3.28698
# Velocity P-wave (km/s) = 4.37459 7.21549 5.96658
#
# Compressibility (1/GPa) = 0.06522057
#
# Stress axis : x y z
#
# Youngs Moduli (GPa) = 70.45889 10.99659 83.16826
#
# Poissons Ratio (x) = 0.10922 0.55041
# Poissons Ratio (y) = 0.69984 0.78311
# Poissons Ratio (z) = 0.46630 0.10354
#
# Static dielectric constant tensor:
#      x y z
#    x 3.550580 0.000000 0.000000 
#    y 0.000000 2.775370 0.000000 
#    z 0.000000 0.000000 3.642970 
# 
# 
# High freq. dielectric constant tensor:
#      x y z
#    x 1.734640 0.000000 0.000000 
#    y 0.000000 1.647470 0.000000 
#    z 0.000000 0.000000 1.717200 
# 
# From -- ./inp_files/22912.got.cif
#   From: 2010.03.12/outbox.cif.g09.slc.cpg/sg38_12_cif.got.tgz:22912.got - 2010.04.14 02:38:36.
