data_PCOD8178010
_publ_section_title
;
Structure prediction by ZEFSAII (Michael W. Deem and Ramdas Pophale) SiO2 
 PCOD8178010
Probable space group: A M M 2
;
_chemical_formula_sum "Si O2"
_cell_formula_units_Z 48
_cell_length_a 8.754065
_cell_length_b 18.963694
_cell_length_c 15.460295
_cell_angle_alpha 90.000000
_cell_angle_beta 90.000000
_cell_angle_gamma 90.000000
_cell_volume 2566.554450
_symmetry_space_group_name_H-M "A M M 2"
_symmetry_group_IT_number 38
_symmetry_cell_setting 'orthorhombic'
loop_
_space_group_symop_operation_xyz
x,y,z
-x,-y,z
-x,y,z
x,-y,z
x,1/2+y,1/2+z
-x,1/2-y,1/2+z
-x,1/2+y,1/2+z
x,1/2-y,1/2+z
loop_
_atom_site_type_symbol
_atom_site_label
_atom_site_fract_x
_atom_site_fract_y
_atom_site_fract_z
Si Si1 0.177259 0.918847 0.110420
Si Si2 0.817997 0.170357 0.273541
Si Si3 0.181623 0.921049 0.621492
Si Si4 0.320893 0.919397 0.929203
Si Si5 0.818245 0.579079 0.930303
Si Si6 0.181614 0.170545 0.778405
O O1 0.239003 0.869908 0.187873
O O2 0.000000 0.904150 0.090532
O O3 0.202998 0.000000 0.137558
O O4 0.273273 0.898589 0.026021
O O5 0.749992 0.131319 0.358166
O O6 0.754985 0.249906 0.274658
O O7 0.000000 0.168925 0.276096
O O8 0.235710 0.896082 0.525997
O O9 0.249278 0.869326 0.694289
O O10 0.000000 0.920777 0.625397
O O11 0.242284 0.000000 0.640057
O O12 0.500000 0.909419 0.918419
O O13 0.235639 0.867467 0.864738
O O14 0.271019 0.000000 0.909648
O O15 0.758414 0.500000 0.912012
O O16 0.000000 0.579326 0.926053
O O17 0.000000 0.170115 0.777569
#
# Coordination Sequence:
#
# PCOD8178010 Si02
#       6
#     8   8   8   8   8   8
#     4   9  17  31  52  76 101 130 165 204 244 287
#     4   9  17  27  43  71 102 128 154 190 239 292
#     4   8  14  24  39  60  86 117 151 185 224 273
#     4  10  21  36  52  70  94 128 171 213 249 288
#     4   8  13  23  40  63  93 125 153 185 228 278
#     4  10  19  30  47  72 100 127 156 196 246 296
#
# _framework density 18.702117000000001
#
# number of rings (size 3 to 8) (size 9 to 14) (size 15 to 20)
#    0.000    3.000    0.000    2.500    0.000    5.000 
#    0.000    5.833    0.000    0.000    0.000    1.167 
#    0.000    4.000    0.000    0.000    0.000    0.000 
#
# Total GULP energy -297527.334610 kJ/mol
# GULP energy per Si atom -12396.972275 kJ/mol
# Density = 1.865955 g / cm^3
# Si number density = 18.702117 Si / 1000 Ang^3
#
#
#
# Elastic Constant Matrix: (Units=GPa)
#
#
# Indices 1 2 3 4 5 6 
#
# 1 10.4346 12.4272 8.4737 0.0000 0.0000 0.0000
# 2 12.4272 145.1276 103.3319 0.0000 0.0000 0.0000
# 3 8.4737 103.3319 156.3195 0.0000 0.0000 0.0000
# 4 0.0000 0.0000 0.0000 18.9921 0.0000 0.0000
# 5 0.0000 0.0000 0.0000 0.0000 3.2775 0.0000
# 6 0.0000 0.0000 0.0000 0.0000 0.0000 8.9473
#
#
#
# Elastic Compliance Matrix: (Units=1/GPa)
#
#
# Indices 1 2 3 4 5 6 
#
# 1 0.106737 -0.009484 0.000483 0.000000 0.000000 0.000000
# 2 -0.009484 0.013860 -0.008648 0.000000 0.000000 0.000000
# 3 0.000483 -0.008648 0.012087 0.000000 0.000000 0.000000
# 4 0.000000 0.000000 0.000000 0.052653 0.000000 0.000000
# 5 0.000000 0.000000 0.000000 0.000000 0.305107 0.000000
# 6 0.000000 0.000000 0.000000 0.000000 0.000000 0.111766
#
#
# Mechanical properties :
#
#
# Convention : Reuss Voigt Hill
#
# Bulk Modulus (GPa) = 10.26823 62.26082 36.26452
# Shear Modulus (GPa) = 7.46302 18.75332 13.10817
#
# Velocity S-wave (km/s) = 1.99978 3.17004 2.65031
# Velocity P-wave (km/s) = 3.29158 6.83827 5.36640
#
# Compressibility (1/GPa) = 0.09738779
#
# Stress axis : x y z
#
# Youngs Moduli (GPa) = 9.36879 72.15136 82.73146
#
# Poissons Ratio (x) = 0.68427 -0.03997
# Poissons Ratio (y) = 0.08885 0.71543
# Poissons Ratio (z) = -0.00453 0.62394
#
# Static dielectric constant tensor:
#      x y z
#    x 2.806860 0.000000 0.000000 
#    y 0.000000 3.643240 0.000000 
#    z 0.000000 0.000000 3.715940 
# 
# 
# High freq. dielectric constant tensor:
#      x y z
#    x 1.663220 0.000000 0.000000 
#    y 0.000000 1.725210 0.000000 
#    z 0.000000 0.000000 1.742630 
# 
# From -- ./inp_files/12010.got.cif
#   From: 2010.03.12/outbox.cif.g09.slc.cpg/sg38_7_cif.got.tgz:12010.got - 2010.04.14 02:38:36.
