data_PCOD8178606
_publ_section_title
;
Structure prediction by ZEFSAII (Michael W. Deem and Ramdas Pophale) SiO2 
 PCOD8178606
Probable space group: A M M 2
;
_chemical_formula_sum "Si O2"
_cell_formula_units_Z 56
_cell_length_a 9.065108
_cell_length_b 20.677972
_cell_length_c 14.227959
_cell_angle_alpha 90.000000
_cell_angle_beta 90.000000
_cell_angle_gamma 90.000000
_cell_volume 2667.003162
_symmetry_space_group_name_H-M "A M M 2"
_symmetry_group_IT_number 38
_symmetry_cell_setting 'orthorhombic'
loop_
_space_group_symop_operation_xyz
x,y,z
-x,-y,z
-x,y,z
x,-y,z
x,1/2+y,1/2+z
-x,1/2-y,1/2+z
-x,1/2+y,1/2+z
x,1/2-y,1/2+z
loop_
_atom_site_type_symbol
_atom_site_label
_atom_site_fract_x
_atom_site_fract_y
_atom_site_fract_z
Si Si1 0.664278 0.574223 0.543460
Si Si2 0.673714 0.323272 0.827452
Si Si3 0.170031 0.000000 0.749928
Si Si4 0.332922 0.787143 0.691032
Si Si5 0.176305 0.646867 0.013162
Si Si6 0.338100 0.607953 0.343479
Si Si7 0.174853 0.000000 0.544665
Si Si8 0.165331 0.424400 0.724167
O O1 0.500000 0.584475 0.586130
O O2 0.684280 0.500000 0.510311
O O3 0.689312 0.620751 0.454023
O O4 0.785513 0.593741 0.619124
O O5 0.500000 0.316778 0.844573
O O6 0.724873 0.280578 0.735928
O O7 0.722431 0.395297 0.799532
O O8 0.756055 0.310960 0.927241
O O9 0.209649 0.936949 0.806838
O O10 0.247121 0.000000 0.648330
O O11 0.000000 0.000000 0.730117
O O12 0.500000 0.781103 0.651199
O O13 0.232736 0.820105 0.610823
O O14 0.331978 0.826022 0.788272
O O15 0.225427 0.570266 0.001935
O O16 0.000000 0.652481 0.013183
O O17 0.500000 0.575005 0.331295
O O18 0.000000 0.000000 0.543318
O O19 0.172262 0.500000 0.741293
O O20 0.000000 0.397935 0.740317
#
# Coordination Sequence:
#
# PCOD8178606 Si02
#       8
#     8   8   4   8   8   8   4   8
#     4   9  17  31  53  83 118 155 195 240 297 361
#     4  11  25  44  64  91 125 164 211 258 314 379
#     4  11  19  31  53  86 123 160 197 249 316 370
#     4  10  23  42  63  88 124 164 208 260 308 367
#     4  11  23  42  67  96 131 168 211 260 320 382
#     4  10  19  34  56  85 119 161 205 250 305 367
#     4   9  20  37  59  92 131 166 199 257 324 372
#     4  10  22  40  61  87 118 154 203 262 320 376
#
# _framework density 20.997350000000001
#
# number of rings (size 3 to 8) (size 9 to 14) (size 15 to 20)
#    0.000    1.857    2.143    1.500    1.000    3.714 
#    0.000    3.929    0.000    0.000    0.000    0.000 
#    0.000    0.000    0.000    0.000    0.000    0.000 
#
# Total GULP energy -346891.891861 kJ/mol
# GULP energy per Si atom -12388.996138 kJ/mol
# Density = 2.094956 g / cm^3
# Si number density = 20.997350 Si / 1000 Ang^3
#
#
#
# Elastic Constant Matrix: (Units=GPa)
#
#
# Indices 1 2 3 4 5 6 
#
# 1 80.7148 40.8365 42.3862 0.0000 0.0000 0.0000
# 2 40.8365 64.9233 44.7208 0.0000 0.0000 0.0000
# 3 42.3862 44.7208 100.4811 0.0000 0.0000 0.0000
# 4 0.0000 0.0000 0.0000 -8.6329 0.0000 0.0000
# 5 0.0000 0.0000 0.0000 0.0000 34.9378 0.0000
# 6 0.0000 0.0000 0.0000 0.0000 0.0000 26.2504
#
#
#
# Elastic Compliance Matrix: (Units=1/GPa)
#
#
# Indices 1 2 3 4 5 6 
#
# 1 0.019190 -0.009366 -0.003927 0.000000 0.000000 0.000000
# 2 -0.009366 0.026783 -0.007970 0.000000 0.000000 0.000000
# 3 -0.003927 -0.007970 0.015156 0.000000 0.000000 0.000000
# 4 0.000000 0.000000 0.000000 -0.115836 0.000000 0.000000
# 5 0.000000 0.000000 0.000000 0.000000 0.028622 0.000000
# 6 0.000000 0.000000 0.000000 0.000000 0.000000 0.038095
#
#
# Mechanical properties :
#
#
# Convention : Reuss Voigt Hill
#
# Bulk Modulus (GPa) = 53.74896 55.77848 54.76372
# Shear Modulus (GPa) = 82.32540 18.38945 50.35742
#
# Velocity S-wave (km/s) = 6.26838 2.96260 4.90253
# Velocity P-wave (km/s) = 8.83424 6.19071 7.62786
#
# Compressibility (1/GPa) = 0.01860501
#
# Stress axis : x y z
#
# Youngs Moduli (GPa) = 52.11155 37.33648 65.98255
#
# Poissons Ratio (x) = 0.34968 0.25908
# Poissons Ratio (y) = 0.48805 0.52586
# Poissons Ratio (z) = 0.20462 0.29756
#
# Static dielectric constant tensor:
#      x y z
#    x 3.764550 0.000000 0.000000 
#    y 0.000000 5.795930 0.000000 
#    z 0.000000 0.000000 3.879220 
# 
# 
# High freq. dielectric constant tensor:
#      x y z
#    x 1.809580 0.000000 0.000000 
#    y 0.000000 1.811770 0.000000 
#    z 0.000000 0.000000 1.832470 
# 
# From -- ./inp_files/12463.got.cif
#   From: 2010.03.12/outbox.cif.g09.slc.cpg/sg38_7_cif.got.tgz:12463.got - 2010.04.14 02:38:36.
