data_PCOD8178655
_publ_section_title
;
Structure prediction by ZEFSAII (Michael W. Deem and Ramdas Pophale) SiO2 
 PCOD8178655
Probable space group: A M M 2
;
_chemical_formula_sum "Si O2"
_cell_formula_units_Z 64
_cell_length_a 19.061877
_cell_length_b 9.047893
_cell_length_c 20.709414
_cell_angle_alpha 90.000000
_cell_angle_beta 90.000000
_cell_angle_gamma 90.000000
_cell_volume 3571.748977
_symmetry_space_group_name_H-M "A M M 2"
_symmetry_group_IT_number 38
_symmetry_cell_setting 'orthorhombic'
loop_
_space_group_symop_operation_xyz
x,y,z
-x,-y,z
-x,y,z
x,-y,z
x,1/2+y,1/2+z
-x,1/2-y,1/2+z
-x,1/2+y,1/2+z
x,1/2-y,1/2+z
loop_
_atom_site_type_symbol
_atom_site_label
_atom_site_fract_x
_atom_site_fract_y
_atom_site_fract_z
Si Si1 0.921635 0.669560 0.082880
Si Si2 0.920185 0.673540 0.449330
Si Si3 0.578505 0.330293 0.215202
Si Si4 0.718391 0.172759 0.782482
Si Si5 0.295779 0.325472 0.028508
Si Si6 0.786958 0.827142 0.652555
Si Si7 0.788346 0.174584 0.401774
Si Si8 0.579934 0.827751 0.082483
O O1 0.908824 0.500000 0.060407
O O2 0.869117 0.710412 0.141251
O O3 0.000000 0.692782 0.109756
O O4 0.906463 0.771814 0.021867
O O5 0.906652 0.500000 0.446706
O O6 0.865984 0.753399 0.401058
O O7 0.000000 0.712379 0.428172
O O8 0.500000 0.293408 0.241161
O O9 0.583901 0.500000 0.192610
O O10 0.635148 0.299541 0.271436
O O11 0.597837 0.233433 0.153342
O O12 0.760789 0.237425 0.720545
O O13 0.742401 0.267411 0.842861
O O14 0.734349 0.000000 0.794679
O O15 0.305550 0.500000 0.029210
O O16 0.251892 0.275683 0.966346
O O17 0.255875 0.263560 0.091740
O O18 0.372136 0.249572 0.028124
O O19 0.772561 0.000000 0.655134
O O20 0.796883 0.000000 0.396629
O O21 0.500000 0.792084 0.063843
O O22 0.595583 0.000000 0.082965
#
# Coordination Sequence:
#
# PCOD8178655 Si02
#       8
#     8   8   8   8   8   8   8   8
#     4   9  16  29  52  80 109 141 178 221 266 312
#     4  10  20  34  54  81 110 140 177 220 267 319
#     4   9  17  32  55  79 104 142 186 220 261 323
#     4  10  20  35  54  77 110 145 179 224 270 317
#     4  10  19  35  56  77 103 139 182 222 262 319
#     4   9  16  31  53  78 105 137 179 220 259 311
#     4  11  23  38  56  79 109 144 182 223 268 321
#     4  10  20  32  50  81 114 139 171 223 278 320
#
# _framework density 17.918392999999998
#
# number of rings (size 3 to 8) (size 9 to 14) (size 15 to 20)
#    0.000    2.250    2.500    1.125    0.000    3.000 
#    0.000    1.875    0.000    4.500    0.000    0.000 
#    0.000    0.000    0.000    0.000    0.000    0.000 
#
# Total GULP energy -396755.385055 kJ/mol
# GULP energy per Si atom -12398.605783 kJ/mol
# Density = 1.787761 g / cm^3
# Si number density = 17.918393 Si / 1000 Ang^3
#
#
#
# Elastic Constant Matrix: (Units=GPa)
#
#
# Indices 1 2 3 4 5 6 
#
# 1 139.6404 49.8427 61.4869 0.0000 0.0000 0.0000
# 2 49.8427 58.5287 39.2063 0.0000 0.0000 0.0000
# 3 61.4869 39.2063 92.9246 0.0000 0.0000 0.0000
# 4 0.0000 0.0000 0.0000 26.1848 0.0000 0.0000
# 5 0.0000 0.0000 0.0000 0.0000 28.5163 0.0000
# 6 0.0000 0.0000 0.0000 0.0000 0.0000 25.5941
#
#
#
# Elastic Compliance Matrix: (Units=1/GPa)
#
#
# Indices 1 2 3 4 5 6 
#
# 1 0.011716 -0.006669 -0.004939 0.000000 0.000000 0.000000
# 2 -0.006669 0.027613 -0.007237 0.000000 0.000000 0.000000
# 3 -0.004939 -0.007237 0.017083 0.000000 0.000000 0.000000
# 4 0.000000 0.000000 0.000000 0.038190 0.000000 0.000000
# 5 0.000000 0.000000 0.000000 0.000000 0.035068 0.000000
# 6 0.000000 0.000000 0.000000 0.000000 0.000000 0.039072
#
#
# Mechanical properties :
#
#
# Convention : Reuss Voigt Hill
#
# Bulk Modulus (GPa) = 53.41426 65.79617 59.60522
# Shear Modulus (GPa) = 23.51021 25.42954 24.46988
#
# Velocity S-wave (km/s) = 3.62618 3.77130 3.69945
# Velocity P-wave (km/s) = 6.88525 7.46748 7.18227
#
# Compressibility (1/GPa) = 0.01872159
#
# Stress axis : x y z
#
# Youngs Moduli (GPa) = 85.35045 36.21433 58.53826
#
# Poissons Ratio (x) = 0.24153 0.28910
# Poissons Ratio (y) = 0.56924 0.42367
# Poissons Ratio (z) = 0.42152 0.26210
#
# Static dielectric constant tensor:
#      x y z
#    x 3.655820 0.000000 0.000000 
#    y 0.000000 3.195650 0.000000 
#    z 0.000000 0.000000 3.091450 
# 
# 
# High freq. dielectric constant tensor:
#      x y z
#    x 1.713150 0.000000 0.000000 
#    y 0.000000 1.681040 0.000000 
#    z 0.000000 0.000000 1.660360 
# 
# From -- ./inp_files/18962.got.cif
#   From: 2010.03.12/outbox.cif.g09.slc.cpg/sg38_10_cif.got.tgz:18962.got - 2010.04.14 02:38:36.
