data_PCOD8178191
_publ_section_title
;
Structure prediction by ZEFSAII (Michael W. Deem and Ramdas Pophale) SiO2 
 PCOD8178191
Probable space group: A M M 2
;
_chemical_formula_sum "Si O2"
_cell_formula_units_Z 64
_cell_length_a 9.357354
_cell_length_b 28.446527
_cell_length_c 12.759967
_cell_angle_alpha 90.000000
_cell_angle_beta 90.000000
_cell_angle_gamma 90.000000
_cell_volume 3396.501904
_symmetry_space_group_name_H-M "A M M 2"
_symmetry_group_IT_number 38
_symmetry_cell_setting 'orthorhombic'
loop_
_space_group_symop_operation_xyz
x,y,z
-x,-y,z
-x,y,z
x,-y,z
x,1/2+y,1/2+z
-x,1/2-y,1/2+z
-x,1/2+y,1/2+z
x,1/2-y,1/2+z
loop_
_atom_site_type_symbol
_atom_site_label
_atom_site_fract_x
_atom_site_fract_y
_atom_site_fract_z
Si Si1 0.339952 0.923055 0.456430
Si Si2 0.832862 0.108449 0.069636
Si Si3 0.835166 0.199487 0.180711
Si Si4 0.835363 0.203194 0.579602
Si Si5 0.832411 0.900216 0.651585
Si Si6 0.659441 0.816519 0.386756
Si Si7 0.169935 0.553918 0.368577
Si Si8 0.840517 0.948007 0.264563
O O1 0.500000 0.943471 0.469779
O O2 0.254192 0.929348 0.564631
O O3 0.345673 0.869343 0.424773
O O4 0.257789 0.950868 0.366526
O O5 0.802471 0.164485 0.081746
O O6 0.769965 0.084294 0.174645
O O7 0.000000 0.097443 0.065816
O O8 0.765594 0.084974 0.965062
O O9 0.799629 0.253061 0.153727
O O10 0.737759 0.185086 0.276794
O O11 0.000000 0.193556 0.214056
O O12 0.797200 0.155490 0.642528
O O13 0.744861 0.212120 0.474764
O O14 0.000000 0.202940 0.545090
O O15 0.779153 0.919751 0.763235
O O16 0.000000 0.909584 0.634466
O O17 0.500000 0.795597 0.375495
O O18 0.227387 0.500000 0.372771
O O19 0.000000 0.553560 0.372321
O O20 0.000000 0.929583 0.295369
O O21 0.851026 0.000000 0.216702
#
# Coordination Sequence:
#
# PCOD8178191 Si02
#       8
#     8   8   8   8   8   8   8   8
#     4  10  20  34  52  74 102 138 175 216 267 318
#     4   9  17  30  50  77 107 135 168 215 266 317
#     4  10  19  32  54  80 105 137 176 221 271 322
#     4   9  19  33  51  77 105 138 177 221 271 320
#     4   9  18  33  53  76 105 137 174 220 265 315
#     4  10  20  34  52  73 103 141 175 216 269 323
#     4   9  17  30  50  76 105 136 172 217 267 317
#     4  10  19  31  51  78 105 134 170 214 265 319
#
# _framework density 18.842915999999999
#
# number of rings (size 3 to 8) (size 9 to 14) (size 15 to 20)
#    0.000    2.500    1.250    1.125    0.000    4.750 
#    0.000    5.000    0.000    1.500    0.000    0.000 
#    0.000    0.000    0.000    0.000    0.000    0.000 
#
# Total GULP energy -396674.823247 kJ/mol
# GULP energy per Si atom -12396.088226 kJ/mol
# Density = 1.880003 g / cm^3
# Si number density = 18.842916 Si / 1000 Ang^3
#
#
#
# Elastic Constant Matrix: (Units=GPa)
#
#
# Indices 1 2 3 4 5 6 
#
# 1 65.8760 20.8781 48.7867 0.0000 0.0000 0.0000
# 2 20.8781 80.2564 47.9869 0.0000 0.0000 0.0000
# 3 48.7867 47.9869 145.4706 0.0000 0.0000 0.0000
# 4 0.0000 0.0000 0.0000 20.6572 0.0000 0.0000
# 5 0.0000 0.0000 0.0000 0.0000 2.7565 0.0000
# 6 0.0000 0.0000 0.0000 0.0000 0.0000 9.8256
#
#
#
# Elastic Compliance Matrix: (Units=1/GPa)
#
#
# Indices 1 2 3 4 5 6 
#
# 1 0.020342 -0.001511 -0.006324 0.000000 0.000000 0.000000
# 2 -0.001511 0.015634 -0.004650 0.000000 0.000000 0.000000
# 3 -0.006324 -0.004650 0.010529 0.000000 0.000000 0.000000
# 4 0.000000 0.000000 0.000000 0.048409 0.000000 0.000000
# 5 0.000000 0.000000 0.000000 0.000000 0.362780 0.000000
# 6 0.000000 0.000000 0.000000 0.000000 0.000000 0.101775
#
#
# Mechanical properties :
#
#
# Convention : Reuss Voigt Hill
#
# Bulk Modulus (GPa) = 46.43623 58.54518 52.49070
# Shear Modulus (GPa) = 8.45141 18.24462 13.34801
#
# Velocity S-wave (km/s) = 2.12012 3.11504 2.66444
# Velocity P-wave (km/s) = 5.53991 6.63894 6.11417
#
# Compressibility (1/GPa) = 0.02153491
#
# Stress axis : x y z
#
# Youngs Moduli (GPa) = 49.15901 63.96441 94.97445
#
# Poissons Ratio (x) = 0.09663 0.60060
# Poissons Ratio (y) = 0.07427 0.44168
# Poissons Ratio (z) = 0.31087 0.29747
#
# Static dielectric constant tensor:
#      x y z
#    x 3.342790 0.000000 0.000000 
#    y 0.000000 3.539410 0.000000 
#    z 0.000000 0.000000 3.510920 
# 
# 
# High freq. dielectric constant tensor:
#      x y z
#    x 1.696810 0.000000 0.000000 
#    y 0.000000 1.733840 0.000000 
#    z 0.000000 0.000000 1.730330 
# 
# From -- ./inp_files/8603.got.cif
#   From: 2010.03.12/outbox.cif.g09.slc.cpg/sg38_5_cif.got.tgz:8603.got - 2010.04.14 02:38:36.
