data_PCOD8178223
_publ_section_title
;
Structure prediction by ZEFSAII (Michael W. Deem and Ramdas Pophale) SiO2 
 PCOD8178223
Probable space group: A M M 2
;
_chemical_formula_sum "Si O2"
_cell_formula_units_Z 64
_cell_length_a 8.493081
_cell_length_b 30.297100
_cell_length_c 14.517807
_cell_angle_alpha 90.000000
_cell_angle_beta 90.000000
_cell_angle_gamma 90.000000
_cell_volume 3735.660024
_symmetry_space_group_name_H-M "A M M 2"
_symmetry_group_IT_number 38
_symmetry_cell_setting 'orthorhombic'
loop_
_space_group_symop_operation_xyz
x,y,z
-x,-y,z
-x,y,z
x,-y,z
x,1/2+y,1/2+z
-x,1/2-y,1/2+z
-x,1/2+y,1/2+z
x,1/2-y,1/2+z
loop_
_atom_site_type_symbol
_atom_site_label
_atom_site_fract_x
_atom_site_fract_y
_atom_site_fract_z
Si Si1 0.317059 0.798079 0.664050
Si Si2 0.181133 0.048477 0.060935
Si Si3 0.817899 0.864405 0.798248
Si Si4 0.818909 0.224197 0.474483
Si Si5 0.180586 0.138141 0.132844
Si Si6 0.184253 0.286813 0.768807
Si Si7 0.678413 0.684134 0.467484
Si Si8 0.316182 0.549875 0.363761
O O1 0.500000 0.805740 0.681244
O O2 0.221011 0.840027 0.702650
O O3 0.283489 0.797592 0.555058
O O4 0.269316 0.752087 0.712809
O O5 0.208037 0.085060 0.141694
O O6 0.000000 0.048716 0.029266
O O7 0.229289 0.000000 0.099498
O O8 0.280698 0.060620 0.970453
O O9 0.708956 0.841530 0.873884
O O10 0.775575 0.916428 0.796122
O O11 0.000000 0.858195 0.822810
O O12 0.755991 0.209244 0.373933
O O13 0.802249 0.276674 0.479346
O O14 0.000000 0.211077 0.489449
O O15 0.222110 0.165250 0.224973
O O16 0.000000 0.147909 0.104540
O O17 0.298317 0.151986 0.052784
O O18 0.000000 0.275236 0.767069
O O19 0.500000 0.702287 0.466901
O O20 0.500000 0.555902 0.346517
O O21 0.261535 0.500000 0.339905
#
# Coordination Sequence:
#
# PCOD8178223 Si02
#       8
#     8   8   8   8   8   8   8   8
#     4  12  24  36  53  76 103 134 174 221 263 308
#     4   9  17  29  47  72 103 138 173 210 256 310
#     4  12  23  36  53  74 103 142 180 215 257 314
#     4  11  22  37  53  71 101 139 177 216 261 310
#     4  10  19  32  50  73 102 139 178 213 254 310
#     4  10  21  35  53  73 100 137 176 214 259 314
#     4  12  22  31  48  75 105 137 175 217 258 302
#     4  10  20  33  50  75 107 137 169 213 261 310
#
# _framework density 17.132180999999999
#
# number of rings (size 3 to 8) (size 9 to 14) (size 15 to 20)
#    0.000    1.250    3.750    4.125    0.000    1.250 
#    0.000    0.000    0.000    0.000    0.000    0.875 
#    0.000    3.000    0.000    0.000    0.000    0.000 
#
# Total GULP energy -396741.948994 kJ/mol
# GULP energy per Si atom -12398.185906 kJ/mol
# Density = 1.709319 g / cm^3
# Si number density = 17.132181 Si / 1000 Ang^3
#
#
#
# Elastic Constant Matrix: (Units=GPa)
#
#
# Indices 1 2 3 4 5 6 
#
# 1 59.5492 21.4188 21.9956 0.0000 0.0000 0.0000
# 2 21.4188 126.9176 45.5280 0.0000 0.0000 0.0000
# 3 21.9956 45.5280 77.8845 0.0000 0.0000 0.0000
# 4 0.0000 0.0000 0.0000 4.9033 0.0000 0.0000
# 5 0.0000 0.0000 0.0000 0.0000 15.4141 0.0000
# 6 0.0000 0.0000 0.0000 0.0000 0.0000 20.0954
#
#
#
# Elastic Compliance Matrix: (Units=1/GPa)
#
#
# Indices 1 2 3 4 5 6 
#
# 1 0.019009 -0.001622 -0.004420 0.000000 0.000000 0.000000
# 2 -0.001622 0.010108 -0.005451 0.000000 0.000000 0.000000
# 3 -0.004420 -0.005451 0.017274 0.000000 0.000000 0.000000
# 4 0.000000 0.000000 0.000000 0.203944 0.000000 0.000000
# 5 0.000000 0.000000 0.000000 0.000000 0.064876 0.000000
# 6 0.000000 0.000000 0.000000 0.000000 0.000000 0.049763
#
#
# Mechanical properties :
#
#
# Convention : Reuss Voigt Hill
#
# Bulk Modulus (GPa) = 42.72577 49.13735 45.93156
# Shear Modulus (GPa) = 12.63387 19.77648 16.20517
#
# Velocity S-wave (km/s) = 2.71852 3.40125 3.07887
# Velocity P-wave (km/s) = 5.90312 6.64592 6.28550
#
# Compressibility (1/GPa) = 0.02340508
#
# Stress axis : x y z
#
# Youngs Moduli (GPa) = 52.60664 98.92971 57.89049
#
# Poissons Ratio (x) = 0.16051 0.25588
# Poissons Ratio (y) = 0.08535 0.31554
# Poissons Ratio (z) = 0.23252 0.53923
#
# Static dielectric constant tensor:
#      x y z
#    x 3.187880 0.000000 0.000000 
#    y 0.000000 3.458470 0.000000 
#    z 0.000000 0.000000 3.126220 
# 
# 
# High freq. dielectric constant tensor:
#      x y z
#    x 1.668420 0.000000 0.000000 
#    y 0.000000 1.655290 0.000000 
#    z 0.000000 0.000000 1.628070 
# 
# From -- ./inp_files/13104.got.cif
#   From: 2010.03.12/outbox.cif.g09.slc.cpg/sg38_7_cif.got.tgz:13104.got - 2010.04.14 02:38:36.
