data_PCOD8178609
_publ_section_title
;
Structure prediction by ZEFSAII (Michael W. Deem and Ramdas Pophale) SiO2 
 PCOD8178609
Probable space group: A M M 2
;
_chemical_formula_sum "Si O2"
_cell_formula_units_Z 48
_cell_length_a 8.842603
_cell_length_b 20.530712
_cell_length_c 14.486032
_cell_angle_alpha 90.000000
_cell_angle_beta 90.000000
_cell_angle_gamma 90.000000
_cell_volume 2629.865745
_symmetry_space_group_name_H-M "A M M 2"
_symmetry_group_IT_number 38
_symmetry_cell_setting 'orthorhombic'
loop_
_space_group_symop_operation_xyz
x,y,z
-x,-y,z
-x,y,z
x,-y,z
x,1/2+y,1/2+z
-x,1/2-y,1/2+z
-x,1/2+y,1/2+z
x,1/2-y,1/2+z
loop_
_atom_site_type_symbol
_atom_site_label
_atom_site_fract_x
_atom_site_fract_y
_atom_site_fract_z
Si Si1 0.179318 0.624111 0.775920
Si Si2 0.180024 0.428310 0.968096
Si Si3 0.823279 0.074832 0.080653
Si Si4 0.823278 0.228007 0.786035
Si Si5 0.678233 0.312506 0.470846
Si Si6 0.177097 0.305747 0.081130
O O1 0.243540 0.587270 0.865831
O O2 0.239119 0.589057 0.683722
O O3 0.236078 0.698264 0.777886
O O4 0.000000 0.621827 0.776810
O O5 0.239072 0.500000 0.998053
O O6 0.000000 0.427519 0.966515
O O7 0.238945 0.373690 0.039347
O O8 0.000000 0.092582 0.074563
O O9 0.793153 0.000000 0.055644
O O10 0.733324 0.118123 0.008003
O O11 0.732018 0.191757 0.865488
O O12 0.788811 0.192038 0.689773
O O13 0.000000 0.226205 0.810853
O O14 0.500000 0.309137 0.474690
O O15 0.742469 0.254513 0.532868
O O16 0.000000 0.296576 0.061389
#
# Coordination Sequence:
#
# PCOD8178609 Si02
#       6
#     8   8   8   8   8   8
#     4   9  15  27  53  85 113 136 168 224 280 331
#     4   9  16  27  49  83 113 134 165 217 279 331
#     4  10  20  36  59  86 114 146 188 234 283 337
#     4  10  19  34  57  81 108 142 187 234 275 325
#     4  12  24  36  54  80 115 151 187 229 278 343
#     4  10  19  35  58  81 107 143 186 233 278 327
#
# _framework density 18.251882999999999
#
# number of rings (size 3 to 8) (size 9 to 14) (size 15 to 20)
#    0.000    2.000    3.333    2.000    0.000    3.000 
#    0.000    0.833    0.000    3.500    0.000    0.000 
#    0.000    0.000    0.000    0.000    0.000    0.000 
#
# Total GULP energy -297600.831398 kJ/mol
# GULP energy per Si atom -12400.034642 kJ/mol
# Density = 1.821034 g / cm^3
# Si number density = 18.251883 Si / 1000 Ang^3
#
#
#
# Elastic Constant Matrix: (Units=GPa)
#
#
# Indices 1 2 3 4 5 6 
#
# 1 56.8709 39.9622 49.8525 0.0000 0.0000 0.0000
# 2 39.9622 138.9628 73.7813 0.0000 0.0000 0.0000
# 3 49.8525 73.7813 131.0367 0.0000 0.0000 0.0000
# 4 0.0000 0.0000 0.0000 33.1437 0.0000 0.0000
# 5 0.0000 0.0000 0.0000 0.0000 7.6839 0.0000
# 6 0.0000 0.0000 0.0000 0.0000 0.0000 8.3589
#
#
#
# Elastic Compliance Matrix: (Units=1/GPa)
#
#
# Indices 1 2 3 4 5 6 
#
# 1 0.027433 -0.003349 -0.008551 0.000000 0.000000 0.000000
# 2 -0.003349 0.010674 -0.004736 0.000000 0.000000 0.000000
# 3 -0.008551 -0.004736 0.013551 0.000000 0.000000 0.000000
# 4 0.000000 0.000000 0.000000 0.030172 0.000000 0.000000
# 5 0.000000 0.000000 0.000000 0.000000 0.130143 0.000000
# 6 0.000000 0.000000 0.000000 0.000000 0.000000 0.119632
#
#
# Mechanical properties :
#
#
# Convention : Reuss Voigt Hill
#
# Bulk Modulus (GPa) = 54.38905 72.67364 63.53134
# Shear Modulus (GPa) = 13.47691 20.72225 17.09958
#
# Velocity S-wave (km/s) = 2.72027 3.37315 3.06415
# Velocity P-wave (km/s) = 6.30320 7.42121 6.88494
#
# Compressibility (1/GPa) = 0.01838605
#
# Stress axis : x y z
#
# Youngs Moduli (GPa) = 36.45292 93.68846 73.79390
#
# Poissons Ratio (x) = 0.31374 0.63102
# Poissons Ratio (y) = 0.12207 0.34948
# Poissons Ratio (z) = 0.31171 0.44370
#
# Static dielectric constant tensor:
#      x y z
#    x 2.928140 0.000000 0.000000 
#    y 0.000000 3.526960 0.000000 
#    z 0.000000 0.000000 3.532860 
# 
# 
# High freq. dielectric constant tensor:
#      x y z
#    x 1.659890 0.000000 0.000000 
#    y 0.000000 1.710800 0.000000 
#    z 0.000000 0.000000 1.714270 
# 
# From -- ./inp_files/12037.got.cif
#   From: 2010.03.12/outbox.cif.g09.slc.cpg/sg38_7_cif.got.tgz:12037.got - 2010.04.14 02:38:36.
