data_PCOD8178329
_publ_section_title
;
Structure prediction by ZEFSAII (Michael W. Deem and Ramdas Pophale) SiO2 
 PCOD8178329
Probable space group: A M M 2
;
_chemical_formula_sum "Si O2"
_cell_formula_units_Z 64
_cell_length_a 9.206056
_cell_length_b 24.787137
_cell_length_c 15.171166
_cell_angle_alpha 90.000000
_cell_angle_beta 90.000000
_cell_angle_gamma 90.000000
_cell_volume 3461.935242
_symmetry_space_group_name_H-M "A M M 2"
_symmetry_group_IT_number 38
_symmetry_cell_setting 'orthorhombic'
loop_
_space_group_symop_operation_xyz
x,y,z
-x,-y,z
-x,y,z
x,-y,z
x,1/2+y,1/2+z
-x,1/2-y,1/2+z
-x,1/2+y,1/2+z
x,1/2-y,1/2+z
loop_
_atom_site_type_symbol
_atom_site_label
_atom_site_fract_x
_atom_site_fract_y
_atom_site_fract_z
Si Si1 0.664340 0.243367 0.169360
Si Si2 0.668708 0.863389 0.077161
Si Si3 0.171919 0.561984 0.711812
Si Si4 0.171922 0.112810 0.394419
Si Si5 0.827335 0.850060 0.707594
Si Si6 0.337177 0.217195 0.368739
Si Si7 0.827514 0.940256 0.572496
Si Si8 0.668473 0.162190 0.884037
O O1 0.500000 0.262583 0.148802
O O2 0.717019 0.197682 0.101006
O O3 0.769018 0.294851 0.164517
O O4 0.672951 0.214998 0.263696
O O5 0.500000 0.871040 0.101357
O O6 0.760407 0.907620 0.128671
O O7 0.696118 0.871992 0.972724
O O8 0.220818 0.500000 0.707570
O O9 0.230379 0.586924 0.803534
O O10 0.000000 0.567895 0.705881
O O11 0.230724 0.172967 0.409133
O O12 0.228461 0.076960 0.475802
O O13 0.000000 0.116023 0.393259
O O14 0.772144 0.899131 0.646921
O O15 0.764523 0.861413 0.804920
O O16 0.000000 0.846410 0.713188
O O17 0.500000 0.204268 0.401062
O O18 0.287542 0.275823 0.402829
O O19 0.000000 0.940622 0.572016
O O20 0.766560 0.000000 0.593560
O O21 0.500000 0.160474 0.854471
#
# Coordination Sequence:
#
# PCOD8178329 Si02
#       8
#     8   8   8   8   8   8   8   8
#     4   9  18  33  53  76 107 143 174 212 265 320
#     4  10  20  36  57  79 105 145 188 220 262 322
#     4  10  21  36  54  79 112 145 177 222 276 320
#     4  10  19  32  53  79 106 141 178 214 259 316
#     4  10  20  34  55  81 106 137 181 227 270 315
#     4   9  17  31  50  75 107 139 171 209 259 314
#     4   9  19  36  55  76 105 141 181 221 266 322
#     4   9  20  37  55  76 108 146 179 217 270 325
#
# _framework density 18.486768999999999
#
# number of rings (size 3 to 8) (size 9 to 14) (size 15 to 20)
#    0.000    2.500    1.250    1.500    1.750    4.750 
#    0.000    1.250    0.000    6.375    0.000    0.000 
#    0.000    0.000    0.000    0.000    0.000    0.000 
#
# Total GULP energy -396779.492767 kJ/mol
# GULP energy per Si atom -12399.359149 kJ/mol
# Density = 1.844469 g / cm^3
# Si number density = 18.486769 Si / 1000 Ang^3
#
#
#
# Elastic Constant Matrix: (Units=GPa)
#
#
# Indices 1 2 3 4 5 6 
#
# 1 44.4820 39.7326 35.4460 0.0000 0.0000 0.0000
# 2 39.7326 120.0990 67.0845 0.0000 0.0000 0.0000
# 3 35.4460 67.0845 105.6098 0.0000 0.0000 0.0000
# 4 0.0000 0.0000 0.0000 29.3338 0.0000 0.0000
# 5 0.0000 0.0000 0.0000 0.0000 19.6804 0.0000
# 6 0.0000 0.0000 0.0000 0.0000 0.0000 14.9286
#
#
#
# Elastic Compliance Matrix: (Units=1/GPa)
#
#
# Indices 1 2 3 4 5 6 
#
# 1 0.034771 -0.007726 -0.006763 0.000000 0.000000 0.000000
# 2 -0.007726 0.014622 -0.006695 0.000000 0.000000 0.000000
# 3 -0.006763 -0.006695 0.015991 0.000000 0.000000 0.000000
# 4 0.000000 0.000000 0.000000 0.034090 0.000000 0.000000
# 5 0.000000 0.000000 0.000000 0.000000 0.050812 0.000000
# 6 0.000000 0.000000 0.000000 0.000000 0.000000 0.066985
#
#
# Mechanical properties :
#
#
# Convention : Reuss Voigt Hill
#
# Bulk Modulus (GPa) = 43.44583 61.63523 52.54053
# Shear Modulus (GPa) = 18.70475 21.31708 20.01092
#
# Velocity S-wave (km/s) = 3.18432 3.39942 3.29362
# Velocity P-wave (km/s) = 6.08867 6.98717 6.55334
#
# Compressibility (1/GPa) = 0.02301717
#
# Stress axis : x y z
#
# Youngs Moduli (GPa) = 28.75969 68.38938 62.53364
#
# Poissons Ratio (x) = 0.52837 0.42289
# Poissons Ratio (y) = 0.22219 0.41867
# Poissons Ratio (z) = 0.19449 0.45787
#
# Static dielectric constant tensor:
#      x y z
#    x 3.162430 0.000000 0.000000 
#    y 0.000000 3.378510 0.000000 
#    z 0.000000 0.000000 3.489610 
# 
# 
# High freq. dielectric constant tensor:
#      x y z
#    x 1.695070 0.000000 0.000000 
#    y 0.000000 1.708620 0.000000 
#    z 0.000000 0.000000 1.722350 
# 
# From -- ./inp_files/12821.got.cif
#   From: 2010.03.12/outbox.cif.g09.slc.cpg/sg38_7_cif.got.tgz:12821.got - 2010.04.14 02:38:36.
