data_PCOD8178930
_publ_section_title
;
Structure prediction by ZEFSAII (Michael W. Deem and Ramdas Pophale) SiO2 
 PCOD8178930
Probable space group: A M M 2
;
_chemical_formula_sum "Si O2"
_cell_formula_units_Z 40
_cell_length_a 7.840253
_cell_length_b 7.659113
_cell_length_c 32.493551
_cell_angle_alpha 90.000000
_cell_angle_beta 90.000000
_cell_angle_gamma 90.000000
_cell_volume 1951.217711
_symmetry_space_group_name_H-M "A M M 2"
_symmetry_group_IT_number 38
_symmetry_cell_setting 'orthorhombic'
loop_
_space_group_symop_operation_xyz
x,y,z
-x,-y,z
-x,y,z
x,-y,z
x,1/2+y,1/2+z
-x,1/2-y,1/2+z
-x,1/2+y,1/2+z
x,1/2-y,1/2+z
loop_
_atom_site_type_symbol
_atom_site_label
_atom_site_fract_x
_atom_site_fract_y
_atom_site_fract_z
Si Si1 0.304884 0.500000 0.863821
Si Si2 0.695498 0.798596 0.799914
Si Si3 0.310249 0.292660 0.597241
Si Si4 0.000000 0.697857 0.648152
Si Si5 0.697598 0.689459 0.507075
Si Si6 0.000000 0.702142 0.239843
Si Si7 0.190129 0.500000 0.953664
O O1 0.500000 0.500000 0.878015
O O2 0.262867 0.325194 0.838345
O O3 0.191525 0.500000 0.904423
O O4 0.500000 0.767851 0.784632
O O5 0.827966 0.746321 0.764259
O O6 0.722781 0.000000 0.813483
O O7 0.500000 0.212801 0.605864
O O8 0.323698 0.500000 0.600706
O O9 0.173376 0.214489 0.630032
O O10 0.239045 0.241202 0.551661
O O11 0.000000 0.500000 0.632381
O O12 0.000000 0.696723 0.697261
O O13 0.500000 0.658261 0.512925
O O14 0.781658 0.500000 0.495954
O O15 0.724494 0.825100 0.470498
O O16 0.000000 0.500000 0.229307
O O17 0.000000 0.500000 0.970158
#
# Coordination Sequence:
#
# PCOD8178930 Si02
#       7
#     4   8   8   4   8   4   4
#     4  10  22  40  62  86 114 152 196 241 287 350
#     4   9  20  39  62  85 112 151 193 237 292 349
#     4   8  16  33  55  79 110 151 198 239 287 346
#     4  10  20  32  54  84 111 147 184 240 295 343
#     4   9  19  39  63  81 111 163 207 247 293 343
#     4  10  22  38  56  82 115 151 186 235 292 358
#     4  12  26  36  54  96 128 154 194 250 298 361
#
# _framework density 20.500018000000001
#
# number of rings (size 3 to 8) (size 9 to 14) (size 15 to 20)
#    0.000    2.600    0.000    2.100    4.200    2.000 
#    1.800    2.000    0.000    0.000    0.000    0.000 
#    0.000    0.000    0.000    0.000    0.000    0.000 
#
# Total GULP energy -247872.922643 kJ/mol
# GULP energy per Si atom -12393.646132 kJ/mol
# Density = 2.045336 g / cm^3
# Si number density = 20.500018 Si / 1000 Ang^3
#
#
#
# Elastic Constant Matrix: (Units=GPa)
#
#
# Indices 1 2 3 4 5 6 
#
# 1 108.4751 29.3479 63.1124 0.0000 0.0000 0.0000
# 2 29.3479 82.3682 50.3588 0.0000 0.0000 0.0000
# 3 63.1124 50.3588 142.4787 0.0000 0.0000 0.0000
# 4 0.0000 0.0000 0.0000 15.5236 0.0000 0.0000
# 5 0.0000 0.0000 0.0000 0.0000 34.2640 0.0000
# 6 0.0000 0.0000 0.0000 0.0000 0.0000 9.7852
#
#
#
# Elastic Compliance Matrix: (Units=1/GPa)
#
#
# Indices 1 2 3 4 5 6 
#
# 1 0.012539 -0.001367 -0.005071 0.000000 0.000000 0.000000
# 2 -0.001367 0.015636 -0.004921 0.000000 0.000000 0.000000
# 3 -0.005071 -0.004921 0.011004 0.000000 0.000000 0.000000
# 4 0.000000 0.000000 0.000000 0.064418 0.000000 0.000000
# 5 0.000000 0.000000 0.000000 0.000000 0.029185 0.000000
# 6 0.000000 0.000000 0.000000 0.000000 0.000000 0.102195
#
#
# Mechanical properties :
#
#
# Convention : Reuss Voigt Hill
#
# Bulk Modulus (GPa) = 60.74983 68.77337 64.76160
# Shear Modulus (GPa) = 18.99814 24.61474 21.80644
#
# Velocity S-wave (km/s) = 3.04754 3.46890 3.26502
# Velocity P-wave (km/s) = 6.48704 7.04735 6.77299
#
# Compressibility (1/GPa) = 0.01646095
#
# Stress axis : x y z
#
# Youngs Moduli (GPa) = 79.75099 63.95326 90.87467
#
# Poissons Ratio (x) = 0.08744 0.46083
# Poissons Ratio (y) = 0.10905 0.44719
# Poissons Ratio (z) = 0.40442 0.31471
#
# Static dielectric constant tensor:
#      x y z
#    x 3.948390 0.000000 0.000000 
#    y 0.000000 3.502930 0.000000 
#    z 0.000000 0.000000 3.478630 
# 
# 
# High freq. dielectric constant tensor:
#      x y z
#    x 1.808060 0.000000 0.000000 
#    y 0.000000 1.792350 0.000000 
#    z 0.000000 0.000000 1.783360 
# 
# From -- ./inp_files/23304.got.cif
#   From: 2010.03.12/outbox.cif.g09.slc.cpg/sg38_12_cif.got.tgz:23304.got - 2010.04.14 02:38:36.
