data_PCOD8178128
_publ_section_title
;
Structure prediction by ZEFSAII (Michael W. Deem and Ramdas Pophale) SiO2 
 PCOD8178128
Probable space group: A M M 2
;
_chemical_formula_sum "Si O2"
_cell_formula_units_Z 64
_cell_length_a 9.017985
_cell_length_b 23.083945
_cell_length_c 18.933086
_cell_angle_alpha 90.000000
_cell_angle_beta 90.000000
_cell_angle_gamma 90.000000
_cell_volume 3941.313193
_symmetry_space_group_name_H-M "A M M 2"
_symmetry_group_IT_number 38
_symmetry_cell_setting 'orthorhombic'
loop_
_space_group_symop_operation_xyz
x,y,z
-x,-y,z
-x,y,z
x,-y,z
x,1/2+y,1/2+z
-x,1/2-y,1/2+z
-x,1/2+y,1/2+z
x,1/2-y,1/2+z
loop_
_atom_site_type_symbol
_atom_site_label
_atom_site_fract_x
_atom_site_fract_y
_atom_site_fract_z
Si Si1 0.827310 0.729738 0.775280
Si Si2 0.671943 0.332319 0.658291
Si Si3 0.329316 0.065845 0.059906
Si Si4 0.329077 0.567810 0.284469
Si Si5 0.825162 0.611565 0.424665
Si Si6 0.175475 0.342964 0.190166
Si Si7 0.674247 0.220171 0.569794
Si Si8 0.826197 0.754672 0.932372
O O1 0.751634 0.677036 0.733252
O O2 0.778140 0.791632 0.743728
O O3 0.782032 0.727229 0.857097
O O4 0.000000 0.721791 0.765059
O O5 0.500000 0.331187 0.675006
O O6 0.721947 0.393287 0.624524
O O7 0.716623 0.282064 0.603429
O O8 0.500000 0.079735 0.039109
O O9 0.310963 0.000000 0.085617
O O10 0.225666 0.076202 0.992931
O O11 0.500000 0.587154 0.286103
O O12 0.312452 0.500000 0.271677
O O13 0.255272 0.584592 0.357952
O O14 0.245898 0.598357 0.219610
O O15 0.779344 0.678269 0.433409
O O16 0.000000 0.604832 0.413454
O O17 0.243927 0.330375 0.113220
O O18 0.000000 0.350072 0.183798
O O19 0.500000 0.208300 0.570310
O O20 0.733947 0.219270 0.490111
O O21 0.000000 0.748090 0.948003
#
# Coordination Sequence:
#
# PCOD8178128 Si02
#       8
#     8   8   8   8   8   8   8   8
#     4   9  18  32  49  69  95 126 159 199 248 293
#     4   9  18  31  46  69  94 123 162 200 241 289
#     4  10  20  34  49  67  97 134 169 205 244 288
#     4  11  23  36  50  70  99 135 172 209 247 289
#     4  11  21  33  48  69  99 134 172 208 241 287
#     4  10  19  34  52  72  97 129 165 205 249 294
#     4  10  19  31  49  73  98 127 162 201 246 296
#     4  10  19  32  48  71  99 130 163 198 245 295
#
# _framework density 16.238242
#
# number of rings (size 3 to 8) (size 9 to 14) (size 15 to 20)
#    0.000    2.000    2.500    1.875    0.000    5.250 
#    0.000    0.000    0.000    0.000    0.000    0.875 
#    0.000    3.000    0.000    0.000    0.000    0.000 
#
# Total GULP energy -396897.018319 kJ/mol
# GULP energy per Si atom -12403.031822 kJ/mol
# Density = 1.620128 g / cm^3
# Si number density = 16.238242 Si / 1000 Ang^3
#
#
#
# Elastic Constant Matrix: (Units=GPa)
#
#
# Indices 1 2 3 4 5 6 
#
# 1 74.9011 41.9710 53.3304 0.0000 0.0000 0.0000
# 2 41.9710 77.1364 57.2337 0.0000 0.0000 0.0000
# 3 53.3304 57.2337 114.9133 0.0000 0.0000 0.0000
# 4 0.0000 0.0000 0.0000 13.1059 0.0000 0.0000
# 5 0.0000 0.0000 0.0000 0.0000 31.1282 0.0000
# 6 0.0000 0.0000 0.0000 0.0000 0.0000 22.6257
#
#
#
# Elastic Compliance Matrix: (Units=1/GPa)
#
#
# Indices 1 2 3 4 5 6 
#
# 1 0.022091 -0.007000 -0.006766 0.000000 0.000000 0.000000
# 2 -0.007000 0.022781 -0.008098 0.000000 0.000000 0.000000
# 3 -0.006766 -0.008098 0.015875 0.000000 0.000000 0.000000
# 4 0.000000 0.000000 0.000000 0.076301 0.000000 0.000000
# 5 0.000000 0.000000 0.000000 0.000000 0.032125 0.000000
# 6 0.000000 0.000000 0.000000 0.000000 0.000000 0.044197
#
#
# Mechanical properties :
#
#
# Convention : Reuss Voigt Hill
#
# Bulk Modulus (GPa) = 58.75313 63.55790 61.15551
# Shear Modulus (GPa) = 19.02797 20.99970 20.01384
#
# Velocity S-wave (km/s) = 3.42687 3.60005 3.51452
# Velocity P-wave (km/s) = 7.20544 7.51707 7.36290
#
# Compressibility (1/GPa) = 0.01702037
#
# Stress axis : x y z
#
# Youngs Moduli (GPa) = 45.26827 43.89603 62.99059
#
# Poissons Ratio (x) = 0.30726 0.42618
# Poissons Ratio (y) = 0.31686 0.51009
# Poissons Ratio (z) = 0.30628 0.35546
#
# Static dielectric constant tensor:
#      x y z
#    x 3.113530 0.000000 0.000000 
#    y 0.000000 2.960330 0.000000 
#    z 0.000000 0.000000 3.096520 
# 
# 
# High freq. dielectric constant tensor:
#      x y z
#    x 1.633870 0.000000 0.000000 
#    y 0.000000 1.598240 0.000000 
#    z 0.000000 0.000000 1.619080 
# 
# From -- ./inp_files/17186.got.cif
#   From: 2010.03.12/outbox.cif.g09.slc.cpg/sg38_9_cif.got.tgz:17186.got - 2010.04.14 02:38:36.
