data_PCOD8178220
_publ_section_title
;
Structure prediction by ZEFSAII (Michael W. Deem and Ramdas Pophale) SiO2 
 PCOD8178220
Probable space group: A M M 2
;
_chemical_formula_sum "Si O2"
_cell_formula_units_Z 48
_cell_length_a 9.681380
_cell_length_b 7.899029
_cell_length_c 34.080553
_cell_angle_alpha 90.000000
_cell_angle_beta 90.000000
_cell_angle_gamma 90.000000
_cell_volume 2606.259217
_symmetry_space_group_name_H-M "A M M 2"
_symmetry_group_IT_number 38
_symmetry_cell_setting 'orthorhombic'
loop_
_space_group_symop_operation_xyz
x,y,z
-x,-y,z
-x,y,z
x,-y,z
x,1/2+y,1/2+z
-x,1/2-y,1/2+z
-x,1/2+y,1/2+z
x,1/2-y,1/2+z
loop_
_atom_site_type_symbol
_atom_site_label
_atom_site_fract_x
_atom_site_fract_y
_atom_site_fract_z
Si Si1 0.153347 0.807535 0.635960
Si Si2 0.163216 0.000000 0.855881
Si Si3 0.656009 0.697593 0.984536
Si Si4 0.837985 0.694578 0.910585
Si Si5 0.343901 0.806802 0.068827
Si Si6 0.164061 0.686483 0.717889
Si Si7 0.834706 0.000000 0.767965
O O1 0.248098 0.798062 0.597809
O O2 0.217686 0.707669 0.673130
O O3 0.000000 0.738456 0.625331
O O4 0.143247 0.000000 0.649882
O O5 0.211501 0.826683 0.877289
O O6 0.225430 0.000000 0.812103
O O7 0.000000 0.000000 0.853552
O O8 0.500000 0.754444 0.973537
O O9 0.662658 0.500000 0.992887
O O10 0.757769 0.749351 0.949667
O O11 0.707689 0.789347 0.024044
O O12 0.802418 0.500000 0.898086
O O13 0.000000 0.713075 0.919220
O O14 0.500000 0.735942 0.071820
O O15 0.336118 0.000000 0.082033
O O16 0.209314 0.500000 0.733207
O O17 0.223928 0.831546 0.746507
O O18 0.000000 0.704180 0.716967
O O19 0.000000 0.000000 0.768231
#
# Coordination Sequence:
#
# PCOD8178220 Si02
#       7
#     8   4   8   8   8   8   4
#     4  10  19  32  50  72 100 132 170 213 254 299
#     4   9  18  30  47  71 101 133 165 205 251 299
#     4   9  18  33  51  70  94 126 165 206 248 294
#     4   9  18  32  49  71 100 131 163 202 249 300
#     4  10  21  34  48  71 101 131 168 212 253 301
#     4   9  16  27  45  69  99 133 166 204 247 293
#     4   9  16  28  44  69 101 131 165 203 249 303
#
# _framework density 18.417200999999999
#
# number of rings (size 3 to 8) (size 9 to 14) (size 15 to 20)
#    0.000    2.667    0.833    1.000    1.167    3.333 
#    0.000    5.000    0.000    0.000    0.000    2.333 
#    0.000    2.667    0.000    0.000    0.000    0.000 
#
# Total GULP energy -297517.975044 kJ/mol
# GULP energy per Si atom -12396.582294 kJ/mol
# Density = 1.837528 g / cm^3
# Si number density = 18.417201 Si / 1000 Ang^3
#
#
#
# Elastic Constant Matrix: (Units=GPa)
#
#
# Indices 1 2 3 4 5 6 
#
# 1 38.7859 22.8794 45.1974 0.0000 0.0000 0.0000
# 2 22.8794 109.7610 65.7737 0.0000 0.0000 0.0000
# 3 45.1974 65.7737 145.3183 0.0000 0.0000 0.0000
# 4 0.0000 0.0000 0.0000 29.0328 0.0000 0.0000
# 5 0.0000 0.0000 0.0000 0.0000 0.3721 0.0000
# 6 0.0000 0.0000 0.0000 0.0000 0.0000 13.8672
#
#
#
# Elastic Compliance Matrix: (Units=1/GPa)
#
#
# Indices 1 2 3 4 5 6 
#
# 1 0.040560 -0.001228 -0.012059 0.000000 0.000000 0.000000
# 2 -0.001228 0.012539 -0.005293 0.000000 0.000000 0.000000
# 3 -0.012059 -0.005293 0.013028 0.000000 0.000000 0.000000
# 4 0.000000 0.000000 0.000000 0.034444 0.000000 0.000000
# 5 0.000000 0.000000 0.000000 0.000000 2.687476 0.000000
# 6 0.000000 0.000000 0.000000 0.000000 0.000000 0.072112
#
#
# Mechanical properties :
#
#
# Convention : Reuss Voigt Hill
#
# Bulk Modulus (GPa) = 34.52424 62.39624 48.46024
# Shear Modulus (GPa) = 1.72000 19.32207 10.52104
#
# Velocity S-wave (km/s) = 0.96744 3.24254 2.39270
# Velocity P-wave (km/s) = 4.47596 6.92616 5.83121
#
# Compressibility (1/GPa) = 0.02896516
#
# Stress axis : x y z
#
# Youngs Moduli (GPa) = 24.65507 79.75340 76.75835
#
# Poissons Ratio (x) = 0.09795 0.92563
# Poissons Ratio (y) = 0.03028 0.40630
# Poissons Ratio (z) = 0.29732 0.42215
#
# Static dielectric constant tensor:
#      x y z
#    x 3.019880 0.000000 0.000000 
#    y 0.000000 3.529510 0.000000 
#    z 0.000000 0.000000 3.416090 
# 
# 
# High freq. dielectric constant tensor:
#      x y z
#    x 1.663310 0.000000 0.000000 
#    y 0.000000 1.727710 0.000000 
#    z 0.000000 0.000000 1.710710 
# 
# From -- ./inp_files/24311.got.cif
#   From: 2010.03.12/outbox.cif.g09.slc.cpg/sg38_13_cif.got.tgz:24311.got - 2010.04.14 02:38:36.
