data_PCOD8178628
_publ_section_title
;
Structure prediction by ZEFSAII (Michael W. Deem and Ramdas Pophale) SiO2 
 PCOD8178628
Probable space group: A M M 2
;
_chemical_formula_sum "Si O2"
_cell_formula_units_Z 64
_cell_length_a 18.842444
_cell_length_b 9.047843
_cell_length_c 20.080460
_cell_angle_alpha 90.000000
_cell_angle_beta 90.000000
_cell_angle_gamma 90.000000
_cell_volume 3423.386601
_symmetry_space_group_name_H-M "A M M 2"
_symmetry_group_IT_number 38
_symmetry_cell_setting 'orthorhombic'
loop_
_space_group_symop_operation_xyz
x,y,z
-x,-y,z
-x,y,z
x,-y,z
x,1/2+y,1/2+z
-x,1/2-y,1/2+z
-x,1/2+y,1/2+z
x,1/2-y,1/2+z
loop_
_atom_site_type_symbol
_atom_site_label
_atom_site_fract_x
_atom_site_fract_y
_atom_site_fract_z
Si Si1 0.841907 0.325941 0.563060
Si Si2 0.314655 0.674849 0.865942
Si Si3 0.918216 0.167626 0.451837
Si Si4 0.837334 0.675346 0.823004
Si Si5 0.919643 0.324358 0.696097
Si Si6 0.583509 0.332396 0.268355
Si Si7 0.579005 0.175834 0.620031
Si Si8 0.697938 0.324122 0.018122
O O1 0.828995 0.500000 0.559337
O O2 0.902651 0.277501 0.511927
O O3 0.872144 0.274785 0.633979
O O4 0.769196 0.243199 0.547876
O O5 0.319752 0.500000 0.866346
O O6 0.243988 0.729584 0.827384
O O7 0.381353 0.736224 0.826081
O O8 0.314510 0.731482 0.942508
O O9 0.875951 0.230873 0.389116
O O10 0.000000 0.171242 0.433189
O O11 0.893767 0.000000 0.469403
O O12 0.840675 0.500000 0.818803
O O13 0.878468 0.743048 0.759800
O O14 0.924356 0.500000 0.700078
O O15 0.000000 0.259841 0.692112
O O16 0.500000 0.322298 0.279285
O O17 0.610403 0.500000 0.275866
O O18 0.602689 0.271320 0.194187
O O19 0.500000 0.236751 0.603303
O O20 0.633177 0.234198 0.564006
O O21 0.576526 0.000000 0.620671
O O22 0.704517 0.500000 0.020668
#
# Coordination Sequence:
#
# PCOD8178628 Si02
#       8
#     8   8   8   8   8   8   8   8
#     4  11  22  34  51  77 109 142 175 216 265 319
#     4  10  20  33  53  80 110 138 172 220 264 306
#     4  10  19  34  58  80 101 136 179 220 262 308
#     4   9  17  32  51  76 106 135 172 217 260 308
#     4   9  18  32  50  73 102 137 176 216 261 313
#     4   9  19  36  56  79 108 141 176 211 254 315
#     4   8  16  33  57  81 104 137 178 216 259 312
#     4  10  20  36  56  79 107 138 177 222 260 308
#
# _framework density 18.694938
#
# number of rings (size 3 to 8) (size 9 to 14) (size 15 to 20)
#    0.000    2.500    1.250    1.875    1.750    3.500 
#    0.000    1.250    0.000    2.625    0.000    0.000 
#    0.000    0.000    0.000    0.000    0.000    0.000 
#
# Total GULP energy -396723.720422 kJ/mol
# GULP energy per Si atom -12397.616263 kJ/mol
# Density = 1.865239 g / cm^3
# Si number density = 18.694938 Si / 1000 Ang^3
#
#
#
# Elastic Constant Matrix: (Units=GPa)
#
#
# Indices 1 2 3 4 5 6 
#
# 1 101.4821 21.8879 66.7448 0.0000 0.0000 0.0000
# 2 21.8879 18.8141 26.1950 0.0000 0.0000 0.0000
# 3 66.7448 26.1950 146.7302 0.0000 0.0000 0.0000
# 4 0.0000 0.0000 0.0000 16.4089 0.0000 0.0000
# 5 0.0000 0.0000 0.0000 0.0000 41.9108 0.0000
# 6 0.0000 0.0000 0.0000 0.0000 0.0000 24.3480
#
#
#
# Elastic Compliance Matrix: (Units=1/GPa)
#
#
# Indices 1 2 3 4 5 6 
#
# 1 0.015604 -0.011006 -0.005133 0.000000 0.000000 0.000000
# 2 -0.011006 0.078497 -0.009007 0.000000 0.000000 0.000000
# 3 -0.005133 -0.009007 0.010758 0.000000 0.000000 0.000000
# 4 0.000000 0.000000 0.000000 0.060943 0.000000 0.000000
# 5 0.000000 0.000000 0.000000 0.000000 0.023860 0.000000
# 6 0.000000 0.000000 0.000000 0.000000 0.000000 0.041071
#
#
# Mechanical properties :
#
#
# Convention : Reuss Voigt Hill
#
# Bulk Modulus (GPa) = 18.32653 55.18687 36.75670
# Shear Modulus (GPa) = 16.71047 26.68012 21.69529
#
# Velocity S-wave (km/s) = 2.99298 3.78184 3.41029
# Velocity P-wave (km/s) = 4.66563 6.97520 5.93387
#
# Compressibility (1/GPa) = 0.05456571
#
# Stress axis : x y z
#
# Youngs Moduli (GPa) = 64.08692 12.73942 92.95340
#
# Poissons Ratio (x) = 0.14022 0.47713
# Poissons Ratio (y) = 0.70537 0.83723
# Poissons Ratio (z) = 0.32896 0.11474
#
# Static dielectric constant tensor:
#      x y z
#    x 3.593360 0.000000 0.000000 
#    y 0.000000 3.006970 0.000000 
#    z 0.000000 0.000000 3.699770 
# 
# 
# High freq. dielectric constant tensor:
#      x y z
#    x 1.737160 0.000000 0.000000 
#    y 0.000000 1.677680 0.000000 
#    z 0.000000 0.000000 1.738940 
# 
# From -- ./inp_files/18903.got.cif
#   From: 2010.03.12/outbox.cif.g09.slc.cpg/sg38_10_cif.got.tgz:18903.got - 2010.04.14 02:38:36.
