data_PCOD8178715
_publ_section_title
;
Structure prediction by ZEFSAII (Michael W. Deem and Ramdas Pophale) SiO2 
 PCOD8178715
Probable space group: A M M 2
;
_chemical_formula_sum "Si O2"
_cell_formula_units_Z 64
_cell_length_a 8.993133
_cell_length_b 24.709795
_cell_length_c 15.116474
_cell_angle_alpha 90.000000
_cell_angle_beta 90.000000
_cell_angle_gamma 90.000000
_cell_volume 3359.159767
_symmetry_space_group_name_H-M "A M M 2"
_symmetry_group_IT_number 38
_symmetry_cell_setting 'orthorhombic'
loop_
_space_group_symop_operation_xyz
x,y,z
-x,-y,z
-x,y,z
x,-y,z
x,1/2+y,1/2+z
-x,1/2-y,1/2+z
-x,1/2+y,1/2+z
x,1/2-y,1/2+z
loop_
_atom_site_type_symbol
_atom_site_label
_atom_site_fract_x
_atom_site_fract_y
_atom_site_fract_z
Si Si1 0.333871 0.779495 0.319260
Si Si2 0.327066 0.638951 0.533254
Si Si3 0.171430 0.937787 0.170646
Si Si4 0.670329 0.937539 0.534996
Si Si5 0.675774 0.396291 0.844675
Si Si6 0.675005 0.162209 0.839665
Si Si7 0.666536 0.752765 0.119877
Si Si8 0.824962 0.355351 0.160447
O O1 0.500000 0.778960 0.357670
O O2 0.257693 0.834911 0.353784
O O3 0.257742 0.723387 0.350789
O O4 0.330427 0.782566 0.213622
O O5 0.500000 0.630986 0.557017
O O6 0.232722 0.597188 0.589568
O O7 0.296699 0.628254 0.428971
O O8 0.280270 0.701341 0.551173
O O9 0.252909 0.926839 0.262481
O O10 0.000000 0.923060 0.183669
O O11 0.195082 0.000000 0.144308
O O12 0.500000 0.919122 0.549925
O O13 0.716370 0.928494 0.433163
O O14 0.778165 0.904330 0.598028
O O15 0.691904 0.000000 0.558542
O O16 0.500000 0.393971 0.826940
O O17 0.500000 0.166485 0.816682
O O18 0.754402 0.133832 0.757035
O O19 0.500000 0.732417 0.097173
O O20 0.773191 0.701019 0.116601
O O21 0.000000 0.354297 0.170784
#
# Coordination Sequence:
#
# PCOD8178715 Si02
#       8
#     8   8   8   8   8   8   8   8
#     4   8  14  28  52  83 115 143 175 220 278 333
#     4  10  20  36  62  89 111 147 197 243 287 333
#     4  11  24  39  55  80 121 164 192 228 286 344
#     4  10  22  39  61  87 112 145 194 249 295 334
#     4  10  19  35  61  89 113 146 193 240 283 334
#     4   9  19  36  59  86 116 149 189 242 292 336
#     4   9  17  33  57  84 114 147 184 231 281 333
#     4  11  23  38  57  83 116 156 193 231 287 349
#
# _framework density 19.052384
#
# number of rings (size 3 to 8) (size 9 to 14) (size 15 to 20)
#    0.000    2.250    1.250    2.625    1.750    3.250 
#    0.000    0.625    0.000    0.750    0.000    0.000 
#    0.000    0.000    0.000    0.000    0.000    0.000 
#
# Total GULP energy -396721.420205 kJ/mol
# GULP energy per Si atom -12397.544381 kJ/mol
# Density = 1.900902 g / cm^3
# Si number density = 19.052384 Si / 1000 Ang^3
#
#
#
# Elastic Constant Matrix: (Units=GPa)
#
#
# Indices 1 2 3 4 5 6 
#
# 1 88.2262 48.7767 56.7442 0.0000 0.0000 0.0000
# 2 48.7767 88.6979 53.1897 0.0000 0.0000 0.0000
# 3 56.7442 53.1897 115.6358 0.0000 0.0000 0.0000
# 4 0.0000 0.0000 0.0000 27.5961 0.0000 0.0000
# 5 0.0000 0.0000 0.0000 0.0000 13.3198 0.0000
# 6 0.0000 0.0000 0.0000 0.0000 0.0000 22.4778
#
#
#
# Elastic Compliance Matrix: (Units=1/GPa)
#
#
# Indices 1 2 3 4 5 6 
#
# 1 0.019093 -0.006740 -0.006269 0.000000 0.000000 0.000000
# 2 -0.006740 0.017948 -0.004948 0.000000 0.000000 0.000000
# 3 -0.006269 -0.004948 0.014000 0.000000 0.000000 0.000000
# 4 0.000000 0.000000 0.000000 0.036237 0.000000 0.000000
# 5 0.000000 0.000000 0.000000 0.000000 0.075076 0.000000
# 6 0.000000 0.000000 0.000000 0.000000 0.000000 0.044488
#
#
# Mechanical properties :
#
#
# Convention : Reuss Voigt Hill
#
# Bulk Modulus (GPa) = 66.10880 67.77567 66.94223
# Shear Modulus (GPa) = 20.17766 21.60204 20.88985
#
# Velocity S-wave (km/s) = 3.25785 3.37088 3.31485
# Velocity P-wave (km/s) = 6.99466 7.12748 7.06138
#
# Compressibility (1/GPa) = 0.01512658
#
# Stress axis : x y z
#
# Youngs Moduli (GPa) = 52.37576 55.71620 71.42845
#
# Poissons Ratio (x) = 0.37554 0.44777
# Poissons Ratio (y) = 0.35303 0.35344
# Poissons Ratio (z) = 0.32833 0.27569
#
# Static dielectric constant tensor:
#      x y z
#    x 3.230330 0.000000 0.000000 
#    y 0.000000 3.469080 0.000000 
#    z 0.000000 0.000000 3.463120 
# 
# 
# High freq. dielectric constant tensor:
#      x y z
#    x 1.709930 0.000000 0.000000 
#    y 0.000000 1.737640 0.000000 
#    z 0.000000 0.000000 1.743970 
# 
# From -- ./inp_files/12843.got.cif
#   From: 2010.03.12/outbox.cif.g09.slc.cpg/sg38_7_cif.got.tgz:12843.got - 2010.04.14 02:38:36.
