data_PCOD8178177
_publ_section_title
;
Structure prediction by ZEFSAII (Michael W. Deem and Ramdas Pophale) SiO2 
 PCOD8178177
Probable space group: A M M 2
;
_chemical_formula_sum "Si O2"
_cell_formula_units_Z 40
_cell_length_a 7.804642
_cell_length_b 9.149876
_cell_length_c 28.964845
_cell_angle_alpha 90.000000
_cell_angle_beta 90.000000
_cell_angle_gamma 90.000000
_cell_volume 2068.423218
_symmetry_space_group_name_H-M "A M M 2"
_symmetry_group_IT_number 38
_symmetry_cell_setting 'orthorhombic'
loop_
_space_group_symop_operation_xyz
x,y,z
-x,-y,z
-x,y,z
x,-y,z
x,1/2+y,1/2+z
-x,1/2-y,1/2+z
-x,1/2+y,1/2+z
x,1/2-y,1/2+z
loop_
_atom_site_type_symbol
_atom_site_label
_atom_site_fract_x
_atom_site_fract_y
_atom_site_fract_z
Si Si1 0.811397 0.827159 0.739520
Si Si2 0.305971 0.339729 0.334889
Si Si3 0.500000 0.324820 0.578649
Si Si4 0.802430 0.827657 0.524514
Si Si5 0.197803 0.164057 0.419933
Si Si6 0.500000 0.325273 0.176662
O O1 0.790145 0.762414 0.791576
O O2 0.668244 0.770628 0.704182
O O3 0.000000 0.783708 0.720688
O O4 0.789209 0.000000 0.744186
O O5 0.500000 0.353330 0.318305
O O6 0.226907 0.500000 0.344544
O O7 0.302061 0.253838 0.382622
O O8 0.500000 0.500000 0.578026
O O9 0.327050 0.266449 0.554876
O O10 0.500000 0.263703 0.629876
O O11 0.772112 0.777328 0.471688
O O12 0.000000 0.795578 0.538899
O O13 0.764478 0.000000 0.530531
O O14 0.000000 0.172902 0.406553
O O15 0.266415 0.000000 0.417427
O O16 0.500000 0.500000 0.167587
#
# Coordination Sequence:
#
# PCOD8178177 Si02
#       6
#     8   8   4   8   8   4
#     4   9  17  32  56  82 108 142 185 234 279 320
#     4  10  19  31  50  81 118 150 184 225 271 328
#     4  12  26  40  59  88 121 151 182 235 305 364
#     4   9  20  41  65  86 112 152 202 245 280 333
#     4   9  19  35  54  79 111 147 189 232 272 322
#     4  10  20  38  59  80 105 139 192 243 279 338
#
# _framework density 19.338401999999999
#
# number of rings (size 3 to 8) (size 9 to 14) (size 15 to 20)
#    0.000    2.400    1.000    2.700    1.400    3.600 
#    0.000    5.000    0.000    1.200    0.000    0.000 
#    0.000    0.000    0.000    0.000    0.000    0.000 
#
# Total GULP energy -247892.598517 kJ/mol
# GULP energy per Si atom -12394.629926 kJ/mol
# Density = 1.929439 g / cm^3
# Si number density = 19.338402 Si / 1000 Ang^3
#
#
#
# Elastic Constant Matrix: (Units=GPa)
#
#
# Indices 1 2 3 4 5 6 
#
# 1 133.6868 42.6160 75.1996 0.0000 0.0000 0.0000
# 2 42.6160 66.8077 53.8801 0.0000 0.0000 0.0000
# 3 75.1996 53.8801 145.5032 0.0000 0.0000 0.0000
# 4 0.0000 0.0000 0.0000 28.9154 0.0000 0.0000
# 5 0.0000 0.0000 0.0000 0.0000 25.8361 0.0000
# 6 0.0000 0.0000 0.0000 0.0000 0.0000 20.8644
#
#
#
# Elastic Compliance Matrix: (Units=1/GPa)
#
#
# Indices 1 2 3 4 5 6 
#
# 1 0.011091 -0.003496 -0.004437 0.000000 0.000000 0.000000
# 2 -0.003496 0.022444 -0.006504 0.000000 0.000000 0.000000
# 3 -0.004437 -0.006504 0.011575 0.000000 0.000000 0.000000
# 4 0.000000 0.000000 0.000000 0.034584 0.000000 0.000000
# 5 0.000000 0.000000 0.000000 0.000000 0.038705 0.000000
# 6 0.000000 0.000000 0.000000 0.000000 0.000000 0.047928
#
#
# Mechanical properties :
#
#
# Convention : Reuss Voigt Hill
#
# Bulk Modulus (GPa) = 61.59863 76.59878 69.09871
# Shear Modulus (GPa) = 24.92356 26.74332 25.83344
#
# Velocity S-wave (km/s) = 3.59390 3.72279 3.65891
# Velocity P-wave (km/s) = 7.01025 7.62722 7.32524
#
# Compressibility (1/GPa) = 0.01623413
#
# Stress axis : x y z
#
# Youngs Moduli (GPa) = 90.16629 44.55527 86.39606
#
# Poissons Ratio (x) = 0.15576 0.38337
# Poissons Ratio (y) = 0.31521 0.56195
# Poissons Ratio (z) = 0.40010 0.28980
#
# Static dielectric constant tensor:
#      x y z
#    x 3.609460 0.000000 0.000000 
#    y 0.000000 3.194710 0.000000 
#    z 0.000000 0.000000 3.516100 
# 
# 
# High freq. dielectric constant tensor:
#      x y z
#    x 1.765780 0.000000 0.000000 
#    y 0.000000 1.709800 0.000000 
#    z 0.000000 0.000000 1.756830 
# 
# From -- ./inp_files/23259.got.cif
#   From: 2010.03.12/outbox.cif.g09.slc.cpg/sg38_12_cif.got.tgz:23259.got - 2010.04.14 02:38:36.
