data_PCOD8178736
_publ_section_title
;
Structure prediction by ZEFSAII (Michael W. Deem and Ramdas Pophale) SiO2 
 PCOD8178736
Probable space group: A M M 2
;
_chemical_formula_sum "Si O2"
_cell_formula_units_Z 40
_cell_length_a 7.760379
_cell_length_b 29.204500
_cell_length_c 8.908877
_cell_angle_alpha 90.000000
_cell_angle_beta 90.000000
_cell_angle_gamma 90.000000
_cell_volume 2019.089963
_symmetry_space_group_name_H-M "A M M 2"
_symmetry_group_IT_number 38
_symmetry_cell_setting 'orthorhombic'
loop_
_space_group_symop_operation_xyz
x,y,z
-x,-y,z
-x,y,z
x,-y,z
x,1/2+y,1/2+z
-x,1/2-y,1/2+z
-x,1/2+y,1/2+z
x,1/2-y,1/2+z
loop_
_atom_site_type_symbol
_atom_site_label
_atom_site_fract_x
_atom_site_fract_y
_atom_site_fract_z
Si Si1 0.500000 0.550984 0.643281
Si Si2 0.694088 0.205655 0.649163
Si Si3 0.801595 0.383293 0.640612
Si Si4 0.500000 0.050969 0.787303
Si Si5 0.192169 0.614432 0.292200
Si Si6 0.195980 0.793603 0.321969
O O1 0.500000 0.500000 0.713613
O O2 0.326125 0.576674 0.697329
O O3 0.500000 0.547608 0.465176
O O4 0.500000 0.202526 0.710294
O O5 0.796218 0.160437 0.696199
O O6 0.688492 0.210253 0.469628
O O7 0.786656 0.249403 0.718340
O O8 0.771754 0.373363 0.465231
O O9 0.746664 0.337434 0.726051
O O10 0.000000 0.397539 0.673186
O O11 0.329113 0.077392 0.731255
O O12 0.500000 0.000000 0.716881
O O13 0.000000 0.593855 0.272418
O O14 0.000000 0.798502 0.374866
#
# Coordination Sequence:
#
# PCOD8178736 Si02
#       6
#     4   8   8   4   8   8
#     4   9  18  32  56  83 114 145 178 231 286 329
#     4  12  24  37  57  85 114 150 189 232 278 332
#     4   9  20  35  57  83 112 148 188 228 275 331
#     4   9  18  34  54  85 116 143 184 235 284 335
#     4  10  19  36  58  83 114 151 188 230 279 333
#     4  11  23  39  57  81 113 152 189 229 276 333
#
# _framework density 19.810905999999999
#
# number of rings (size 3 to 8) (size 9 to 14) (size 15 to 20)
#    0.000    1.800    1.000    3.600    2.800    2.400 
#    0.000    4.000    0.000    2.400    0.000    2.800 
#    0.000    0.000    0.000    0.000    0.000    0.000 
#
# Total GULP energy -248056.788497 kJ/mol
# GULP energy per Si atom -12402.839425 kJ/mol
# Density = 1.976582 g / cm^3
# Si number density = 19.810906 Si / 1000 Ang^3
#
#
#
# Elastic Constant Matrix: (Units=GPa)
#
#
# Indices 1 2 3 4 5 6 
#
# 1 116.9492 65.2790 22.5631 0.0000 0.0000 0.0000
# 2 65.2790 174.5480 41.5652 0.0000 0.0000 0.0000
# 3 22.5631 41.5652 65.2300 0.0000 0.0000 0.0000
# 4 0.0000 0.0000 0.0000 22.0997 0.0000 0.0000
# 5 0.0000 0.0000 0.0000 0.0000 21.4562 0.0000
# 6 0.0000 0.0000 0.0000 0.0000 0.0000 27.2844
#
#
#
# Elastic Compliance Matrix: (Units=1/GPa)
#
#
# Indices 1 2 3 4 5 6 
#
# 1 0.010912 -0.003751 -0.001384 0.000000 0.000000 0.000000
# 2 -0.003751 0.008044 -0.003828 0.000000 0.000000 0.000000
# 3 -0.001384 -0.003828 0.018248 0.000000 0.000000 0.000000
# 4 0.000000 0.000000 0.000000 0.045249 0.000000 0.000000
# 5 0.000000 0.000000 0.000000 0.000000 0.046607 0.000000
# 6 0.000000 0.000000 0.000000 0.000000 0.000000 0.036651
#
#
# Mechanical properties :
#
#
# Convention : Reuss Voigt Hill
#
# Bulk Modulus (GPa) = 51.87486 68.39354 60.13420
# Shear Modulus (GPa) = 26.30716 29.32273 27.81495
#
# Velocity S-wave (km/s) = 3.64801 3.85142 3.75109
# Velocity P-wave (km/s) = 6.63218 7.37401 7.01291
#
# Compressibility (1/GPa) = 0.01927716
#
# Stress axis : x y z
#
# Youngs Moduli (GPa) = 91.64542 124.32340 54.79981
#
# Poissons Ratio (x) = 0.46637 0.07584
# Poissons Ratio (y) = 0.34378 0.20977
# Poissons Ratio (z) = 0.12684 0.47589
#
# Static dielectric constant tensor:
#      x y z
#    x 3.741020 0.000000 0.000000 
#    y 0.000000 3.684980 0.000000 
#    z 0.000000 0.000000 3.282240 
# 
# 
# High freq. dielectric constant tensor:
#      x y z
#    x 1.789630 0.000000 0.000000 
#    y 0.000000 1.766640 0.000000 
#    z 0.000000 0.000000 1.745020 
# 
# From -- ./inp_files/3477.got.cif
#   From: 2010.03.12/outbox.cif.g09.slc.cpg/sg38_2_cif.got.tgz:3477.got - 2010.04.14 02:38:36.
