data_PCOD8178295
_publ_section_title
;
Structure prediction by ZEFSAII (Michael W. Deem and Ramdas Pophale) SiO2 
 PCOD8178295
Probable space group: A M M 2
;
_chemical_formula_sum "Si O2"
_cell_formula_units_Z 64
_cell_length_a 9.059808
_cell_length_b 15.589562
_cell_length_c 23.161807
_cell_angle_alpha 90.000000
_cell_angle_beta 90.000000
_cell_angle_gamma 90.000000
_cell_volume 3271.337454
_symmetry_space_group_name_H-M "A M M 2"
_symmetry_group_IT_number 38
_symmetry_cell_setting 'orthorhombic'
loop_
_space_group_symop_operation_xyz
x,y,z
-x,-y,z
-x,y,z
x,-y,z
x,1/2+y,1/2+z
-x,1/2-y,1/2+z
-x,1/2+y,1/2+z
x,1/2-y,1/2+z
loop_
_atom_site_type_symbol
_atom_site_label
_atom_site_fract_x
_atom_site_fract_y
_atom_site_fract_z
Si Si1 0.831316 0.821336 0.747040
Si Si2 0.824799 0.403246 0.928109
Si Si3 0.324953 0.265007 0.136905
Si Si4 0.325504 0.900997 0.968472
Si Si5 0.659202 0.901825 0.841590
Si Si6 0.169193 0.638394 0.801340
Si Si7 0.176084 0.738830 0.019345
Si Si8 0.667330 0.907552 0.192303
O O1 0.730377 0.823207 0.690100
O O2 0.777349 0.894749 0.790403
O O3 0.809257 0.737307 0.785680
O O4 0.000000 0.836262 0.728553
O O5 0.773050 0.500000 0.945470
O O6 0.762173 0.380436 0.864381
O O7 0.000000 0.398679 0.926877
O O8 0.766622 0.331619 0.972963
O O9 0.500000 0.275133 0.128659
O O10 0.239804 0.294930 0.080045
O O11 0.273131 0.167027 0.150511
O O12 0.500000 0.892824 0.980110
O O13 0.284316 0.868004 0.903755
O O14 0.274756 0.000000 0.980289
O O15 0.239416 0.834421 0.009247
O O16 0.500000 0.858878 0.825016
O O17 0.628847 0.000000 0.853766
O O18 0.248568 0.583132 0.752629
O O19 0.000000 0.610139 0.800771
O O20 0.000000 0.743415 0.021509
O O21 0.500000 0.884555 0.207953
O O22 0.680823 0.000000 0.160404
#
# Coordination Sequence:
#
# PCOD8178295 Si02
#       8
#     8   8   8   8   8   8   8   8
#     4  10  19  32  52  79 107 134 169 216 268 317
#     4   9  18  33  53  77 106 140 174 210 260 319
#     4  10  21  37  54  71  98 140 182 218 261 316
#     4   9  19  36  57  81 111 147 181 213 262 332
#     4   9  18  33  53  78 107 138 173 212 258 320
#     4   9  17  30  51  78 105 133 164 199 247 311
#     4  11  22  36  55  79 106 138 182 234 277 314
#     4   9  18  32  50  74 102 130 162 202 249 303
#
# _framework density 19.563863999999999
#
# number of rings (size 3 to 8) (size 9 to 14) (size 15 to 20)
#    0.000    2.500    0.000    3.000    0.000    4.250 
#    0.000    4.375    0.000    5.250    0.000    0.000 
#    0.000    0.000    0.000    0.000    0.000    0.000 
#
# Total GULP energy -396604.968168 kJ/mol
# GULP energy per Si atom -12393.905255 kJ/mol
# Density = 1.951934 g / cm^3
# Si number density = 19.563864 Si / 1000 Ang^3
#
#
#
# Elastic Constant Matrix: (Units=GPa)
#
#
# Indices 1 2 3 4 5 6 
#
# 1 59.0408 17.0089 32.3505 0.0000 0.0000 0.0000
# 2 17.0089 51.0297 26.0634 0.0000 0.0000 0.0000
# 3 32.3505 26.0634 102.5329 0.0000 0.0000 0.0000
# 4 0.0000 0.0000 0.0000 19.5251 0.0000 0.0000
# 5 0.0000 0.0000 0.0000 0.0000 30.9598 0.0000
# 6 0.0000 0.0000 0.0000 0.0000 0.0000 21.9936
#
#
#
# Elastic Compliance Matrix: (Units=1/GPa)
#
#
# Indices 1 2 3 4 5 6 
#
# 1 0.021233 -0.004201 -0.005632 0.000000 0.000000 0.000000
# 2 -0.004201 0.023351 -0.004610 0.000000 0.000000 0.000000
# 3 -0.005632 -0.004610 0.012702 0.000000 0.000000 0.000000
# 4 0.000000 0.000000 0.000000 0.051216 0.000000 0.000000
# 5 0.000000 0.000000 0.000000 0.000000 0.032300 0.000000
# 6 0.000000 0.000000 0.000000 0.000000 0.000000 0.045468
#
#
# Mechanical properties :
#
#
# Convention : Reuss Voigt Hill
#
# Bulk Modulus (GPa) = 35.21045 40.38324 37.79684
# Shear Modulus (GPa) = 22.25949 23.64107 22.95028
#
# Velocity S-wave (km/s) = 3.37677 3.47998 3.42876
# Velocity P-wave (km/s) = 5.76543 6.06907 5.91920
#
# Compressibility (1/GPa) = 0.02840066
#
# Stress axis : x y z
#
# Youngs Moduli (GPa) = 47.09555 42.82394 78.72947
#
# Poissons Ratio (x) = 0.17991 0.44337
# Poissons Ratio (y) = 0.19785 0.36297
# Poissons Ratio (z) = 0.26522 0.19743
#
# Static dielectric constant tensor:
#      x y z
#    x 3.376870 0.000000 0.000000 
#    y 0.000000 3.516210 0.000000 
#    z 0.000000 0.000000 3.550770 
# 
# 
# High freq. dielectric constant tensor:
#      x y z
#    x 1.745940 0.000000 0.000000 
#    y 0.000000 1.751620 0.000000 
#    z 0.000000 0.000000 1.760390 
# 
# From -- ./inp_files/22193.got.cif
#   From: 2010.03.12/outbox.cif.g09.slc.cpg/sg38_12_cif.got.tgz:22193.got - 2010.04.14 02:38:36.
