data_PCOD8178333
_publ_section_title
;
Structure prediction by ZEFSAII (Michael W. Deem and Ramdas Pophale) SiO2 
 PCOD8178333
Probable space group: A M M 2
;
_chemical_formula_sum "Si O2"
_cell_formula_units_Z 64
_cell_length_a 19.787021
_cell_length_b 8.883180
_cell_length_c 20.108753
_cell_angle_alpha 90.000000
_cell_angle_beta 90.000000
_cell_angle_gamma 90.000000
_cell_volume 3534.549080
_symmetry_space_group_name_H-M "A M M 2"
_symmetry_group_IT_number 38
_symmetry_cell_setting 'orthorhombic'
loop_
_space_group_symop_operation_xyz
x,y,z
-x,-y,z
-x,y,z
x,-y,z
x,1/2+y,1/2+z
-x,1/2-y,1/2+z
-x,1/2+y,1/2+z
x,1/2-y,1/2+z
loop_
_atom_site_type_symbol
_atom_site_label
_atom_site_fract_x
_atom_site_fract_y
_atom_site_fract_z
Si Si1 0.675169 0.177158 0.536000
Si Si2 0.924157 0.321019 0.483875
Si Si3 0.680748 0.321635 0.400079
Si Si4 0.823763 0.675169 0.082605
Si Si5 0.422656 0.673569 0.153598
Si Si6 0.169455 0.823598 0.869801
Si Si7 0.209268 0.175521 0.729272
Si Si8 0.652536 0.177347 0.266693
O O1 0.651468 0.261279 0.469321
O O2 0.750736 0.227265 0.556104
O O3 0.624121 0.229951 0.593256
O O4 0.670805 0.000000 0.524048
O O5 0.925550 0.500000 0.483466
O O6 0.882742 0.268431 0.547960
O O7 0.889289 0.254576 0.416452
O O8 0.000000 0.255739 0.487184
O O9 0.674769 0.500000 0.396900
O O10 0.757989 0.263223 0.394021
O O11 0.639445 0.252213 0.338566
O O12 0.835330 0.500000 0.068419
O O13 0.829379 0.711627 0.161139
O O14 0.500000 0.696577 0.132230
O O15 0.406461 0.500000 0.170135
O O16 0.408132 0.772371 0.218751
O O17 0.160032 0.783076 0.791576
O O18 0.167802 0.000000 0.880556
O O19 0.277630 0.269820 0.733351
O O20 0.230477 0.000000 0.732552
O O21 0.652913 0.000000 0.275420
#
# Coordination Sequence:
#
# PCOD8178333 Si02
#       8
#     8   8   8   8   8   8   8   8
#     4  10  19  33  54  83 112 139 178 230 281 328
#     4  10  20  34  51  74 107 144 184 228 275 329
#     4  10  19  33  55  79 107 142 183 228 271 322
#     4  10  19  32  53  79 110 139 175 227 275 326
#     4  10  21  39  60  80 110 151 186 220 273 337
#     4   8  15  29  50  74  98 129 175 221 262 311
#     4   9  17  33  54  77 105 138 177 225 274 323
#     4  11  21  33  53  82 113 142 178 227 273 323
#
# _framework density 18.106977000000001
#
# number of rings (size 3 to 8) (size 9 to 14) (size 15 to 20)
#    0.000    2.250    2.500    2.250    0.000    1.500 
#    0.000    1.250    0.000    4.500    0.000    0.000 
#    0.000    0.000    0.000    0.000    0.000    0.000 
#
# Total GULP energy -396774.856943 kJ/mol
# GULP energy per Si atom -12399.214279 kJ/mol
# Density = 1.806576 g / cm^3
# Si number density = 18.106977 Si / 1000 Ang^3
#
#
#
# Elastic Constant Matrix: (Units=GPa)
#
#
# Indices 1 2 3 4 5 6 
#
# 1 86.2254 25.6729 54.0334 0.0000 0.0000 0.0000
# 2 25.6729 58.3534 42.8666 0.0000 0.0000 0.0000
# 3 54.0334 42.8666 157.1592 0.0000 0.0000 0.0000
# 4 0.0000 0.0000 0.0000 30.4415 0.0000 0.0000
# 5 0.0000 0.0000 0.0000 0.0000 26.2225 0.0000
# 6 0.0000 0.0000 0.0000 0.0000 0.0000 19.2998
#
#
#
# Elastic Compliance Matrix: (Units=1/GPa)
#
#
# Indices 1 2 3 4 5 6 
#
# 1 0.015364 -0.003601 -0.004300 0.000000 0.000000 0.000000
# 2 -0.003601 0.022275 -0.004838 0.000000 0.000000 0.000000
# 3 -0.004300 -0.004838 0.009161 0.000000 0.000000 0.000000
# 4 0.000000 0.000000 0.000000 0.032850 0.000000 0.000000
# 5 0.000000 0.000000 0.000000 0.000000 0.038135 0.000000
# 6 0.000000 0.000000 0.000000 0.000000 0.000000 0.051814
#
#
# Mechanical properties :
#
#
# Convention : Reuss Voigt Hill
#
# Bulk Modulus (GPa) = 46.89797 60.76487 53.83142
# Shear Modulus (GPa) = 24.72989 27.13710 25.93350
#
# Velocity S-wave (km/s) = 3.69964 3.87552 3.78860
# Velocity P-wave (km/s) = 6.64879 7.32515 6.99515
#
# Compressibility (1/GPa) = 0.02132288
#
# Stress axis : x y z
#
# Youngs Moduli (GPa) = 65.08547 44.89364 109.15787
#
# Poissons Ratio (x) = 0.16164 0.46942
# Poissons Ratio (y) = 0.23435 0.52808
# Poissons Ratio (z) = 0.27989 0.21718
#
# Static dielectric constant tensor:
#      x y z
#    x 3.225140 0.000000 0.000000 
#    y 0.000000 3.119050 0.000000 
#    z 0.000000 0.000000 3.621230 
# 
# 
# High freq. dielectric constant tensor:
#      x y z
#    x 1.671130 0.000000 0.000000 
#    y 0.000000 1.683120 0.000000 
#    z 0.000000 0.000000 1.718670 
# 
# From -- ./inp_files/21531.got.cif
#   From: 2010.03.12/outbox.cif.g09.slc.cpg/sg38_11_cif.got.tgz:21531.got - 2010.04.14 02:38:36.
