data_PCOD8178940
_publ_section_title
;
Structure prediction by ZEFSAII (Michael W. Deem and Ramdas Pophale) SiO2 
 PCOD8178940
Probable space group: A M M 2
;
_chemical_formula_sum "Si O2"
_cell_formula_units_Z 56
_cell_length_a 7.743853
_cell_length_b 13.614392
_cell_length_c 32.607329
_cell_angle_alpha 90.000000
_cell_angle_beta 90.000000
_cell_angle_gamma 90.000000
_cell_volume 3437.720602
_symmetry_space_group_name_H-M "A M M 2"
_symmetry_group_IT_number 38
_symmetry_cell_setting 'orthorhombic'
loop_
_space_group_symop_operation_xyz
x,y,z
-x,-y,z
-x,y,z
x,-y,z
x,1/2+y,1/2+z
-x,1/2-y,1/2+z
-x,1/2+y,1/2+z
x,1/2-y,1/2+z
loop_
_atom_site_type_symbol
_atom_site_label
_atom_site_fract_x
_atom_site_fract_y
_atom_site_fract_z
Si Si1 0.296454 0.890582 0.564550
Si Si2 0.500000 0.116602 0.792891
Si Si3 0.808377 0.883397 0.847923
Si Si4 0.500000 0.882500 0.698954
Si Si5 0.803307 0.297920 0.145803
Si Si6 0.797832 0.390348 0.596675
Si Si7 0.302940 0.709423 0.516324
Si Si8 0.705633 0.110858 0.935938
O O1 0.500000 0.874528 0.572127
O O2 0.201820 0.871920 0.607459
O O3 0.222963 0.813866 0.530889
O O4 0.254565 0.000000 0.549040
O O5 0.329880 0.159460 0.815584
O O6 0.500000 0.150536 0.746094
O O7 0.500000 0.000000 0.795328
O O8 0.773349 0.841426 0.893573
O O9 0.000000 0.852333 0.833397
O O10 0.787804 0.000000 0.849965
O O11 0.673694 0.836465 0.680314
O O12 0.500000 0.000000 0.692835
O O13 0.741922 0.189045 0.131081
O O14 0.000000 0.296066 0.163072
O O15 0.744612 0.500000 0.611317
O O16 0.709249 0.369192 0.553071
O O17 0.000000 0.381216 0.589111
O O18 0.500000 0.727091 0.505145
O O19 0.214196 0.671008 0.474513
O O20 0.500000 0.111839 0.935760
O O21 0.774493 0.000000 0.940426
#
# Coordination Sequence:
#
# PCOD8178940 Si02
#       8
#     8   4   8   4   8   8   8   8
#     4   9  16  28  44  60  86 123 158 193 228 260
#     4   9  18  32  46  62  87 113 141 180 218 261
#     4   9  16  27  44  63  84 114 146 173 212 266
#     4  11  22  34  49  68  91 119 152 190 231 269
#     4  10  20  33  48  68  92 119 155 192 228 273
#     4   9  18  31  45  63  92 125 153 188 230 268
#     4   9  17  26  39  63  89 118 158 191 220 259
#     4   9  15  24  38  57  86 118 146 180 217 256
#
# _framework density 16.289864000000001
#
# number of rings (size 3 to 8) (size 9 to 14) (size 15 to 20)
#    0.000    2.714    1.429    0.857    1.000    3.143 
#    0.000    2.857    0.000    0.000    0.000    0.000 
#    0.000    2.286    0.000    0.714    0.000    0.286 
#
# Total GULP energy -347034.068958 kJ/mol
# GULP energy per Si atom -12394.073891 kJ/mol
# Density = 1.625279 g / cm^3
# Si number density = 16.289864 Si / 1000 Ang^3
#
#
#
# Elastic Constant Matrix: (Units=GPa)
#
#
# Indices 1 2 3 4 5 6 
#
# 1 71.3318 22.2866 53.0107 0.0000 0.0000 0.0000
# 2 22.2866 88.1947 44.5484 0.0000 0.0000 0.0000
# 3 53.0107 44.5484 131.7126 0.0000 0.0000 0.0000
# 4 0.0000 0.0000 0.0000 18.6302 0.0000 0.0000
# 5 0.0000 0.0000 0.0000 0.0000 7.2334 0.0000
# 6 0.0000 0.0000 0.0000 0.0000 0.0000 13.4670
#
#
#
# Elastic Compliance Matrix: (Units=1/GPa)
#
#
# Indices 1 2 3 4 5 6 
#
# 1 0.020106 -0.001198 -0.007687 0.000000 0.000000 0.000000
# 2 -0.001198 0.013746 -0.004167 0.000000 0.000000 0.000000
# 3 -0.007687 -0.004167 0.012095 0.000000 0.000000 0.000000
# 4 0.000000 0.000000 0.000000 0.053676 0.000000 0.000000
# 5 0.000000 0.000000 0.000000 0.000000 0.138248 0.000000
# 6 0.000000 0.000000 0.000000 0.000000 0.000000 0.074256
#
#
# Mechanical properties :
#
#
# Convention : Reuss Voigt Hill
#
# Bulk Modulus (GPa) = 50.39424 58.99225 54.69325
# Shear Modulus (GPa) = 14.49922 19.29235 16.89579
#
# Velocity S-wave (km/s) = 2.98665 3.44512 3.22405
# Velocity P-wave (km/s) = 6.54955 7.21927 6.89255
#
# Compressibility (1/GPa) = 0.01984354
#
# Stress axis : x y z
#
# Youngs Moduli (GPa) = 49.73688 72.74766 82.67567
#
# Poissons Ratio (x) = 0.08715 0.63552
# Poissons Ratio (y) = 0.05958 0.34452
# Poissons Ratio (z) = 0.38232 0.30315
#
# Static dielectric constant tensor:
#      x y z
#    x 3.102870 0.000000 0.000000 
#    y 0.000000 3.036810 0.000000 
#    z 0.000000 0.000000 3.093060 
# 
# 
# High freq. dielectric constant tensor:
#      x y z
#    x 1.632680 0.000000 0.000000 
#    y 0.000000 1.589720 0.000000 
#    z 0.000000 0.000000 1.605570 
# 
# From -- ./inp_files/24669.got.cif
#   From: 2010.03.12/outbox.cif.g09.slc.cpg/sg38_13_cif.got.tgz:24669.got - 2010.04.14 02:38:36.
