data_PCOD8178539
_publ_section_title
;
Structure prediction by ZEFSAII (Michael W. Deem and Ramdas Pophale) SiO2 
 PCOD8178539
Probable space group: A M M 2
;
_chemical_formula_sum "Si O2"
_cell_formula_units_Z 38
_cell_length_a 7.585159
_cell_length_b 12.099537
_cell_length_c 20.584745
_cell_angle_alpha 90.000000
_cell_angle_beta 90.000000
_cell_angle_gamma 90.000000
_cell_volume 1889.204330
_symmetry_space_group_name_H-M "A M M 2"
_symmetry_group_IT_number 38
_symmetry_cell_setting 'orthorhombic'
loop_
_space_group_symop_operation_xyz
x,y,z
-x,-y,z
-x,y,z
x,-y,z
x,1/2+y,1/2+z
-x,1/2-y,1/2+z
-x,1/2+y,1/2+z
x,1/2-y,1/2+z
loop_
_atom_site_type_symbol
_atom_site_label
_atom_site_fract_x
_atom_site_fract_y
_atom_site_fract_z
Si Si1 0.796428 0.500000 0.310190
Si Si2 0.500000 0.121738 0.021712
Si Si3 0.198911 0.833052 0.921797
Si Si4 0.500000 0.239632 0.646973
Si Si5 0.500000 0.500000 0.202346
Si Si6 0.802765 0.624922 0.711616
Si Si7 0.296674 0.376148 0.854904
O O1 0.753373 0.607038 0.354009
O O2 0.673986 0.500000 0.246976
O O3 0.000000 0.500000 0.286939
O O4 0.674508 0.127598 0.978521
O O5 0.500000 0.000000 0.055645
O O6 0.500000 0.223061 0.072004
O O7 0.220327 0.702487 0.910658
O O8 0.000000 0.862392 0.943124
O O9 0.500000 0.107166 0.655316
O O10 0.324410 0.287117 0.679194
O O11 0.737890 0.500000 0.696082
O O12 0.808665 0.643125 0.788654
O O13 0.000000 0.644123 0.684628
O O14 0.500000 0.349426 0.840853
O O15 0.270403 0.500000 0.881117
#
# Coordination Sequence:
#
# PCOD8178539 Si02
#       7
#     4   4   8   4   2   8   8
#     4  10  22  40  68 100 128 156 201 266 330 381
#     4  12  25  44  65  84 120 163 213 274 309 355
#     4  11  22  39  64  95 123 157 206 259 322 379
#     4  12  26  43  61  88 123 172 219 252 302 373
#     4  12  26  42  64  92 134 174 210 254 318 382
#     4  10  20  37  63  94 126 157 202 260 315 368
#     4  10  19  33  58  93 129 162 193 243 312 383
#
# _framework density 20.114287000000001
#
# number of rings (size 3 to 8) (size 9 to 14) (size 15 to 20)
#    0.000    1.263    3.158    3.474    0.000    4.632 
#    1.895    0.000    0.000    0.000    0.000    0.000 
#    0.000    0.000    0.000    0.000    0.000    0.000 
#
# Total GULP energy -235636.386651 kJ/mol
# GULP energy per Si atom -12401.915087 kJ/mol
# Density = 2.006851 g / cm^3
# Si number density = 20.114287 Si / 1000 Ang^3
#
#
#
# Elastic Constant Matrix: (Units=GPa)
#
#
# Indices 1 2 3 4 5 6 
#
# 1 116.5927 49.0189 41.8215 0.0000 0.0000 0.0000
# 2 49.0189 146.7706 50.9520 0.0000 0.0000 0.0000
# 3 41.8215 50.9520 73.4086 0.0000 0.0000 0.0000
# 4 0.0000 0.0000 0.0000 30.2720 0.0000 0.0000
# 5 0.0000 0.0000 0.0000 0.0000 17.5493 0.0000
# 6 0.0000 0.0000 0.0000 0.0000 0.0000 16.9980
#
#
#
# Elastic Compliance Matrix: (Units=1/GPa)
#
#
# Indices 1 2 3 4 5 6 
#
# 1 0.011213 -0.002012 -0.004992 0.000000 0.000000 0.000000
# 2 -0.002012 0.009337 -0.005335 0.000000 0.000000 0.000000
# 3 -0.004992 -0.005335 0.020169 0.000000 0.000000 0.000000
# 4 0.000000 0.000000 0.000000 0.033034 0.000000 0.000000
# 5 0.000000 0.000000 0.000000 0.000000 0.056982 0.000000
# 6 0.000000 0.000000 0.000000 0.000000 0.000000 0.058830
#
#
# Mechanical properties :
#
#
# Convention : Reuss Voigt Hill
#
# Bulk Modulus (GPa) = 62.33394 68.92850 65.63122
# Shear Modulus (GPa) = 22.76966 25.96250 24.36608
#
# Velocity S-wave (km/s) = 3.36819 3.59660 3.48427
# Velocity P-wave (km/s) = 6.79584 7.18263 6.99191
#
# Compressibility (1/GPa) = 0.01604263
#
# Stress axis : x y z
#
# Youngs Moduli (GPa) = 89.17934 107.09742 49.58146
#
# Poissons Ratio (x) = 0.21550 0.24750
# Poissons Ratio (y) = 0.17945 0.26449
# Poissons Ratio (z) = 0.44516 0.57132
#
# Static dielectric constant tensor:
#      x y z
#    x 3.773080 0.000000 0.000000 
#    y 0.000000 3.894860 0.000000 
#    z 0.000000 0.000000 3.247870 
# 
# 
# High freq. dielectric constant tensor:
#      x y z
#    x 1.802980 0.000000 0.000000 
#    y 0.000000 1.795260 0.000000 
#    z 0.000000 0.000000 1.740750 
# 
# From -- ./inp_files/16357.got.cif
#   From: 2010.03.12/outbox.cif.g09.slc.cpg/sg38_9_cif.got.tgz:16357.got - 2010.04.14 02:38:36.
