data_PCOD8178706
_publ_section_title
;
Structure prediction by ZEFSAII (Michael W. Deem and Ramdas Pophale) SiO2 
 PCOD8178706
Probable space group: A M M 2
;
_chemical_formula_sum "Si O2"
_cell_formula_units_Z 56
_cell_length_a 15.273927
_cell_length_b 9.148829
_cell_length_c 20.306829
_cell_angle_alpha 90.000000
_cell_angle_beta 90.000000
_cell_angle_gamma 90.000000
_cell_volume 2837.646764
_symmetry_space_group_name_H-M "A M M 2"
_symmetry_group_IT_number 38
_symmetry_cell_setting 'orthorhombic'
loop_
_space_group_symop_operation_xyz
x,y,z
-x,-y,z
-x,y,z
x,-y,z
x,1/2+y,1/2+z
-x,1/2-y,1/2+z
-x,1/2+y,1/2+z
x,1/2-y,1/2+z
loop_
_atom_site_type_symbol
_atom_site_label
_atom_site_fract_x
_atom_site_fract_y
_atom_site_fract_z
Si Si1 0.218722 0.670785 0.539210
Si Si2 0.595089 0.326529 0.348321
Si Si3 0.165930 0.667652 0.165453
Si Si4 0.406579 0.169741 0.077994
Si Si5 0.781115 0.171564 0.892128
Si Si6 0.099409 0.167759 0.286287
Si Si7 0.364768 0.666188 0.203506
O O1 0.211214 0.500000 0.556715
O O2 0.162703 0.760644 0.592570
O O3 0.320731 0.724830 0.539169
O O4 0.182866 0.701784 0.465810
O O5 0.500000 0.268300 0.374993
O O6 0.593890 0.500000 0.349855
O O7 0.679436 0.273806 0.390057
O O8 0.607336 0.270442 0.273891
O O9 0.135248 0.500000 0.158907
O O10 0.102939 0.753282 0.215326
O O11 0.261059 0.681213 0.196937
O O12 0.500000 0.202105 0.040805
O O13 0.414212 0.242160 0.148992
O O14 0.395563 0.000000 0.090223
O O15 0.839486 0.257491 0.840421
O O16 0.786484 0.000000 0.874278
O O17 0.000000 0.178475 0.311791
O O18 0.128958 0.000000 0.277695
O O19 0.395153 0.500000 0.195432
#
# Coordination Sequence:
#
# PCOD8178706 Si02
#       7
#     8   8   8   8   8   8   8
#     4   9  19  34  54  79 114 155 190 231 284 333
#     4   9  16  27  47  77 112 149 191 235 275 321
#     4  10  19  35  60  86 111 141 185 233 279 338
#     4   9  17  28  43  69 106 146 190 235 277 324
#     4  10  20  37  58  84 118 156 196 234 276 333
#     4  11  24  41  63  89 115 144 181 231 292 350
#     4   9  16  28  47  72 104 141 183 232 280 325
#
# _framework density 19.734662
#
# number of rings (size 3 to 8) (size 9 to 14) (size 15 to 20)
#    0.000    2.429    1.429    1.286    0.000    3.714 
#    0.000    3.571    0.000    1.286    0.000    2.000 
#    0.000    0.000    0.000    0.000    0.000    0.000 
#
# Total GULP energy -346987.585780 kJ/mol
# GULP energy per Si atom -12392.413778 kJ/mol
# Density = 1.968974 g / cm^3
# Si number density = 19.734662 Si / 1000 Ang^3
#
#
#
# Elastic Constant Matrix: (Units=GPa)
#
#
# Indices 1 2 3 4 5 6 
#
# 1 75.3895 33.9368 38.1430 0.0000 0.0000 0.0000
# 2 33.9368 65.0809 46.4952 0.0000 0.0000 0.0000
# 3 38.1430 46.4952 112.0747 0.0000 0.0000 0.0000
# 4 0.0000 0.0000 0.0000 28.8464 0.0000 0.0000
# 5 0.0000 0.0000 0.0000 0.0000 7.3110 0.0000
# 6 0.0000 0.0000 0.0000 0.0000 0.0000 20.0571
#
#
#
# Elastic Compliance Matrix: (Units=1/GPa)
#
#
# Indices 1 2 3 4 5 6 
#
# 1 0.018102 -0.007160 -0.003190 0.000000 0.000000 0.000000
# 2 -0.007160 0.024670 -0.007798 0.000000 0.000000 0.000000
# 3 -0.003190 -0.007798 0.013243 0.000000 0.000000 0.000000
# 4 0.000000 0.000000 0.000000 0.034666 0.000000 0.000000
# 5 0.000000 0.000000 0.000000 0.000000 0.136780 0.000000
# 6 0.000000 0.000000 0.000000 0.000000 0.000000 0.049858
#
#
# Mechanical properties :
#
#
# Convention : Reuss Voigt Hill
#
# Bulk Modulus (GPa) = 50.71265 54.41056 52.56161
# Shear Modulus (GPa) = 15.61584 20.17426 17.89505
#
# Velocity S-wave (km/s) = 2.81604 3.20077 3.01455
# Velocity P-wave (km/s) = 6.02714 6.42580 6.22966
#
# Compressibility (1/GPa) = 0.01971895
#
# Stress axis : x y z
#
# Youngs Moduli (GPa) = 55.24359 40.53499 75.50963
#
# Poissons Ratio (x) = 0.29023 0.24089
# Poissons Ratio (y) = 0.39555 0.58881
# Poissons Ratio (z) = 0.17624 0.31608
#
# Static dielectric constant tensor:
#      x y z
#    x 3.686970 0.000000 0.000000 
#    y 0.000000 3.422450 0.000000 
#    z 0.000000 0.000000 3.551520 
# 
# 
# High freq. dielectric constant tensor:
#      x y z
#    x 1.763800 0.000000 0.000000 
#    y 0.000000 1.743150 0.000000 
#    z 0.000000 0.000000 1.763790 
# 
# From -- ./inp_files/21059.got.cif
#   From: 2010.03.12/outbox.cif.g09.slc.cpg/sg38_11_cif.got.tgz:21059.got - 2010.04.14 02:38:36.
