data_PCOD8178983
_publ_section_title
;
Structure prediction by ZEFSAII (Michael W. Deem and Ramdas Pophale) SiO2 
 PCOD8178983
Probable space group: A M M 2
;
_chemical_formula_sum "Si O2"
_cell_formula_units_Z 64
_cell_length_a 9.105593
_cell_length_b 14.248676
_cell_length_c 27.957661
_cell_angle_alpha 90.000000
_cell_angle_beta 90.000000
_cell_angle_gamma 90.000000
_cell_volume 3627.300871
_symmetry_space_group_name_H-M "A M M 2"
_symmetry_group_IT_number 38
_symmetry_cell_setting 'orthorhombic'
loop_
_space_group_symop_operation_xyz
x,y,z
-x,-y,z
-x,y,z
x,-y,z
x,1/2+y,1/2+z
-x,1/2-y,1/2+z
-x,1/2+y,1/2+z
x,1/2-y,1/2+z
loop_
_atom_site_type_symbol
_atom_site_label
_atom_site_fract_x
_atom_site_fract_y
_atom_site_fract_z
Si Si1 0.167960 0.105323 0.262350
Si Si2 0.671096 0.605076 0.130400
Si Si3 0.174059 0.279187 0.940669
Si Si4 0.334554 0.610309 0.293206
Si Si5 0.669639 0.391685 0.020388
Si Si6 0.332330 0.610049 0.858007
Si Si7 0.671236 0.392846 0.402517
Si Si8 0.168670 0.712259 0.210936
O O1 0.273256 0.135614 0.305624
O O2 0.194042 0.176151 0.218229
O O3 0.000000 0.111741 0.280578
O O4 0.205141 0.000000 0.244598
O O5 0.500000 0.608325 0.141629
O O6 0.730093 0.500000 0.141632
O O7 0.702151 0.631042 0.075595
O O8 0.748086 0.681284 0.163483
O O9 0.234818 0.339505 0.897103
O O10 0.234280 0.173018 0.937337
O O11 0.000000 0.278104 0.939151
O O12 0.226366 0.324274 0.990218
O O13 0.500000 0.642012 0.280417
O O14 0.318999 0.500000 0.286054
O O15 0.297477 0.637595 0.347777
O O16 0.221278 0.660206 0.258508
O O17 0.500000 0.371598 0.007648
O O18 0.706483 0.500000 0.009056
O O19 0.500000 0.645273 0.861916
O O20 0.320336 0.500000 0.867701
O O21 0.500000 0.381098 0.414325
O O22 0.720673 0.500000 0.411139
O O23 0.000000 0.687042 0.203541
#
# Coordination Sequence:
#
# PCOD8178983 Si02
#       8
#     8   8   8   8   8   8   8   8
#     4   9  19  35  50  67  98 136 170 206 249 294
#     4   9  19  36  56  76  99 128 160 198 247 297
#     4  12  23  32  49  77 106 135 165 201 251 307
#     4   9  18  32  49  70  98 132 167 201 240 287
#     4   9  19  37  58  77  98 127 165 206 247 296
#     4  10  20  33  50  73 101 134 173 213 249 291
#     4   9  19  36  55  73  97 134 177 216 250 285
#     4  11  21  30  47  75 101 129 165 202 245 297
#
# _framework density 17.643972999999999
#
# number of rings (size 3 to 8) (size 9 to 14) (size 15 to 20)
#    0.000    2.250    0.000    4.875    0.000    8.750 
#    0.000    2.500    0.000    0.750    0.000    3.500 
#    0.000    0.000    0.000    0.000    0.000    0.000 
#
# Total GULP energy -396843.847424 kJ/mol
# GULP energy per Si atom -12401.370232 kJ/mol
# Density = 1.760381 g / cm^3
# Si number density = 17.643973 Si / 1000 Ang^3
#
#
#
# Elastic Constant Matrix: (Units=GPa)
#
#
# Indices 1 2 3 4 5 6 
#
# 1 102.1268 54.6593 61.9549 0.0000 0.0000 0.0000
# 2 54.6593 73.5676 67.8196 0.0000 0.0000 0.0000
# 3 61.9549 67.8196 93.0456 0.0000 0.0000 0.0000
# 4 0.0000 0.0000 0.0000 28.7342 0.0000 0.0000
# 5 0.0000 0.0000 0.0000 0.0000 19.7225 0.0000
# 6 0.0000 0.0000 0.0000 0.0000 0.0000 26.1462
#
#
#
# Elastic Compliance Matrix: (Units=1/GPa)
#
#
# Indices 1 2 3 4 5 6 
#
# 1 0.017503 -0.006890 -0.006632 0.000000 0.000000 0.000000
# 2 -0.006890 0.044146 -0.027590 0.000000 0.000000 0.000000
# 3 -0.006632 -0.027590 0.035273 0.000000 0.000000 0.000000
# 4 0.000000 0.000000 0.000000 0.034802 0.000000 0.000000
# 5 0.000000 0.000000 0.000000 0.000000 0.050703 0.000000
# 6 0.000000 0.000000 0.000000 0.000000 0.000000 0.038246
#
#
# Mechanical properties :
#
#
# Convention : Reuss Voigt Hill
#
# Bulk Modulus (GPa) = 68.03587 70.84530 69.44058
# Shear Modulus (GPa) = 16.24442 20.54098 18.39270
#
# Velocity S-wave (km/s) = 3.03756 3.41573 3.23218
# Velocity P-wave (km/s) = 7.13768 7.46968 7.30557
#
# Compressibility (1/GPa) = 0.01469813
#
# Stress axis : x y z
#
# Youngs Moduli (GPa) = 57.13336 22.65187 28.35023
#
# Poissons Ratio (x) = 0.15608 0.18802
# Poissons Ratio (y) = 0.39368 0.78217
# Poissons Ratio (z) = 0.37891 0.62496
#
# Static dielectric constant tensor:
#      x y z
#    x 3.273470 0.000000 0.000000 
#    y 0.000000 3.409270 0.000000 
#    z 0.000000 0.000000 3.114940 
# 
# 
# High freq. dielectric constant tensor:
#      x y z
#    x 1.682310 0.000000 0.000000 
#    y 0.000000 1.686370 0.000000 
#    z 0.000000 0.000000 1.662760 
# 
# From -- ./inp_files/24765.got.cif
#   From: 2010.03.12/outbox.cif.g09.slc.cpg/sg38_13_cif.got.tgz:24765.got - 2010.04.14 02:38:36.
