data_PCOD8178355
_publ_section_title
;
Structure prediction by ZEFSAII (Michael W. Deem and Ramdas Pophale) SiO2 
 PCOD8178355
Probable space group: A M M 2
;
_chemical_formula_sum "Si O2"
_cell_formula_units_Z 64
_cell_length_a 14.419708
_cell_length_b 8.951371
_cell_length_c 24.778251
_cell_angle_alpha 90.000000
_cell_angle_beta 90.000000
_cell_angle_gamma 90.000000
_cell_volume 3198.281392
_symmetry_space_group_name_H-M "A M M 2"
_symmetry_group_IT_number 38
_symmetry_cell_setting 'orthorhombic'
loop_
_space_group_symop_operation_xyz
x,y,z
-x,-y,z
-x,y,z
x,-y,z
x,1/2+y,1/2+z
-x,1/2-y,1/2+z
-x,1/2+y,1/2+z
x,1/2-y,1/2+z
loop_
_atom_site_type_symbol
_atom_site_label
_atom_site_fract_x
_atom_site_fract_y
_atom_site_fract_z
Si Si1 0.607985 0.324824 0.242730
Si Si2 0.276414 0.324691 0.138021
Si Si3 0.282154 0.676992 0.838419
Si Si4 0.897059 0.172689 0.874428
Si Si5 0.602895 0.832470 0.052074
Si Si6 0.896658 0.828062 0.096571
Si Si7 0.135464 0.667783 0.985054
Si Si8 0.343232 0.665561 0.954923
O O1 0.500000 0.281579 0.235917
O O2 0.619380 0.500000 0.253954
O O3 0.663723 0.275254 0.189571
O O4 0.651955 0.233387 0.291370
O O5 0.260036 0.500000 0.136518
O O6 0.331877 0.278049 0.084884
O O7 0.175828 0.246406 0.138312
O O8 0.269527 0.500000 0.835464
O O9 0.179142 0.748256 0.836052
O O10 0.332258 0.725244 0.893992
O O11 0.901684 0.243894 0.933543
O O12 0.000000 0.190256 0.848360
O O13 0.869257 0.000000 0.879973
O O14 0.500000 0.828756 0.077053
O O15 0.643729 0.000000 0.054132
O O16 0.594818 0.778552 0.989816
O O17 0.000000 0.812475 0.121493
O O18 0.868915 0.000000 0.088592
O O19 0.897001 0.749652 0.038716
O O20 0.094399 0.500000 0.984116
O O21 0.245359 0.660782 0.984726
O O22 0.388170 0.500000 0.954438
#
# Coordination Sequence:
#
# PCOD8178355 Si02
#       8
#     8   8   8   8   8   8   8   8
#     4  10  23  44  68  91 115 150 198 250 305 363
#     4  11  23  41  64  88 117 154 198 249 301 355
#     4  10  22  39  61  89 120 155 199 250 303 356
#     4  10  20  34  55  85 122 164 206 247 294 349
#     4  11  23  36  55  86 120 156 196 240 296 358
#     4  11  23  37  56  85 121 160 200 244 297 354
#     4  10  19  32  53  83 119 161 204 245 291 347
#     4   9  19  35  54  81 118 158 195 237 291 350
#
# _framework density 20.010746000000001
#
# number of rings (size 3 to 8) (size 9 to 14) (size 15 to 20)
#    0.000    1.750    1.250    3.750    0.000    9.250 
#    0.000    3.125    0.000    0.750    0.000    0.000 
#    0.000    0.000    0.000    0.000    0.000    0.000 
#
# Total GULP energy -396784.458517 kJ/mol
# GULP energy per Si atom -12399.514329 kJ/mol
# Density = 1.996520 g / cm^3
# Si number density = 20.010746 Si / 1000 Ang^3
#
#
#
# Elastic Constant Matrix: (Units=GPa)
#
#
# Indices 1 2 3 4 5 6 
#
# 1 127.5900 56.2980 56.0263 0.0000 0.0000 0.0000
# 2 56.2980 112.0764 50.4526 0.0000 0.0000 0.0000
# 3 56.0263 50.4526 100.2550 0.0000 0.0000 0.0000
# 4 0.0000 0.0000 0.0000 31.2859 0.0000 0.0000
# 5 0.0000 0.0000 0.0000 0.0000 15.6450 0.0000
# 6 0.0000 0.0000 0.0000 0.0000 0.0000 19.3064
#
#
#
# Elastic Compliance Matrix: (Units=1/GPa)
#
#
# Indices 1 2 3 4 5 6 
#
# 1 0.011472 -0.003719 -0.004539 0.000000 0.000000 0.000000
# 2 -0.003719 0.012742 -0.004334 0.000000 0.000000 0.000000
# 3 -0.004539 -0.004334 0.014692 0.000000 0.000000 0.000000
# 4 0.000000 0.000000 0.000000 0.031963 0.000000 0.000000
# 5 0.000000 0.000000 0.000000 0.000000 0.063918 0.000000
# 6 0.000000 0.000000 0.000000 0.000000 0.000000 0.051796
#
#
# Mechanical properties :
#
#
# Convention : Reuss Voigt Hill
#
# Bulk Modulus (GPa) = 72.87894 73.94167 73.41031
# Shear Modulus (GPa) = 23.11163 25.05711 24.08437
#
# Velocity S-wave (km/s) = 3.40216 3.54246 3.47302
# Velocity P-wave (km/s) = 7.20638 7.33234 7.26963
#
# Compressibility (1/GPa) = 0.01372138
#
# Stress axis : x y z
#
# Youngs Moduli (GPa) = 87.16953 78.48352 68.06334
#
# Poissons Ratio (x) = 0.29189 0.30896
# Poissons Ratio (y) = 0.32419 0.29497
# Poissons Ratio (z) = 0.39569 0.34012
#
# Static dielectric constant tensor:
#      x y z
#    x 3.816290 0.000000 0.000000 
#    y 0.000000 3.728030 0.000000 
#    z 0.000000 0.000000 3.448790 
# 
# 
# High freq. dielectric constant tensor:
#      x y z
#    x 1.791810 0.000000 0.000000 
#    y 0.000000 1.790380 0.000000 
#    z 0.000000 0.000000 1.755640 
# 
# From -- ./inp_files/22886.got.cif
#   From: 2010.03.12/outbox.cif.g09.slc.cpg/sg38_12_cif.got.tgz:22886.got - 2010.04.14 02:38:36.
