data_PCOD8178452
_publ_section_title
;
Structure prediction by ZEFSAII (Michael W. Deem and Ramdas Pophale) SiO2 
 PCOD8178452
Probable space group: A M M 2
;
_chemical_formula_sum "Si O2"
_cell_formula_units_Z 48
_cell_length_a 7.890570
_cell_length_b 9.554511
_cell_length_c 33.749305
_cell_angle_alpha 90.000000
_cell_angle_beta 90.000000
_cell_angle_gamma 90.000000
_cell_volume 2544.378256
_symmetry_space_group_name_H-M "A M M 2"
_symmetry_group_IT_number 38
_symmetry_cell_setting 'orthorhombic'
loop_
_space_group_symop_operation_xyz
x,y,z
-x,-y,z
-x,y,z
x,-y,z
x,1/2+y,1/2+z
-x,1/2-y,1/2+z
-x,1/2+y,1/2+z
x,1/2-y,1/2+z
loop_
_atom_site_type_symbol
_atom_site_label
_atom_site_fract_x
_atom_site_fract_y
_atom_site_fract_z
Si Si1 0.303311 0.661070 0.758340
Si Si2 0.500000 0.835572 0.631967
Si Si3 0.186986 0.665756 0.499343
Si Si4 0.305918 0.655897 0.416448
Si Si5 0.189536 0.659858 0.187391
Si Si6 0.500000 0.332610 0.551527
Si Si7 0.198944 0.660057 0.844491
O O1 0.500000 0.680904 0.749112
O O2 0.246295 0.500000 0.754855
O O3 0.197259 0.748606 0.726896
O O4 0.260939 0.717725 0.802126
O O5 0.669083 0.792392 0.655942
O O6 0.500000 0.741373 0.593458
O O7 0.500000 0.000000 0.621256
O O8 0.205328 0.500000 0.497343
O O9 0.209028 0.722010 0.454361
O O10 0.332470 0.722386 0.528563
O O11 0.000000 0.711281 0.514846
O O12 0.500000 0.647347 0.429292
O O13 0.236943 0.500000 0.406398
O O14 0.287873 0.751902 0.378372
O O15 0.224575 0.500000 0.199687
O O16 0.000000 0.677370 0.169116
O O17 0.500000 0.500000 0.557150
O O18 0.257303 0.500000 0.849461
O O19 0.000000 0.677402 0.848311
#
# Coordination Sequence:
#
# PCOD8178452 Si02
#       7
#     8   4   8   8   8   4   8
#     4  10  20  35  56  80 108 144 185 228 274 321
#     4  10  22  40  58  81 114 143 171 218 277 328
#     4   9  17  32  55  81 110 141 175 223 274 314
#     4  10  19  33  54  79 106 141 186 230 269 316
#     4  10  21  38  60  83 109 145 184 222 269 324
#     4  10  20  36  58  83 108 137 179 220 263 328
#     4  10  21  35  50  74 110 148 185 226 272 320
#
# _framework density 18.865117999999999
#
# number of rings (size 3 to 8) (size 9 to 14) (size 15 to 20)
#    0.000    2.167    1.667    1.500    0.000    5.000 
#    0.000    0.833    0.000    1.000    0.000    0.000 
#    0.000    0.000    0.000    0.000    0.000    0.000 
#
# Total GULP energy -297597.975057 kJ/mol
# GULP energy per Si atom -12399.915627 kJ/mol
# Density = 1.882218 g / cm^3
# Si number density = 18.865118 Si / 1000 Ang^3
#
#
#
# Elastic Constant Matrix: (Units=GPa)
#
#
# Indices 1 2 3 4 5 6 
#
# 1 124.4230 28.3850 62.3646 0.0000 0.0000 0.0000
# 2 28.3850 47.3306 49.8931 0.0000 0.0000 0.0000
# 3 62.3646 49.8931 140.3988 0.0000 0.0000 0.0000
# 4 0.0000 0.0000 0.0000 31.5888 0.0000 0.0000
# 5 0.0000 0.0000 0.0000 0.0000 22.1775 0.0000
# 6 0.0000 0.0000 0.0000 0.0000 0.0000 16.1217
#
#
#
# Elastic Compliance Matrix: (Units=1/GPa)
#
#
# Indices 1 2 3 4 5 6 
#
# 1 0.010481 -0.002203 -0.003873 0.000000 0.000000 0.000000
# 2 -0.002203 0.034247 -0.011191 0.000000 0.000000 0.000000
# 3 -0.003873 -0.011191 0.012820 0.000000 0.000000 0.000000
# 4 0.000000 0.000000 0.000000 0.031657 0.000000 0.000000
# 5 0.000000 0.000000 0.000000 0.000000 0.045091 0.000000
# 6 0.000000 0.000000 0.000000 0.000000 0.000000 0.062028
#
#
# Mechanical properties :
#
#
# Convention : Reuss Voigt Hill
#
# Bulk Modulus (GPa) = 43.45429 65.93754 54.69591
# Shear Modulus (GPa) = 20.96185 25.41157 23.18671
#
# Velocity S-wave (km/s) = 3.33700 3.67415 3.50962
# Velocity P-wave (km/s) = 6.15886 7.28197 6.74384
#
# Compressibility (1/GPa) = 0.02301269
#
# Stress axis : x y z
#
# Youngs Moduli (GPa) = 95.41271 29.19991 78.00435
#
# Poissons Ratio (x) = 0.06434 0.30207
# Poissons Ratio (y) = 0.21023 0.87298
# Poissons Ratio (z) = 0.36949 0.32679
#
# Static dielectric constant tensor:
#      x y z
#    x 3.685720 0.000000 0.000000 
#    y 0.000000 3.253310 0.000000 
#    z 0.000000 0.000000 3.343160 
# 
# 
# High freq. dielectric constant tensor:
#      x y z
#    x 1.752360 0.000000 0.000000 
#    y 0.000000 1.703770 0.000000 
#    z 0.000000 0.000000 1.728040 
# 
# From -- ./inp_files/24376.got.cif
#   From: 2010.03.12/outbox.cif.g09.slc.cpg/sg38_13_cif.got.tgz:24376.got - 2010.04.14 02:38:36.
