data_PCOD8178826
_publ_section_title
;
Structure prediction by ZEFSAII (Michael W. Deem and Ramdas Pophale) SiO2 
 PCOD8178826
Probable space group: A M M 2
;
_chemical_formula_sum "Si O2"
_cell_formula_units_Z 48
_cell_length_a 7.757221
_cell_length_b 9.193004
_cell_length_c 34.550110
_cell_angle_alpha 90.000000
_cell_angle_beta 90.000000
_cell_angle_gamma 90.000000
_cell_volume 2463.843100
_symmetry_space_group_name_H-M "A M M 2"
_symmetry_group_IT_number 38
_symmetry_cell_setting 'orthorhombic'
loop_
_space_group_symop_operation_xyz
x,y,z
-x,-y,z
-x,y,z
x,-y,z
x,1/2+y,1/2+z
-x,1/2-y,1/2+z
-x,1/2+y,1/2+z
x,1/2-y,1/2+z
loop_
_atom_site_type_symbol
_atom_site_label
_atom_site_fract_x
_atom_site_fract_y
_atom_site_fract_z
Si Si1 0.500000 0.171897 0.256510
Si Si2 0.801484 0.671161 0.701386
Si Si3 0.693981 0.836947 0.057127
Si Si4 0.203287 0.329044 0.390529
Si Si5 0.189823 0.672121 0.475951
Si Si6 0.196500 0.658387 0.127500
Si Si7 0.500000 0.673903 0.844413
O O1 0.675216 0.226893 0.235482
O O2 0.500000 0.228826 0.300202
O O3 0.500000 0.000000 0.256163
O O4 0.786216 0.500000 0.694920
O O5 0.727869 0.742934 0.661909
O O6 0.000000 0.714016 0.711367
O O7 0.500000 0.838995 0.071987
O O8 0.796846 0.733680 0.085717
O O9 0.773780 0.000000 0.058510
O O10 0.697495 0.777068 0.012800
O O11 0.240076 0.500000 0.384486
O O12 0.257961 0.276460 0.433977
O O13 0.324106 0.236532 0.362418
O O14 0.000000 0.296177 0.383055
O O15 0.183100 0.500000 0.473483
O O16 0.000000 0.736217 0.483092
O O17 0.289469 0.500000 0.126068
O O18 0.000000 0.634058 0.137957
O O19 0.500000 0.500000 0.848320
#
# Coordination Sequence:
#
# PCOD8178826 Si02
#       7
#     4   8   8   8   8   8   4
#     4   9  20  37  57  82 109 138 179 222 269 333
#     4   9  18  35  59  81 102 135 180 229 272 314
#     4  10  20  31  49  79 107 136 178 226 268 309
#     4   9  19  37  61  86 113 150 194 238 282 331
#     4   8  15  30  53  78 102 134 181 232 273 308
#     4  10  21  36  52  73 105 143 177 214 266 324
#     4  11  23  37  57  88 121 152 181 224 287 349
#
# _framework density 19.481760000000001
#
# number of rings (size 3 to 8) (size 9 to 14) (size 15 to 20)
#    0.000    2.667    0.000    2.250    2.333    3.000 
#    0.000    4.167    0.000    3.000    0.000    0.000 
#    0.000    0.000    0.000    0.000    0.000    0.000 
#
# Total GULP energy -297384.360653 kJ/mol
# GULP energy per Si atom -12391.015027 kJ/mol
# Density = 1.943742 g / cm^3
# Si number density = 19.481760 Si / 1000 Ang^3
#
#
#
# Elastic Constant Matrix: (Units=GPa)
#
#
# Indices 1 2 3 4 5 6 
#
# 1 86.1282 36.0720 60.1781 0.0000 0.0000 0.0000
# 2 36.0720 71.9048 56.7280 0.0000 0.0000 0.0000
# 3 60.1781 56.7280 172.7130 0.0000 0.0000 0.0000
# 4 0.0000 0.0000 0.0000 24.6875 0.0000 0.0000
# 5 0.0000 0.0000 0.0000 0.0000 34.8634 0.0000
# 6 0.0000 0.0000 0.0000 0.0000 0.0000 19.1053
#
#
#
# Elastic Compliance Matrix: (Units=1/GPa)
#
#
# Indices 1 2 3 4 5 6 
#
# 1 0.016620 -0.005087 -0.004120 0.000000 0.000000 0.000000
# 2 -0.005087 0.020329 -0.004904 0.000000 0.000000 0.000000
# 3 -0.004120 -0.004904 0.008836 0.000000 0.000000 0.000000
# 4 0.000000 0.000000 0.000000 0.040506 0.000000 0.000000
# 5 0.000000 0.000000 0.000000 0.000000 0.028683 0.000000
# 6 0.000000 0.000000 0.000000 0.000000 0.000000 0.052341
#
#
# Mechanical properties :
#
#
# Convention : Reuss Voigt Hill
#
# Bulk Modulus (GPa) = 56.94242 70.74468 63.84355
# Shear Modulus (GPa) = 24.82710 27.58245 26.20478
#
# Velocity S-wave (km/s) = 3.57371 3.76681 3.67153
# Velocity P-wave (km/s) = 6.80592 7.43711 7.12851
#
# Compressibility (1/GPa) = 0.01756160
#
# Stress axis : x y z
#
# Youngs Moduli (GPa) = 60.16917 49.19170 113.16930
#
# Poissons Ratio (x) = 0.25025 0.46625
# Poissons Ratio (y) = 0.30609 0.55503
# Poissons Ratio (z) = 0.24789 0.24126
#
# Static dielectric constant tensor:
#      x y z
#    x 3.557640 0.000000 0.000000 
#    y 0.000000 3.381240 0.000000 
#    z 0.000000 0.000000 3.755960 
# 
# 
# High freq. dielectric constant tensor:
#      x y z
#    x 1.757780 0.000000 0.000000 
#    y 0.000000 1.722870 0.000000 
#    z 0.000000 0.000000 1.763040 
# 
# From -- ./inp_files/24391.got.cif
#   From: 2010.03.12/outbox.cif.g09.slc.cpg/sg38_13_cif.got.tgz:24391.got - 2010.04.14 02:38:36.
