data_PCOD8178263
_publ_section_title
;
Structure prediction by ZEFSAII (Michael W. Deem and Ramdas Pophale) SiO2 
 PCOD8178263
Probable space group: A M M 2
;
_chemical_formula_sum "Si O2"
_cell_formula_units_Z 56
_cell_length_a 15.702292
_cell_length_b 9.318345
_cell_length_c 20.336846
_cell_angle_alpha 90.000000
_cell_angle_beta 90.000000
_cell_angle_gamma 90.000000
_cell_volume 2975.674579
_symmetry_space_group_name_H-M "A M M 2"
_symmetry_group_IT_number 38
_symmetry_cell_setting 'orthorhombic'
loop_
_space_group_symop_operation_xyz
x,y,z
-x,-y,z
-x,y,z
x,-y,z
x,1/2+y,1/2+z
-x,1/2-y,1/2+z
-x,1/2+y,1/2+z
x,1/2-y,1/2+z
loop_
_atom_site_type_symbol
_atom_site_label
_atom_site_fract_x
_atom_site_fract_y
_atom_site_fract_z
Si Si1 0.408367 0.333719 0.991950
Si Si2 0.593754 0.663732 0.275809
Si Si3 0.227315 0.669154 0.949718
Si Si4 0.651131 0.661663 0.133242
Si Si5 0.186621 0.830232 0.165375
Si Si6 0.243623 0.167034 0.305943
Si Si7 0.096474 0.667057 0.058886
O O1 0.500000 0.266469 0.967761
O O2 0.408895 0.500000 0.973019
O O3 0.322379 0.263625 0.961023
O O4 0.407267 0.311784 0.070366
O O5 0.500000 0.709698 0.300938
O O6 0.613340 0.500000 0.294837
O O7 0.593932 0.683932 0.197289
O O8 0.664117 0.760759 0.309916
O O9 0.232683 0.500000 0.961336
O O10 0.196542 0.703667 0.874945
O O11 0.158521 0.730106 0.001658
O O12 0.690304 0.500000 0.131464
O O13 0.727111 0.776339 0.131490
O O14 0.187679 0.783070 0.242936
O O15 0.109608 0.752828 0.127281
O O16 0.177191 0.000000 0.157668
O O17 0.262264 0.000000 0.299135
O O18 0.114210 0.500000 0.072258
O O19 0.000000 0.692092 0.035087
#
# Coordination Sequence:
#
# PCOD8178263 Si02
#       7
#     8   8   8   8   8   8   8
#     4   9  15  23  43  74 101 127 166 216 259 289
#     4   9  17  28  44  69 101 137 178 220 259 301
#     4   9  17  32  51  76 106 132 168 215 255 298
#     4   9  15  27  47  70  98 132 174 218 255 291
#     4  10  19  32  51  77 107 135 165 202 255 313
#     4   9  19  33  50  72 102 140 173 206 254 310
#     4  10  20  36  60  84 101 125 166 215 263 307
#
# _framework density 18.819261999999998
#
# number of rings (size 3 to 8) (size 9 to 14) (size 15 to 20)
#    0.000    2.714    1.429    0.857    0.000    3.429 
#    0.000    2.857    0.000    3.857    0.000    0.000 
#    0.000    0.000    0.000    0.000    0.000    0.000 
#
# Total GULP energy -346930.951914 kJ/mol
# GULP energy per Si atom -12390.391140 kJ/mol
# Density = 1.877643 g / cm^3
# Si number density = 18.819262 Si / 1000 Ang^3
#
#
#
# Elastic Constant Matrix: (Units=GPa)
#
#
# Indices 1 2 3 4 5 6 
#
# 1 108.8373 22.4448 55.5068 0.0000 0.0000 0.0000
# 2 22.4448 36.4540 28.8788 0.0000 0.0000 0.0000
# 3 55.5068 28.8788 112.0105 0.0000 0.0000 0.0000
# 4 0.0000 0.0000 0.0000 19.4476 0.0000 0.0000
# 5 0.0000 0.0000 0.0000 0.0000 13.9435 0.0000
# 6 0.0000 0.0000 0.0000 0.0000 0.0000 17.9020
#
#
#
# Elastic Compliance Matrix: (Units=1/GPa)
#
#
# Indices 1 2 3 4 5 6 
#
# 1 0.012650 -0.003547 -0.005354 0.000000 0.000000 0.000000
# 2 -0.003547 0.035467 -0.007386 0.000000 0.000000 0.000000
# 3 -0.005354 -0.007386 0.013485 0.000000 0.000000 0.000000
# 4 0.000000 0.000000 0.000000 0.051420 0.000000 0.000000
# 5 0.000000 0.000000 0.000000 0.000000 0.071718 0.000000
# 6 0.000000 0.000000 0.000000 0.000000 0.000000 0.055860
#
#
# Mechanical properties :
#
#
# Convention : Reuss Voigt Hill
#
# Bulk Modulus (GPa) = 34.45044 52.32919 43.38982
# Shear Modulus (GPa) = 17.67706 20.29004 18.98355
#
# Velocity S-wave (km/s) = 3.06814 3.28709 3.17950
# Velocity P-wave (km/s) = 5.55850 6.50178 6.04856
#
# Compressibility (1/GPa) = 0.02902720
#
# Stress axis : x y z
#
# Youngs Moduli (GPa) = 79.05023 28.19497 74.15407
#
# Poissons Ratio (x) = 0.10001 0.39704
# Poissons Ratio (y) = 0.28040 0.54774
# Poissons Ratio (z) = 0.42326 0.20826
#
# Static dielectric constant tensor:
#      x y z
#    x 3.432420 0.000000 0.000000 
#    y 0.000000 3.115880 0.000000 
#    z 0.000000 0.000000 3.629630 
# 
# 
# High freq. dielectric constant tensor:
#      x y z
#    x 1.713640 0.000000 0.000000 
#    y 0.000000 1.688530 0.000000 
#    z 0.000000 0.000000 1.736560 
# 
# From -- ./inp_files/21095.got.cif
#   From: 2010.03.12/outbox.cif.g09.slc.cpg/sg38_11_cif.got.tgz:21095.got - 2010.04.14 02:38:36.
