data_PCOD8178656
_publ_section_title
;
Structure prediction by ZEFSAII (Michael W. Deem and Ramdas Pophale) SiO2 
 PCOD8178656
Probable space group: A M M 2
;
_chemical_formula_sum "Si O2"
_cell_formula_units_Z 48
_cell_length_a 10.311622
_cell_length_b 9.115959
_cell_length_c 27.858759
_cell_angle_alpha 90.000000
_cell_angle_beta 90.000000
_cell_angle_gamma 90.000000
_cell_volume 2618.732355
_symmetry_space_group_name_H-M "A M M 2"
_symmetry_group_IT_number 38
_symmetry_cell_setting 'orthorhombic'
loop_
_space_group_symop_operation_xyz
x,y,z
-x,-y,z
-x,y,z
x,-y,z
x,1/2+y,1/2+z
-x,1/2-y,1/2+z
-x,1/2+y,1/2+z
x,1/2-y,1/2+z
loop_
_atom_site_type_symbol
_atom_site_label
_atom_site_fract_x
_atom_site_fract_y
_atom_site_fract_z
Si Si1 0.351395 0.832628 0.141550
Si Si2 0.500000 0.673388 0.796153
Si Si3 0.000000 0.174058 0.898712
Si Si4 0.500000 0.831415 0.895199
Si Si5 0.000000 0.174762 0.789385
Si Si6 0.649129 0.172541 0.546184
Si Si7 0.243436 0.171519 0.243427
Si Si8 0.248769 0.828605 0.956699
O O1 0.500000 0.801518 0.156835
O O2 0.306506 0.728275 0.098363
O O3 0.259173 0.800752 0.186700
O O4 0.336570 0.000000 0.124242
O O5 0.500000 0.500000 0.794640
O O6 0.500000 0.727024 0.850098
O O7 0.371844 0.731606 0.769704
O O8 0.126308 0.231714 0.926829
O O9 0.000000 0.233941 0.844241
O O10 0.000000 0.000000 0.896919
O O11 0.375118 0.792814 0.926109
O O12 0.500000 0.000000 0.878287
O O13 0.874841 0.233654 0.762243
O O14 0.000000 0.000000 0.787751
O O15 0.500000 0.219926 0.536741
O O16 0.742838 0.244395 0.506940
O O17 0.666609 0.000000 0.544100
O O18 0.219264 0.000000 0.254157
O O19 0.235305 0.000000 0.967958
#
# Coordination Sequence:
#
# PCOD8178656 Si02
#       8
#     8   4   4   4   4   8   8   8
#     4   9  17  33  58  83 109 143 183 223 268 326
#     4  10  20  34  55  82 111 141 180 235 287 328
#     4   9  20  37  56  77 106 143 186 229 268 315
#     4  10  20  32  51  78 107 141 184 229 273 328
#     4  11  23  39  58  81 114 153 188 231 282 331
#     4  10  20  33  52  82 116 141 171 223 282 330
#     4  10  20  37  58  83 112 146 188 231 276 332
#     4  10  19  35  56  77 103 142 187 226 266 321
#
# _framework density 18.329478999999999
#
# number of rings (size 3 to 8) (size 9 to 14) (size 15 to 20)
#    0.000    2.167    1.667    1.750    0.000    4.000 
#    0.000    2.917    0.000    2.000    0.000    0.000 
#    0.000    0.000    0.000    0.000    0.000    0.000 
#
# Total GULP energy -297664.156732 kJ/mol
# GULP energy per Si atom -12402.673197 kJ/mol
# Density = 1.828776 g / cm^3
# Si number density = 18.329479 Si / 1000 Ang^3
#
#
#
# Elastic Constant Matrix: (Units=GPa)
#
#
# Indices 1 2 3 4 5 6 
#
# 1 135.5660 42.5685 68.6302 0.0000 0.0000 0.0000
# 2 42.5685 52.0111 48.5338 0.0000 0.0000 0.0000
# 3 68.6302 48.5338 133.1035 0.0000 0.0000 0.0000
# 4 0.0000 0.0000 0.0000 35.6418 0.0000 0.0000
# 5 0.0000 0.0000 0.0000 0.0000 -9.2404 0.0000
# 6 0.0000 0.0000 0.0000 0.0000 0.0000 38.7378
#
#
#
# Elastic Compliance Matrix: (Units=1/GPa)
#
#
# Indices 1 2 3 4 5 6 
#
# 1 0.010964 -0.005605 -0.003609 0.000000 0.000000 0.000000
# 2 -0.005605 0.032008 -0.008781 0.000000 0.000000 0.000000
# 3 -0.003609 -0.008781 0.012576 0.000000 0.000000 0.000000
# 4 0.000000 0.000000 0.000000 0.028057 0.000000 0.000000
# 5 0.000000 0.000000 0.000000 0.000000 -0.108220 0.000000
# 6 0.000000 0.000000 0.000000 0.000000 0.000000 0.025815
#
#
# Mechanical properties :
#
#
# Convention : Reuss Voigt Hill
#
# Bulk Modulus (GPa) = 51.13352 71.12729 61.13040
# Shear Modulus (GPa) = 114.39249 23.75771 69.07510
#
# Velocity S-wave (km/s) = 7.90851 3.60411 6.14549
# Velocity P-wave (km/s) = 10.55226 7.49724 9.15311
#
# Compressibility (1/GPa) = 0.01955664
#
# Stress axis : x y z
#
# Youngs Moduli (GPa) = 91.20968 31.24180 79.51819
#
# Poissons Ratio (x) = 0.17512 0.28699
# Poissons Ratio (y) = 0.51127 0.69825
# Poissons Ratio (z) = 0.32919 0.27434
#
# Static dielectric constant tensor:
#      x y z
#    x 3.524180 0.000000 0.000000 
#    y 0.000000 3.179440 0.000000 
#    z 0.000000 0.000000 3.437700 
# 
# 
# High freq. dielectric constant tensor:
#      x y z
#    x 1.700870 0.000000 0.000000 
#    y 0.000000 1.696140 0.000000 
#    z 0.000000 0.000000 1.722640 
# 
# From -- ./inp_files/24484.got.cif
#   From: 2010.03.12/outbox.cif.g09.slc.cpg/sg38_13_cif.got.tgz:24484.got - 2010.04.14 02:38:36.
