data_PCOD8178860
_publ_section_title
;
Structure prediction by ZEFSAII (Michael W. Deem and Ramdas Pophale) SiO2 
 PCOD8178860
Probable space group: A M M 2
;
_chemical_formula_sum "Si O2"
_cell_formula_units_Z 64
_cell_length_a 8.848488
_cell_length_b 29.866432
_cell_length_c 14.418045
_cell_angle_alpha 90.000000
_cell_angle_beta 90.000000
_cell_angle_gamma 90.000000
_cell_volume 3810.296620
_symmetry_space_group_name_H-M "A M M 2"
_symmetry_group_IT_number 38
_symmetry_cell_setting 'orthorhombic'
loop_
_space_group_symop_operation_xyz
x,y,z
-x,-y,z
-x,y,z
x,-y,z
x,1/2+y,1/2+z
-x,1/2-y,1/2+z
-x,1/2+y,1/2+z
x,1/2-y,1/2+z
loop_
_atom_site_type_symbol
_atom_site_label
_atom_site_fract_x
_atom_site_fract_y
_atom_site_fract_z
Si Si1 0.320320 0.785883 0.660880
Si Si2 0.173420 0.049684 0.024845
Si Si3 0.176744 0.864893 0.770180
Si Si4 0.669972 0.222210 0.451948
Si Si5 0.172380 0.139561 0.113581
Si Si6 0.174469 0.295651 0.771582
Si Si7 0.669603 0.674546 0.441185
Si Si8 0.322844 0.550694 0.331084
O O1 0.500000 0.783091 0.665716
O O2 0.265274 0.833472 0.698955
O O3 0.261176 0.782801 0.554936
O O4 0.257101 0.745102 0.720715
O O5 0.205095 0.086163 0.105757
O O6 0.000000 0.052238 0.990920
O O7 0.210422 0.000000 0.064204
O O8 0.278058 0.061148 0.937340
O O9 0.211715 0.850022 0.875170
O O10 0.235503 0.916041 0.760811
O O11 0.000000 0.862236 0.749627
O O12 0.500000 0.203254 0.450975
O O13 0.766464 0.195360 0.375681
O O14 0.673434 0.273300 0.419361
O O15 0.202626 0.157634 0.217102
O O16 0.000000 0.149973 0.084373
O O17 0.283546 0.166802 0.046934
O O18 0.000000 0.282484 0.776026
O O19 0.500000 0.656005 0.423950
O O20 0.500000 0.558409 0.320204
O O21 0.276297 0.500000 0.305116
#
# Coordination Sequence:
#
# PCOD8178860 Si02
#       8
#     8   8   8   8   8   8   8   8
#     4  11  22  37  53  71  97 131 173 213 251 300
#     4   9  17  30  48  70 100 136 170 207 251 298
#     4  12  23  34  50  75 103 136 171 207 254 304
#     4  10  22  37  52  70  98 135 174 214 252 295
#     4  10  20  32  47  73 103 135 172 209 250 300
#     4  11  22  33  50  74 102 133 168 210 255 304
#     4  11  20  31  49  72 100 137 173 208 247 292
#     4  10  20  33  50  74 103 134 169 207 248 298
#
# _framework density 16.796592
#
# number of rings (size 3 to 8) (size 9 to 14) (size 15 to 20)
#    0.000    1.500    3.750    2.625    0.000    2.750 
#    0.000    0.000    0.000    0.000    0.000    0.875 
#    0.000    3.000    0.000    0.000    0.000    0.000 
#
# Total GULP energy -396786.001217 kJ/mol
# GULP energy per Si atom -12399.562538 kJ/mol
# Density = 1.675836 g / cm^3
# Si number density = 16.796592 Si / 1000 Ang^3
#
#
#
# Elastic Constant Matrix: (Units=GPa)
#
#
# Indices 1 2 3 4 5 6 
#
# 1 68.3406 26.6436 31.4217 0.0000 0.0000 0.0000
# 2 26.6436 92.6868 33.7308 0.0000 0.0000 0.0000
# 3 31.4217 33.7308 86.4192 0.0000 0.0000 0.0000
# 4 0.0000 0.0000 0.0000 25.4046 0.0000 0.0000
# 5 0.0000 0.0000 0.0000 0.0000 24.8305 0.0000
# 6 0.0000 0.0000 0.0000 0.0000 0.0000 20.5521
#
#
#
# Elastic Compliance Matrix: (Units=1/GPa)
#
#
# Indices 1 2 3 4 5 6 
#
# 1 0.018411 -0.003329 -0.005395 0.000000 0.000000 0.000000
# 2 -0.003329 0.013177 -0.003933 0.000000 0.000000 0.000000
# 3 -0.005395 -0.003933 0.015068 0.000000 0.000000 0.000000
# 4 0.000000 0.000000 0.000000 0.039363 0.000000 0.000000
# 5 0.000000 0.000000 0.000000 0.000000 0.040273 0.000000
# 6 0.000000 0.000000 0.000000 0.000000 0.000000 0.048657
#
#
# Mechanical properties :
#
#
# Convention : Reuss Voigt Hill
#
# Bulk Modulus (GPa) = 46.85411 47.89320 47.37365
# Shear Modulus (GPa) = 24.11071 24.53413 24.32242
#
# Velocity S-wave (km/s) = 3.79285 3.82601 3.80946
# Velocity P-wave (km/s) = 6.86560 6.93493 6.90035
#
# Compressibility (1/GPa) = 0.02134285
#
# Stress axis : x y z
#
# Youngs Moduli (GPa) = 54.31571 75.88834 66.36549
#
# Poissons Ratio (x) = 0.25264 0.35802
# Poissons Ratio (y) = 0.18082 0.26101
# Poissons Ratio (z) = 0.29302 0.29846
#
# Static dielectric constant tensor:
#      x y z
#    x 3.231990 0.000000 0.000000 
#    y 0.000000 3.308300 0.000000 
#    z 0.000000 0.000000 3.031080 
# 
# 
# High freq. dielectric constant tensor:
#      x y z
#    x 1.658020 0.000000 0.000000 
#    y 0.000000 1.642010 0.000000 
#    z 0.000000 0.000000 1.615970 
# 
# From -- ./inp_files/13065.got.cif
#   From: 2010.03.12/outbox.cif.g09.slc.cpg/sg38_7_cif.got.tgz:13065.got - 2010.04.14 02:38:36.
