data_PCOD8178285
_publ_section_title
;
Structure prediction by ZEFSAII (Michael W. Deem and Ramdas Pophale) SiO2 
 PCOD8178285
Probable space group: A M M 2
;
_chemical_formula_sum "Si O2"
_cell_formula_units_Z 64
_cell_length_a 8.979448
_cell_length_b 27.275293
_cell_length_c 14.533576
_cell_angle_alpha 90.000000
_cell_angle_beta 90.000000
_cell_angle_gamma 90.000000
_cell_volume 3559.520926
_symmetry_space_group_name_H-M "A M M 2"
_symmetry_group_IT_number 38
_symmetry_cell_setting 'orthorhombic'
loop_
_space_group_symop_operation_xyz
x,y,z
-x,-y,z
-x,y,z
x,-y,z
x,1/2+y,1/2+z
-x,1/2-y,1/2+z
-x,1/2+y,1/2+z
x,1/2-y,1/2+z
loop_
_atom_site_type_symbol
_atom_site_label
_atom_site_fract_x
_atom_site_fract_y
_atom_site_fract_z
Si Si1 0.174369 0.640415 0.300050
Si Si2 0.662696 0.772310 0.427358
Si Si3 0.828590 0.944444 0.663657
Si Si4 0.175327 0.323993 0.665770
Si Si5 0.334468 0.268709 0.225354
Si Si6 0.323227 0.332473 0.485849
Si Si7 0.674686 0.443663 0.977742
Si Si8 0.826388 0.637296 0.866100
O O1 0.204419 0.587994 0.253406
O O2 0.245387 0.680496 0.231811
O O3 0.252047 0.639240 0.399599
O O4 0.000000 0.651890 0.312466
O O5 0.500000 0.789792 0.462865
O O6 0.646443 0.754183 0.324411
O O7 0.720027 0.725390 0.484257
O O8 0.775731 0.817831 0.432323
O O9 0.733814 0.925726 0.576736
O O10 0.000000 0.940167 0.634099
O O11 0.784899 0.000000 0.689995
O O12 0.240911 0.269010 0.664026
O O13 0.252262 0.353091 0.580698
O O14 0.215215 0.352252 0.759945
O O15 0.000000 0.321215 0.650697
O O16 0.500000 0.277246 0.182540
O O17 0.500000 0.340552 0.483339
O O18 0.500000 0.435944 0.975619
O O19 0.720479 0.500000 0.960922
O O20 0.745360 0.412370 0.895409
O O21 0.000000 0.630486 0.880091
#
# Coordination Sequence:
#
# PCOD8178285 Si02
#       8
#     8   8   8   8   8   8   8   8
#     4  10  19  32  52  76 102 133 170 211 253 299
#     4   8  16  30  46  66  94 128 165 202 239 284
#     4   9  19  36  56  77 101 129 162 203 253 305
#     4  10  20  33  50  74 103 136 175 213 249 293
#     4   9  17  30  47  68  97 132 168 204 245 291
#     4  10  20  33  50  73 103 140 175 208 251 297
#     4  10  21  36  55  78 101 127 161 203 252 304
#     4  10  20  33  52  76 101 132 168 207 252 299
#
# _framework density 17.979948
#
# number of rings (size 3 to 8) (size 9 to 14) (size 15 to 20)
#    0.000    2.500    0.000    3.000    0.000    7.750 
#    0.000    0.000    0.000    0.750    0.000    1.750 
#    0.000    0.000    0.000    0.000    0.000    0.000 
#
# Total GULP energy -396721.164819 kJ/mol
# GULP energy per Si atom -12397.536401 kJ/mol
# Density = 1.793902 g / cm^3
# Si number density = 17.979948 Si / 1000 Ang^3
#
#
#
# Elastic Constant Matrix: (Units=GPa)
#
#
# Indices 1 2 3 4 5 6 
#
# 1 112.8730 50.7593 57.6619 0.0000 0.0000 0.0000
# 2 50.7593 82.2598 49.8166 0.0000 0.0000 0.0000
# 3 57.6619 49.8166 104.6550 0.0000 0.0000 0.0000
# 4 0.0000 0.0000 0.0000 21.1103 0.0000 0.0000
# 5 0.0000 0.0000 0.0000 0.0000 24.3505 0.0000
# 6 0.0000 0.0000 0.0000 0.0000 0.0000 26.6490
#
#
#
# Elastic Compliance Matrix: (Units=1/GPa)
#
#
# Indices 1 2 3 4 5 6 
#
# 1 0.013924 -0.005544 -0.005032 0.000000 0.000000 0.000000
# 2 -0.005544 0.019288 -0.006127 0.000000 0.000000 0.000000
# 3 -0.005032 -0.006127 0.015244 0.000000 0.000000 0.000000
# 4 0.000000 0.000000 0.000000 0.047370 0.000000 0.000000
# 5 0.000000 0.000000 0.000000 0.000000 0.041067 0.000000
# 6 0.000000 0.000000 0.000000 0.000000 0.000000 0.037525
#
#
# Mechanical properties :
#
#
# Convention : Reuss Voigt Hill
#
# Bulk Modulus (GPa) = 66.44728 68.47370 67.46049
# Shear Modulus (GPa) = 23.49180 23.85864 23.67522
#
# Velocity S-wave (km/s) = 3.61855 3.64670 3.63265
# Velocity P-wave (km/s) = 7.38208 7.47644 7.42941
#
# Compressibility (1/GPa) = 0.01504952
#
# Stress axis : x y z
#
# Youngs Moduli (GPa) = 71.82084 51.84614 65.59847
#
# Poissons Ratio (x) = 0.28743 0.33012
# Poissons Ratio (y) = 0.39817 0.40189
# Poissons Ratio (z) = 0.36144 0.31764
#
# Static dielectric constant tensor:
#      x y z
#    x 3.473880 0.000000 0.000000 
#    y 0.000000 3.240770 0.000000 
#    z 0.000000 0.000000 3.343910 
# 
# 
# High freq. dielectric constant tensor:
#      x y z
#    x 1.709820 0.000000 0.000000 
#    y 0.000000 1.668270 0.000000 
#    z 0.000000 0.000000 1.692310 
# 
# From -- ./inp_files/12726.got.cif
#   From: 2010.03.12/outbox.cif.g09.slc.cpg/sg38_7_cif.got.tgz:12726.got - 2010.04.14 02:38:36.
