data_PCOD8178977
_publ_section_title
;
Structure prediction by ZEFSAII (Michael W. Deem and Ramdas Pophale) SiO2 
 PCOD8178977
Probable space group: A M M 2
;
_chemical_formula_sum "Si O2"
_cell_formula_units_Z 64
_cell_length_a 19.531698
_cell_length_b 9.096225
_cell_length_c 20.420815
_cell_angle_alpha 90.000000
_cell_angle_beta 90.000000
_cell_angle_gamma 90.000000
_cell_volume 3628.058372
_symmetry_space_group_name_H-M "A M M 2"
_symmetry_group_IT_number 38
_symmetry_cell_setting 'orthorhombic'
loop_
_space_group_symop_operation_xyz
x,y,z
-x,-y,z
-x,y,z
x,-y,z
x,1/2+y,1/2+z
-x,1/2-y,1/2+z
-x,1/2+y,1/2+z
x,1/2-y,1/2+z
loop_
_atom_site_type_symbol
_atom_site_label
_atom_site_fract_x
_atom_site_fract_y
_atom_site_fract_z
Si Si1 0.333219 0.828936 0.595240
Si Si2 0.664828 0.172727 0.228026
Si Si3 0.175769 0.171710 0.594875
Si Si4 0.076640 0.674646 0.983251
Si Si5 0.420753 0.330107 0.971443
Si Si6 0.076655 0.825271 0.337846
Si Si7 0.419816 0.829662 0.839776
Si Si8 0.177718 0.827293 0.227329
O O1 0.357447 0.737068 0.657974
O O2 0.254532 0.795625 0.577997
O O3 0.377910 0.776146 0.533855
O O4 0.345372 0.000000 0.610808
O O5 0.619231 0.245258 0.283249
O O6 0.743723 0.211985 0.242834
O O7 0.651506 0.000000 0.227621
O O8 0.130451 0.237965 0.535712
O O9 0.152724 0.251479 0.660955
O O10 0.162142 0.000000 0.604644
O O11 0.080631 0.500000 0.982568
O O12 0.095322 0.733777 0.910555
O O13 0.000000 0.725875 0.002476
O O14 0.500000 0.303767 0.987837
O O15 0.405481 0.500000 0.955385
O O16 0.396800 0.235165 0.909534
O O17 0.131411 0.762552 0.286104
O O18 0.000000 0.773345 0.318462
O O19 0.079883 0.000000 0.338123
O O20 0.500000 0.803795 0.828724
O O21 0.400014 0.000000 0.837741
O O22 0.167414 0.000000 0.218562
#
# Coordination Sequence:
#
# PCOD8178977 Si02
#       8
#     8   8   8   8   8   8   8   8
#     4   9  18  32  49  70  97 128 161 197 238 285
#     4  10  20  33  50  72  99 130 163 201 242 285
#     4   9  17  29  46  67  92 122 154 190 233 280
#     4   8  14  25  42  65  90 116 152 196 235 273
#     4   9  18  33  52  73  97 124 155 193 237 285
#     4   8  14  26  45  68  93 122 158 198 235 273
#     4  10  21  36  53  73  98 127 159 197 240 287
#     4   9  18  31  47  69  96 124 156 195 236 278
#
# _framework density 17.640288999999999
#
# number of rings (size 3 to 8) (size 9 to 14) (size 15 to 20)
#    0.000    3.000    0.000    1.500    0.000    3.750 
#    0.000    5.000    0.000    0.750    0.000    1.750 
#    0.000    0.000    0.000    0.000    0.000    0.000 
#
# Total GULP energy -396777.017510 kJ/mol
# GULP energy per Si atom -12399.281797 kJ/mol
# Density = 1.760014 g / cm^3
# Si number density = 17.640289 Si / 1000 Ang^3
#
#
#
# Elastic Constant Matrix: (Units=GPa)
#
#
# Indices 1 2 3 4 5 6 
#
# 1 82.8251 37.4319 93.8467 0.0000 0.0000 0.0000
# 2 37.4319 51.6590 59.1942 0.0000 0.0000 0.0000
# 3 93.8467 59.1942 178.4479 0.0000 0.0000 0.0000
# 4 0.0000 0.0000 0.0000 31.9118 0.0000 0.0000
# 5 0.0000 0.0000 0.0000 0.0000 43.5538 0.0000
# 6 0.0000 0.0000 0.0000 0.0000 0.0000 15.5005
#
#
#
# Elastic Compliance Matrix: (Units=1/GPa)
#
#
# Indices 1 2 3 4 5 6 
#
# 1 0.031026 -0.006105 -0.014292 0.000000 0.000000 0.000000
# 2 -0.006105 0.032429 -0.007546 0.000000 0.000000 0.000000
# 3 -0.014292 -0.007546 0.015623 0.000000 0.000000 0.000000
# 4 0.000000 0.000000 0.000000 0.031336 0.000000 0.000000
# 5 0.000000 0.000000 0.000000 0.000000 0.022960 0.000000
# 6 0.000000 0.000000 0.000000 0.000000 0.000000 0.064514
#
#
# Mechanical properties :
#
#
# Convention : Reuss Voigt Hill
#
# Bulk Modulus (GPa) = 43.11900 77.09753 60.10826
# Shear Modulus (GPa) = 19.12002 26.35716 22.73859
#
# Velocity S-wave (km/s) = 3.29581 3.86961 3.59418
# Velocity P-wave (km/s) = 6.24337 7.98533 7.16747
#
# Compressibility (1/GPa) = 0.02319163
#
# Stress axis : x y z
#
# Youngs Moduli (GPa) = 32.23067 30.83692 64.00724
#
# Poissons Ratio (x) = 0.18827 0.91477
# Poissons Ratio (y) = 0.19677 0.48302
# Poissons Ratio (z) = 0.46063 0.23271
#
# Static dielectric constant tensor:
#      x y z
#    x 3.386760 0.000000 0.000000 
#    y 0.000000 3.035700 0.000000 
#    z 0.000000 0.000000 3.524830 
# 
# 
# High freq. dielectric constant tensor:
#      x y z
#    x 1.681070 0.000000 0.000000 
#    y 0.000000 1.654710 0.000000 
#    z 0.000000 0.000000 1.691270 
# 
# From -- ./inp_files/18877.got.cif
#   From: 2010.03.12/outbox.cif.g09.slc.cpg/sg38_10_cif.got.tgz:18877.got - 2010.04.14 02:38:36.
