data_PCOD8178885
_publ_section_title
;
Structure prediction by ZEFSAII (Michael W. Deem and Ramdas Pophale) SiO2 
 PCOD8178885
Probable space group: A M M 2
;
_chemical_formula_sum "Si O2"
_cell_formula_units_Z 64
_cell_length_a 14.627011
_cell_length_b 13.966915
_cell_length_c 16.783877
_cell_angle_alpha 90.000000
_cell_angle_beta 90.000000
_cell_angle_gamma 90.000000
_cell_volume 3428.849049
_symmetry_space_group_name_H-M "A M M 2"
_symmetry_group_IT_number 38
_symmetry_cell_setting 'orthorhombic'
loop_
_space_group_symop_operation_xyz
x,y,z
-x,-y,z
-x,y,z
x,-y,z
x,1/2+y,1/2+z
-x,1/2-y,1/2+z
-x,1/2+y,1/2+z
x,1/2-y,1/2+z
loop_
_atom_site_type_symbol
_atom_site_label
_atom_site_fract_x
_atom_site_fract_y
_atom_site_fract_z
Si Si1 0.750212 0.890570 0.807830
Si Si2 0.740003 0.392150 0.580189
Si Si3 0.806335 0.608429 0.751227
Si Si4 0.396204 0.890824 0.680478
Si Si5 0.392011 0.764697 0.529870
Si Si6 0.246428 0.792117 0.407065
Si Si7 0.894021 0.746064 0.531582
Si Si8 0.899448 0.202925 0.707578
O O1 0.659383 0.863880 0.759097
O O2 0.755322 0.819938 0.882392
O O3 0.833908 0.873618 0.748062
O O4 0.750547 0.000000 0.838061
O O5 0.733837 0.500000 0.549898
O O6 0.736893 0.385849 0.676623
O O7 0.650800 0.339461 0.545658
O O8 0.835452 0.350330 0.546205
O O9 0.846474 0.500000 0.757999
O O10 0.753645 0.635704 0.832595
O O11 0.884722 0.687253 0.736773
O O12 0.500000 0.870466 0.703680
O O13 0.366145 0.827657 0.606044
O O14 0.379047 0.000000 0.655101
O O15 0.500000 0.758295 0.512967
O O16 0.340255 0.812501 0.454775
O O17 0.155697 0.807252 0.461811
O O18 0.889417 0.807513 0.612524
O O19 0.000000 0.722445 0.509217
O O20 0.000000 0.174162 0.735272
#
# Coordination Sequence:
#
# PCOD8178885 Si02
#       8
#     8   8   8   8   8   8   8   8
#     4  10  20  34  52  73 100 134 167 204 250 294
#     4   9  18  34  54  75  97 126 171 213 241 284
#     4   9  18  33  53  74  99 132 166 205 252 295
#     4   9  18  34  56  77  94 121 168 216 251 290
#     4  10  20  34  53  75 101 133 165 202 249 296
#     4  10  20  32  48  76 108 133 161 198 244 304
#     4   9  18  33  52  72  98 132 165 204 251 292
#     4   9  18  34  54  74  97 128 171 214 244 285
#
# _framework density 18.665156
#
# number of rings (size 3 to 8) (size 9 to 14) (size 15 to 20)
#    0.000    2.625    0.000    3.000    0.000    6.000 
#    0.000    3.750    0.000    1.500    0.000    0.000 
#    0.000    0.000    0.000    0.000    0.000    0.000 
#
# Total GULP energy -396667.907677 kJ/mol
# GULP energy per Si atom -12395.872115 kJ/mol
# Density = 1.862267 g / cm^3
# Si number density = 18.665156 Si / 1000 Ang^3
#
#
#
# Elastic Constant Matrix: (Units=GPa)
#
#
# Indices 1 2 3 4 5 6 
#
# 1 101.2077 13.6203 27.3873 0.0000 0.0000 0.0000
# 2 13.6203 36.0719 3.5139 0.0000 0.0000 0.0000
# 3 27.3873 3.5139 63.7822 0.0000 0.0000 0.0000
# 4 0.0000 0.0000 0.0000 20.1583 0.0000 0.0000
# 5 0.0000 0.0000 0.0000 0.0000 18.4563 0.0000
# 6 0.0000 0.0000 0.0000 0.0000 0.0000 20.3086
#
#
#
# Elastic Compliance Matrix: (Units=1/GPa)
#
#
# Indices 1 2 3 4 5 6 
#
# 1 0.011715 -0.003955 -0.004812 0.000000 0.000000 0.000000
# 2 -0.003955 0.029207 0.000089 0.000000 0.000000 0.000000
# 3 -0.004812 0.000089 0.017740 0.000000 0.000000 0.000000
# 4 0.000000 0.000000 0.000000 0.049607 0.000000 0.000000
# 5 0.000000 0.000000 0.000000 0.000000 0.054182 0.000000
# 6 0.000000 0.000000 0.000000 0.000000 0.000000 0.049240
#
#
# Mechanical properties :
#
#
# Convention : Reuss Voigt Hill
#
# Bulk Modulus (GPa) = 24.20972 32.23386 28.22179
# Shear Modulus (GPa) = 20.59167 22.22065 21.40616
#
# Velocity S-wave (km/s) = 3.32507 3.45409 3.39019
# Velocity P-wave (km/s) = 5.26689 5.76322 5.52064
#
# Compressibility (1/GPa) = 0.04130572
#
# Stress axis : x y z
#
# Youngs Moduli (GPa) = 85.35938 34.23837 56.37019
#
# Poissons Ratio (x) = 0.13540 0.27128
# Poissons Ratio (y) = 0.33757 -0.00502
# Poissons Ratio (z) = 0.41079 -0.00305
#
# Static dielectric constant tensor:
#      x y z
#    x 3.393170 0.000000 0.000000 
#    y 0.000000 3.284610 0.000000 
#    z 0.000000 0.000000 3.568100 
# 
# 
# High freq. dielectric constant tensor:
#      x y z
#    x 1.715350 0.000000 0.000000 
#    y 0.000000 1.708010 0.000000 
#    z 0.000000 0.000000 1.734000 
# 
# From -- ./inp_files/18499.got.cif
#   From: 2010.03.12/outbox.cif.g09.slc.cpg/sg38_10_cif.got.tgz:18499.got - 2010.04.14 02:38:36.
