data_PCOD8178041
_publ_section_title
;
Structure prediction by ZEFSAII (Michael W. Deem and Ramdas Pophale) SiO2 
 PCOD8178041
Probable space group: A M M 2
;
_chemical_formula_sum "Si O2"
_cell_formula_units_Z 56
_cell_length_a 15.476878
_cell_length_b 9.207054
_cell_length_c 20.546668
_cell_angle_alpha 90.000000
_cell_angle_beta 90.000000
_cell_angle_gamma 90.000000
_cell_volume 2927.827280
_symmetry_space_group_name_H-M "A M M 2"
_symmetry_group_IT_number 38
_symmetry_cell_setting 'orthorhombic'
loop_
_space_group_symop_operation_xyz
x,y,z
-x,-y,z
-x,y,z
x,-y,z
x,1/2+y,1/2+z
-x,1/2-y,1/2+z
-x,1/2+y,1/2+z
x,1/2-y,1/2+z
loop_
_atom_site_type_symbol
_atom_site_label
_atom_site_fract_x
_atom_site_fract_y
_atom_site_fract_z
Si Si1 0.324389 0.663913 0.945360
Si Si2 0.725975 0.670349 0.666829
Si Si3 0.870332 0.665769 0.981435
Si Si4 0.256573 0.671928 0.809158
Si Si5 0.402146 0.331396 0.558046
Si Si6 0.905075 0.666705 0.609442
Si Si7 0.904521 0.666613 0.354161
O O1 0.359750 0.500000 0.944630
O O2 0.232827 0.674770 0.980851
O O3 0.315754 0.721445 0.870459
O O4 0.390189 0.759721 0.987135
O O5 0.714851 0.500000 0.660593
O O6 0.699068 0.716254 0.740493
O O7 0.661147 0.739498 0.613083
O O8 0.826203 0.715733 0.656082
O O9 0.901504 0.500000 0.973515
O O10 0.910337 0.761852 0.924807
O O11 0.905768 0.728918 0.047982
O O12 0.239196 0.500000 0.814515
O O13 0.163483 0.748394 0.809739
O O14 0.500000 0.305101 0.581535
O O15 0.381636 0.500000 0.548606
O O16 0.890286 0.500000 0.587251
O O17 0.000000 0.682613 0.643597
O O18 0.874707 0.500000 0.361288
O O19 0.000000 0.676564 0.322164
#
# Coordination Sequence:
#
# PCOD8178041 Si02
#       7
#     8   8   8   8   8   8   8
#     4   9  18  33  53  79 107 135 172 217 269 322
#     4   9  18  35  55  78 110 142 177 222 264 313
#     4  10  19  31  49  74 104 139 180 225 271 316
#     4   9  19  35  55  77 104 142 182 220 268 322
#     4  10  20  35  59  86 107 135 176 219 268 325
#     4  10  19  30  48  75 106 143 182 218 265 318
#     4  10  20  32  47  71 104 141 183 228 272 318
#
# _framework density 19.126809999999999
#
# number of rings (size 3 to 8) (size 9 to 14) (size 15 to 20)
#    0.000    2.429    1.429    2.143    0.000    6.286 
#    0.000    3.571    0.000    2.571    0.000    0.000 
#    0.000    0.000    0.000    0.000    0.000    0.000 
#
# Total GULP energy -347024.694784 kJ/mol
# GULP energy per Si atom -12393.739099 kJ/mol
# Density = 1.908328 g / cm^3
# Si number density = 19.126810 Si / 1000 Ang^3
#
#
#
# Elastic Constant Matrix: (Units=GPa)
#
#
# Indices 1 2 3 4 5 6 
#
# 1 82.6620 23.9508 55.4746 0.0000 0.0000 0.0000
# 2 23.9508 57.5368 31.4879 0.0000 0.0000 0.0000
# 3 55.4746 31.4879 132.8014 0.0000 0.0000 0.0000
# 4 0.0000 0.0000 0.0000 22.8634 0.0000 0.0000
# 5 0.0000 0.0000 0.0000 0.0000 11.6194 0.0000
# 6 0.0000 0.0000 0.0000 0.0000 0.0000 21.2504
#
#
#
# Elastic Compliance Matrix: (Units=1/GPa)
#
#
# Indices 1 2 3 4 5 6 
#
# 1 0.017495 -0.003773 -0.006413 0.000000 0.000000 0.000000
# 2 -0.003773 0.020785 -0.003352 0.000000 0.000000 0.000000
# 3 -0.006413 -0.003352 0.011004 0.000000 0.000000 0.000000
# 4 0.000000 0.000000 0.000000 0.043738 0.000000 0.000000
# 5 0.000000 0.000000 0.000000 0.000000 0.086063 0.000000
# 6 0.000000 0.000000 0.000000 0.000000 0.000000 0.047058
#
#
# Mechanical properties :
#
#
# Convention : Reuss Voigt Hill
#
# Bulk Modulus (GPa) = 45.03093 54.98076 50.00584
# Shear Modulus (GPa) = 19.18488 21.95243 20.56866
#
# Velocity S-wave (km/s) = 3.17051 3.39149 3.28286
# Velocity P-wave (km/s) = 6.08254 6.64410 6.36951
#
# Compressibility (1/GPa) = 0.02220696
#
# Stress axis : x y z
#
# Youngs Moduli (GPa) = 57.16038 48.11107 90.87622
#
# Poissons Ratio (x) = 0.18150 0.58283
# Poissons Ratio (y) = 0.21564 0.30465
# Poissons Ratio (z) = 0.36660 0.16129
#
# Static dielectric constant tensor:
#      x y z
#    x 3.461080 0.000000 0.000000 
#    y 0.000000 3.343150 0.000000 
#    z 0.000000 0.000000 3.557480 
# 
# 
# High freq. dielectric constant tensor:
#      x y z
#    x 1.730090 0.000000 0.000000 
#    y 0.000000 1.724730 0.000000 
#    z 0.000000 0.000000 1.735530 
# 
# From -- ./inp_files/21086.got.cif
#   From: 2010.03.12/outbox.cif.g09.slc.cpg/sg38_11_cif.got.tgz:21086.got - 2010.04.14 02:38:36.
