data_PCOD8178398
_publ_section_title
;
Structure prediction by ZEFSAII (Michael W. Deem and Ramdas Pophale) SiO2 
 PCOD8178398
Probable space group: A M M 2
;
_chemical_formula_sum "Si O2"
_cell_formula_units_Z 64
_cell_length_a 8.500808
_cell_length_b 28.022521
_cell_length_c 14.682154
_cell_angle_alpha 90.000000
_cell_angle_beta 90.000000
_cell_angle_gamma 90.000000
_cell_volume 3497.495671
_symmetry_space_group_name_H-M "A M M 2"
_symmetry_group_IT_number 38
_symmetry_cell_setting 'orthorhombic'
loop_
_space_group_symop_operation_xyz
x,y,z
-x,-y,z
-x,y,z
x,-y,z
x,1/2+y,1/2+z
-x,1/2-y,1/2+z
-x,1/2+y,1/2+z
x,1/2-y,1/2+z
loop_
_atom_site_type_symbol
_atom_site_label
_atom_site_fract_x
_atom_site_fract_y
_atom_site_fract_z
Si Si1 0.683562 0.136311 0.553060
Si Si2 0.185706 0.820987 0.381038
Si Si3 0.316776 0.218988 0.869041
Si Si4 0.815211 0.823590 0.180895
Si Si5 0.317390 0.444910 0.384797
Si Si6 0.312732 0.947163 0.679834
Si Si7 0.816336 0.216567 0.675482
Si Si8 0.816260 0.861100 0.993727
O O1 0.500000 0.129418 0.537217
O O2 0.765950 0.139293 0.454675
O O3 0.755040 0.090980 0.607899
O O4 0.714072 0.183711 0.610184
O O5 0.264158 0.770446 0.407069
O O6 0.248756 0.838305 0.281296
O O7 0.000000 0.813403 0.382026
O O8 0.500000 0.219821 0.844461
O O9 0.217683 0.204103 0.780317
O O10 0.284799 0.178983 0.943864
O O11 0.758178 0.770313 0.155740
O O12 0.000000 0.821750 0.190347
O O13 0.764347 0.859829 0.100729
O O14 0.500000 0.431511 0.393902
O O15 0.288418 0.500000 0.409594
O O16 0.256850 0.434180 0.282193
O O17 0.218578 0.413468 0.455351
O O18 0.500000 0.946648 0.679986
O O19 0.251401 0.000000 0.652916
O O20 0.000000 0.208683 0.654322
O O21 0.000000 0.849021 0.983755
#
# Coordination Sequence:
#
# PCOD8178398 Si02
#       8
#     8   8   8   8   8   8   8   8
#     4  11  20  30  50  79 103 128 169 214 256 303
#     4  10  20  36  52  68  98 138 175 210 254 302
#     4  11  21  33  49  74 106 135 168 210 254 301
#     4   8  18  34  50  67  92 131 172 206 241 291
#     4   9  18  34  54  76 103 133 163 199 250 308
#     4   8  16  32  52  72  98 131 162 196 244 302
#     4  10  19  33  51  72 102 139 172 204 250 303
#     4  11  20  32  52  76 100 130 171 211 253 306
#
# _framework density 18.298807
#
# number of rings (size 3 to 8) (size 9 to 14) (size 15 to 20)
#    0.000    2.250    0.000    5.625    0.000    2.250 
#    0.000    7.500    0.000    3.750    0.000    3.500 
#    0.000    0.000    0.000    0.000    0.000    0.000 
#
# Total GULP energy -396742.276429 kJ/mol
# GULP energy per Si atom -12398.196138 kJ/mol
# Density = 1.825716 g / cm^3
# Si number density = 18.298807 Si / 1000 Ang^3
#
#
#
# Elastic Constant Matrix: (Units=GPa)
#
#
# Indices 1 2 3 4 5 6 
#
# 1 41.5446 19.2808 11.7386 0.0000 0.0000 0.0000
# 2 19.2808 95.8441 79.4370 0.0000 0.0000 0.0000
# 3 11.7386 79.4370 128.0642 0.0000 0.0000 0.0000
# 4 0.0000 0.0000 0.0000 31.8121 0.0000 0.0000
# 5 0.0000 0.0000 0.0000 0.0000 24.7216 0.0000
# 6 0.0000 0.0000 0.0000 0.0000 0.0000 21.9076
#
#
#
# Elastic Compliance Matrix: (Units=1/GPa)
#
#
# Indices 1 2 3 4 5 6 
#
# 1 0.026755 -0.006894 0.001824 0.000000 0.000000 0.000000
# 2 -0.006894 0.023249 -0.013789 0.000000 0.000000 0.000000
# 3 0.001824 -0.013789 0.016195 0.000000 0.000000 0.000000
# 4 0.000000 0.000000 0.000000 0.031435 0.000000 0.000000
# 5 0.000000 0.000000 0.000000 0.000000 0.040450 0.000000
# 6 0.000000 0.000000 0.000000 0.000000 0.000000 0.045646
#
#
# Mechanical properties :
#
#
# Convention : Reuss Voigt Hill
#
# Bulk Modulus (GPa) = 35.11245 54.04063 44.57654
# Shear Modulus (GPa) = 21.65045 26.02136 23.83590
#
# Velocity S-wave (km/s) = 3.44344 3.77507 3.61306
# Velocity P-wave (km/s) = 5.91944 6.97122 6.46675
#
# Compressibility (1/GPa) = 0.02847993
#
# Stress axis : x y z
#
# Youngs Moduli (GPa) = 37.37677 43.01209 61.74803
#
# Poissons Ratio (x) = 0.29651 -0.11261
# Poissons Ratio (y) = 0.25766 0.85147
# Poissons Ratio (z) = -0.06817 0.59311
#
# Static dielectric constant tensor:
#      x y z
#    x 3.175040 0.000000 0.000000 
#    y 0.000000 3.346740 0.000000 
#    z 0.000000 0.000000 3.678700 
# 
# 
# High freq. dielectric constant tensor:
#      x y z
#    x 1.695670 0.000000 0.000000 
#    y 0.000000 1.685900 0.000000 
#    z 0.000000 0.000000 1.713290 
# 
# From -- ./inp_files/12839.got.cif
#   From: 2010.03.12/outbox.cif.g09.slc.cpg/sg38_7_cif.got.tgz:12839.got - 2010.04.14 02:38:36.
