data_PCOD8178864
_publ_section_title
;
Structure prediction by ZEFSAII (Michael W. Deem and Ramdas Pophale) SiO2 
 PCOD8178864
Probable space group: A M M 2
;
_chemical_formula_sum "Si O2"
_cell_formula_units_Z 40
_cell_length_a 9.305178
_cell_length_b 13.430609
_cell_length_c 18.543635
_cell_angle_alpha 90.000000
_cell_angle_beta 90.000000
_cell_angle_gamma 90.000000
_cell_volume 2317.476086
_symmetry_space_group_name_H-M "A M M 2"
_symmetry_group_IT_number 38
_symmetry_cell_setting 'orthorhombic'
loop_
_space_group_symop_operation_xyz
x,y,z
-x,-y,z
-x,y,z
x,-y,z
x,1/2+y,1/2+z
-x,1/2-y,1/2+z
-x,1/2+y,1/2+z
x,1/2-y,1/2+z
loop_
_atom_site_type_symbol
_atom_site_label
_atom_site_fract_x
_atom_site_fract_y
_atom_site_fract_z
Si Si1 0.831939 0.883478 0.353730
Si Si2 0.833021 0.693585 0.007723
Si Si3 0.164399 0.610782 0.586874
Si Si4 0.331000 0.805613 0.217295
Si Si5 0.335514 0.389516 0.137149
O O1 0.779382 0.833343 0.428045
O O2 0.741569 0.829272 0.292691
O O3 0.000000 0.864870 0.339764
O O4 0.795909 0.000000 0.355338
O O5 0.000000 0.669140 0.014500
O O6 0.798362 0.809720 0.024336
O O7 0.755673 0.623388 0.064997
O O8 0.188369 0.500000 0.555090
O O9 0.266509 0.623673 0.655638
O O10 0.000000 0.625234 0.612997
O O11 0.500000 0.825788 0.222715
O O12 0.293924 0.690791 0.198151
O O13 0.500000 0.374264 0.114249
O O14 0.307705 0.500000 0.168798
#
# Coordination Sequence:
#
# PCOD8178864 Si02
#       5
#     8   8   8   8   8
#     4  10  20  33  48  68  97 128 154 188 236 280
#     4   9  18  32  50  72  96 122 156 194 230 275
#     4   9  17  31  51  72  95 124 155 190 234 278
#     4  10  20  32  48  71  96 123 158 195 229 273
#     4   9  18  33  51  70  94 123 154 192 237 279
#
# _framework density 17.260158000000001
#
# number of rings (size 3 to 8) (size 9 to 14) (size 15 to 20)
#    0.000    2.600    0.000    1.800    0.000    6.000 
#    0.000    1.000    0.000    1.200    0.000    0.000 
#    0.000    0.000    0.000    0.000    0.000    0.000 
#
# Total GULP energy -247994.888638 kJ/mol
# GULP energy per Si atom -12399.744432 kJ/mol
# Density = 1.722087 g / cm^3
# Si number density = 17.260158 Si / 1000 Ang^3
#
#
#
# Elastic Constant Matrix: (Units=GPa)
#
#
# Indices 1 2 3 4 5 6 
#
# 1 61.2995 44.3026 58.4647 0.0000 0.0000 0.0000
# 2 44.3026 130.3517 68.8811 0.0000 0.0000 0.0000
# 3 58.4647 68.8811 138.7718 0.0000 0.0000 0.0000
# 4 0.0000 0.0000 0.0000 19.0140 0.0000 0.0000
# 5 0.0000 0.0000 0.0000 0.0000 12.6800 0.0000
# 6 0.0000 0.0000 0.0000 0.0000 0.0000 23.6208
#
#
#
# Elastic Compliance Matrix: (Units=1/GPa)
#
#
# Indices 1 2 3 4 5 6 
#
# 1 0.029206 -0.004642 -0.010001 0.000000 0.000000 0.000000
# 2 -0.004642 0.011137 -0.003572 0.000000 0.000000 0.000000
# 3 -0.010001 -0.003572 0.013193 0.000000 0.000000 0.000000
# 4 0.000000 0.000000 0.000000 0.052593 0.000000 0.000000
# 5 0.000000 0.000000 0.000000 0.000000 0.078864 0.000000
# 6 0.000000 0.000000 0.000000 0.000000 0.000000 0.042336
#
#
# Mechanical properties :
#
#
# Convention : Reuss Voigt Hill
#
# Bulk Modulus (GPa) = 58.45841 74.85774 66.65807
# Shear Modulus (GPa) = 18.55566 21.64794 20.10180
#
# Velocity S-wave (km/s) = 3.28236 3.54533 3.41638
# Velocity P-wave (km/s) = 6.95038 7.76038 7.36652
#
# Compressibility (1/GPa) = 0.01710618
#
# Stress axis : x y z
#
# Youngs Moduli (GPa) = 34.23933 89.79198 75.80054
#
# Poissons Ratio (x) = 0.41679 0.75805
# Poissons Ratio (y) = 0.15893 0.27079
# Poissons Ratio (z) = 0.34241 0.32077
#
# Static dielectric constant tensor:
#      x y z
#    x 3.240290 0.000000 0.000000 
#    y 0.000000 3.431930 0.000000 
#    z 0.000000 0.000000 3.104180 
# 
# 
# High freq. dielectric constant tensor:
#      x y z
#    x 1.667590 0.000000 0.000000 
#    y 0.000000 1.677070 0.000000 
#    z 0.000000 0.000000 1.647900 
# 
# From -- ./inp_files/11659.got.cif
#   From: 2010.03.12/outbox.cif.g09.slc.cpg/sg38_6_cif.got.tgz:11659.got - 2010.04.14 02:38:36.
