data_PCOD8178078
_publ_section_title
;
Structure prediction by ZEFSAII (Michael W. Deem and Ramdas Pophale) SiO2 
 PCOD8178078
Probable space group: A M M 2
;
_chemical_formula_sum "Si O2"
_cell_formula_units_Z 64
_cell_length_a 14.170360
_cell_length_b 9.044818
_cell_length_c 31.339512
_cell_angle_alpha 90.000000
_cell_angle_beta 90.000000
_cell_angle_gamma 90.000000
_cell_volume 4016.732828
_symmetry_space_group_name_H-M "A M M 2"
_symmetry_group_IT_number 38
_symmetry_cell_setting 'orthorhombic'
loop_
_space_group_symop_operation_xyz
x,y,z
-x,-y,z
-x,y,z
x,-y,z
x,1/2+y,1/2+z
-x,1/2-y,1/2+z
-x,1/2+y,1/2+z
x,1/2-y,1/2+z
loop_
_atom_site_type_symbol
_atom_site_label
_atom_site_fract_x
_atom_site_fract_y
_atom_site_fract_z
Si Si1 0.610570 0.827431 0.107280
Si Si2 0.107100 0.171744 0.060763
Si Si3 0.392677 0.326387 0.273037
Si Si4 0.701826 0.828092 0.686770
Si Si5 0.394895 0.676146 0.948590
Si Si6 0.104687 0.331692 0.148141
Si Si7 0.387531 0.164394 0.355868
Si Si8 0.281487 0.675786 0.030033
O O1 0.500000 0.797244 0.103164
O O2 0.645865 0.767052 0.152378
O O3 0.662283 0.740876 0.069791
O O4 0.634987 0.000000 0.103917
O O5 0.124087 0.222302 0.109189
O O6 0.174594 0.264512 0.029662
O O7 0.000000 0.203059 0.046437
O O8 0.132703 0.000000 0.057896
O O9 0.500000 0.271248 0.265727
O O10 0.389097 0.500000 0.277854
O O11 0.329735 0.272159 0.233341
O O12 0.348976 0.261494 0.316696
O O13 0.814913 0.802819 0.683470
O O14 0.675203 0.000000 0.680129
O O15 0.500000 0.739410 0.957118
O O16 0.399259 0.500000 0.947924
O O17 0.355768 0.729567 0.902178
O O18 0.327522 0.733509 0.986127
O O19 0.112040 0.500000 0.130943
O O20 0.000000 0.302920 0.167773
O O21 0.500000 0.162046 0.355957
O O22 0.346883 0.000000 0.349490
O O23 0.282664 0.500000 0.033547
#
# Coordination Sequence:
#
# PCOD8178078 Si02
#       8
#     8   8   8   8   8   8   8   8
#     4  11  23  34  43  61  93 128 159 189 222 267
#     4  10  20  33  48  66  91 121 151 190 237 277
#     4   9  17  28  42  63  91 119 150 187 226 271
#     4  10  19  31  47  66  89 122 156 189 229 271
#     4   8  15  28  46  68  92 118 151 189 226 269
#     4   9  17  30  48  68  87 112 152 196 232 269
#     4   8  14  27  46  65  86 114 148 185 225 267
#     4  11  20  31  49  70  91 120 156 192 230 274
#
# _framework density 15.933346999999999
#
# number of rings (size 3 to 8) (size 9 to 14) (size 15 to 20)
#    0.000    2.500    1.250    2.625    0.000    3.250 
#    0.000    2.500    0.000    3.000    0.000    0.875 
#    0.000    3.000    0.000    0.000    0.000    0.000 
#
# Total GULP energy -396687.590466 kJ/mol
# GULP energy per Si atom -12396.487202 kJ/mol
# Density = 1.589708 g / cm^3
# Si number density = 15.933347 Si / 1000 Ang^3
#
#
#
# Elastic Constant Matrix: (Units=GPa)
#
#
# Indices 1 2 3 4 5 6 
#
# 1 92.2084 36.2747 60.0599 0.0000 0.0000 0.0000
# 2 36.2747 56.5175 42.4198 0.0000 0.0000 0.0000
# 3 60.0599 42.4198 136.8828 0.0000 0.0000 0.0000
# 4 0.0000 0.0000 0.0000 21.9323 0.0000 0.0000
# 5 0.0000 0.0000 0.0000 0.0000 11.6594 0.0000
# 6 0.0000 0.0000 0.0000 0.0000 0.0000 20.6143
#
#
#
# Elastic Compliance Matrix: (Units=1/GPa)
#
#
# Indices 1 2 3 4 5 6 
#
# 1 0.017046 -0.006942 -0.005328 0.000000 0.000000 0.000000
# 2 -0.006942 0.025883 -0.004975 0.000000 0.000000 0.000000
# 3 -0.005328 -0.004975 0.011185 0.000000 0.000000 0.000000
# 4 0.000000 0.000000 0.000000 0.045595 0.000000 0.000000
# 5 0.000000 0.000000 0.000000 0.000000 0.085768 0.000000
# 6 0.000000 0.000000 0.000000 0.000000 0.000000 0.048510
#
#
# Mechanical properties :
#
#
# Convention : Reuss Voigt Hill
#
# Bulk Modulus (GPa) = 50.95720 62.56862 56.76291
# Shear Modulus (GPa) = 18.18048 20.63148 19.40598
#
# Velocity S-wave (km/s) = 3.38158 3.60232 3.49370
# Velocity P-wave (km/s) = 6.87733 7.52705 7.20952
#
# Compressibility (1/GPa) = 0.01962431
#
# Stress axis : x y z
#
# Youngs Moduli (GPa) = 58.66344 38.63474 89.40363
#
# Poissons Ratio (x) = 0.26819 0.47636
# Poissons Ratio (y) = 0.40723 0.44482
# Poissons Ratio (z) = 0.31257 0.19222
#
# Static dielectric constant tensor:
#      x y z
#    x 3.126780 0.000000 0.000000 
#    y 0.000000 3.007350 0.000000 
#    z 0.000000 0.000000 3.175090 
# 
# 
# High freq. dielectric constant tensor:
#      x y z
#    x 1.596360 0.000000 0.000000 
#    y 0.000000 1.607250 0.000000 
#    z 0.000000 0.000000 1.600470 
# 
# From -- ./inp_files/25052.got.cif
#   From: 2010.03.12/outbox.cif.g09.slc.cpg/sg38_13_cif.got.tgz:25052.got - 2010.04.14 02:38:36.
