data_PCOD8178840
_publ_section_title
;
Structure prediction by ZEFSAII (Michael W. Deem and Ramdas Pophale) SiO2 
 PCOD8178840
Probable space group: A M M 2
;
_chemical_formula_sum "Si O2"
_cell_formula_units_Z 64
_cell_length_a 20.704658
_cell_length_b 9.362366
_cell_length_c 18.828666
_cell_angle_alpha 90.000000
_cell_angle_beta 90.000000
_cell_angle_gamma 90.000000
_cell_volume 3649.834968
_symmetry_space_group_name_H-M "A M M 2"
_symmetry_group_IT_number 38
_symmetry_cell_setting 'orthorhombic'
loop_
_space_group_symop_operation_xyz
x,y,z
-x,-y,z
-x,y,z
x,-y,z
x,1/2+y,1/2+z
-x,1/2-y,1/2+z
-x,1/2+y,1/2+z
x,1/2-y,1/2+z
loop_
_atom_site_type_symbol
_atom_site_label
_atom_site_fract_x
_atom_site_fract_y
_atom_site_fract_z
Si Si1 0.429010 0.833786 0.346250
Si Si2 0.292606 0.661664 0.501465
Si Si3 0.926820 0.665268 0.986380
Si Si4 0.187838 0.331972 0.086508
Si Si5 0.926605 0.332615 0.346073
Si Si6 0.814208 0.169630 0.745718
Si Si7 0.692597 0.166347 0.834930
Si Si8 0.431233 0.161263 0.987361
O O1 0.500000 0.809664 0.310174
O O2 0.371482 0.748589 0.306869
O O3 0.432805 0.777639 0.426154
O O4 0.411118 0.000000 0.347359
O O5 0.268740 0.500000 0.514022
O O6 0.245896 0.767302 0.541720
O O7 0.293396 0.697571 0.417658
O O8 0.365795 0.684807 0.533068
O O9 0.919236 0.500000 0.965977
O O10 0.905822 0.755580 0.918271
O O11 0.000000 0.701146 0.009755
O O12 0.880697 0.707771 0.051451
O O13 0.199166 0.500000 0.087742
O O14 0.187749 0.267998 0.166018
O O15 0.917789 0.500000 0.359810
O O16 0.879996 0.277486 0.283488
O O17 0.000000 0.294349 0.324479
O O18 0.752717 0.226020 0.789648
O O19 0.814208 0.000000 0.743427
O O20 0.681673 0.000000 0.820638
O O21 0.500000 0.174187 0.030442
O O22 0.425919 0.000000 0.954407
#
# Coordination Sequence:
#
# PCOD8178840 Si02
#       8
#     8   8   8   8   8   8   8   8
#     4   9  16  25  40  66  96 118 142 186 236 274
#     4   9  17  29  47  70  93 118 151 191 230 269
#     4   9  18  32  49  70  96 123 150 183 226 275
#     4  10  20  32  47  67  93 125 155 186 227 272
#     4   9  17  31  53  75  92 116 152 192 229 265
#     4   9  18  32  48  68  93 120 155 194 226 262
#     4   9  17  30  48  66  88 122 157 189 225 268
#     4   8  14  26  44  65  89 118 152 187 225 271
#
# _framework density 17.535039999999999
#
# number of rings (size 3 to 8) (size 9 to 14) (size 15 to 20)
#    0.000    3.000    0.000    1.875    0.000    4.750 
#    0.000    4.375    0.000    0.750    0.000    7.000 
#    0.000    0.000    0.000    0.000    0.000    0.000 
#
# Total GULP energy -396531.120423 kJ/mol
# GULP energy per Si atom -12391.597513 kJ/mol
# Density = 1.749513 g / cm^3
# Si number density = 17.535040 Si / 1000 Ang^3
#
#
#
# Elastic Constant Matrix: (Units=GPa)
#
#
# Indices 1 2 3 4 5 6 
#
# 1 157.1996 48.1616 72.3793 0.0000 0.0000 0.0000
# 2 48.1616 45.2626 32.0582 0.0000 0.0000 0.0000
# 3 72.3793 32.0582 87.9804 0.0000 0.0000 0.0000
# 4 0.0000 0.0000 0.0000 16.5468 0.0000 0.0000
# 5 0.0000 0.0000 0.0000 0.0000 5.6199 0.0000
# 6 0.0000 0.0000 0.0000 0.0000 0.0000 28.0403
#
#
#
# Elastic Compliance Matrix: (Units=1/GPa)
#
#
# Indices 1 2 3 4 5 6 
#
# 1 0.011973 -0.007769 -0.007020 0.000000 0.000000 0.000000
# 2 -0.007769 0.034819 -0.006296 0.000000 0.000000 0.000000
# 3 -0.007020 -0.006296 0.019435 0.000000 0.000000 0.000000
# 4 0.000000 0.000000 0.000000 0.060435 0.000000 0.000000
# 5 0.000000 0.000000 0.000000 0.000000 0.177939 0.000000
# 6 0.000000 0.000000 0.000000 0.000000 0.000000 0.035663
#
#
# Mechanical properties :
#
#
# Convention : Reuss Voigt Hill
#
# Bulk Modulus (GPa) = 41.56491 66.18231 53.87361
# Shear Modulus (GPa) = 12.80567 19.23095 16.01831
#
# Velocity S-wave (km/s) = 2.70532 3.31526 3.02570
# Velocity P-wave (km/s) = 5.78910 7.24427 6.55718
#
# Compressibility (1/GPa) = 0.02405876
#
# Stress axis : x y z
#
# Youngs Moduli (GPa) = 83.51840 28.72009 51.45304
#
# Poissons Ratio (x) = 0.22311 0.36118
# Poissons Ratio (y) = 0.64882 0.32396
# Poissons Ratio (z) = 0.58626 0.18083
#
# Static dielectric constant tensor:
#      x y z
#    x 3.770670 0.000000 0.000000 
#    y 0.000000 3.109260 0.000000 
#    z 0.000000 0.000000 3.029970 
# 
# 
# High freq. dielectric constant tensor:
#      x y z
#    x 1.704000 0.000000 0.000000 
#    y 0.000000 1.662280 0.000000 
#    z 0.000000 0.000000 1.630810 
# 
# From -- ./inp_files/21525.got.cif
#   From: 2010.03.12/outbox.cif.g09.slc.cpg/sg38_11_cif.got.tgz:21525.got - 2010.04.14 02:38:36.
