data_PCOD8178119
_publ_section_title
;
Structure prediction by ZEFSAII (Michael W. Deem and Ramdas Pophale) SiO2 
 PCOD8178119
Probable space group: A M M 2
;
_chemical_formula_sum "Si O2"
_cell_formula_units_Z 64
_cell_length_a 9.098436
_cell_length_b 14.503707
_cell_length_c 27.962171
_cell_angle_alpha 90.000000
_cell_angle_beta 90.000000
_cell_angle_gamma 90.000000
_cell_volume 3689.917443
_symmetry_space_group_name_H-M "A M M 2"
_symmetry_group_IT_number 38
_symmetry_cell_setting 'orthorhombic'
loop_
_space_group_symop_operation_xyz
x,y,z
-x,-y,z
-x,y,z
x,-y,z
x,1/2+y,1/2+z
-x,1/2-y,1/2+z
-x,1/2+y,1/2+z
x,1/2-y,1/2+z
loop_
_atom_site_type_symbol
_atom_site_label
_atom_site_fract_x
_atom_site_fract_y
_atom_site_fract_z
Si Si1 0.170713 0.607014 0.571520
Si Si2 0.670178 0.400395 0.192736
Si Si3 0.325389 0.293832 0.654961
Si Si4 0.826148 0.898103 0.963381
Si Si5 0.836812 0.854048 0.244524
Si Si6 0.668571 0.397800 0.837226
Si Si7 0.840033 0.850856 0.780590
Si Si8 0.175086 0.727274 0.378229
O O1 0.203065 0.500000 0.582633
O O2 0.270360 0.673103 0.603598
O O3 0.216413 0.630636 0.517132
O O4 0.000000 0.629329 0.580638
O O5 0.500000 0.385322 0.200655
O O6 0.703471 0.500000 0.167379
O O7 0.727972 0.313190 0.161980
O O8 0.734813 0.408207 0.246264
O O9 0.500000 0.303365 0.658127
O O10 0.252293 0.360026 0.694772
O O11 0.766371 0.821345 0.926516
O O12 0.000000 0.903893 0.958509
O O13 0.761243 0.000000 0.951622
O O14 0.746158 0.905196 0.285647
O O15 0.855629 0.749487 0.258797
O O16 0.000000 0.898502 0.238316
O O17 0.500000 0.366581 0.829851
O O18 0.677067 0.500000 0.860397
O O19 0.747901 0.326552 0.872982
O O20 0.778496 0.840559 0.834568
O O21 0.000000 0.899115 0.781693
O O22 0.000000 0.743606 0.377734
#
# Coordination Sequence:
#
# PCOD8178119 Si02
#       8
#     8   8   8   8   8   8   8   8
#     4   9  18  33  52  72  94 121 153 192 240 291
#     4   9  18  31  45  63  91 127 161 188 220 268
#     4  10  19  31  49  71  96 126 158 195 238 283
#     4   8  15  30  52  75  96 119 151 193 241 289
#     4   9  17  30  47  66  90 121 158 197 232 270
#     4  10  20  32  46  67  98 133 164 195 232 274
#     4   8  15  26  41  65  92 116 147 186 225 263
#     4   9  17  30  50  73  95 123 158 194 232 278
#
# _framework density 17.344562
#
# number of rings (size 3 to 8) (size 9 to 14) (size 15 to 20)
#    0.000    3.000    0.000    2.625    0.000    6.000 
#    0.000    1.875    0.000    1.875    0.000    3.500 
#    0.000    0.000    0.000    0.000    0.000    0.000 
#
# Total GULP energy -396528.151654 kJ/mol
# GULP energy per Si atom -12391.504739 kJ/mol
# Density = 1.730508 g / cm^3
# Si number density = 17.344562 Si / 1000 Ang^3
#
#
#
# Elastic Constant Matrix: (Units=GPa)
#
#
# Indices 1 2 3 4 5 6 
#
# 1 66.7495 39.4245 39.4373 0.0000 0.0000 0.0000
# 2 39.4245 96.8088 59.8355 0.0000 0.0000 0.0000
# 3 39.4373 59.8355 117.6079 0.0000 0.0000 0.0000
# 4 0.0000 0.0000 0.0000 21.3240 0.0000 0.0000
# 5 0.0000 0.0000 0.0000 0.0000 13.2927 0.0000
# 6 0.0000 0.0000 0.0000 0.0000 0.0000 17.1131
#
#
#
# Elastic Compliance Matrix: (Units=1/GPa)
#
#
# Indices 1 2 3 4 5 6 
#
# 1 0.020887 -0.006093 -0.003904 0.000000 0.000000 0.000000
# 2 -0.006093 0.016845 -0.006527 0.000000 0.000000 0.000000
# 3 -0.003904 -0.006527 0.013133 0.000000 0.000000 0.000000
# 4 0.000000 0.000000 0.000000 0.046896 0.000000 0.000000
# 5 0.000000 0.000000 0.000000 0.000000 0.075230 0.000000
# 6 0.000000 0.000000 0.000000 0.000000 0.000000 0.058435
#
#
# Mechanical properties :
#
#
# Convention : Reuss Voigt Hill
#
# Bulk Modulus (GPa) = 56.12800 62.06231 59.09516
# Shear Modulus (GPa) = 18.49033 19.84388 19.16710
#
# Velocity S-wave (km/s) = 3.26860 3.38612 3.32788
# Velocity P-wave (km/s) = 6.83197 7.15174 6.99368
#
# Compressibility (1/GPa) = 0.01781642
#
# Stress axis : x y z
#
# Youngs Moduli (GPa) = 47.87750 59.36373 76.14498
#
# Poissons Ratio (x) = 0.36170 0.29727
# Poissons Ratio (y) = 0.29171 0.49702
# Poissons Ratio (z) = 0.18691 0.38748
#
# Static dielectric constant tensor:
#      x y z
#    x 3.240510 0.000000 0.000000 
#    y 0.000000 3.298950 0.000000 
#    z 0.000000 0.000000 3.253200 
# 
# 
# High freq. dielectric constant tensor:
#      x y z
#    x 1.659950 0.000000 0.000000 
#    y 0.000000 1.664910 0.000000 
#    z 0.000000 0.000000 1.647720 
# 
# From -- ./inp_files/24710.got.cif
#   From: 2010.03.12/outbox.cif.g09.slc.cpg/sg38_13_cif.got.tgz:24710.got - 2010.04.14 02:38:36.
