data_PCOD8178954
_publ_section_title
;
Structure prediction by ZEFSAII (Michael W. Deem and Ramdas Pophale) SiO2 
 PCOD8178954
Probable space group: A M M 2
;
_chemical_formula_sum "Si O2"
_cell_formula_units_Z 48
_cell_length_a 9.011858
_cell_length_b 29.761078
_cell_length_c 10.154616
_cell_angle_alpha 90.000000
_cell_angle_beta 90.000000
_cell_angle_gamma 90.000000
_cell_volume 2723.494503
_symmetry_space_group_name_H-M "A M M 2"
_symmetry_group_IT_number 38
_symmetry_cell_setting 'orthorhombic'
loop_
_space_group_symop_operation_xyz
x,y,z
-x,-y,z
-x,y,z
x,-y,z
x,1/2+y,1/2+z
-x,1/2-y,1/2+z
-x,1/2+y,1/2+z
x,1/2-y,1/2+z
loop_
_atom_site_type_symbol
_atom_site_label
_atom_site_fract_x
_atom_site_fract_y
_atom_site_fract_z
Si Si1 0.823506 0.384656 0.308630
Si Si2 0.675761 0.882303 0.079671
Si Si3 0.175381 0.211624 0.097793
Si Si4 0.173052 0.715940 0.300485
Si Si5 0.825581 0.051220 0.575394
Si Si6 0.326439 0.448928 0.809794
O O1 0.745863 0.399555 0.443510
O O2 0.768778 0.334383 0.271187
O O3 0.768857 0.418229 0.195410
O O4 0.000000 0.385988 0.330249
O O5 0.500000 0.878447 0.064387
O O6 0.741287 0.834751 0.124768
O O7 0.723815 0.918531 0.188268
O O8 0.243274 0.248004 0.199818
O O9 0.000000 0.203174 0.115618
O O10 0.210133 0.229474 0.950663
O O11 0.000000 0.716748 0.273155
O O12 0.752573 0.068955 0.441409
O O13 0.000000 0.055924 0.558594
O O14 0.777840 0.000000 0.605094
O O15 0.500000 0.445404 0.835038
O O16 0.277513 0.500000 0.779010
#
# Coordination Sequence:
#
# PCOD8178954 Si02
#       6
#     8   8   8   8   8   8
#     4   9  18  33  51  72  99 128 159 196 238 285
#     4  10  20  33  49  71  98 127 162 200 237 280
#     4   9  17  31  49  68  92 122 158 198 238 279
#     4   8  15  28  47  68  89 119 157 191 226 277
#     4   9  18  32  51  76 101 123 154 199 245 285
#     4   9  19  35  51  68  95 130 164 196 232 282
#
# _framework density 17.624416
#
# number of rings (size 3 to 8) (size 9 to 14) (size 15 to 20)
#    0.000    3.000    0.000    1.500    0.000    4.000 
#    0.000    6.667    0.000    0.000    0.000    0.000 
#    0.000    0.000    0.000    0.000    0.000    0.000 
#
# Total GULP energy -297567.260833 kJ/mol
# GULP energy per Si atom -12398.635868 kJ/mol
# Density = 1.758430 g / cm^3
# Si number density = 17.624416 Si / 1000 Ang^3
#
#
#
# Elastic Constant Matrix: (Units=GPa)
#
#
# Indices 1 2 3 4 5 6 
#
# 1 34.4480 34.7041 45.6646 0.0000 0.0000 0.0000
# 2 34.7041 107.8857 106.9339 0.0000 0.0000 0.0000
# 3 45.6646 106.9339 169.7463 0.0000 0.0000 0.0000
# 4 0.0000 0.0000 0.0000 43.4314 0.0000 0.0000
# 5 0.0000 0.0000 0.0000 0.0000 24.1486 0.0000
# 6 0.0000 0.0000 0.0000 0.0000 0.0000 21.6601
#
#
#
# Elastic Compliance Matrix: (Units=1/GPa)
#
#
# Indices 1 2 3 4 5 6 
#
# 1 0.046963 -0.006881 -0.008299 0.000000 0.000000 0.000000
# 2 -0.006881 0.025687 -0.014331 0.000000 0.000000 0.000000
# 3 -0.008299 -0.014331 0.017151 0.000000 0.000000 0.000000
# 4 0.000000 0.000000 0.000000 0.023025 0.000000 0.000000
# 5 0.000000 0.000000 0.000000 0.000000 0.041410 0.000000
# 6 0.000000 0.000000 0.000000 0.000000 0.000000 0.046168
#
#
# Mechanical properties :
#
#
# Convention : Reuss Voigt Hill
#
# Bulk Modulus (GPa) = 32.48890 76.29834 54.39362
# Shear Modulus (GPa) = 18.54020 26.16650 22.35335
#
# Velocity S-wave (km/s) = 3.24691 3.85733 3.56521
# Velocity P-wave (km/s) = 5.70356 7.95134 6.91934
#
# Compressibility (1/GPa) = 0.03077974
#
# Stress axis : x y z
#
# Youngs Moduli (GPa) = 21.29358 38.93088 58.30416
#
# Poissons Ratio (x) = 0.26788 0.48387
# Poissons Ratio (y) = 0.14652 0.83553
# Poissons Ratio (z) = 0.17672 0.55790
#
# Static dielectric constant tensor:
#      x y z
#    x 3.028280 0.000000 0.000000 
#    y 0.000000 3.452060 0.000000 
#    z 0.000000 0.000000 3.424290 
# 
# 
# High freq. dielectric constant tensor:
#      x y z
#    x 1.658640 0.000000 0.000000 
#    y 0.000000 1.682440 0.000000 
#    z 0.000000 0.000000 1.687800 
# 
# From -- ./inp_files/3742.got.cif
#   From: 2010.03.12/outbox.cif.g09.slc.cpg/sg38_2_cif.got.tgz:3742.got - 2010.04.14 02:38:36.
