data_PCOD8178925
_publ_section_title
;
Structure prediction by ZEFSAII (Michael W. Deem and Ramdas Pophale) SiO2 
 PCOD8178925
Probable space group: A M M 2
;
_chemical_formula_sum "Si O2"
_cell_formula_units_Z 48
_cell_length_a 10.595790
_cell_length_b 22.417017
_cell_length_c 9.826772
_cell_angle_alpha 90.000000
_cell_angle_beta 90.000000
_cell_angle_gamma 90.000000
_cell_volume 2334.113891
_symmetry_space_group_name_H-M "A M M 2"
_symmetry_group_IT_number 38
_symmetry_cell_setting 'orthorhombic'
loop_
_space_group_symop_operation_xyz
x,y,z
-x,-y,z
-x,y,z
x,-y,z
x,1/2+y,1/2+z
-x,1/2-y,1/2+z
-x,1/2+y,1/2+z
x,1/2-y,1/2+z
loop_
_atom_site_type_symbol
_atom_site_label
_atom_site_fract_x
_atom_site_fract_y
_atom_site_fract_z
Si Si1 0.859500 0.374666 0.630440
Si Si2 0.353320 0.068262 0.640852
Si Si3 0.358128 0.882302 0.937781
Si Si4 0.135171 0.737208 0.120008
Si Si5 0.763254 0.651758 0.917043
Si Si6 0.362614 0.762065 0.813441
O O1 0.747908 0.406786 0.543337
O O2 0.858925 0.306409 0.582859
O O3 0.828363 0.381315 0.790195
O O4 0.000000 0.402249 0.603420
O O5 0.500000 0.074960 0.608373
O O6 0.321416 0.094209 0.788699
O O7 0.278114 0.102456 0.524056
O O8 0.309218 0.000000 0.636815
O O9 0.500000 0.904824 0.979066
O O10 0.357705 0.809813 0.936990
O O11 0.253446 0.718131 0.210543
O O12 0.000000 0.723923 0.192780
O O13 0.137728 0.698405 0.982146
O O14 0.648789 0.694100 0.865729
O O15 0.500000 0.767664 0.740870
#
# Coordination Sequence:
#
# PCOD8178925 Si02
#       6
#     8   8   8   8   8   8
#     4  10  22  37  56  88 126 162 198 243 304 368
#     4  10  22  41  64  89 118 159 209 254 299 355
#     4  10  20  37  59  87 121 156 198 250 302 360
#     4  10  20  33  53  83 122 161 194 233 292 362
#     4  11  20  36  58  89 122 160 197 254 299 363
#     4  10  20  32  53  87 121 153 191 241 305 357
#
# _framework density 20.564551000000002
#
# number of rings (size 3 to 8) (size 9 to 14) (size 15 to 20)
#    0.000    1.833    3.333    1.000    0.000    5.333 
#    0.000    0.833    0.000    7.500    0.000    0.000 
#    0.000    0.000    0.000    0.000    0.000    0.000 
#
# Total GULP energy -297412.117138 kJ/mol
# GULP energy per Si atom -12392.171547 kJ/mol
# Density = 2.051774 g / cm^3
# Si number density = 20.564551 Si / 1000 Ang^3
#
#
#
# Elastic Constant Matrix: (Units=GPa)
#
#
# Indices 1 2 3 4 5 6 
#
# 1 177.2567 13.7887 79.3302 0.0000 0.0000 0.0000
# 2 13.7887 56.2634 28.4384 0.0000 0.0000 0.0000
# 3 79.3302 28.4384 122.2494 0.0000 0.0000 0.0000
# 4 0.0000 0.0000 0.0000 14.6671 0.0000 0.0000
# 5 0.0000 0.0000 0.0000 0.0000 32.0938 0.0000
# 6 0.0000 0.0000 0.0000 0.0000 0.0000 10.6173
#
#
#
# Elastic Compliance Matrix: (Units=1/GPa)
#
#
# Indices 1 2 3 4 5 6 
#
# 1 0.007978 0.000750 -0.005352 0.000000 0.000000 0.000000
# 2 0.000750 0.020212 -0.005188 0.000000 0.000000 0.000000
# 3 -0.005352 -0.005188 0.012860 0.000000 0.000000 0.000000
# 4 0.000000 0.000000 0.000000 0.068180 0.000000 0.000000
# 5 0.000000 0.000000 0.000000 0.000000 0.031159 0.000000
# 6 0.000000 0.000000 0.000000 0.000000 0.000000 0.094186
#
#
# Mechanical properties :
#
#
# Convention : Reuss Voigt Hill
#
# Bulk Modulus (GPa) = 46.57741 66.54267 56.56004
# Shear Modulus (GPa) = 19.13421 27.08979 23.11200
#
# Velocity S-wave (km/s) = 3.05363 3.63341 3.35606
# Velocity P-wave (km/s) = 5.92718 7.07322 6.52540
#
# Compressibility (1/GPa) = 0.02146963
#
# Stress axis : x y z
#
# Youngs Moduli (GPa) = 125.33925 49.47480 77.76158
#
# Poissons Ratio (x) = -0.03709 0.41616
# Poissons Ratio (y) = -0.09397 0.40346
# Poissons Ratio (z) = 0.67078 0.25670
#
# Static dielectric constant tensor:
#      x y z
#    x 4.019060 0.000000 0.000000 
#    y 0.000000 3.400150 0.000000 
#    z 0.000000 0.000000 3.561060 
# 
# 
# High freq. dielectric constant tensor:
#      x y z
#    x 1.813680 0.000000 0.000000 
#    y 0.000000 1.760140 0.000000 
#    z 0.000000 0.000000 1.795660 
# 
# From -- ./inp_files/4650.got.cif
#   From: 2010.03.12/outbox.cif.g09.slc.cpg/sg38_3_cif.got.tgz:4650.got - 2010.04.14 02:38:36.
