data_PCOD8178605
_publ_section_title
;
Structure prediction by ZEFSAII (Michael W. Deem and Ramdas Pophale) SiO2 
 PCOD8178605
Probable space group: A M M 2
;
_chemical_formula_sum "Si O2"
_cell_formula_units_Z 48
_cell_length_a 8.456064
_cell_length_b 28.057624
_cell_length_c 9.963969
_cell_angle_alpha 90.000000
_cell_angle_beta 90.000000
_cell_angle_gamma 90.000000
_cell_volume 2364.022033
_symmetry_space_group_name_H-M "A M M 2"
_symmetry_group_IT_number 38
_symmetry_cell_setting 'orthorhombic'
loop_
_space_group_symop_operation_xyz
x,y,z
-x,-y,z
-x,y,z
x,-y,z
x,1/2+y,1/2+z
-x,1/2-y,1/2+z
-x,1/2+y,1/2+z
x,1/2-y,1/2+z
loop_
_atom_site_type_symbol
_atom_site_label
_atom_site_fract_x
_atom_site_fract_y
_atom_site_fract_z
Si Si1 0.182067 0.609319 0.530330
Si Si2 0.813189 0.282878 0.934031
Si Si3 0.188300 0.385262 0.018330
Si Si4 0.188508 0.445398 0.269875
Si Si5 0.817359 0.948681 0.286560
Si Si6 0.683287 0.793868 0.135935
O O1 0.249464 0.585864 0.394897
O O2 0.200389 0.566664 0.634342
O O3 0.283947 0.653463 0.580907
O O4 0.000000 0.626091 0.515376
O O5 0.752423 0.330849 0.009103
O O6 0.772620 0.282713 0.775413
O O7 0.000000 0.277226 0.945066
O O8 0.732998 0.240310 0.014328
O O9 0.260038 0.410527 0.886357
O O10 0.000000 0.384763 0.020264
O O11 0.253795 0.415328 0.143760
O O12 0.254794 0.500000 0.269365
O O13 0.000000 0.447952 0.271058
O O14 0.000000 0.953217 0.326783
O O15 0.734304 0.000000 0.304421
O O16 0.500000 0.787693 0.166371
#
# Coordination Sequence:
#
# PCOD8178605 Si02
#       6
#     8   8   8   8   8   8
#     4  10  19  34  56  85 119 157 200 245 295 360
#     4  11  23  42  66  92 120 159 207 256 304 371
#     4   9  17  30  51  84 119 149 188 242 300 352
#     4   9  17  29  50  86 125 155 192 248 306 354
#     4   9  15  26  49  81 115 149 190 246 302 348
#     4  12  26  43  62  90 124 161 201 255 317 373
#
# _framework density 20.304379000000001
#
# number of rings (size 3 to 8) (size 9 to 14) (size 15 to 20)
#    0.000    2.000    1.667    3.000    2.333    4.000 
#    0.000    0.000    0.000    2.000    0.000    0.000 
#    0.000    0.000    0.000    0.000    0.000    0.000 
#
# Total GULP energy -297469.934211 kJ/mol
# GULP energy per Si atom -12394.580592 kJ/mol
# Density = 2.025817 g / cm^3
# Si number density = 20.304379 Si / 1000 Ang^3
#
#
#
# Elastic Constant Matrix: (Units=GPa)
#
#
# Indices 1 2 3 4 5 6 
#
# 1 38.1246 14.1555 1.0746 0.0000 0.0000 0.0000
# 2 14.1555 113.1482 28.4105 0.0000 0.0000 0.0000
# 3 1.0746 28.4105 111.6934 0.0000 0.0000 0.0000
# 4 0.0000 0.0000 0.0000 30.0588 0.0000 0.0000
# 5 0.0000 0.0000 0.0000 0.0000 14.9094 0.0000
# 6 0.0000 0.0000 0.0000 0.0000 0.0000 5.5244
#
#
#
# Elastic Compliance Matrix: (Units=1/GPa)
#
#
# Indices 1 2 3 4 5 6 
#
# 1 0.027552 -0.003611 0.000653 0.000000 0.000000 0.000000
# 2 -0.003611 0.009914 -0.002487 0.000000 0.000000 0.000000
# 3 0.000653 -0.002487 0.009579 0.000000 0.000000 0.000000
# 4 0.000000 0.000000 0.000000 0.033268 0.000000 0.000000
# 5 0.000000 0.000000 0.000000 0.000000 0.067072 0.000000
# 6 0.000000 0.000000 0.000000 0.000000 0.000000 0.181014
#
#
# Mechanical properties :
#
#
# Convention : Reuss Voigt Hill
#
# Bulk Modulus (GPa) = 27.65758 38.91638 33.28698
# Shear Modulus (GPa) = 14.23120 24.72023 19.47571
#
# Velocity S-wave (km/s) = 2.65031 3.49303 3.10044
# Velocity P-wave (km/s) = 4.79756 5.95621 5.40800
#
# Compressibility (1/GPa) = 0.03615646
#
# Stress axis : x y z
#
# Youngs Moduli (GPa) = 36.29488 100.86545 104.39061
#
# Poissons Ratio (x) = 0.36422 -0.06821
# Poissons Ratio (y) = 0.13106 0.25962
# Poissons Ratio (z) = -0.02372 0.25086
#
# Static dielectric constant tensor:
#      x y z
#    x 3.159960 0.000000 0.000000 
#    y 0.000000 3.943380 0.000000 
#    z 0.000000 0.000000 3.848010 
# 
# 
# High freq. dielectric constant tensor:
#      x y z
#    x 1.732480 0.000000 0.000000 
#    y 0.000000 1.812230 0.000000 
#    z 0.000000 0.000000 1.808470 
# 
# From -- ./inp_files/3766.got.cif
#   From: 2010.03.12/outbox.cif.g09.slc.cpg/sg38_2_cif.got.tgz:3766.got - 2010.04.14 02:38:36.
