data_PCOD8178984
_publ_section_title
;
Structure prediction by ZEFSAII (Michael W. Deem and Ramdas Pophale) SiO2 
 PCOD8178984
Probable space group: A M M 2
;
_chemical_formula_sum "Si O2"
_cell_formula_units_Z 64
_cell_length_a 13.075178
_cell_length_b 28.001696
_cell_length_c 9.009904
_cell_angle_alpha 90.000000
_cell_angle_beta 90.000000
_cell_angle_gamma 90.000000
_cell_volume 3298.770559
_symmetry_space_group_name_H-M "A M M 2"
_symmetry_group_IT_number 38
_symmetry_cell_setting 'orthorhombic'
loop_
_space_group_symop_operation_xyz
x,y,z
-x,-y,z
-x,y,z
x,-y,z
x,1/2+y,1/2+z
-x,1/2-y,1/2+z
-x,1/2+y,1/2+z
x,1/2-y,1/2+z
loop_
_atom_site_type_symbol
_atom_site_label
_atom_site_fract_x
_atom_site_fract_y
_atom_site_fract_z
Si Si1 0.800062 0.945028 0.173640
Si Si2 0.614354 0.200971 0.275801
Si Si3 0.878243 0.108648 0.886658
Si Si4 0.884099 0.637890 0.840591
Si Si5 0.252115 0.370705 0.108033
Si Si6 0.381744 0.593389 0.846215
Si Si7 0.116701 0.800858 0.073492
Si Si8 0.713065 0.730795 0.064664
O O1 0.870946 0.917321 0.291764
O O2 0.682466 0.940624 0.234493
O O3 0.831609 0.000000 0.172858
O O4 0.823786 0.924665 0.009385
O O5 0.500000 0.212456 0.325914
O O6 0.628387 0.144176 0.265301
O O7 0.638516 0.227411 0.122070
O O8 0.689431 0.223185 0.394286
O O9 0.806427 0.101463 0.740286
O O10 0.000000 0.094800 0.863602
O O11 0.871953 0.164323 0.931302
O O12 0.833812 0.671170 0.713858
O O13 0.000000 0.651425 0.857180
O O14 0.833842 0.648164 0.996358
O O15 0.301611 0.319411 0.156834
O O16 0.333319 0.403713 0.015066
O O17 0.500000 0.576137 0.858841
O O18 0.171385 0.750294 0.058956
O O19 0.000000 0.788445 0.103138
#
# Coordination Sequence:
#
# PCOD8178984 Si02
#       8
#     8   8   8   8   8   8   8   8
#     4  10  20  36  60  83 100 128 173 219 267 324
#     4  10  20  33  50  73 102 137 176 218 265 308
#     4  10  20  34  51  77 115 146 169 210 268 321
#     4   9  18  34  53  74 104 140 179 220 260 308
#     4  10  20  33  51  76 109 147 180 212 262 316
#     4   9  20  39  59  78 105 140 178 224 271 313
#     4   9  18  31  47  70 103 145 186 221 257 297
#     4  11  19  31  49  72 103 138 182 226 254 292
#
# _framework density 19.401166
#
# number of rings (size 3 to 8) (size 9 to 14) (size 15 to 20)
#    0.000    2.250    0.000    5.625    0.000    2.750 
#    0.000    6.250    0.000    3.000    0.000    0.000 
#    0.000    0.000    0.000    0.000    0.000    0.000 
#
# Total GULP energy -396463.155106 kJ/mol
# GULP energy per Si atom -12389.473597 kJ/mol
# Density = 1.935701 g / cm^3
# Si number density = 19.401166 Si / 1000 Ang^3
#
#
#
# Elastic Constant Matrix: (Units=GPa)
#
#
# Indices 1 2 3 4 5 6 
#
# 1 79.3263 4.3759 25.6484 0.0000 0.0000 0.0000
# 2 4.3759 60.9123 11.1149 0.0000 0.0000 0.0000
# 3 25.6484 11.1149 69.5927 0.0000 0.0000 0.0000
# 4 0.0000 0.0000 0.0000 15.5353 0.0000 0.0000
# 5 0.0000 0.0000 0.0000 0.0000 26.8106 0.0000
# 6 0.0000 0.0000 0.0000 0.0000 0.0000 17.6943
#
#
#
# Elastic Compliance Matrix: (Units=1/GPa)
#
#
# Indices 1 2 3 4 5 6 
#
# 1 0.014312 -0.000068 -0.005264 0.000000 0.000000 0.000000
# 2 -0.000068 0.016910 -0.002676 0.000000 0.000000 0.000000
# 3 -0.005264 -0.002676 0.016737 0.000000 0.000000 0.000000
# 4 0.000000 0.000000 0.000000 0.064370 0.000000 0.000000
# 5 0.000000 0.000000 0.000000 0.000000 0.037299 0.000000
# 6 0.000000 0.000000 0.000000 0.000000 0.000000 0.056515
#
#
# Mechanical properties :
#
#
# Convention : Reuss Voigt Hill
#
# Bulk Modulus (GPa) = 31.30475 32.45664 31.88070
# Shear Modulus (GPa) = 21.47722 23.25418 22.36570
#
# Velocity S-wave (km/s) = 3.33078 3.46583 3.39898
# Velocity P-wave (km/s) = 5.56441 5.72552 5.64554
#
# Compressibility (1/GPa) = 0.03194403
#
# Stress axis : x y z
#
# Youngs Moduli (GPa) = 69.87232 59.13598 59.74907
#
# Poissons Ratio (x) = 0.00400 0.31451
# Poissons Ratio (y) = 0.00473 0.15988
# Poissons Ratio (z) = 0.36779 0.15824
#
# Static dielectric constant tensor:
#      x y z
#    x 3.714610 0.000000 0.000000 
#    y 0.000000 3.309930 0.000000 
#    z 0.000000 0.000000 3.445950 
# 
# 
# High freq. dielectric constant tensor:
#      x y z
#    x 1.762800 0.000000 0.000000 
#    y 0.000000 1.730800 0.000000 
#    z 0.000000 0.000000 1.742400 
# 
# From -- ./inp_files/5900.got.cif
#   From: 2010.03.12/outbox.cif.g09.slc.cpg/sg38_3_cif.got.tgz:5900.got - 2010.04.14 02:38:36.
