data_PCOD8178440
_publ_section_title
;
Structure prediction by ZEFSAII (Michael W. Deem and Ramdas Pophale) SiO2 
 PCOD8178440
Probable space group: A M M 2
;
_chemical_formula_sum "Si O2"
_cell_formula_units_Z 64
_cell_length_a 8.514140
_cell_length_b 19.940973
_cell_length_c 20.161357
_cell_angle_alpha 90.000000
_cell_angle_beta 90.000000
_cell_angle_gamma 90.000000
_cell_volume 3422.999947
_symmetry_space_group_name_H-M "A M M 2"
_symmetry_group_IT_number 38
_symmetry_cell_setting 'orthorhombic'
loop_
_space_group_symop_operation_xyz
x,y,z
-x,-y,z
-x,y,z
x,-y,z
x,1/2+y,1/2+z
-x,1/2-y,1/2+z
-x,1/2+y,1/2+z
x,1/2-y,1/2+z
loop_
_atom_site_type_symbol
_atom_site_label
_atom_site_fract_x
_atom_site_fract_y
_atom_site_fract_z
Si Si1 0.317702 0.422992 0.459610
Si Si2 0.686675 0.425231 0.109397
Si Si3 0.182121 0.180969 0.859157
Si Si4 0.182121 0.180969 0.212650
Si Si5 0.314973 0.676261 0.853334
Si Si6 0.314973 0.676261 0.218473
Si Si7 0.313325 0.925231 0.462410
Si Si8 0.682298 0.422992 0.612197
O O1 0.500000 0.410585 0.444279
O O2 0.272986 0.500000 0.444835
O O3 0.214582 0.375877 0.413152
O O4 0.280119 0.405509 0.535903
O O5 0.500000 0.422069 0.109247
O O6 0.742982 0.500000 0.128890
O O7 0.754488 0.372657 0.162166
O O8 0.749474 0.406620 0.035903
O O9 0.279493 0.247920 0.875691
O O10 0.230623 0.155220 0.786508
O O11 0.000000 0.199393 0.859677
O O12 0.230623 0.155220 0.285299
O O13 0.279493 0.247920 0.196115
O O14 0.214582 0.124123 0.158655
O O15 0.000000 0.199393 0.212130
O O16 0.500000 0.667414 0.843469
O O17 0.245512 0.627343 0.909641
O O18 0.500000 0.667414 0.228338
O O19 0.500000 0.922069 0.462560
O O20 0.257018 0.000000 0.442917
O O21 0.500000 0.410585 0.627528
O O22 0.727014 0.500000 0.626971
#
# Coordination Sequence:
#
# PCOD8178440 Si02
#       8
#     8   8   8   8   8   8   8   8
#     4   9  19  37  59  80 102 131 171 217 260 308
#     4   8  15  29  50  77 104 127 159 208 259 300
#     4  11  22  35  51  74 107 141 171 211 262 312
#     4  11  22  35  51  74 107 141 171 211 262 312
#     4  10  19  33  54  77 102 137 179 218 254 300
#     4  10  19  33  54  77 102 137 179 218 254 300
#     4   8  15  29  50  77 104 127 159 208 259 300
#     4   9  19  37  59  80 102 131 171 217 260 308
#
# _framework density 18.697047999999999
#
# number of rings (size 3 to 8) (size 9 to 14) (size 15 to 20)
#    0.000    2.500    0.000    6.000    0.000    3.000 
#    0.000    6.250    0.000    4.500    0.000    7.000 
#    0.000    0.000    0.000    0.000    0.000    0.000 
#
# Total GULP energy -396781.779531 kJ/mol
# GULP energy per Si atom -12399.430610 kJ/mol
# Density = 1.865449 g / cm^3
# Si number density = 18.697048 Si / 1000 Ang^3
#
#
#
# Elastic Constant Matrix: (Units=GPa)
#
#
# Indices 1 2 3 4 5 6 
#
# 1 43.9588 9.8120 19.1733 0.0000 0.0000 0.0000
# 2 9.8120 100.5901 87.9028 0.0000 0.0000 0.0000
# 3 19.1733 87.9028 129.4640 0.0000 0.0000 0.0000
# 4 0.0000 0.0000 0.0000 47.0111 0.0000 0.0000
# 5 0.0000 0.0000 0.0000 0.0000 4.2303 0.0000
# 6 0.0000 0.0000 0.0000 0.0000 0.0000 6.1667
#
#
#
# Elastic Compliance Matrix: (Units=1/GPa)
#
#
# Indices 1 2 3 4 5 6 
#
# 1 0.024469 0.001918 -0.004926 0.000000 0.000000 0.000000
# 2 0.001918 0.024596 -0.016984 0.000000 0.000000 0.000000
# 3 -0.004926 -0.016984 0.019986 0.000000 0.000000 0.000000
# 4 0.000000 0.000000 0.000000 0.021272 0.000000 0.000000
# 5 0.000000 0.000000 0.000000 0.000000 0.236391 0.000000
# 6 0.000000 0.000000 0.000000 0.000000 0.000000 0.162161
#
#
# Mechanical properties :
#
#
# Convention : Reuss Voigt Hill
#
# Bulk Modulus (GPa) = 34.40438 56.42101 45.41270
# Shear Modulus (GPa) = 9.28423 21.95662 15.62043
#
# Velocity S-wave (km/s) = 2.23078 3.43058 2.89355
# Velocity P-wave (km/s) = 5.00760 6.77744 5.95860
#
# Compressibility (1/GPa) = 0.02906607
#
# Stress axis : x y z
#
# Youngs Moduli (GPa) = 40.86802 40.65629 50.03589
#
# Poissons Ratio (x) = -0.07797 0.24647
# Poissons Ratio (y) = -0.07838 0.84983
# Poissons Ratio (z) = 0.20131 0.69052
#
# Static dielectric constant tensor:
#      x y z
#    x 3.149940 0.000000 0.000000 
#    y 0.000000 3.493680 0.000000 
#    z 0.000000 0.000000 3.636510 
# 
# 
# High freq. dielectric constant tensor:
#      x y z
#    x 1.704140 0.000000 0.000000 
#    y 0.000000 1.726650 0.000000 
#    z 0.000000 0.000000 1.731970 
# 
# From -- ./inp_files/20043.got.cif
#   From: 2010.03.12/outbox.cif.g09.slc.cpg/sg38_11_cif.got.tgz:20043.got - 2010.04.14 02:38:36.
