data_PCOD8178009
_publ_section_title
;
Structure prediction by ZEFSAII (Michael W. Deem and Ramdas Pophale) SiO2 
 PCOD8178009
Probable space group: A M M 2
;
_chemical_formula_sum "Si O2"
_cell_formula_units_Z 40
_cell_length_a 24.753151
_cell_length_b 17.143370
_cell_length_c 5.003090
_cell_angle_alpha 90.000000
_cell_angle_beta 90.000000
_cell_angle_gamma 90.000000
_cell_volume 2123.073380
_symmetry_space_group_name_H-M "A M M 2"
_symmetry_group_IT_number 38
_symmetry_cell_setting 'orthorhombic'
loop_
_space_group_symop_operation_xyz
x,y,z
-x,-y,z
-x,y,z
x,-y,z
x,1/2+y,1/2+z
-x,1/2-y,1/2+z
-x,1/2+y,1/2+z
x,1/2-y,1/2+z
loop_
_atom_site_type_symbol
_atom_site_label
_atom_site_fract_x
_atom_site_fract_y
_atom_site_fract_z
Si Si1 0.000000 0.197635 0.386641
Si Si2 0.327789 0.410481 0.769396
Si Si3 0.888517 0.698932 0.749776
Si Si4 0.227072 0.697556 0.854588
Si Si5 0.500000 0.302945 0.281752
Si Si6 0.397804 0.590206 0.261255
O O1 0.943864 0.150383 0.321135
O O2 0.000000 0.225904 0.692213
O O3 0.313914 0.500000 0.825485
O O4 0.272572 0.365048 0.800112
O O5 0.350891 0.396044 0.476127
O O6 0.373352 0.382662 0.978615
O O7 0.889565 0.723966 0.440382
O O8 0.831705 0.655396 0.812528
O O9 0.232677 0.770791 0.654707
O O10 0.500000 0.230398 0.483123
O O11 0.551766 0.356409 0.332505
O O12 0.416751 0.500000 0.256815
#
# Coordination Sequence:
#
# PCOD8178009 Si02
#       6
#     4   8   8   8   4   8
#     4   8  12  20  34  52  81 116 149 186 226 274
#     4  10  21  36  54  74  97 130 166 195 231 283
#     4   8  14  23  36  58  86 117 151 188 233 278
#     4  10  19  30  47  71  98 125 156 199 246 284
#     4  12  25  38  57  84 106 124 156 200 241 280
#     4  10  22  40  57  73  99 133 163 191 231 285
#
# _framework density 18.840612
#
# number of rings (size 3 to 8) (size 9 to 14) (size 15 to 20)
#    0.000    2.400    0.000    2.700    0.000    4.800 
#    0.000    4.000    0.000    0.000    0.000    0.700 
#    0.000    0.000    0.000   53.800    0.000    2.000 
#
# Total GULP energy -247846.660563 kJ/mol
# GULP energy per Si atom -12392.333028 kJ/mol
# Density = 1.879773 g / cm^3
# Si number density = 18.840612 Si / 1000 Ang^3
#
#
#
# Elastic Constant Matrix: (Units=GPa)
#
#
# Indices 1 2 3 4 5 6 
#
# 1 153.0729 52.4604 0.8652 0.0000 0.0000 0.0000
# 2 52.4604 39.0677 8.4877 0.0000 0.0000 0.0000
# 3 0.8652 8.4877 72.9828 0.0000 0.0000 0.0000
# 4 0.0000 0.0000 0.0000 18.0712 0.0000 0.0000
# 5 0.0000 0.0000 0.0000 0.0000 24.5897 0.0000
# 6 0.0000 0.0000 0.0000 0.0000 0.0000 -9.7395
#
#
#
# Elastic Compliance Matrix: (Units=1/GPa)
#
#
# Indices 1 2 3 4 5 6 
#
# 1 0.012335 -0.016960 0.001826 0.000000 0.000000 0.000000
# 2 -0.016960 0.049580 -0.005565 0.000000 0.000000 0.000000
# 3 0.001826 -0.005565 0.014327 0.000000 0.000000 0.000000
# 4 0.000000 0.000000 0.000000 0.055337 0.000000 0.000000
# 5 0.000000 0.000000 0.000000 0.000000 0.040667 0.000000
# 6 0.000000 0.000000 0.000000 0.000000 0.000000 -0.102675
#
#
# Mechanical properties :
#
#
# Convention : Reuss Voigt Hill
#
# Bulk Modulus (GPa) = 28.69911 43.19444 35.94678
# Shear Modulus (GPa) = 40.78798 20.13829 30.46314
#
# Velocity S-wave (km/s) = 4.65789 3.27291 4.02542
# Velocity P-wave (km/s) = 6.64783 6.10399 6.38170
#
# Compressibility (1/GPa) = 0.03484428
#
# Stress axis : x y z
#
# Youngs Moduli (GPa) = 81.06953 20.16938 69.79628
#
# Poissons Ratio (x) = 0.34208 -0.12746
# Poissons Ratio (y) = 1.37497 0.38842
# Poissons Ratio (z) = -0.14805 0.11224
#
# Static dielectric constant tensor:
#      x y z
#    x 3.921590 0.000000 0.000000 
#    y 0.000000 2.879290 0.000000 
#    z 0.000000 0.000000 3.680100 
# 
# 
# High freq. dielectric constant tensor:
#      x y z
#    x 1.762820 0.000000 0.000000 
#    y 0.000000 1.653650 0.000000 
#    z 0.000000 0.000000 1.757750 
# 
# From -- ./inp_files/1851.got.cif
#   From: 2010.03.12/outbox.cif.g09.slc.cpg/sg38_1_cif.got.tgz:1851.got - 2010.04.14 02:38:36.
