data_PCOD8178730
_publ_section_title
;
Structure prediction by ZEFSAII (Michael W. Deem and Ramdas Pophale) SiO2 
 PCOD8178730
Probable space group: A M M 2
;
_chemical_formula_sum "Si O2"
_cell_formula_units_Z 48
_cell_length_a 19.190064
_cell_length_b 8.906847
_cell_length_c 14.932078
_cell_angle_alpha 90.000000
_cell_angle_beta 90.000000
_cell_angle_gamma 90.000000
_cell_volume 2552.235030
_symmetry_space_group_name_H-M "A M M 2"
_symmetry_group_IT_number 38
_symmetry_cell_setting 'orthorhombic'
loop_
_space_group_symop_operation_xyz
x,y,z
-x,-y,z
-x,y,z
x,-y,z
x,1/2+y,1/2+z
-x,1/2-y,1/2+z
-x,1/2+y,1/2+z
x,1/2-y,1/2+z
loop_
_atom_site_type_symbol
_atom_site_label
_atom_site_fract_x
_atom_site_fract_y
_atom_site_fract_z
Si Si1 0.105042 0.321627 0.984520
Si Si2 0.000000 0.177704 0.635817
Si Si3 0.000000 0.822252 0.333304
Si Si4 0.500000 0.829921 0.398322
Si Si5 0.648984 0.673377 0.818408
Si Si6 0.359294 0.823565 0.641031
Si Si7 0.500000 0.675949 0.582762
Si Si8 0.260646 0.178045 0.485076
O O1 0.105712 0.500000 0.984249
O O2 0.066619 0.269395 0.892821
O O3 0.182895 0.252971 0.984510
O O4 0.066629 0.269651 0.076265
O O5 0.000000 0.250110 0.734521
O O6 0.000000 0.000000 0.649897
O O7 0.000000 0.000000 0.319356
O O8 0.432333 0.802263 0.338733
O O9 0.500000 0.712314 0.478215
O O10 0.500000 0.000000 0.437697
O O11 0.664183 0.500000 0.795738
O O12 0.671088 0.779499 0.737094
O O13 0.696837 0.731567 0.898836
O O14 0.432497 0.742709 0.629464
O O15 0.303088 0.762153 0.570303
O O16 0.370755 0.000000 0.630750
O O17 0.500000 0.500000 0.598709
O O18 0.256123 0.000000 0.488189
#
# Coordination Sequence:
#
# PCOD8178730 Si02
#       8
#     8   4   4   4   8   8   4   8
#     4   8  16  32  52  76 106 145 182 209 252 320
#     4   9  17  31  54  80 108 141 179 217 256 306
#     4   9  17  31  54  80 106 137 179 221 256 306
#     4  10  19  36  57  76 102 136 177 217 268 319
#     4  10  20  35  55  78 105 139 176 219 269 320
#     4  11  22  37  56  79 105 138 179 222 269 320
#     4  12  23  36  57  80 104 136 177 225 270 315
#     4   9  18  34  55  76 106 144 178 214 263 320
#
# _framework density 18.807044999999999
#
# number of rings (size 3 to 8) (size 9 to 14) (size 15 to 20)
#    0.000    2.333    1.667    2.750    0.000    2.667 
#    0.000    1.667    0.000    4.000    0.000    0.000 
#    0.000    0.000    0.000    0.000    0.000    0.000 
#
# Total GULP energy -297534.151550 kJ/mol
# GULP energy per Si atom -12397.256315 kJ/mol
# Density = 1.876424 g / cm^3
# Si number density = 18.807045 Si / 1000 Ang^3
#
#
#
# Elastic Constant Matrix: (Units=GPa)
#
#
# Indices 1 2 3 4 5 6 
#
# 1 171.2162 30.0892 84.3155 0.0000 0.0000 0.0000
# 2 30.0892 49.8036 38.5730 0.0000 0.0000 0.0000
# 3 84.3155 38.5730 173.2805 0.0000 0.0000 0.0000
# 4 0.0000 0.0000 0.0000 36.1023 0.0000 0.0000
# 5 0.0000 0.0000 0.0000 0.0000 -2.2673 0.0000
# 6 0.0000 0.0000 0.0000 0.0000 0.0000 2.3296
#
#
#
# Elastic Compliance Matrix: (Units=1/GPa)
#
#
# Indices 1 2 3 4 5 6 
#
# 1 0.007869 -0.002161 -0.003348 0.000000 0.000000 0.000000
# 2 -0.002161 0.024855 -0.004481 0.000000 0.000000 0.000000
# 3 -0.003348 -0.004481 0.008398 0.000000 0.000000 0.000000
# 4 0.000000 0.000000 0.000000 0.027699 0.000000 0.000000
# 5 0.000000 0.000000 0.000000 0.000000 -0.441060 0.000000
# 6 0.000000 0.000000 0.000000 0.000000 0.000000 0.429252
#
#
# Mechanical properties :
#
#
# Convention : Reuss Voigt Hill
#
# Bulk Modulus (GPa) = 47.30092 77.80616 62.55354
# Shear Modulus (GPa) = 59.49483 23.32110 41.40797
#
# Velocity S-wave (km/s) = 5.63054 3.52521 4.69735
# Velocity P-wave (km/s) = 8.21437 7.61775 7.92168
#
# Compressibility (1/GPa) = 0.02114124
#
# Stress axis : x y z
#
# Youngs Moduli (GPa) = 127.08059 40.23273 119.08223
#
# Poissons Ratio (x) = 0.08695 0.39867
# Poissons Ratio (y) = 0.27465 0.53364
# Poissons Ratio (z) = 0.42545 0.18030
#
# Static dielectric constant tensor:
#      x y z
#    x 3.808790 0.000000 0.000000 
#    y 0.000000 3.081880 0.000000 
#    z 0.000000 0.000000 3.556960 
# 
# 
# High freq. dielectric constant tensor:
#      x y z
#    x 1.734190 0.000000 0.000000 
#    y 0.000000 1.691480 0.000000 
#    z 0.000000 0.000000 1.742340 
# 
# From -- ./inp_files/15125.got.cif
#   From: 2010.03.12/outbox.cif.g09.slc.cpg/sg38_8_cif.got.tgz:15125.got - 2010.04.14 02:38:36.
