data_PCOD8178135
_publ_section_title
;
Structure prediction by ZEFSAII (Michael W. Deem and Ramdas Pophale) SiO2 
 PCOD8178135
Probable space group: A M M 2
;
_chemical_formula_sum "Si O2"
_cell_formula_units_Z 64
_cell_length_a 9.641124
_cell_length_b 18.972551
_cell_length_c 18.646049
_cell_angle_alpha 90.000000
_cell_angle_beta 90.000000
_cell_angle_gamma 90.000000
_cell_volume 3410.674064
_symmetry_space_group_name_H-M "A M M 2"
_symmetry_group_IT_number 38
_symmetry_cell_setting 'orthorhombic'
loop_
_space_group_symop_operation_xyz
x,y,z
-x,-y,z
-x,y,z
x,-y,z
x,1/2+y,1/2+z
-x,1/2-y,1/2+z
-x,1/2+y,1/2+z
x,1/2-y,1/2+z
loop_
_atom_site_type_symbol
_atom_site_label
_atom_site_fract_x
_atom_site_fract_y
_atom_site_fract_z
Si Si1 0.840148 0.421973 0.275080
Si Si2 0.155094 0.107258 0.928826
Si Si3 0.282217 0.577153 0.578357
Si Si4 0.655703 0.802640 0.726531
Si Si5 0.840229 0.769288 0.453339
Si Si6 0.155123 0.419240 0.729348
Si Si7 0.349539 0.267724 0.580685
Si Si8 0.337849 0.677836 0.829062
O O1 0.825138 0.500000 0.242247
O O2 0.775026 0.421500 0.355653
O O3 0.757372 0.368915 0.224507
O O4 0.000000 0.397247 0.276763
O O5 0.164477 0.191103 0.922799
O O6 0.000000 0.079713 0.928769
O O7 0.216332 0.073499 0.999942
O O8 0.358169 0.500000 0.589035
O O9 0.173530 0.587250 0.643332
O O10 0.374177 0.647534 0.577712
O O11 0.500000 0.831910 0.720033
O O12 0.694135 0.751995 0.660767
O O13 0.672538 0.756597 0.798037
O O14 0.768639 0.765796 0.531075
O O15 0.751319 0.821825 0.402627
O O16 0.000000 0.796079 0.460041
O O17 0.169445 0.500000 0.753644
O O18 0.271177 0.376949 0.773304
O O19 0.000000 0.390857 0.747018
O O20 0.500000 0.235527 0.559556
O O21 0.500000 0.657580 0.842510
#
# Coordination Sequence:
#
# PCOD8178135 Si02
#       8
#     8   8   8   8   8   8   8   8
#     4  10  20  34  54  80 109 142 180 226 277 324
#     4   9  17  30  48  73 108 146 180 216 261 316
#     4  10  19  31  49  76 112 152 190 227 267 316
#     4  10  21  37  55  78 109 146 185 224 270 321
#     4  10  20  35  57  84 107 139 182 227 276 324
#     4  10  21  35  53  80 113 150 192 237 281 326
#     4  10  21  38  55  78 111 147 185 228 274 327
#     4  11  21  36  57  81 110 148 186 229 278 328
#
# _framework density 18.764619
#
# number of rings (size 3 to 8) (size 9 to 14) (size 15 to 20)
#    0.000    2.000    2.500    1.500    0.000    3.500 
#    0.000    1.250    0.000    2.250    0.000    3.500 
#    0.000    0.000    0.000    0.000    0.000    0.000 
#
# Total GULP energy -396487.991498 kJ/mol
# GULP energy per Si atom -12390.249734 kJ/mol
# Density = 1.872191 g / cm^3
# Si number density = 18.764619 Si / 1000 Ang^3
#
#
#
# Elastic Constant Matrix: (Units=GPa)
#
#
# Indices 1 2 3 4 5 6 
#
# 1 117.4809 36.6096 47.8801 0.0000 0.0000 0.0000
# 2 36.6096 67.9197 33.3355 0.0000 0.0000 0.0000
# 3 47.8801 33.3355 80.8069 0.0000 0.0000 0.0000
# 4 0.0000 0.0000 0.0000 24.1444 0.0000 0.0000
# 5 0.0000 0.0000 0.0000 0.0000 24.2182 0.0000
# 6 0.0000 0.0000 0.0000 0.0000 0.0000 16.0717
#
#
#
# Elastic Compliance Matrix: (Units=1/GPa)
#
#
# Indices 1 2 3 4 5 6 
#
# 1 0.011924 -0.003711 -0.005534 0.000000 0.000000 0.000000
# 2 -0.003711 0.019616 -0.005893 0.000000 0.000000 0.000000
# 3 -0.005534 -0.005893 0.018086 0.000000 0.000000 0.000000
# 4 0.000000 0.000000 0.000000 0.041417 0.000000 0.000000
# 5 0.000000 0.000000 0.000000 0.000000 0.041291 0.000000
# 6 0.000000 0.000000 0.000000 0.000000 0.000000 0.062221
#
#
# Mechanical properties :
#
#
# Convention : Reuss Voigt Hill
#
# Bulk Modulus (GPa) = 51.68428 55.76197 53.72312
# Shear Modulus (GPa) = 21.61858 22.77902 22.19880
#
# Velocity S-wave (km/s) = 3.39793 3.48794 3.44323
# Velocity P-wave (km/s) = 6.55727 6.78248 6.67083
#
# Compressibility (1/GPa) = 0.01934824
#
# Stress axis : x y z
#
# Youngs Moduli (GPa) = 83.86452 50.97873 55.29228
#
# Poissons Ratio (x) = 0.18917 0.30601
# Poissons Ratio (y) = 0.31121 0.32586
# Poissons Ratio (z) = 0.46414 0.30044
#
# Static dielectric constant tensor:
#      x y z
#    x 3.404230 0.000000 0.000000 
#    y 0.000000 3.277720 0.000000 
#    z 0.000000 0.000000 3.355810 
# 
# 
# High freq. dielectric constant tensor:
#      x y z
#    x 1.723210 0.000000 0.000000 
#    y 0.000000 1.710580 0.000000 
#    z 0.000000 0.000000 1.719730 
# 
# From -- ./inp_files/17233.got.cif
#   From: 2010.03.12/outbox.cif.g09.slc.cpg/sg38_9_cif.got.tgz:17233.got - 2010.04.14 02:38:36.
