data_PCOD8178294
_publ_section_title
;
Structure prediction by ZEFSAII (Michael W. Deem and Ramdas Pophale) SiO2 
 PCOD8178294
Probable space group: A M M 2
;
_chemical_formula_sum "Si O2"
_cell_formula_units_Z 56
_cell_length_a 15.264634
_cell_length_b 14.320408
_cell_length_c 12.139878
_cell_angle_alpha 90.000000
_cell_angle_beta 90.000000
_cell_angle_gamma 90.000000
_cell_volume 2653.726184
_symmetry_space_group_name_H-M "A M M 2"
_symmetry_group_IT_number 38
_symmetry_cell_setting 'orthorhombic'
loop_
_space_group_symop_operation_xyz
x,y,z
-x,-y,z
-x,y,z
x,-y,z
x,1/2+y,1/2+z
-x,1/2-y,1/2+z
-x,1/2+y,1/2+z
x,1/2-y,1/2+z
loop_
_atom_site_type_symbol
_atom_site_label
_atom_site_fract_x
_atom_site_fract_y
_atom_site_fract_z
Si Si1 0.332252 0.790012 0.194530
Si Si2 0.903997 0.895578 0.695894
Si Si3 0.600326 0.399002 0.140538
Si Si4 0.180288 0.739641 0.048017
Si Si5 0.402464 0.391651 0.490706
Si Si6 0.215991 0.393944 0.397843
Si Si7 0.690792 0.107527 0.420901
O O1 0.357530 0.681768 0.214194
O O2 0.234717 0.788745 0.146311
O O3 0.339731 0.846493 0.307182
O O4 0.397281 0.835224 0.104819
O O5 0.900241 0.817304 0.600284
O O6 0.820475 0.879751 0.775088
O O7 0.000000 0.885147 0.753227
O O8 0.895806 0.000000 0.645683
O O9 0.500000 0.402705 0.169515
O O10 0.642830 0.500000 0.175381
O O11 0.612069 0.383942 0.009183
O O12 0.153702 0.826618 0.971133
O O13 0.229474 0.663597 0.973338
O O14 0.500000 0.370784 0.438496
O O15 0.394751 0.500000 0.519980
O O16 0.319624 0.364249 0.410904
O O17 0.201673 0.500000 0.437285
O O18 0.717390 0.000000 0.399365
#
# Coordination Sequence:
#
# PCOD8178294 Si02
#       7
#     8   8   8   8   8   8   8
#     4  10  19  32  52  78 108 146 190 236 287 343
#     4  10  21  38  62  90 117 149 191 239 294 357
#     4   9  19  34  50  72 103 138 181 233 285 337
#     4  10  20  36  56  82 112 148 185 231 288 344
#     4   9  17  30  52  84 119 155 198 246 290 334
#     4   9  19  36  58  86 122 159 198 243 290 347
#     4  10  20  34  54  78 105 142 186 233 287 342
#
# _framework density 21.102402000000001
#
# number of rings (size 3 to 8) (size 9 to 14) (size 15 to 20)
#    0.000    2.429    0.000    2.143    0.000    2.857 
#    0.000    2.143    0.000   18.857    0.000   56.000 
#    0.000    0.000    0.000    0.000    0.000    0.000 
#
# Total GULP energy -346873.745557 kJ/mol
# GULP energy per Si atom -12388.348056 kJ/mol
# Density = 2.105437 g / cm^3
# Si number density = 21.102402 Si / 1000 Ang^3
#
#
#
# Elastic Constant Matrix: (Units=GPa)
#
#
# Indices 1 2 3 4 5 6 
#
# 1 84.0851 26.9004 28.2889 0.0000 0.0000 0.0000
# 2 26.9004 127.3374 53.9302 0.0000 0.0000 0.0000
# 3 28.2889 53.9302 68.8824 0.0000 0.0000 0.0000
# 4 0.0000 0.0000 0.0000 42.3884 0.0000 0.0000
# 5 0.0000 0.0000 0.0000 0.0000 18.8218 0.0000
# 6 0.0000 0.0000 0.0000 0.0000 0.0000 23.0496
#
#
#
# Elastic Compliance Matrix: (Units=1/GPa)
#
#
# Indices 1 2 3 4 5 6 
#
# 1 0.013850 -0.000773 -0.005083 0.000000 0.000000 0.000000
# 2 -0.000773 0.011792 -0.008915 0.000000 0.000000 0.000000
# 3 -0.005083 -0.008915 0.023585 0.000000 0.000000 0.000000
# 4 0.000000 0.000000 0.000000 0.023591 0.000000 0.000000
# 5 0.000000 0.000000 0.000000 0.000000 0.053130 0.000000
# 6 0.000000 0.000000 0.000000 0.000000 0.000000 0.043385
#
#
# Mechanical properties :
#
#
# Convention : Reuss Voigt Hill
#
# Bulk Modulus (GPa) = 50.79929 55.39378 53.09653
# Shear Modulus (GPa) = 24.33850 28.26433 26.30142
#
# Velocity S-wave (km/s) = 3.39979 3.66374 3.53423
# Velocity P-wave (km/s) = 6.28780 6.64863 6.47073
#
# Compressibility (1/GPa) = 0.01968531
#
# Stress axis : x y z
#
# Youngs Moduli (GPa) = 72.20201 84.80205 42.40062
#
# Poissons Ratio (x) = 0.06558 0.21550
# Poissons Ratio (y) = 0.05583 0.37800
# Poissons Ratio (z) = 0.36697 0.75600
#
# Static dielectric constant tensor:
#      x y z
#    x 3.564630 0.000000 0.000000 
#    y 0.000000 4.396260 0.000000 
#    z 0.000000 0.000000 3.671480 
# 
# 
# High freq. dielectric constant tensor:
#      x y z
#    x 1.792960 0.000000 0.000000 
#    y 0.000000 1.852090 0.000000 
#    z 0.000000 0.000000 1.812210 
# 
# From -- ./inp_files/10075.got.cif
#   From: 2010.03.12/outbox.cif.g09.slc.cpg/sg38_6_cif.got.tgz:10075.got - 2010.04.14 02:38:36.
