data_PCOD8178441
_publ_section_title
;
Structure prediction by ZEFSAII (Michael W. Deem and Ramdas Pophale) SiO2 
 PCOD8178441
Probable space group: A M M 2
;
_chemical_formula_sum "Si O2"
_cell_formula_units_Z 32
_cell_length_a 9.005212
_cell_length_b 20.097056
_cell_length_c 9.409181
_cell_angle_alpha 90.000000
_cell_angle_beta 90.000000
_cell_angle_gamma 90.000000
_cell_volume 1702.857110
_symmetry_space_group_name_H-M "A M M 2"
_symmetry_group_IT_number 38
_symmetry_cell_setting 'orthorhombic'
loop_
_space_group_symop_operation_xyz
x,y,z
-x,-y,z
-x,y,z
x,-y,z
x,1/2+y,1/2+z
-x,1/2-y,1/2+z
-x,1/2+y,1/2+z
x,1/2-y,1/2+z
loop_
_atom_site_type_symbol
_atom_site_label
_atom_site_fract_x
_atom_site_fract_y
_atom_site_fract_z
Si Si1 0.827727 0.922670 0.538100
Si Si2 0.323006 0.316190 0.853845
Si Si3 0.324270 0.808849 0.033461
Si Si4 0.326418 0.575850 0.329425
O O1 0.744952 0.883916 0.413384
O O2 0.760511 0.901690 0.689397
O O3 0.000000 0.904326 0.538270
O O4 0.799402 0.000000 0.508663
O O5 0.500000 0.321549 0.857434
O O6 0.262699 0.307033 0.693520
O O7 0.262817 0.254309 0.946362
O O8 0.500000 0.804938 0.035967
O O9 0.272841 0.877161 0.957896
O O10 0.500000 0.585491 0.296794
O O11 0.289318 0.500000 0.372484
#
# Coordination Sequence:
#
# PCOD8178441 Si02
#       4
#     8   8   8   8
#     4  10  21  36  52  73 103 136 171 212 255 299
#     4  10  19  33  54  77 103 135 170 208 252 302
#     4   9  18  32  53  81 107 131 165 211 255 296
#     4   9  17  32  55  80 105 134 168 205 248 301
#
# _framework density 18.791945999999999
#
# number of rings (size 3 to 8) (size 9 to 14) (size 15 to 20)
#    0.000    2.500    0.000    2.250    0.000    6.500 
#    0.000    8.750    0.000    3.000    0.000    0.000 
#    0.000    0.000    0.000    0.000    0.000    0.000 
#
# Total GULP energy -198431.192663 kJ/mol
# GULP energy per Si atom -12401.949541 kJ/mol
# Density = 1.874917 g / cm^3
# Si number density = 18.791946 Si / 1000 Ang^3
#
#
#
# Elastic Constant Matrix: (Units=GPa)
#
#
# Indices 1 2 3 4 5 6 
#
# 1 39.7903 32.2498 40.4505 0.0000 0.0000 0.0000
# 2 32.2498 107.2715 89.7514 0.0000 0.0000 0.0000
# 3 40.4505 89.7514 185.5836 0.0000 0.0000 0.0000
# 4 0.0000 0.0000 0.0000 42.9945 0.0000 0.0000
# 5 0.0000 0.0000 0.0000 0.0000 6.5779 0.0000
# 6 0.0000 0.0000 0.0000 0.0000 0.0000 19.1212
#
#
#
# Elastic Compliance Matrix: (Units=1/GPa)
#
#
# Indices 1 2 3 4 5 6 
#
# 1 0.035145 -0.006982 -0.004284 0.000000 0.000000 0.000000
# 2 -0.006982 0.017045 -0.006721 0.000000 0.000000 0.000000
# 3 -0.004284 -0.006721 0.009573 0.000000 0.000000 0.000000
# 4 0.000000 0.000000 0.000000 0.023259 0.000000 0.000000
# 5 0.000000 0.000000 0.000000 0.000000 0.152024 0.000000
# 6 0.000000 0.000000 0.000000 0.000000 0.000000 0.052298
#
#
# Mechanical properties :
#
#
# Convention : Reuss Voigt Hill
#
# Bulk Modulus (GPa) = 38.77658 73.06098 55.91878
# Shear Modulus (GPa) = 14.97391 25.08497 20.02944
#
# Velocity S-wave (km/s) = 2.82587 3.65756 3.26828
# Velocity P-wave (km/s) = 5.59704 7.53660 6.63804
#
# Compressibility (1/GPa) = 0.02578876
#
# Stress axis : x y z
#
# Youngs Moduli (GPa) = 28.45319 58.66934 104.46377
#
# Poissons Ratio (x) = 0.40962 0.44752
# Poissons Ratio (y) = 0.19865 0.70213
# Poissons Ratio (z) = 0.12189 0.39434
#
# Static dielectric constant tensor:
#      x y z
#    x 3.126260 0.000000 0.000000 
#    y 0.000000 3.563190 0.000000 
#    z 0.000000 0.000000 3.632310 
# 
# 
# High freq. dielectric constant tensor:
#      x y z
#    x 1.694790 0.000000 0.000000 
#    y 0.000000 1.741480 0.000000 
#    z 0.000000 0.000000 1.734460 
# 
# From -- ./inp_files/3050.got.cif
#   From: 2010.03.12/outbox.cif.g09.slc.cpg/sg38_2_cif.got.tgz:3050.got - 2010.04.14 02:38:36.
