data_PCOD8178235
_publ_section_title
;
Structure prediction by ZEFSAII (Michael W. Deem and Ramdas Pophale) SiO2 
 PCOD8178235
Probable space group: A M M 2
;
_chemical_formula_sum "Si O2"
_cell_formula_units_Z 48
_cell_length_a 12.345718
_cell_length_b 28.018253
_cell_length_c 7.481327
_cell_angle_alpha 90.000000
_cell_angle_beta 90.000000
_cell_angle_gamma 90.000000
_cell_volume 2587.831785
_symmetry_space_group_name_H-M "A M M 2"
_symmetry_group_IT_number 38
_symmetry_cell_setting 'orthorhombic'
loop_
_space_group_symop_operation_xyz
x,y,z
-x,-y,z
-x,y,z
x,-y,z
x,1/2+y,1/2+z
-x,1/2-y,1/2+z
-x,1/2+y,1/2+z
x,1/2-y,1/2+z
loop_
_atom_site_type_symbol
_atom_site_label
_atom_site_fract_x
_atom_site_fract_y
_atom_site_fract_z
Si Si1 0.872725 0.689364 0.184030
Si Si2 0.757638 0.221244 0.019407
Si Si3 0.377963 0.797261 0.340977
Si Si4 0.623580 0.555599 0.748517
Si Si5 0.626662 0.553560 0.339695
Si Si6 0.713170 0.880451 0.537758
O O1 0.820104 0.686822 0.382098
O O2 0.000000 0.684465 0.198863
O O3 0.842436 0.739560 0.092569
O O4 0.829947 0.644569 0.066412
O O5 0.656517 0.246470 0.921467
O O6 0.704980 0.189949 0.178809
O O7 0.500000 0.793486 0.269256
O O8 0.370908 0.837830 0.493393
O O9 0.500000 0.571965 0.792647
O O10 0.634997 0.500000 0.788870
O O11 0.651215 0.567202 0.544054
O O12 0.710223 0.582765 0.872445
O O13 0.500000 0.554778 0.300028
O O14 0.670090 0.500000 0.298807
O O15 0.684155 0.592534 0.218876
#
# Coordination Sequence:
#
# PCOD8178235 Si02
#       6
#     8   8   8   8   8   8
#     4  10  21  38  57  77 102 137 192 242 274 308
#     4   9  20  36  55  75 104 146 185 222 274 322
#     4  10  19  32  50  79 114 145 174 214 268 339
#     4   9  18  33  53  79 113 149 180 212 260 327
#     4   9  18  33  54  80 113 151 181 211 261 326
#     4  11  21  31  53  82 112 140 180 222 274 313
#
# _framework density 18.548345000000001
#
# number of rings (size 3 to 8) (size 9 to 14) (size 15 to 20)
#    0.000    2.333    0.000    4.000    2.333    1.333 
#    0.000    4.167    0.000    2.000    0.000    2.333 
#    0.000    0.000    0.000    0.000    0.000    0.000 
#
# Total GULP energy -297517.641178 kJ/mol
# GULP energy per Si atom -12396.568382 kJ/mol
# Density = 1.850613 g / cm^3
# Si number density = 18.548345 Si / 1000 Ang^3
#
#
#
# Elastic Constant Matrix: (Units=GPa)
#
#
# Indices 1 2 3 4 5 6 
#
# 1 110.2290 48.8639 51.7531 0.0000 0.0000 0.0000
# 2 48.8639 79.0098 50.1296 0.0000 0.0000 0.0000
# 3 51.7531 50.1296 104.5590 0.0000 0.0000 0.0000
# 4 0.0000 0.0000 0.0000 39.6387 0.0000 0.0000
# 5 0.0000 0.0000 0.0000 0.0000 17.9703 0.0000
# 6 0.0000 0.0000 0.0000 0.0000 0.0000 18.0686
#
#
#
# Elastic Compliance Matrix: (Units=1/GPa)
#
#
# Indices 1 2 3 4 5 6 
#
# 1 0.013497 -0.005905 -0.003850 0.000000 0.000000 0.000000
# 2 -0.005905 0.020773 -0.007037 0.000000 0.000000 0.000000
# 3 -0.003850 -0.007037 0.014843 0.000000 0.000000 0.000000
# 4 0.000000 0.000000 0.000000 0.025228 0.000000 0.000000
# 5 0.000000 0.000000 0.000000 0.000000 0.055647 0.000000
# 6 0.000000 0.000000 0.000000 0.000000 0.000000 0.055345
#
#
# Mechanical properties :
#
#
# Convention : Reuss Voigt Hill
#
# Bulk Modulus (GPa) = 64.38761 66.14346 65.26553
# Shear Modulus (GPa) = 22.31222 24.67226 23.49224
#
# Velocity S-wave (km/s) = 3.47208 3.65109 3.56271
# Velocity P-wave (km/s) = 7.13180 7.31515 7.22406
#
# Compressibility (1/GPa) = 0.01553094
#
# Stress axis : x y z
#
# Youngs Moduli (GPa) = 74.09065 48.13903 67.37148
#
# Poissons Ratio (x) = 0.28425 0.25935
# Poissons Ratio (y) = 0.43749 0.47408
# Poissons Ratio (z) = 0.28522 0.33874
#
# Static dielectric constant tensor:
#      x y z
#    x 3.048700 0.000000 0.000000 
#    y 0.000000 3.405870 0.000000 
#    z 0.000000 0.000000 3.664820 
# 
# 
# High freq. dielectric constant tensor:
#      x y z
#    x 1.675050 0.000000 0.000000 
#    y 0.000000 1.713910 0.000000 
#    z 0.000000 0.000000 1.737120 
# 
# From -- ./inp_files/4714.got.cif
#   From: 2010.03.12/outbox.cif.g09.slc.cpg/sg38_3_cif.got.tgz:4714.got - 2010.04.14 02:38:36.
