data_PCOD8178167
_publ_section_title
;
Structure prediction by ZEFSAII (Michael W. Deem and Ramdas Pophale) SiO2 
 PCOD8178167
Probable space group: A M M 2
;
_chemical_formula_sum "Si O2"
_cell_formula_units_Z 64
_cell_length_a 9.435378
_cell_length_b 24.562998
_cell_length_c 15.230279
_cell_angle_alpha 90.000000
_cell_angle_beta 90.000000
_cell_angle_gamma 90.000000
_cell_volume 3529.787295
_symmetry_space_group_name_H-M "A M M 2"
_symmetry_group_IT_number 38
_symmetry_cell_setting 'orthorhombic'
loop_
_space_group_symop_operation_xyz
x,y,z
-x,-y,z
-x,y,z
x,-y,z
x,1/2+y,1/2+z
-x,1/2-y,1/2+z
-x,1/2+y,1/2+z
x,1/2-y,1/2+z
loop_
_atom_site_type_symbol
_atom_site_label
_atom_site_fract_x
_atom_site_fract_y
_atom_site_fract_z
Si Si1 0.339119 0.782926 0.346070
Si Si2 0.334014 0.649327 0.577799
Si Si3 0.331947 0.939268 0.216424
Si Si4 0.837140 0.937811 0.567727
Si Si5 0.663052 0.397944 0.905700
Si Si6 0.661172 0.161282 0.882629
Si Si7 0.833903 0.767188 0.178310
Si Si8 0.835094 0.356061 0.215152
O O1 0.500000 0.785528 0.308306
O O2 0.316571 0.832599 0.413971
O O3 0.309702 0.725926 0.394130
O O4 0.230410 0.791995 0.267049
O O5 0.500000 0.661646 0.593413
O O6 0.277319 0.600043 0.638564
O O7 0.306060 0.633460 0.476248
O O8 0.244712 0.703843 0.597550
O O9 0.500000 0.940252 0.213962
O O10 0.280532 0.917328 0.310682
O O11 0.270702 0.000000 0.200900
O O12 0.752199 0.928034 0.479123
O O13 0.777520 0.900519 0.646434
O O14 0.000000 0.922804 0.548893
O O15 0.819335 0.000000 0.597490
O O16 0.500000 0.414894 0.918624
O O17 0.500000 0.150952 0.853806
O O18 0.758135 0.134906 0.807949
O O19 0.801835 0.702929 0.174279
O O20 0.000000 0.779753 0.174804
O O21 0.000000 0.363863 0.234326
#
# Coordination Sequence:
#
# PCOD8178167 Si02
#       8
#     8   8   8   8   8   8   8   8
#     4   9  17  32  50  74 106 138 170 204 254 313
#     4  10  19  33  52  76 107 139 173 211 256 312
#     4   9  17  31  51  73 101 137 172 206 248 302
#     4  10  22  39  56  75 103 141 182 222 267 317
#     4  10  19  32  53  80 106 137 175 215 260 313
#     4   9  19  33  53  79 107 138 172 213 261 312
#     4  10  19  31  50  77 105 135 171 212 258 308
#     4   9  20  38  55  74 103 138 176 218 266 315
#
# _framework density 18.131402999999999
#
# number of rings (size 3 to 8) (size 9 to 14) (size 15 to 20)
#    0.000    2.500    1.250    0.750    1.750    2.750 
#    0.000    0.625    0.000    1.125    0.000    0.000 
#    0.000    0.000    0.000    0.000    0.000    0.000 
#
# Total GULP energy -396792.107270 kJ/mol
# GULP energy per Si atom -12399.753352 kJ/mol
# Density = 1.809014 g / cm^3
# Si number density = 18.131403 Si / 1000 Ang^3
#
#
#
# Elastic Constant Matrix: (Units=GPa)
#
#
# Indices 1 2 3 4 5 6 
#
# 1 58.4603 34.3781 48.2045 0.0000 0.0000 0.0000
# 2 34.3781 95.7195 62.0960 0.0000 0.0000 0.0000
# 3 48.2045 62.0960 128.5158 0.0000 0.0000 0.0000
# 4 0.0000 0.0000 0.0000 27.9022 0.0000 0.0000
# 5 0.0000 0.0000 0.0000 0.0000 21.8958 0.0000
# 6 0.0000 0.0000 0.0000 0.0000 0.0000 18.9838
#
#
#
# Elastic Compliance Matrix: (Units=1/GPa)
#
#
# Indices 1 2 3 4 5 6 
#
# 1 0.025968 -0.004381 -0.007623 0.000000 0.000000 0.000000
# 2 -0.004381 0.015956 -0.006066 0.000000 0.000000 0.000000
# 3 -0.007623 -0.006066 0.013572 0.000000 0.000000 0.000000
# 4 0.000000 0.000000 0.000000 0.035839 0.000000 0.000000
# 5 0.000000 0.000000 0.000000 0.000000 0.045671 0.000000
# 6 0.000000 0.000000 0.000000 0.000000 0.000000 0.052676
#
#
# Mechanical properties :
#
#
# Convention : Reuss Voigt Hill
#
# Bulk Modulus (GPa) = 51.66842 63.56144 57.61493
# Shear Modulus (GPa) = 21.52617 22.95750 22.24184
#
# Velocity S-wave (km/s) = 3.44936 3.56219 3.50623
# Velocity P-wave (km/s) = 6.66503 7.21464 6.94528
#
# Compressibility (1/GPa) = 0.01935418
#
# Stress axis : x y z
#
# Youngs Moduli (GPa) = 38.50900 62.67204 73.68259
#
# Poissons Ratio (x) = 0.27456 0.56171
# Poissons Ratio (y) = 0.16871 0.44699
# Poissons Ratio (z) = 0.29357 0.38019
#
# Static dielectric constant tensor:
#      x y z
#    x 3.205460 0.000000 0.000000 
#    y 0.000000 3.478800 0.000000 
#    z 0.000000 0.000000 3.255650 
# 
# 
# High freq. dielectric constant tensor:
#      x y z
#    x 1.683920 0.000000 0.000000 
#    y 0.000000 1.698690 0.000000 
#    z 0.000000 0.000000 1.694810 
# 
# From -- ./inp_files/12772.got.cif
#   From: 2010.03.12/outbox.cif.g09.slc.cpg/sg38_7_cif.got.tgz:12772.got - 2010.04.14 02:38:36.
