data_PCOD8178028
_publ_section_title
;
Structure prediction by ZEFSAII (Michael W. Deem and Ramdas Pophale) SiO2 
 PCOD8178028
Probable space group: A M M 2
;
_chemical_formula_sum "Si O2"
_cell_formula_units_Z 64
_cell_length_a 9.126957
_cell_length_b 28.291041
_cell_length_c 14.202817
_cell_angle_alpha 90.000000
_cell_angle_beta 90.000000
_cell_angle_gamma 90.000000
_cell_volume 3667.325209
_symmetry_space_group_name_H-M "A M M 2"
_symmetry_group_IT_number 38
_symmetry_cell_setting 'orthorhombic'
loop_
_space_group_symop_operation_xyz
x,y,z
-x,-y,z
-x,y,z
x,-y,z
x,1/2+y,1/2+z
-x,1/2-y,1/2+z
-x,1/2+y,1/2+z
x,1/2-y,1/2+z
loop_
_atom_site_type_symbol
_atom_site_label
_atom_site_fract_x
_atom_site_fract_y
_atom_site_fract_z
Si Si1 0.830130 0.946727 0.316090
Si Si2 0.828865 0.866827 0.615227
Si Si3 0.832377 0.361116 0.692129
Si Si4 0.329015 0.945070 0.506619
Si Si5 0.331729 0.281453 0.015358
Si Si6 0.830923 0.687563 0.508267
Si Si7 0.831348 0.814144 0.797240
Si Si8 0.666123 0.721042 0.793500
O O1 0.791636 0.913859 0.226595
O O2 0.736406 0.930120 0.405802
O O3 0.000000 0.942904 0.344670
O O4 0.788232 0.000000 0.286547
O O5 0.749008 0.915540 0.588875
O O6 0.761525 0.823789 0.557446
O O7 0.803114 0.857939 0.726856
O O8 0.000000 0.870798 0.590799
O O9 0.805856 0.356402 0.579542
O O10 0.733847 0.324530 0.746746
O O11 0.000000 0.349553 0.717294
O O12 0.500000 0.932856 0.505570
O O13 0.299065 0.000000 0.527461
O O14 0.500000 0.284589 0.048927
O O15 0.264663 0.231253 0.047173
O O16 0.317509 0.285360 0.904113
O O17 0.781900 0.671516 0.403272
O O18 0.000000 0.703740 0.507865
O O19 0.743605 0.768943 0.759059
O O20 0.000000 0.799097 0.795943
O O21 0.500000 0.725232 0.760600
#
# Coordination Sequence:
#
# PCOD8178028 Si02
#       8
#     8   8   8   8   8   8   8   8
#     4   9  18  33  52  74  99 125 154 191 236 286
#     4  11  21  32  50  73  95 125 163 198 236 282
#     4  10  19  30  48  71  94 124 160 195 235 283
#     4  10  21  36  53  74  99 125 153 189 236 286
#     4  10  20  32  46  69 100 130 161 197 237 281
#     4   9  18  33  49  66  94 130 164 198 236 278
#     4   9  19  34  49  66  93 128 163 197 233 275
#     4  10  20  31  45  68  98 128 158 194 235 280
#
# _framework density 17.451411
#
# number of rings (size 3 to 8) (size 9 to 14) (size 15 to 20)
#    0.000    2.250    0.000    3.000    0.000    9.250 
#    0.000    0.000    0.000    0.750    0.000    3.500 
#    0.000    2.000    0.000    0.000    0.000    0.000 
#
# Total GULP energy -396810.625379 kJ/mol
# GULP energy per Si atom -12400.332043 kJ/mol
# Density = 1.741169 g / cm^3
# Si number density = 17.451411 Si / 1000 Ang^3
#
#
#
# Elastic Constant Matrix: (Units=GPa)
#
#
# Indices 1 2 3 4 5 6 
#
# 1 88.9514 50.8436 45.1890 0.0000 0.0000 0.0000
# 2 50.8436 101.0871 68.5277 0.0000 0.0000 0.0000
# 3 45.1890 68.5277 65.3248 0.0000 0.0000 0.0000
# 4 0.0000 0.0000 0.0000 30.7816 0.0000 0.0000
# 5 0.0000 0.0000 0.0000 0.0000 16.9686 0.0000
# 6 0.0000 0.0000 0.0000 0.0000 0.0000 22.1220
#
#
#
# Elastic Compliance Matrix: (Units=1/GPa)
#
#
# Indices 1 2 3 4 5 6 
#
# 1 0.017456 -0.002056 -0.009919 0.000000 0.000000 0.000000
# 2 -0.002056 0.034489 -0.034758 0.000000 0.000000 0.000000
# 3 -0.009919 -0.034758 0.058632 0.000000 0.000000 0.000000
# 4 0.000000 0.000000 0.000000 0.032487 0.000000 0.000000
# 5 0.000000 0.000000 0.000000 0.000000 0.058932 0.000000
# 6 0.000000 0.000000 0.000000 0.000000 0.000000 0.045204
#
#
# Mechanical properties :
#
#
# Convention : Reuss Voigt Hill
#
# Bulk Modulus (GPa) = 58.43945 64.94266 61.69105
# Shear Modulus (GPa) = 14.43545 20.02798 17.23172
#
# Velocity S-wave (km/s) = 2.87919 3.39136 3.14572
# Velocity P-wave (km/s) = 6.67927 7.25461 6.97287
#
# Compressibility (1/GPa) = 0.01711173
#
# Stress axis : x y z
#
# Youngs Moduli (GPa) = 57.28648 28.99453 17.05563
#
# Poissons Ratio (x) = 0.05961 0.16917
# Poissons Ratio (y) = 0.11778 0.59282
# Poissons Ratio (z) = 0.56821 1.00779
#
# Static dielectric constant tensor:
#      x y z
#    x 3.384050 0.000000 0.000000 
#    y 0.000000 3.186540 0.000000 
#    z 0.000000 0.000000 3.434660 
# 
# 
# High freq. dielectric constant tensor:
#      x y z
#    x 1.682400 0.000000 0.000000 
#    y 0.000000 1.653360 0.000000 
#    z 0.000000 0.000000 1.674400 
# 
# From -- ./inp_files/13081.got.cif
#   From: 2010.03.12/outbox.cif.g09.slc.cpg/sg38_7_cif.got.tgz:13081.got - 2010.04.14 02:38:36.
