data_PCOD8178884
_publ_section_title
;
Structure prediction by ZEFSAII (Michael W. Deem and Ramdas Pophale) SiO2 
 PCOD8178884
Probable space group: A M M 2
;
_chemical_formula_sum "Si O2"
_cell_formula_units_Z 64
_cell_length_a 9.585211
_cell_length_b 19.322859
_cell_length_c 18.677935
_cell_angle_alpha 90.000000
_cell_angle_beta 90.000000
_cell_angle_gamma 90.000000
_cell_volume 3459.409088
_symmetry_space_group_name_H-M "A M M 2"
_symmetry_group_IT_number 38
_symmetry_cell_setting 'orthorhombic'
loop_
_space_group_symop_operation_xyz
x,y,z
-x,-y,z
-x,y,z
x,-y,z
x,1/2+y,1/2+z
-x,1/2-y,1/2+z
-x,1/2+y,1/2+z
x,1/2-y,1/2+z
loop_
_atom_site_type_symbol
_atom_site_label
_atom_site_fract_x
_atom_site_fract_y
_atom_site_fract_z
Si Si1 0.846512 0.421074 0.380900
Si Si2 0.256058 0.422764 0.537794
Si Si3 0.661223 0.075663 0.317471
Si Si4 0.343448 0.772435 0.033940
Si Si5 0.847396 0.890311 0.190602
Si Si6 0.839013 0.732794 0.164338
Si Si7 0.342390 0.292141 0.890208
Si Si8 0.339193 0.827727 0.783493
O O1 0.833310 0.500000 0.356414
O O2 0.836418 0.415218 0.466686
O O3 0.723718 0.381950 0.339640
O O4 0.000000 0.391798 0.359655
O O5 0.328851 0.500000 0.537414
O O6 0.358187 0.356288 0.537995
O O7 0.163266 0.416171 0.608920
O O8 0.500000 0.093847 0.302655
O O9 0.733141 0.073766 0.240038
O O10 0.727458 0.133293 0.371075
O O11 0.678034 0.000000 0.353240
O O12 0.500000 0.744600 0.047969
O O13 0.237488 0.737156 0.088502
O O14 0.276876 0.748132 0.957783
O O15 0.831258 0.808127 0.199413
O O16 0.000000 0.912625 0.217941
O O17 0.755435 0.676651 0.212286
O O18 0.000000 0.708746 0.154824
O O19 0.500000 0.306023 0.913289
O O20 0.333156 0.247365 0.818822
O O21 0.500000 0.848323 0.765820
#
# Coordination Sequence:
#
# PCOD8178884 Si02
#       8
#     8   8   8   8   8   8   8   8
#     4  10  21  36  54  78 111 150 187 226 274 326
#     4  10  20  32  48  74 108 146 186 222 261 314
#     4  10  20  34  53  76 104 139 176 216 265 321
#     4  10  20  36  55  76 104 142 180 223 274 320
#     4  10  20  33  49  72 105 143 179 215 254 306
#     4  10  21  36  54  80 107 138 180 223 268 324
#     4   9  18  34  53  77 106 136 175 222 272 317
#     4  11  20  35  58  81 107 142 181 230 276 320
#
# _framework density 18.50027
#
# number of rings (size 3 to 8) (size 9 to 14) (size 15 to 20)
#    0.000    2.000    2.500    1.500    0.000    4.500 
#    0.000    1.875    0.000    0.750    0.000    1.750 
#    0.000    0.000    0.000    0.000    0.000    0.000 
#
# Total GULP energy -396492.768748 kJ/mol
# GULP energy per Si atom -12390.399023 kJ/mol
# Density = 1.845816 g / cm^3
# Si number density = 18.500270 Si / 1000 Ang^3
#
#
#
# Elastic Constant Matrix: (Units=GPa)
#
#
# Indices 1 2 3 4 5 6 
#
# 1 105.5693 31.2112 44.3669 0.0000 0.0000 0.0000
# 2 31.2112 81.9842 43.1373 0.0000 0.0000 0.0000
# 3 44.3669 43.1373 92.2343 0.0000 0.0000 0.0000
# 4 0.0000 0.0000 0.0000 25.1605 0.0000 0.0000
# 5 0.0000 0.0000 0.0000 0.0000 21.7771 0.0000
# 6 0.0000 0.0000 0.0000 0.0000 0.0000 17.7437
#
#
#
# Elastic Compliance Matrix: (Units=1/GPa)
#
#
# Indices 1 2 3 4 5 6 
#
# 1 0.012127 -0.002053 -0.004874 0.000000 0.000000 0.000000
# 2 -0.002053 0.016526 -0.006742 0.000000 0.000000 0.000000
# 3 -0.004874 -0.006742 0.016339 0.000000 0.000000 0.000000
# 4 0.000000 0.000000 0.000000 0.039745 0.000000 0.000000
# 5 0.000000 0.000000 0.000000 0.000000 0.045920 0.000000
# 6 0.000000 0.000000 0.000000 0.000000 0.000000 0.056358
#
#
# Mechanical properties :
#
#
# Convention : Reuss Voigt Hill
#
# Bulk Modulus (GPa) = 56.63481 57.46875 57.05178
# Shear Modulus (GPa) = 22.70275 23.67441 23.18858
#
# Velocity S-wave (km/s) = 3.50688 3.58114 3.54421
# Velocity P-wave (km/s) = 6.86127 6.94483 6.90317
#
# Compressibility (1/GPa) = 0.01765698
#
# Stress axis : x y z
#
# Youngs Moduli (GPa) = 82.45723 60.50988 61.20169
#
# Poissons Ratio (x) = 0.12420 0.29828
# Poissons Ratio (y) = 0.16925 0.41261
# Poissons Ratio (z) = 0.40187 0.40795
#
# Static dielectric constant tensor:
#      x y z
#    x 3.292890 0.000000 0.000000 
#    y 0.000000 3.460680 0.000000 
#    z 0.000000 0.000000 3.305380 
# 
# 
# High freq. dielectric constant tensor:
#      x y z
#    x 1.706400 0.000000 0.000000 
#    y 0.000000 1.706470 0.000000 
#    z 0.000000 0.000000 1.704490 
# 
# From -- ./inp_files/17232.got.cif
#   From: 2010.03.12/outbox.cif.g09.slc.cpg/sg38_9_cif.got.tgz:17232.got - 2010.04.14 02:38:36.
