data_PCOD8178781
_publ_section_title
;
Structure prediction by ZEFSAII (Michael W. Deem and Ramdas Pophale) SiO2 
 PCOD8178781
Probable space group: A M M 2
;
_chemical_formula_sum "Si O2"
_cell_formula_units_Z 64
_cell_length_a 8.952798
_cell_length_b 26.570334
_cell_length_c 18.435929
_cell_angle_alpha 90.000000
_cell_angle_beta 90.000000
_cell_angle_gamma 90.000000
_cell_volume 4385.517278
_symmetry_space_group_name_H-M "A M M 2"
_symmetry_group_IT_number 38
_symmetry_cell_setting 'orthorhombic'
loop_
_space_group_symop_operation_xyz
x,y,z
-x,-y,z
-x,y,z
x,-y,z
x,1/2+y,1/2+z
-x,1/2-y,1/2+z
-x,1/2+y,1/2+z
x,1/2-y,1/2+z
loop_
_atom_site_type_symbol
_atom_site_label
_atom_site_fract_x
_atom_site_fract_y
_atom_site_fract_z
Si Si1 0.673392 0.943335 0.394870
Si Si2 0.823342 0.741387 0.880183
Si Si3 0.175577 0.942649 0.543906
Si Si4 0.662886 0.197400 0.164772
Si Si5 0.323715 0.645536 0.122724
Si Si6 0.664471 0.796697 0.759829
Si Si7 0.320896 0.757054 0.533559
Si Si8 0.322312 0.149224 0.302195
O O1 0.500000 0.938096 0.415018
O O2 0.764386 0.926521 0.465267
O O3 0.716654 0.906951 0.328260
O O4 0.714228 0.000000 0.370729
O O5 0.776901 0.786989 0.826442
O O6 0.754516 0.688361 0.856243
O O7 0.000000 0.737059 0.882096
O O8 0.761047 0.754194 0.959098
O O9 0.243863 0.906788 0.604917
O O10 0.000000 0.936087 0.543363
O O11 0.223188 0.000000 0.561449
O O12 0.500000 0.176236 0.144291
O O13 0.646948 0.247166 0.212343
O O14 0.741056 0.213369 0.089194
O O15 0.740730 0.156529 0.219051
O O16 0.500000 0.637935 0.118964
O O17 0.275281 0.660138 0.205055
O O18 0.274864 0.688348 0.064941
O O19 0.500000 0.811142 0.790565
O O20 0.500000 0.753861 0.525450
O O21 0.500000 0.159722 0.303840
#
# Coordination Sequence:
#
# PCOD8178781 Si02
#       8
#     8   8   8   8   8   8   8   8
#     4   9  17  28  42  59  78 103 137 173 203 232
#     4  11  20  26  36  58  83 105 131 160 192 231
#     4  10  20  30  39  55  82 112 137 164 199 235
#     4   7  12  24  41  56  70  95 129 159 188 230
#     4   9  17  29  46  62  75 100 138 172 200 233
#     4   8  15  29  44  57  75 100 130 162 198 236
#     4   9  16  27  41  56  76 102 131 161 194 233
#     4   9  16  28  43  56  75 104 135 165 198 235
#
# _framework density 14.593489
#
# number of rings (size 3 to 8) (size 9 to 14) (size 15 to 20)
#    0.000    3.000    0.000    4.500    0.000    5.250 
#    0.000    5.000    0.000    0.000    0.000    0.000 
#    0.000    1.000    0.000    7.500    0.000    1.875 
#
# Total GULP energy -396463.071365 kJ/mol
# GULP energy per Si atom -12389.470980 kJ/mol
# Density = 1.456027 g / cm^3
# Si number density = 14.593489 Si / 1000 Ang^3
#
#
#
# Elastic Constant Matrix: (Units=GPa)
#
#
# Indices 1 2 3 4 5 6 
#
# 1 46.4696 27.7418 37.5504 0.0000 0.0000 0.0000
# 2 27.7418 80.2968 56.3418 0.0000 0.0000 0.0000
# 3 37.5504 56.3418 108.6490 0.0000 0.0000 0.0000
# 4 0.0000 0.0000 0.0000 27.0915 0.0000 0.0000
# 5 0.0000 0.0000 0.0000 0.0000 1.5401 0.0000
# 6 0.0000 0.0000 0.0000 0.0000 0.0000 14.5928
#
#
#
# Elastic Compliance Matrix: (Units=1/GPa)
#
#
# Indices 1 2 3 4 5 6 
#
# 1 0.031101 -0.005035 -0.008138 0.000000 0.000000 0.000000
# 2 -0.005035 0.020392 -0.008835 0.000000 0.000000 0.000000
# 3 -0.008138 -0.008835 0.016598 0.000000 0.000000 0.000000
# 4 0.000000 0.000000 0.000000 0.036912 0.000000 0.000000
# 5 0.000000 0.000000 0.000000 0.000000 0.649311 0.000000
# 6 0.000000 0.000000 0.000000 0.000000 0.000000 0.068527
#
#
# Mechanical properties :
#
#
# Convention : Reuss Voigt Hill
#
# Bulk Modulus (GPa) = 41.53474 53.18704 47.36089
# Shear Modulus (GPa) = 5.71506 16.23032 10.97269
#
# Velocity S-wave (km/s) = 1.98108 3.33853 2.74504
# Velocity P-wave (km/s) = 5.80998 7.16839 6.52463
#
# Compressibility (1/GPa) = 0.02407623
#
# Stress axis : x y z
#
# Youngs Moduli (GPa) = 32.15299 49.03805 60.24868
#
# Poissons Ratio (x) = 0.24691 0.49030
# Poissons Ratio (y) = 0.16189 0.53227
# Poissons Ratio (z) = 0.26166 0.43323
#
# Static dielectric constant tensor:
#      x y z
#    x 2.702300 0.000000 0.000000 
#    y 0.000000 2.851940 0.000000 
#    z 0.000000 0.000000 3.051050 
# 
# 
# High freq. dielectric constant tensor:
#      x y z
#    x 1.544370 0.000000 0.000000 
#    y 0.000000 1.528050 0.000000 
#    z 0.000000 0.000000 1.550850 
# 
# From -- ./inp_files/17337.got.cif
#   From: 2010.03.12/outbox.cif.g09.slc.cpg/sg38_9_cif.got.tgz:17337.got - 2010.04.14 02:38:36.
