data_PCOD8178514
_publ_section_title
;
Structure prediction by ZEFSAII (Michael W. Deem and Ramdas Pophale) SiO2 
 PCOD8178514
Probable space group: A M M 2
;
_chemical_formula_sum "Si O2"
_cell_formula_units_Z 64
_cell_length_a 8.783618
_cell_length_b 24.774759
_cell_length_c 15.149166
_cell_angle_alpha 90.000000
_cell_angle_beta 90.000000
_cell_angle_gamma 90.000000
_cell_volume 3296.640601
_symmetry_space_group_name_H-M "A M M 2"
_symmetry_group_IT_number 38
_symmetry_cell_setting 'orthorhombic'
loop_
_space_group_symop_operation_xyz
x,y,z
-x,-y,z
-x,y,z
x,-y,z
x,1/2+y,1/2+z
-x,1/2-y,1/2+z
-x,1/2+y,1/2+z
x,1/2-y,1/2+z
loop_
_atom_site_type_symbol
_atom_site_label
_atom_site_fract_x
_atom_site_fract_y
_atom_site_fract_z
Si Si1 0.822416 0.765311 0.930870
Si Si2 0.175911 0.355410 0.897808
Si Si3 0.325518 0.224056 0.747017
Si Si4 0.679358 0.360453 0.528446
Si Si5 0.320337 0.439908 0.023064
Si Si6 0.822042 0.062657 0.884026
Si Si7 0.820641 0.169648 0.199338
Si Si8 0.325195 0.895771 0.707126
O O1 0.785809 0.702020 0.943071
O O2 0.777061 0.783509 0.833258
O O3 0.000000 0.777674 0.944757
O O4 0.725612 0.800063 0.999531
O O5 0.221563 0.354527 0.794794
O O6 0.000000 0.369242 0.908816
O O7 0.270499 0.401815 0.943882
O O8 0.500000 0.236582 0.773788
O O9 0.259150 0.272071 0.687198
O O10 0.313392 0.168499 0.693463
O O11 0.500000 0.364737 0.537180
O O12 0.735026 0.405147 0.460061
O O13 0.755878 0.370462 0.624299
O O14 0.500000 0.437986 0.028283
O O15 0.260058 0.500000 0.002959
O O16 0.255920 0.421411 0.118051
O O17 0.773079 0.083220 0.788387
O O18 0.000000 0.073335 0.895665
O O19 0.780432 0.000000 0.894243
O O20 0.000000 0.177451 0.188848
O O21 0.500000 0.913206 0.723771
#
# Coordination Sequence:
#
# PCOD8178514 Si02
#       8
#     8   8   8   8   8   8   8   8
#     4  10  20  36  57  85 120 156 193 239 297 357
#     4   9  21  40  61  86 114 151 198 244 298 350
#     4  10  19  33  55  88 122 156 197 238 289 353
#     4  12  24  38  60  90 121 157 201 249 300 360
#     4  10  22  39  59  85 118 156 198 245 296 348
#     4  11  24  41  62  88 120 160 204 249 300 361
#     4  10  22  40  60  84 121 161 196 248 306 359
#     4  10  21  37  58  87 122 160 199 242 295 354
#
# _framework density 19.413702000000001
#
# number of rings (size 3 to 8) (size 9 to 14) (size 15 to 20)
#    0.000    1.750    1.250    3.750    1.750    5.750 
#    0.000    0.625    0.000    0.750    0.000    0.000 
#    0.000    0.000    0.000    0.000    0.000    0.000 
#
# Total GULP energy -396877.001462 kJ/mol
# GULP energy per Si atom -12402.406296 kJ/mol
# Density = 1.936952 g / cm^3
# Si number density = 19.413702 Si / 1000 Ang^3
#
#
#
# Elastic Constant Matrix: (Units=GPa)
#
#
# Indices 1 2 3 4 5 6 
#
# 1 66.8515 46.3229 35.6706 0.0000 0.0000 0.0000
# 2 46.3229 118.9317 64.3853 0.0000 0.0000 0.0000
# 3 35.6706 64.3853 114.1472 0.0000 0.0000 0.0000
# 4 0.0000 0.0000 0.0000 27.4882 0.0000 0.0000
# 5 0.0000 0.0000 0.0000 0.0000 34.8788 0.0000
# 6 0.0000 0.0000 0.0000 0.0000 0.0000 30.1346
#
#
#
# Elastic Compliance Matrix: (Units=1/GPa)
#
#
# Indices 1 2 3 4 5 6 
#
# 1 0.021100 -0.006692 -0.002819 0.000000 0.000000 0.000000
# 2 -0.006692 0.014227 -0.005933 0.000000 0.000000 0.000000
# 3 -0.002819 -0.005933 0.012988 0.000000 0.000000 0.000000
# 4 0.000000 0.000000 0.000000 0.036379 0.000000 0.000000
# 5 0.000000 0.000000 0.000000 0.000000 0.028671 0.000000
# 6 0.000000 0.000000 0.000000 0.000000 0.000000 0.033184
#
#
# Mechanical properties :
#
#
# Convention : Reuss Voigt Hill
#
# Bulk Modulus (GPa) = 57.38555 65.85420 61.61988
# Shear Modulus (GPa) = 27.28558 28.73710 28.01134
#
# Velocity S-wave (km/s) = 3.75304 3.85157 3.80263
# Velocity P-wave (km/s) = 6.95729 7.33312 7.14768
#
# Compressibility (1/GPa) = 0.01742599
#
# Stress axis : x y z
#
# Youngs Moduli (GPa) = 47.39392 70.28943 76.99232
#
# Poissons Ratio (x) = 0.47039 0.21703
# Poissons Ratio (y) = 0.31717 0.45683
# Poissons Ratio (z) = 0.13360 0.41706
#
# Static dielectric constant tensor:
#      x y z
#    x 3.557390 0.000000 0.000000 
#    y 0.000000 3.616030 0.000000 
#    z 0.000000 0.000000 3.576050 
# 
# 
# High freq. dielectric constant tensor:
#      x y z
#    x 1.760160 0.000000 0.000000 
#    y 0.000000 1.749760 0.000000 
#    z 0.000000 0.000000 1.756620 
# 
# From -- ./inp_files/12779.got.cif
#   From: 2010.03.12/outbox.cif.g09.slc.cpg/sg38_7_cif.got.tgz:12779.got - 2010.04.14 02:38:36.
