data_PCOD8178393
_publ_section_title
;
Structure prediction by ZEFSAII (Michael W. Deem and Ramdas Pophale) SiO2 
 PCOD8178393
Probable space group: A M M 2
;
_chemical_formula_sum "Si O2"
_cell_formula_units_Z 38
_cell_length_a 12.315477
_cell_length_b 12.333373
_cell_length_c 13.543805
_cell_angle_alpha 90.000000
_cell_angle_beta 90.000000
_cell_angle_gamma 90.000000
_cell_volume 2057.187117
_symmetry_space_group_name_H-M "A M M 2"
_symmetry_group_IT_number 38
_symmetry_cell_setting 'orthorhombic'
loop_
_space_group_symop_operation_xyz
x,y,z
-x,-y,z
-x,y,z
x,-y,z
x,1/2+y,1/2+z
-x,1/2-y,1/2+z
-x,1/2+y,1/2+z
x,1/2-y,1/2+z
loop_
_atom_site_type_symbol
_atom_site_label
_atom_site_fract_x
_atom_site_fract_y
_atom_site_fract_z
Si Si1 0.000000 0.620680 0.009530
Si Si2 0.211788 0.203167 0.155386
Si Si3 0.233399 0.374213 0.990863
Si Si4 0.120573 0.000000 0.047327
Si Si5 0.000000 0.500000 0.355894
Si Si6 0.623795 0.128489 0.311717
Si Si7 0.000000 0.787304 0.721391
O O1 0.000000 0.500000 0.052737
O O2 0.000000 0.696824 0.103615
O O3 0.890072 0.641343 0.946678
O O4 0.319569 0.177297 0.216064
O O5 0.112757 0.221192 0.234318
O O6 0.185704 0.105988 0.080256
O O7 0.242067 0.310351 0.093563
O O8 0.256566 0.500000 0.014922
O O9 0.317993 0.328706 0.911136
O O10 0.000000 0.000000 0.096648
O O11 0.106577 0.000000 0.927369
O O12 0.000000 0.393738 0.288324
O O13 0.500000 0.168262 0.313829
O O14 0.633975 0.000000 0.306734
#
# Coordination Sequence:
#
# PCOD8178393 Si02
#       7
#     4   8   8   4   2   8   4
#     4   8  14  30  49  80 116 137 170 211 273 336
#     4  11  21  37  59  83 118 150 188 234 284 344
#     4   9  20  36  57  86 113 142 185 237 283 341
#     4  10  22  38  47  84 125 150 184 225 281 346
#     4  10  22  34  56  86 130 152 182 220 280 360
#     4  10  22  39  58  80 108 150 198 239 287 334
#     4  10  19  32  57  87 117 151 176 219 284 338
#
# _framework density 18.471824000000002
#
# number of rings (size 3 to 8) (size 9 to 14) (size 15 to 20)
#    0.316    1.895    2.632    0.000    4.421    1.684 
#    0.000    1.053    0.000    0.000    0.000    0.000 
#    0.000    0.000    0.000    0.000    0.000    0.000 
#
# Total GULP energy -235453.891817 kJ/mol
# GULP energy per Si atom -12392.310096 kJ/mol
# Density = 1.842978 g / cm^3
# Si number density = 18.471824 Si / 1000 Ang^3
#
#
#
# Elastic Constant Matrix: (Units=GPa)
#
#
# Indices 1 2 3 4 5 6 
#
# 1 146.8406 27.0427 58.6095 0.0000 0.0000 0.0000
# 2 27.0427 64.4497 33.7712 0.0000 0.0000 0.0000
# 3 58.6095 33.7712 88.9834 0.0000 0.0000 0.0000
# 4 0.0000 0.0000 0.0000 23.3792 0.0000 0.0000
# 5 0.0000 0.0000 0.0000 0.0000 28.8341 0.0000
# 6 0.0000 0.0000 0.0000 0.0000 0.0000 21.0429
#
#
#
# Elastic Compliance Matrix: (Units=1/GPa)
#
#
# Indices 1 2 3 4 5 6 
#
# 1 0.009277 -0.000862 -0.005783 0.000000 0.000000 0.000000
# 2 -0.000862 0.019448 -0.006813 0.000000 0.000000 0.000000
# 3 -0.005783 -0.006813 0.017633 0.000000 0.000000 0.000000
# 4 0.000000 0.000000 0.000000 0.042773 0.000000 0.000000
# 5 0.000000 0.000000 0.000000 0.000000 0.034681 0.000000
# 6 0.000000 0.000000 0.000000 0.000000 0.000000 0.047522
#
#
# Mechanical properties :
#
#
# Convention : Reuss Voigt Hill
#
# Bulk Modulus (GPa) = 51.43785 59.90229 55.67007
# Shear Modulus (GPa) = 24.42228 26.70792 25.56510
#
# Velocity S-wave (km/s) = 3.64006 3.80659 3.72426
# Velocity P-wave (km/s) = 6.75084 7.19858 6.97830
#
# Compressibility (1/GPa) = 0.01944094
#
# Stress axis : x y z
#
# Youngs Moduli (GPa) = 107.79101 51.42000 56.71231
#
# Poissons Ratio (x) = 0.04434 0.32798
# Poissons Ratio (y) = 0.09295 0.38637
# Poissons Ratio (z) = 0.62338 0.35032
#
# Static dielectric constant tensor:
#      x y z
#    x 3.603970 0.000000 0.000000 
#    y 0.000000 3.318850 0.000000 
#    z 0.000000 0.000000 3.156760 
# 
# 
# High freq. dielectric constant tensor:
#      x y z
#    x 1.706970 0.000000 0.000000 
#    y 0.000000 1.712320 0.000000 
#    z 0.000000 0.000000 1.703150 
# 
# From -- ./inp_files/13561.got.cif
#   From: 2010.03.12/outbox.cif.g09.slc.cpg/sg38_7_cif.got.tgz:13561.got - 2010.04.14 02:38:36.
