data_PCOD8178569
_publ_section_title
;
Structure prediction by ZEFSAII (Michael W. Deem and Ramdas Pophale) SiO2 
 PCOD8178569
Probable space group: A M M 2
;
_chemical_formula_sum "Si O2"
_cell_formula_units_Z 48
_cell_length_a 16.862822
_cell_length_b 8.923553
_cell_length_c 15.881812
_cell_angle_alpha 90.000000
_cell_angle_beta 90.000000
_cell_angle_gamma 90.000000
_cell_volume 2389.836082
_symmetry_space_group_name_H-M "A M M 2"
_symmetry_group_IT_number 38
_symmetry_cell_setting 'orthorhombic'
loop_
_space_group_symop_operation_xyz
x,y,z
-x,-y,z
-x,y,z
x,-y,z
x,1/2+y,1/2+z
-x,1/2-y,1/2+z
-x,1/2+y,1/2+z
x,1/2-y,1/2+z
loop_
_atom_site_type_symbol
_atom_site_label
_atom_site_fract_x
_atom_site_fract_y
_atom_site_fract_z
Si Si1 0.813613 0.322339 0.036190
Si Si2 0.176392 0.172213 0.206209
Si Si3 0.663000 0.172528 0.290773
Si Si4 0.500000 0.321793 0.712131
Si Si5 0.910349 0.821821 0.374030
Si Si6 0.667886 0.323081 0.461129
Si Si7 0.500000 0.822162 0.024995
O O1 0.808916 0.500000 0.037158
O O2 0.850616 0.265802 0.124406
O O3 0.866513 0.262539 0.958080
O O4 0.725790 0.253797 0.028289
O O5 0.271285 0.187983 0.218072
O O6 0.132176 0.236857 0.289082
O O7 0.152329 0.000000 0.191368
O O8 0.578832 0.235955 0.258761
O O9 0.692535 0.271981 0.368280
O O10 0.656351 0.000000 0.320258
O O11 0.500000 0.500000 0.708045
O O12 0.500000 0.254077 0.618664
O O13 0.000000 0.760888 0.375261
O O14 0.907547 0.000000 0.374627
O O15 0.675696 0.500000 0.471526
O O16 0.578303 0.265440 0.477128
O O17 0.500000 0.000000 0.029479
#
# Coordination Sequence:
#
# PCOD8178569 Si02
#       7
#     8   8   8   4   8   8   4
#     4  11  22  38  60  88 119 153 195 240 289 345
#     4  10  20  37  60  85 115 153 195 236 285 346
#     4  10  19  34  55  80 110 149 191 235 286 344
#     4   9  17  30  51  75 106 145 190 232 281 343
#     4   9  19  38  62  85 115 155 193 234 289 351
#     4  11  21  35  57  82 113 152 195 240 288 340
#     4   9  19  34  51  77 110 149 194 240 285 337
#
# _framework density 20.085059999999999
#
# number of rings (size 3 to 8) (size 9 to 14) (size 15 to 20)
#    0.000    2.000    1.667    2.500    0.000    4.000 
#    0.000    1.250    0.000    5.500    0.000    0.000 
#    0.000    0.000    0.000    0.000    0.000    0.000 
#
# Total GULP energy -297628.793200 kJ/mol
# GULP energy per Si atom -12401.199717 kJ/mol
# Density = 2.003935 g / cm^3
# Si number density = 20.085060 Si / 1000 Ang^3
#
#
#
# Elastic Constant Matrix: (Units=GPa)
#
#
# Indices 1 2 3 4 5 6 
#
# 1 125.0971 28.2246 54.0333 0.0000 0.0000 0.0000
# 2 28.2246 52.0635 41.1920 0.0000 0.0000 0.0000
# 3 54.0333 41.1920 157.7457 0.0000 0.0000 0.0000
# 4 0.0000 0.0000 0.0000 33.1837 0.0000 0.0000
# 5 0.0000 0.0000 0.0000 0.0000 23.3972 0.0000
# 6 0.0000 0.0000 0.0000 0.0000 0.0000 16.2122
#
#
#
# Elastic Compliance Matrix: (Units=1/GPa)
#
#
# Indices 1 2 3 4 5 6 
#
# 1 0.009826 -0.003358 -0.002489 0.000000 0.000000 0.000000
# 2 -0.003358 0.025356 -0.005471 0.000000 0.000000 0.000000
# 3 -0.002489 -0.005471 0.008621 0.000000 0.000000 0.000000
# 4 0.000000 0.000000 0.000000 0.030135 0.000000 0.000000
# 5 0.000000 0.000000 0.000000 0.000000 0.042740 0.000000
# 6 0.000000 0.000000 0.000000 0.000000 0.000000 0.061682
#
#
# Mechanical properties :
#
#
# Convention : Reuss Voigt Hill
#
# Bulk Modulus (GPa) = 47.24246 64.64513 55.94380
# Shear Modulus (GPa) = 24.03239 28.65572 26.34405
#
# Velocity S-wave (km/s) = 3.46284 3.78129 3.62556
# Velocity P-wave (km/s) = 6.28972 7.16378 6.74093
#
# Compressibility (1/GPa) = 0.02116740
#
# Stress axis : x y z
#
# Youngs Moduli (GPa) = 101.76568 39.43791 116.00144
#
# Poissons Ratio (x) = 0.13242 0.28874
# Poissons Ratio (y) = 0.34171 0.63466
# Poissons Ratio (z) = 0.25330 0.21577
#
# Static dielectric constant tensor:
#      x y z
#    x 3.812640 0.000000 0.000000 
#    y 0.000000 3.200370 0.000000 
#    z 0.000000 0.000000 3.724040 
# 
# 
# High freq. dielectric constant tensor:
#      x y z
#    x 1.787070 0.000000 0.000000 
#    y 0.000000 1.741860 0.000000 
#    z 0.000000 0.000000 1.794830 
# 
# From -- ./inp_files/15028.got.cif
#   From: 2010.03.12/outbox.cif.g09.slc.cpg/sg38_8_cif.got.tgz:15028.got - 2010.04.14 02:38:36.
