data_PCOD8178034
_publ_section_title
;
Structure prediction by ZEFSAII (Michael W. Deem and Ramdas Pophale) SiO2 
 PCOD8178034
Probable space group: A M M 2
;
_chemical_formula_sum "Si O2"
_cell_formula_units_Z 64
_cell_length_a 8.989008
_cell_length_b 14.427344
_cell_length_c 27.946394
_cell_angle_alpha 90.000000
_cell_angle_beta 90.000000
_cell_angle_gamma 90.000000
_cell_volume 3624.298269
_symmetry_space_group_name_H-M "A M M 2"
_symmetry_group_IT_number 38
_symmetry_cell_setting 'orthorhombic'
loop_
_space_group_symop_operation_xyz
x,y,z
-x,-y,z
-x,y,z
x,-y,z
x,1/2+y,1/2+z
-x,1/2-y,1/2+z
-x,1/2+y,1/2+z
x,1/2-y,1/2+z
loop_
_atom_site_type_symbol
_atom_site_label
_atom_site_fract_x
_atom_site_fract_y
_atom_site_fract_z
Si Si1 0.673047 0.394148 0.500000
Si Si2 0.172517 0.893044 0.283555
Si Si3 0.672553 0.104321 0.109841
Si Si4 0.674204 0.892952 0.382140
Si Si5 0.171577 0.212774 0.191826
Si Si6 0.670992 0.607478 0.048446
Si Si7 0.170219 0.896909 0.646422
Si Si8 0.175978 0.219312 0.465785
O O1 0.500000 0.381405 0.487877
O O2 0.722027 0.500000 0.489797
O O3 0.703575 0.367643 0.555142
O O4 0.769141 0.325807 0.466942
O O5 0.269208 0.867055 0.329504
O O6 0.238757 0.830283 0.240391
O O7 0.000000 0.871141 0.294555
O O8 0.194223 0.000000 0.268956
O O9 0.500000 0.112809 0.121868
O O10 0.760464 0.172230 0.143830
O O11 0.728072 0.000000 0.118996
O O12 0.500000 0.872689 0.385606
O O13 0.759510 0.828920 0.419071
O O14 0.710062 0.000000 0.393875
O O15 0.198469 0.323883 0.189446
O O16 0.000000 0.185712 0.191435
O O17 0.500000 0.639094 0.043674
O O18 0.689968 0.500000 0.034990
O O19 0.722953 0.626696 0.102296
O O20 0.769855 0.666511 0.012765
O O21 0.000000 0.889725 0.628271
O O22 0.204229 0.000000 0.666391
O O23 0.000000 0.216564 0.463304
#
# Coordination Sequence:
#
# PCOD8178034 Si02
#       8
#     8   8   8   8   8   8   8   8
#     4   9  19  36  54  72 100 138 175 211 249 287
#     4   9  18  33  51  72  99 127 157 199 251 302
#     4   9  18  31  47  70 100 132 165 201 242 287
#     4  10  21  37  56  77 100 127 162 203 248 302
#     4  10  19  30  48  73  99 131 168 202 243 296
#     4  10  20  33  49  71 101 136 173 211 250 296
#     4   9  18  32  48  69 100 135 170 208 248 289
#     4  12  23  33  51  77 103 132 166 205 251 303
#
# _framework density 17.65859
#
# number of rings (size 3 to 8) (size 9 to 14) (size 15 to 20)
#    0.000    2.250    0.000    4.125    0.000    7.500 
#    0.000    2.500    0.000    0.750    0.000    1.750 
#    0.000    0.000    0.000    0.000    0.000    0.000 
#
# Total GULP energy -396819.347605 kJ/mol
# GULP energy per Si atom -12400.604613 kJ/mol
# Density = 1.761840 g / cm^3
# Si number density = 17.658590 Si / 1000 Ang^3
#
#
#
# Elastic Constant Matrix: (Units=GPa)
#
#
# Indices 1 2 3 4 5 6 
#
# 1 89.1745 56.5235 51.8328 0.0000 0.0000 0.0000
# 2 56.5235 110.4012 75.9636 0.0000 0.0000 0.0000
# 3 51.8328 75.9636 93.6490 0.0000 0.0000 0.0000
# 4 0.0000 0.0000 0.0000 30.2023 0.0000 0.0000
# 5 0.0000 0.0000 0.0000 0.0000 23.6026 0.0000
# 6 0.0000 0.0000 0.0000 0.0000 0.0000 25.2009
#
#
#
# Elastic Compliance Matrix: (Units=1/GPa)
#
#
# Indices 1 2 3 4 5 6 
#
# 1 0.017797 -0.005282 -0.005566 0.000000 0.000000 0.000000
# 2 -0.005282 0.022067 -0.014976 0.000000 0.000000 0.000000
# 3 -0.005566 -0.014976 0.025906 0.000000 0.000000 0.000000
# 4 0.000000 0.000000 0.000000 0.033110 0.000000 0.000000
# 5 0.000000 0.000000 0.000000 0.000000 0.042368 0.000000
# 6 0.000000 0.000000 0.000000 0.000000 0.000000 0.039681
#
#
# Mechanical properties :
#
#
# Convention : Reuss Voigt Hill
#
# Bulk Modulus (GPa) = 70.80798 73.54050 72.17424
# Shear Modulus (GPa) = 21.07173 23.06148 22.06661
#
# Velocity S-wave (km/s) = 3.45814 3.61773 3.53884
# Velocity P-wave (km/s) = 7.49202 7.69330 7.59333
#
# Compressibility (1/GPa) = 0.01412270
#
# Stress axis : x y z
#
# Youngs Moduli (GPa) = 56.18857 45.31710 38.60069
#
# Poissons Ratio (x) = 0.23938 0.21484
# Poissons Ratio (y) = 0.29681 0.57808
# Poissons Ratio (z) = 0.31272 0.67866
#
# Static dielectric constant tensor:
#      x y z
#    x 3.296150 0.000000 0.000000 
#    y 0.000000 3.481690 0.000000 
#    z 0.000000 0.000000 3.166130 
# 
# 
# High freq. dielectric constant tensor:
#      x y z
#    x 1.682860 0.000000 0.000000 
#    y 0.000000 1.688740 0.000000 
#    z 0.000000 0.000000 1.660650 
# 
# From -- ./inp_files/22203.got.cif
#   From: 2010.03.12/outbox.cif.g09.slc.cpg/sg38_12_cif.got.tgz:22203.got - 2010.04.14 02:38:36.
