data_PCOD8178564
_publ_section_title
;
Structure prediction by ZEFSAII (Michael W. Deem and Ramdas Pophale) SiO2 
 PCOD8178564
Probable space group: A M M 2
;
_chemical_formula_sum "Si O2"
_cell_formula_units_Z 64
_cell_length_a 19.096566
_cell_length_b 8.891639
_cell_length_c 20.761648
_cell_angle_alpha 90.000000
_cell_angle_beta 90.000000
_cell_angle_gamma 90.000000
_cell_volume 3525.323076
_symmetry_space_group_name_H-M "A M M 2"
_symmetry_group_IT_number 38
_symmetry_cell_setting 'orthorhombic'
loop_
_space_group_symop_operation_xyz
x,y,z
-x,-y,z
-x,y,z
x,-y,z
x,1/2+y,1/2+z
-x,1/2-y,1/2+z
-x,1/2+y,1/2+z
x,1/2-y,1/2+z
loop_
_atom_site_type_symbol
_atom_site_label
_atom_site_fract_x
_atom_site_fract_y
_atom_site_fract_z
Si Si1 0.707431 0.677789 0.485680
Si Si2 0.786047 0.823748 0.110332
Si Si3 0.712519 0.321244 0.737691
Si Si4 0.420957 0.324859 0.037523
Si Si5 0.787460 0.178443 0.858840
Si Si6 0.921908 0.326724 0.543777
Si Si7 0.920292 0.323555 0.908963
Si Si8 0.579875 0.323721 0.184918
O O1 0.707477 0.500000 0.485851
O O2 0.746105 0.744837 0.548625
O O3 0.627983 0.736376 0.487557
O O4 0.746978 0.735971 0.422383
O O5 0.756544 0.756472 0.176675
O O6 0.868601 0.786007 0.101590
O O7 0.772343 0.000000 0.112217
O O8 0.716147 0.500000 0.744004
O O9 0.746349 0.246982 0.799477
O O10 0.631862 0.270036 0.730589
O O11 0.500000 0.286622 0.017380
O O12 0.405648 0.500000 0.031005
O O13 0.407610 0.273230 0.111103
O O14 0.867153 0.239304 0.860893
O O15 0.788969 0.000000 0.852981
O O16 0.911217 0.500000 0.522149
O O17 0.905459 0.226080 0.482017
O O18 0.000000 0.297811 0.570290
O O19 0.907448 0.500000 0.903364
O O20 0.000000 0.280975 0.889418
O O21 0.500000 0.286857 0.205228
O O22 0.594818 0.500000 0.193140
#
# Coordination Sequence:
#
# PCOD8178564 Si02
#       8
#     8   8   8   8   8   8   8   8
#     4  10  19  34  55  79 106 138 179 225 267 317
#     4   9  17  32  52  79 109 136 175 224 269 318
#     4  11  22  36  55  80 113 145 180 229 277 323
#     4   9  18  32  52  81 113 141 174 222 275 324
#     4  11  23  39  57  78 110 149 187 223 267 328
#     4   9  16  30  54  80 107 142 181 219 265 322
#     4  10  20  34  54  82 112 140 177 226 275 320
#     4   9  18  34  55  79 108 141 179 221 268 328
#
# _framework density 18.154364999999999
#
# number of rings (size 3 to 8) (size 9 to 14) (size 15 to 20)
#    0.000    2.250    2.500    1.875    0.000    2.250 
#    0.000    3.750    0.000    3.000    0.000    0.000 
#    0.000    0.000    0.000    0.000    0.000    0.000 
#
# Total GULP energy -396763.124491 kJ/mol
# GULP energy per Si atom -12398.847640 kJ/mol
# Density = 1.811305 g / cm^3
# Si number density = 18.154365 Si / 1000 Ang^3
#
#
#
# Elastic Constant Matrix: (Units=GPa)
#
#
# Indices 1 2 3 4 5 6 
#
# 1 141.9370 43.5243 69.5577 0.0000 0.0000 0.0000
# 2 43.5243 52.1886 39.7660 0.0000 0.0000 0.0000
# 3 69.5577 39.7660 107.3133 0.0000 0.0000 0.0000
# 4 0.0000 0.0000 0.0000 24.2046 0.0000 0.0000
# 5 0.0000 0.0000 0.0000 0.0000 32.3752 0.0000
# 6 0.0000 0.0000 0.0000 0.0000 0.0000 31.0607
#
#
#
# Elastic Compliance Matrix: (Units=1/GPa)
#
#
# Indices 1 2 3 4 5 6 
#
# 1 0.011307 -0.005358 -0.005343 0.000000 0.000000 0.000000
# 2 -0.005358 0.029240 -0.007362 0.000000 0.000000 0.000000
# 3 -0.005343 -0.007362 0.015510 0.000000 0.000000 0.000000
# 4 0.000000 0.000000 0.000000 0.041314 0.000000 0.000000
# 5 0.000000 0.000000 0.000000 0.000000 0.030888 0.000000
# 6 0.000000 0.000000 0.000000 0.000000 0.000000 0.032195
#
#
# Mechanical properties :
#
#
# Convention : Reuss Voigt Hill
#
# Bulk Modulus (GPa) = 50.17713 67.45943 58.81828
# Shear Modulus (GPa) = 24.60336 27.43415 26.01875
#
# Velocity S-wave (km/s) = 3.68534 3.89158 3.78986
# Velocity P-wave (km/s) = 6.76817 7.57839 7.18471
#
# Compressibility (1/GPa) = 0.01992940
#
# Stress axis : x y z
#
# Youngs Moduli (GPa) = 88.44024 34.20016 64.47487
#
# Poissons Ratio (x) = 0.18326 0.34451
# Poissons Ratio (y) = 0.47390 0.47465
# Poissons Ratio (z) = 0.47256 0.25178
#
# Static dielectric constant tensor:
#      x y z
#    x 3.596040 0.000000 0.000000 
#    y 0.000000 3.184670 0.000000 
#    z 0.000000 0.000000 3.214250 
# 
# 
# High freq. dielectric constant tensor:
#      x y z
#    x 1.720300 0.000000 0.000000 
#    y 0.000000 1.691530 0.000000 
#    z 0.000000 0.000000 1.674270 
# 
# From -- ./inp_files/21369.got.cif
#   From: 2010.03.12/outbox.cif.g09.slc.cpg/sg38_11_cif.got.tgz:21369.got - 2010.04.14 02:38:36.
