data_PCOD8178493
_publ_section_title
;
Structure prediction by ZEFSAII (Michael W. Deem and Ramdas Pophale) SiO2 
 PCOD8178493
Probable space group: A M M 2
;
_chemical_formula_sum "Si O2"
_cell_formula_units_Z 48
_cell_length_a 8.378447
_cell_length_b 16.664187
_cell_length_c 18.470421
_cell_angle_alpha 90.000000
_cell_angle_beta 90.000000
_cell_angle_gamma 90.000000
_cell_volume 2578.840320
_symmetry_space_group_name_H-M "A M M 2"
_symmetry_group_IT_number 38
_symmetry_cell_setting 'orthorhombic'
loop_
_space_group_symop_operation_xyz
x,y,z
-x,-y,z
-x,y,z
x,-y,z
x,1/2+y,1/2+z
-x,1/2-y,1/2+z
-x,1/2+y,1/2+z
x,1/2-y,1/2+z
loop_
_atom_site_type_symbol
_atom_site_label
_atom_site_fract_x
_atom_site_fract_y
_atom_site_fract_z
Si Si1 0.812482 0.172146 0.360420
Si Si2 0.688685 0.259129 0.224113
Si Si3 0.685379 0.186577 0.946476
Si Si4 0.684331 0.000000 0.169255
Si Si5 0.186684 0.000000 0.327677
Si Si6 0.814929 0.841625 0.101079
Si Si7 0.688573 0.088678 0.807755
O O1 0.778306 0.199726 0.278616
O O2 0.712456 0.223253 0.418012
O O3 0.000000 0.180248 0.376762
O O4 0.748506 0.080448 0.366498
O O5 0.500000 0.248122 0.233993
O O6 0.743338 0.235461 0.143576
O O7 0.739176 0.351254 0.242573
O O8 0.500000 0.174275 0.965366
O O9 0.745653 0.124926 0.884572
O O10 0.792234 0.172421 0.016316
O O11 0.780992 0.000000 0.242783
O O12 0.723384 0.922041 0.122304
O O13 0.500000 0.000000 0.189511
O O14 0.000000 0.000000 0.336460
O O15 0.000000 0.851035 0.119267
O O16 0.500000 0.081511 0.809881
O O17 0.764706 0.000000 0.795829
#
# Coordination Sequence:
#
# PCOD8178493 Si02
#       7
#     8   8   8   4   4   8   8
#     4  10  19  34  55  80 112 147 183 225 278 328
#     4  10  19  33  55  81 108 143 188 229 271 328
#     4  10  21  36  56  81 111 145 186 225 275 336
#     4  12  24  36  56  84 114 145 182 225 276 332
#     4  10  20  34  56  84 114 145 180 225 274 330
#     4  12  24  38  55  79 115 149 183 225 281 336
#     4   8  16  32  55  82 108 136 175 227 274 317
#
# _framework density 18.613015999999998
#
# number of rings (size 3 to 8) (size 9 to 14) (size 15 to 20)
#    0.000    1.833    1.667    4.750    1.167    0.667 
#    0.000    0.000    1.833   10.000    0.000    0.000 
#    0.000    0.000    0.000    0.000    0.000    0.000 
#
# Total GULP energy -297578.090640 kJ/mol
# GULP energy per Si atom -12399.087110 kJ/mol
# Density = 1.857065 g / cm^3
# Si number density = 18.613016 Si / 1000 Ang^3
#
#
#
# Elastic Constant Matrix: (Units=GPa)
#
#
# Indices 1 2 3 4 5 6 
#
# 1 27.8345 13.8277 -4.6553 0.0000 0.0000 0.0000
# 2 13.8277 165.2415 48.8460 0.0000 0.0000 0.0000
# 3 -4.6553 48.8460 72.8895 0.0000 0.0000 0.0000
# 4 0.0000 0.0000 0.0000 16.9295 0.0000 0.0000
# 5 0.0000 0.0000 0.0000 0.0000 28.2127 0.0000
# 6 0.0000 0.0000 0.0000 0.0000 0.0000 22.7476
#
#
#
# Elastic Compliance Matrix: (Units=1/GPa)
#
#
# Indices 1 2 3 4 5 6 
#
# 1 0.039417 -0.005041 0.005896 0.000000 0.000000 0.000000
# 2 -0.005041 0.008191 -0.005811 0.000000 0.000000 0.000000
# 3 0.005896 -0.005811 0.017990 0.000000 0.000000 0.000000
# 4 0.000000 0.000000 0.000000 0.059069 0.000000 0.000000
# 5 0.000000 0.000000 0.000000 0.000000 0.035445 0.000000
# 6 0.000000 0.000000 0.000000 0.000000 0.000000 0.043961
#
#
# Mechanical properties :
#
#
# Convention : Reuss Voigt Hill
#
# Bulk Modulus (GPa) = 17.95805 42.44471 30.20138
# Shear Modulus (GPa) = 21.50086 27.44109 24.47098
#
# Velocity S-wave (km/s) = 3.40244 3.84382 3.62985
# Velocity P-wave (km/s) = 5.01044 6.52328 5.81626
#
# Compressibility (1/GPa) = 0.05568532
#
# Stress axis : x y z
#
# Youngs Moduli (GPa) = 25.36965 122.07787 55.58518
#
# Poissons Ratio (x) = 0.61544 -0.32772
# Poissons Ratio (y) = 0.12790 0.32303
# Poissons Ratio (z) = -0.14958 0.70944
#
# Static dielectric constant tensor:
#      x y z
#    x 3.286200 0.000000 0.000000 
#    y 0.000000 4.173940 0.000000 
#    z 0.000000 0.000000 3.234160 
# 
# 
# High freq. dielectric constant tensor:
#      x y z
#    x 1.718160 0.000000 0.000000 
#    y 0.000000 1.730950 0.000000 
#    z 0.000000 0.000000 1.700540 
# 
# From -- ./inp_files/16686.got.cif
#   From: 2010.03.12/outbox.cif.g09.slc.cpg/sg38_9_cif.got.tgz:16686.got - 2010.04.14 02:38:36.
