data_PCOD8178331
_publ_section_title
;
Structure prediction by ZEFSAII (Michael W. Deem and Ramdas Pophale) SiO2 
 PCOD8178331
Probable space group: A M M 2
;
_chemical_formula_sum "Si O2"
_cell_formula_units_Z 64
_cell_length_a 9.482337
_cell_length_b 28.254855
_cell_length_c 12.636730
_cell_angle_alpha 90.000000
_cell_angle_beta 90.000000
_cell_angle_gamma 90.000000
_cell_volume 3385.658695
_symmetry_space_group_name_H-M "A M M 2"
_symmetry_group_IT_number 38
_symmetry_cell_setting 'orthorhombic'
loop_
_space_group_symop_operation_xyz
x,y,z
-x,-y,z
-x,y,z
x,-y,z
x,1/2+y,1/2+z
-x,1/2-y,1/2+z
-x,1/2+y,1/2+z
x,1/2-y,1/2+z
loop_
_atom_site_type_symbol
_atom_site_label
_atom_site_fract_x
_atom_site_fract_y
_atom_site_fract_z
Si Si1 0.663554 0.705372 0.050720
Si Si2 0.334812 0.600198 0.982219
Si Si3 0.834146 0.611286 0.584903
Si Si4 0.166773 0.055382 0.289896
Si Si5 0.844047 0.948082 0.895272
Si Si6 0.166046 0.205759 0.978993
Si Si7 0.344987 0.180834 0.782339
Si Si8 0.345789 0.426211 0.211453
O O1 0.500000 0.715600 0.026569
O O2 0.692799 0.709469 0.176012
O O3 0.707160 0.655117 0.999417
O O4 0.760469 0.744711 0.998573
O O5 0.500000 0.596220 0.954384
O O6 0.243216 0.576082 0.891879
O O7 0.299155 0.571225 0.089059
O O8 0.775189 0.587420 0.691904
O O9 0.767586 0.585419 0.481629
O O10 0.799891 0.667323 0.572369
O O11 0.000000 0.601493 0.582212
O O12 0.000000 0.061676 0.304911
O O13 0.205167 0.000000 0.272408
O O14 0.762610 0.953451 0.785131
O O15 0.000000 0.928330 0.869025
O O16 0.853036 0.000000 0.946938
O O17 0.222561 0.186843 0.867347
O O18 0.000000 0.213627 0.968784
O O19 0.500000 0.196694 0.825889
O O20 0.353860 0.127300 0.747625
O O21 0.500000 0.449653 0.223774
#
# Coordination Sequence:
#
# PCOD8178331 Si02
#       8
#     8   8   8   8   8   8   8   8
#     4   9  20  38  57  79 109 149 193 233 281 343
#     4   9  20  39  59  79 109 148 188 232 284 336
#     4   9  19  36  54  77 111 148 185 227 279 337
#     4  10  21  38  60  83 112 154 198 239 285 342
#     4  10  19  32  53  79 107 140 177 219 271 332
#     4  11  21  33  55  85 114 145 185 236 290 340
#     4   9  18  35  56  75 103 144 183 223 274 334
#     4   9  18  34  55  77 104 139 177 222 276 330
#
# _framework density 18.903264
#
# number of rings (size 3 to 8) (size 9 to 14) (size 15 to 20)
#    0.000    2.500    1.250    2.250    0.000    5.000 
#    0.000    9.375    0.000    1.500    0.000    0.000 
#    0.000    0.000    0.000    0.000    0.000    0.000 
#
# Total GULP energy -396599.204524 kJ/mol
# GULP energy per Si atom -12393.725141 kJ/mol
# Density = 1.886024 g / cm^3
# Si number density = 18.903264 Si / 1000 Ang^3
#
#
#
# Elastic Constant Matrix: (Units=GPa)
#
#
# Indices 1 2 3 4 5 6 
#
# 1 66.9463 32.8640 50.6488 0.0000 0.0000 0.0000
# 2 32.8640 71.5351 38.0271 0.0000 0.0000 0.0000
# 3 50.6488 38.0271 117.4391 0.0000 0.0000 0.0000
# 4 0.0000 0.0000 0.0000 23.1950 0.0000 0.0000
# 5 0.0000 0.0000 0.0000 0.0000 24.2841 0.0000
# 6 0.0000 0.0000 0.0000 0.0000 0.0000 26.4121
#
#
#
# Elastic Compliance Matrix: (Units=1/GPa)
#
#
# Indices 1 2 3 4 5 6 
#
# 1 0.024676 -0.006860 -0.008421 0.000000 0.000000 0.000000
# 2 -0.006860 0.018793 -0.003127 0.000000 0.000000 0.000000
# 3 -0.008421 -0.003127 0.013159 0.000000 0.000000 0.000000
# 4 0.000000 0.000000 0.000000 0.043113 0.000000 0.000000
# 5 0.000000 0.000000 0.000000 0.000000 0.041179 0.000000
# 6 0.000000 0.000000 0.000000 0.000000 0.000000 0.037861
#
#
# Mechanical properties :
#
#
# Convention : Reuss Voigt Hill
#
# Bulk Modulus (GPa) = 50.47204 55.44447 52.95826
# Shear Modulus (GPa) = 22.50226 23.73696 23.11961
#
# Velocity S-wave (km/s) = 3.45395 3.54744 3.50101
# Velocity P-wave (km/s) = 6.53180 6.79510 6.66475
#
# Compressibility (1/GPa) = 0.01981295
#
# Stress axis : x y z
#
# Youngs Moduli (GPa) = 40.52564 53.21206 75.99257
#
# Poissons Ratio (x) = 0.36503 0.63992
# Poissons Ratio (y) = 0.27800 0.23760
# Poissons Ratio (z) = 0.34126 0.16637
#
# Static dielectric constant tensor:
#      x y z
#    x 4.364360 0.000000 0.000000 
#    y 0.000000 3.468410 0.000000 
#    z 0.000000 0.000000 3.640290 
# 
# 
# High freq. dielectric constant tensor:
#      x y z
#    x 1.716490 0.000000 0.000000 
#    y 0.000000 1.739030 0.000000 
#    z 0.000000 0.000000 1.733750 
# 
# From -- ./inp_files/8613.got.cif
#   From: 2010.03.12/outbox.cif.g09.slc.cpg/sg38_5_cif.got.tgz:8613.got - 2010.04.14 02:38:36.
