data_PCOD8178906
_publ_section_title
;
Structure prediction by ZEFSAII (Michael W. Deem and Ramdas Pophale) SiO2 
 PCOD8178906
Probable space group: A M M 2
;
_chemical_formula_sum "Si O2"
_cell_formula_units_Z 64
_cell_length_a 14.207574
_cell_length_b 14.619762
_cell_length_c 17.079263
_cell_angle_alpha 90.000000
_cell_angle_beta 90.000000
_cell_angle_gamma 90.000000
_cell_volume 3547.556783
_symmetry_space_group_name_H-M "A M M 2"
_symmetry_group_IT_number 38
_symmetry_cell_setting 'orthorhombic'
loop_
_space_group_symop_operation_xyz
x,y,z
-x,-y,z
-x,y,z
x,-y,z
x,1/2+y,1/2+z
-x,1/2-y,1/2+z
-x,1/2+y,1/2+z
x,1/2-y,1/2+z
loop_
_atom_site_type_symbol
_atom_site_label
_atom_site_fract_x
_atom_site_fract_y
_atom_site_fract_z
Si Si1 0.109235 0.165101 0.995890
Si Si2 0.389832 0.398369 0.211491
Si Si3 0.892459 0.399147 0.322679
Si Si4 0.237329 0.396847 0.631668
Si Si5 0.724848 0.735665 0.938014
Si Si6 0.389868 0.395201 0.505069
Si Si7 0.396773 0.603126 0.033136
Si Si8 0.247214 0.745354 0.265537
O O1 0.122708 0.106932 0.916402
O O2 0.174563 0.254198 0.982313
O O3 0.000000 0.190950 0.010477
O O4 0.150079 0.111296 0.070942
O O5 0.500000 0.384096 0.223171
O O6 0.361717 0.500000 0.243060
O O7 0.339761 0.315563 0.254695
O O8 0.360125 0.391370 0.121277
O O9 0.858517 0.500000 0.297004
O O10 0.840036 0.324066 0.270508
O O11 0.000000 0.383668 0.301588
O O12 0.233986 0.500000 0.666568
O O13 0.337377 0.380831 0.588288
O O14 0.228893 0.322098 0.700216
O O15 0.661444 0.828561 0.943000
O O16 0.675311 0.651892 0.977718
O O17 0.740484 0.705593 0.848796
O O18 0.500000 0.370202 0.514970
O O19 0.378150 0.500000 0.476002
O O20 0.500000 0.649140 0.026591
O O21 0.403020 0.500000 0.003999
#
# Coordination Sequence:
#
# PCOD8178906 Si02
#       8
#     8   8   8   8   8   8   8   8
#     4   9  18  34  57  79  96 123 166 213 257 300
#     4   9  18  32  50  72  98 129 165 204 245 290
#     4   9  18  34  55  77 101 128 160 203 256 309
#     4  10  21  35  51  74 102 135 174 210 248 297
#     4  10  20  32  50  75 103 133 163 203 252 303
#     4   9  18  34  55  76  99 129 168 215 260 300
#     4   9  18  34  54  72  93 130 180 218 237 269
#     4  11  22  32  47  74 108 137 159 197 252 309
#
# _framework density 18.040586000000001
#
# number of rings (size 3 to 8) (size 9 to 14) (size 15 to 20)
#    0.000    2.500    0.000    3.375    0.000    7.750 
#    0.000    1.250    0.000    1.875    0.000    3.500 
#    0.000    0.000    0.000    0.000    0.000    0.000 
#
# Total GULP energy -396587.748534 kJ/mol
# GULP energy per Si atom -12393.367142 kJ/mol
# Density = 1.799953 g / cm^3
# Si number density = 18.040586 Si / 1000 Ang^3
#
#
#
# Elastic Constant Matrix: (Units=GPa)
#
#
# Indices 1 2 3 4 5 6 
#
# 1 100.2333 28.2490 34.2833 0.0000 0.0000 0.0000
# 2 28.2490 75.0088 42.3702 0.0000 0.0000 0.0000
# 3 34.2833 42.3702 68.4674 0.0000 0.0000 0.0000
# 4 0.0000 0.0000 0.0000 20.9534 0.0000 0.0000
# 5 0.0000 0.0000 0.0000 0.0000 21.2203 0.0000
# 6 0.0000 0.0000 0.0000 0.0000 0.0000 26.2574
#
#
#
# Elastic Compliance Matrix: (Units=1/GPa)
#
#
# Indices 1 2 3 4 5 6 
#
# 1 0.012187 -0.001757 -0.005015 0.000000 0.000000 0.000000
# 2 -0.001757 0.020750 -0.011961 0.000000 0.000000 0.000000
# 3 -0.005015 -0.011961 0.024519 0.000000 0.000000 0.000000
# 4 0.000000 0.000000 0.000000 0.047725 0.000000 0.000000
# 5 0.000000 0.000000 0.000000 0.000000 0.047125 0.000000
# 6 0.000000 0.000000 0.000000 0.000000 0.000000 0.038084
#
#
# Mechanical properties :
#
#
# Convention : Reuss Voigt Hill
#
# Bulk Modulus (GPa) = 50.02642 50.39051 50.20847
# Shear Modulus (GPa) = 21.32020 22.94003 22.13012
#
# Velocity S-wave (km/s) = 3.44145 3.56979 3.50621
# Velocity P-wave (km/s) = 6.60163 6.70698 6.65451
#
# Compressibility (1/GPa) = 0.01998944
#
# Stress axis : x y z
#
# Youngs Moduli (GPa) = 82.05291 48.19301 40.78519
#
# Poissons Ratio (x) = 0.08467 0.20455
# Poissons Ratio (y) = 0.14416 0.48784
# Poissons Ratio (z) = 0.41151 0.57644
#
# Static dielectric constant tensor:
#      x y z
#    x 3.536360 0.000000 0.000000 
#    y 0.000000 3.250000 0.000000 
#    z 0.000000 0.000000 3.155320 
# 
# 
# High freq. dielectric constant tensor:
#      x y z
#    x 1.703950 0.000000 0.000000 
#    y 0.000000 1.689700 0.000000 
#    z 0.000000 0.000000 1.681600 
# 
# From -- ./inp_files/18549.got.cif
#   From: 2010.03.12/outbox.cif.g09.slc.cpg/sg38_10_cif.got.tgz:18549.got - 2010.04.14 02:38:36.
