data_PCOD8178008
_publ_section_title
;
Structure prediction by ZEFSAII (Michael W. Deem and Ramdas Pophale) SiO2 
 PCOD8178008
Probable space group: A M M 2
;
_chemical_formula_sum "Si O2"
_cell_formula_units_Z 64
_cell_length_a 20.508615
_cell_length_b 9.448170
_cell_length_c 18.674535
_cell_angle_alpha 90.000000
_cell_angle_beta 90.000000
_cell_angle_gamma 90.000000
_cell_volume 3618.543750
_symmetry_space_group_name_H-M "A M M 2"
_symmetry_group_IT_number 38
_symmetry_cell_setting 'orthorhombic'
loop_
_space_group_symop_operation_xyz
x,y,z
-x,-y,z
-x,y,z
x,-y,z
x,1/2+y,1/2+z
-x,1/2-y,1/2+z
-x,1/2+y,1/2+z
x,1/2-y,1/2+z
loop_
_atom_site_type_symbol
_atom_site_label
_atom_site_fract_x
_atom_site_fract_y
_atom_site_fract_z
Si Si1 0.694992 0.334074 0.017880
Si Si2 0.193237 0.165672 0.937725
Si Si3 0.186716 0.832233 0.775915
Si Si4 0.308252 0.335816 0.185618
Si Si5 0.571423 0.341466 0.686486
Si Si6 0.074060 0.334283 0.174968
Si Si7 0.926252 0.162055 0.035882
Si Si8 0.572268 0.159221 0.016385
O O1 0.695397 0.500000 0.999996
O O2 0.703211 0.304980 0.102137
O O3 0.627100 0.268077 0.988245
O O4 0.754463 0.257286 0.979854
O O5 0.190984 0.223795 0.856730
O O6 0.212363 0.000000 0.941964
O O7 0.121605 0.192783 0.969951
O O8 0.247138 0.773944 0.729463
O O9 0.119681 0.779524 0.739415
O O10 0.187710 0.000000 0.776235
O O11 0.318333 0.500000 0.200418
O O12 0.372772 0.260657 0.216648
O O13 0.500000 0.291000 0.713937
O O14 0.585521 0.500000 0.713821
O O15 0.571848 0.337802 0.601398
O O16 0.083745 0.500000 0.160843
O O17 0.095417 0.257421 0.102426
O O18 0.000000 0.297074 0.196233
O O19 0.000000 0.198712 0.011073
O O20 0.921104 0.000000 0.060947
O O21 0.500000 0.204331 0.988363
O O22 0.588738 0.000000 0.989709
#
# Coordination Sequence:
#
# PCOD8178008 Si02
#       8
#     8   8   8   8   8   8   8   8
#     4  10  19  30  47  71  98 125 155 196 241 284
#     4  10  20  33  49  67  92 128 163 196 234 278
#     4   9  18  32  48  68  94 123 159 198 230 267
#     4   9  17  29  46  67  92 122 153 190 233 274
#     4   8  14  25  42  66  94 119 146 186 232 276
#     4   9  17  31  53  76  96 122 155 191 233 281
#     4   9  18  32  50  73  98 122 152 193 239 284
#     4   8  14  26  45  69  96 124 155 192 234 282
#
# _framework density 17.686672000000002
#
# number of rings (size 3 to 8) (size 9 to 14) (size 15 to 20)
#    0.000    3.000    0.000    1.875    0.000    3.000 
#    0.000    6.875    0.000    0.750    0.000    5.250 
#    0.000    0.000    0.000    0.000    0.000    0.000 
#
# Total GULP energy -396686.571885 kJ/mol
# GULP energy per Si atom -12396.455371 kJ/mol
# Density = 1.764642 g / cm^3
# Si number density = 17.686672 Si / 1000 Ang^3
#
#
#
# Elastic Constant Matrix: (Units=GPa)
#
#
# Indices 1 2 3 4 5 6 
#
# 1 150.1787 62.0500 65.2456 0.0000 0.0000 0.0000
# 2 62.0500 66.6822 41.2761 0.0000 0.0000 0.0000
# 3 65.2456 41.2761 76.8613 0.0000 0.0000 0.0000
# 4 0.0000 0.0000 0.0000 16.8266 0.0000 0.0000
# 5 0.0000 0.0000 0.0000 0.0000 5.7702 0.0000
# 6 0.0000 0.0000 0.0000 0.0000 0.0000 29.2464
#
#
#
# Elastic Compliance Matrix: (Units=1/GPa)
#
#
# Indices 1 2 3 4 5 6 
#
# 1 0.012755 -0.007739 -0.006671 0.000000 0.000000 0.000000
# 2 -0.007739 0.027160 -0.008016 0.000000 0.000000 0.000000
# 3 -0.006671 -0.008016 0.022978 0.000000 0.000000 0.000000
# 4 0.000000 0.000000 0.000000 0.059430 0.000000 0.000000
# 5 0.000000 0.000000 0.000000 0.000000 0.173304 0.000000
# 6 0.000000 0.000000 0.000000 0.000000 0.000000 0.034192
#
#
# Mechanical properties :
#
#
# Convention : Reuss Voigt Hill
#
# Bulk Modulus (GPa) = 55.43091 70.09618 62.76354
# Shear Modulus (GPa) = 13.13424 18.71199 15.92312
#
# Velocity S-wave (km/s) = 2.72804 3.25618 3.00374
# Velocity P-wave (km/s) = 6.42895 7.33861 6.89879
#
# Compressibility (1/GPa) = 0.01804048
#
# Stress axis : x y z
#
# Youngs Moduli (GPa) = 78.40291 36.81895 43.52031
#
# Poissons Ratio (x) = 0.28495 0.29032
# Poissons Ratio (y) = 0.60679 0.34885
# Poissons Ratio (z) = 0.52302 0.29513
#
# Static dielectric constant tensor:
#      x y z
#    x 3.676750 0.000000 0.000000 
#    y 0.000000 3.214800 0.000000 
#    z 0.000000 0.000000 3.085720 
# 
# 
# High freq. dielectric constant tensor:
#      x y z
#    x 1.701880 0.000000 0.000000 
#    y 0.000000 1.668340 0.000000 
#    z 0.000000 0.000000 1.647570 
# 
# From -- ./inp_files/18973.got.cif
#   From: 2010.03.12/outbox.cif.g09.slc.cpg/sg38_10_cif.got.tgz:18973.got - 2010.04.14 02:38:36.
