data_PCOD8178866
_publ_section_title
;
Structure prediction by ZEFSAII (Michael W. Deem and Ramdas Pophale) SiO2 
 PCOD8178866
Probable space group: A M M 2
;
_chemical_formula_sum "Si O2"
_cell_formula_units_Z 64
_cell_length_a 20.230929
_cell_length_b 9.421627
_cell_length_c 18.639692
_cell_angle_alpha 90.000000
_cell_angle_beta 90.000000
_cell_angle_gamma 90.000000
_cell_volume 3552.879388
_symmetry_space_group_name_H-M "A M M 2"
_symmetry_group_IT_number 38
_symmetry_cell_setting 'orthorhombic'
loop_
_space_group_symop_operation_xyz
x,y,z
-x,-y,z
-x,y,z
x,-y,z
x,1/2+y,1/2+z
-x,1/2-y,1/2+z
-x,1/2+y,1/2+z
x,1/2-y,1/2+z
loop_
_atom_site_type_symbol
_atom_site_label
_atom_site_fract_x
_atom_site_fract_y
_atom_site_fract_z
Si Si1 0.927370 0.831587 0.001640
Si Si2 0.804791 0.832750 0.093272
Si Si3 0.425420 0.161987 0.608807
Si Si4 0.923142 0.162952 0.840525
Si Si5 0.424839 0.166771 0.248312
Si Si6 0.816808 0.833051 0.258732
Si Si7 0.308738 0.668316 0.848198
Si Si8 0.305957 0.334638 0.009849
O O1 0.872955 0.776786 0.057734
O O2 0.000000 0.771024 0.023151
O O3 0.931236 0.000000 0.001720
O O4 0.908530 0.781786 0.921274
O O5 0.805316 0.792437 0.176393
O O6 0.744630 0.752639 0.057244
O O7 0.795687 0.000000 0.080961
O O8 0.500000 0.198329 0.584475
O O9 0.403087 0.259714 0.674630
O O10 0.379196 0.190678 0.540624
O O11 0.419488 0.000000 0.634991
O O12 0.882942 0.257707 0.785025
O O13 0.000000 0.180791 0.822111
O O14 0.901054 0.000000 0.832169
O O15 0.500000 0.206875 0.269643
O O16 0.376309 0.222169 0.310876
O O17 0.416619 0.000000 0.235781
O O18 0.754367 0.775778 0.303964
O O19 0.826633 0.000000 0.268475
O O20 0.309158 0.500000 0.849373
O O21 0.305314 0.726772 0.929094
O O22 0.286132 0.500000 0.011879
#
# Coordination Sequence:
#
# PCOD8178866 Si02
#       8
#     8   8   8   8   8   8   8   8
#     4   8  15  30  51  72  94 123 159 195 233 281
#     4  10  20  33  51  74  98 125 159 200 241 282
#     4   9  18  32  49  70  96 125 159 199 240 283
#     4   9  18  33  52  72  95 124 158 197 237 279
#     4   9  17  31  53  76  97 126 161 196 238 287
#     4  10  20  32  48  71  99 129 158 195 242 287
#     4   9  18  32  48  70 100 128 159 200 240 281
#     4  10  20  33  50  70  95 130 165 198 239 284
#
# _framework density 18.013558
#
# number of rings (size 3 to 8) (size 9 to 14) (size 15 to 20)
#    0.000    2.750    0.000    2.250    0.000    3.250 
#    0.000    5.000    0.000    1.125    0.000    3.500 
#    0.000    0.000    0.000    0.000    0.000    0.000 
#
# Total GULP energy -396789.978828 kJ/mol
# GULP energy per Si atom -12399.686838 kJ/mol
# Density = 1.797256 g / cm^3
# Si number density = 18.013558 Si / 1000 Ang^3
#
#
#
# Elastic Constant Matrix: (Units=GPa)
#
#
# Indices 1 2 3 4 5 6 
#
# 1 118.6879 37.5904 86.6954 0.0000 0.0000 0.0000
# 2 37.5904 32.2029 44.2056 0.0000 0.0000 0.0000
# 3 86.6954 44.2056 155.4738 0.0000 0.0000 0.0000
# 4 0.0000 0.0000 0.0000 15.4443 0.0000 0.0000
# 5 0.0000 0.0000 0.0000 0.0000 38.8484 0.0000
# 6 0.0000 0.0000 0.0000 0.0000 0.0000 26.3904
#
#
#
# Elastic Compliance Matrix: (Units=1/GPa)
#
#
# Indices 1 2 3 4 5 6 
#
# 1 0.016177 -0.010662 -0.005989 0.000000 0.000000 0.000000
# 2 -0.010662 0.057959 -0.010534 0.000000 0.000000 0.000000
# 3 -0.005989 -0.010534 0.012767 0.000000 0.000000 0.000000
# 4 0.000000 0.000000 0.000000 0.064749 0.000000 0.000000
# 5 0.000000 0.000000 0.000000 0.000000 0.025741 0.000000
# 6 0.000000 0.000000 0.000000 0.000000 0.000000 0.037893
#
#
# Mechanical properties :
#
#
# Convention : Reuss Voigt Hill
#
# Bulk Modulus (GPa) = 30.73851 71.48305 51.11078
# Shear Modulus (GPa) = 17.82532 25.32817 21.57675
#
# Velocity S-wave (km/s) = 3.14912 3.75382 3.46469
# Velocity P-wave (km/s) = 5.50670 7.65227 6.66637
#
# Compressibility (1/GPa) = 0.03253248
#
# Stress axis : x y z
#
# Youngs Moduli (GPa) = 61.81601 17.25356 78.32833
#
# Poissons Ratio (x) = 0.18396 0.46912
# Poissons Ratio (y) = 0.65908 0.82512
# Poissons Ratio (z) = 0.37023 0.18175
#
# Static dielectric constant tensor:
#      x y z
#    x 3.630990 0.000000 0.000000 
#    y 0.000000 3.037930 0.000000 
#    z 0.000000 0.000000 3.456270 
# 
# 
# High freq. dielectric constant tensor:
#      x y z
#    x 1.710560 0.000000 0.000000 
#    y 0.000000 1.665170 0.000000 
#    z 0.000000 0.000000 1.699670 
# 
# From -- ./inp_files/18868.got.cif
#   From: 2010.03.12/outbox.cif.g09.slc.cpg/sg38_10_cif.got.tgz:18868.got - 2010.04.14 02:38:36.
