data_PCOD8178038
_publ_section_title
;
Structure prediction by ZEFSAII (Michael W. Deem and Ramdas Pophale) SiO2 
 PCOD8178038
Probable space group: A M M 2
;
_chemical_formula_sum "Si O2"
_cell_formula_units_Z 64
_cell_length_a 8.981369
_cell_length_b 20.979141
_cell_length_c 19.609351
_cell_angle_alpha 90.000000
_cell_angle_beta 90.000000
_cell_angle_gamma 90.000000
_cell_volume 3694.821498
_symmetry_space_group_name_H-M "A M M 2"
_symmetry_group_IT_number 38
_symmetry_cell_setting 'orthorhombic'
loop_
_space_group_symop_operation_xyz
x,y,z
-x,-y,z
-x,y,z
x,-y,z
x,1/2+y,1/2+z
-x,1/2-y,1/2+z
-x,1/2+y,1/2+z
x,1/2-y,1/2+z
loop_
_atom_site_type_symbol
_atom_site_label
_atom_site_fract_x
_atom_site_fract_y
_atom_site_fract_z
Si Si1 0.824327 0.233499 0.966950
Si Si2 0.172874 0.307983 0.172655
Si Si3 0.828261 0.571140 0.087494
Si Si4 0.672725 0.129986 0.314955
Si Si5 0.171808 0.238711 0.815841
Si Si6 0.677176 0.809187 0.096659
Si Si7 0.325654 0.368243 0.967077
Si Si8 0.323455 0.430613 0.679495
O O1 0.779074 0.211396 0.890031
O O2 0.768592 0.304900 0.981146
O O3 0.000000 0.230579 0.979712
O O4 0.741869 0.187454 0.020119
O O5 0.219521 0.377309 0.144427
O O6 0.205195 0.310319 0.254189
O O7 0.267219 0.253351 0.136041
O O8 0.000000 0.293245 0.158335
O O9 0.800503 0.500000 0.116785
O O10 0.000000 0.580488 0.066803
O O11 0.727499 0.578745 0.020237
O O12 0.500000 0.143404 0.306556
O O13 0.746349 0.196743 0.297801
O O14 0.709463 0.105385 0.391104
O O15 0.726346 0.079404 0.258386
O O16 0.000000 0.256503 0.820575
O O17 0.500000 0.806984 0.094398
O O18 0.738516 0.873235 0.133045
O O19 0.500000 0.353141 0.976431
O O20 0.500000 0.431044 0.674021
O O21 0.260555 0.500000 0.656227
#
# Coordination Sequence:
#
# PCOD8178038 Si02
#       8
#     8   8   8   8   8   8   8   8
#     4  10  19  32  50  73 103 134 164 206 254 300
#     4  10  19  33  53  74  98 130 166 207 252 296
#     4  10  21  35  50  70 100 138 172 203 249 305
#     4   9  17  30  48  71  99 132 167 204 243 289
#     4   9  18  31  50  74  99 129 164 203 253 300
#     4  11  20  31  52  78 100 129 170 210 249 294
#     4  10  19  30  48  74 102 132 169 207 246 293
#     4   9  18  32  49  71 101 135 168 203 247 297
#
# _framework density 17.321541
#
# number of rings (size 3 to 8) (size 9 to 14) (size 15 to 20)
#    0.000    2.250    2.500    1.125    0.000    1.750 
#    0.000    1.250    0.000    4.125    0.000    1.750 
#    0.000    0.000    0.000    0.000    0.000    0.000 
#
# Total GULP energy -396650.184683 kJ/mol
# GULP energy per Si atom -12395.318271 kJ/mol
# Density = 1.728212 g / cm^3
# Si number density = 17.321541 Si / 1000 Ang^3
#
#
#
# Elastic Constant Matrix: (Units=GPa)
#
#
# Indices 1 2 3 4 5 6 
#
# 1 44.9017 30.3386 33.8114 0.0000 0.0000 0.0000
# 2 30.3386 121.3654 73.7714 0.0000 0.0000 0.0000
# 3 33.8114 73.7714 127.4403 0.0000 0.0000 0.0000
# 4 0.0000 0.0000 0.0000 21.5854 0.0000 0.0000
# 5 0.0000 0.0000 0.0000 0.0000 22.0303 0.0000
# 6 0.0000 0.0000 0.0000 0.0000 0.0000 16.9287
#
#
#
# Elastic Compliance Matrix: (Units=1/GPa)
#
#
# Indices 1 2 3 4 5 6 
#
# 1 0.029021 -0.003972 -0.005400 0.000000 0.000000 0.000000
# 2 -0.003972 0.013256 -0.006620 0.000000 0.000000 0.000000
# 3 -0.005400 -0.006620 0.013112 0.000000 0.000000 0.000000
# 4 0.000000 0.000000 0.000000 0.046328 0.000000 0.000000
# 5 0.000000 0.000000 0.000000 0.000000 0.045392 0.000000
# 6 0.000000 0.000000 0.000000 0.000000 0.000000 0.059071
#
#
# Mechanical properties :
#
#
# Convention : Reuss Voigt Hill
#
# Bulk Modulus (GPa) = 42.72661 63.28335 53.00498
# Shear Modulus (GPa) = 20.32797 22.49460 21.41128
#
# Velocity S-wave (km/s) = 3.42945 3.60759 3.51965
# Velocity P-wave (km/s) = 6.35624 7.34620 6.86908
#
# Compressibility (1/GPa) = 0.02340462
#
# Stress axis : x y z
#
# Youngs Moduli (GPa) = 34.45755 75.43537 76.26798
#
# Poissons Ratio (x) = 0.29963 0.41188
# Poissons Ratio (y) = 0.13687 0.50489
# Poissons Ratio (z) = 0.18608 0.49937
#
# Static dielectric constant tensor:
#      x y z
#    x 3.160840 0.000000 0.000000 
#    y 0.000000 3.191250 0.000000 
#    z 0.000000 0.000000 3.635850 
# 
# 
# High freq. dielectric constant tensor:
#      x y z
#    x 1.661480 0.000000 0.000000 
#    y 0.000000 1.639320 0.000000 
#    z 0.000000 0.000000 1.678510 
# 
# From -- ./inp_files/20022.got.cif
#   From: 2010.03.12/outbox.cif.g09.slc.cpg/sg38_11_cif.got.tgz:20022.got - 2010.04.14 02:38:36.
