data_PCOD8178576
_publ_section_title
;
Structure prediction by ZEFSAII (Michael W. Deem and Ramdas Pophale) SiO2 
 PCOD8178576
Probable space group: A M M 2
;
_chemical_formula_sum "Si O2"
_cell_formula_units_Z 56
_cell_length_a 8.511164
_cell_length_b 22.489587
_cell_length_c 14.424908
_cell_angle_alpha 90.000000
_cell_angle_beta 90.000000
_cell_angle_gamma 90.000000
_cell_volume 2761.108615
_symmetry_space_group_name_H-M "A M M 2"
_symmetry_group_IT_number 38
_symmetry_cell_setting 'orthorhombic'
loop_
_space_group_symop_operation_xyz
x,y,z
-x,-y,z
-x,y,z
x,-y,z
x,1/2+y,1/2+z
-x,1/2-y,1/2+z
-x,1/2+y,1/2+z
x,1/2-y,1/2+z
loop_
_atom_site_type_symbol
_atom_site_label
_atom_site_fract_x
_atom_site_fract_y
_atom_site_fract_z
Si Si1 0.814615 0.149109 0.099720
Si Si2 0.184763 0.781879 0.605060
Si Si3 0.183493 0.215741 0.397269
Si Si4 0.686607 0.500000 0.902079
Si Si5 0.315917 0.845048 0.904850
Si Si6 0.313124 0.500000 0.113353
Si Si7 0.812976 0.389449 0.225755
Si Si8 0.316396 0.610967 0.783620
O O1 0.750902 0.215556 0.124188
O O2 0.766437 0.105725 0.183312
O O3 0.000000 0.148532 0.083881
O O4 0.733546 0.128216 0.004353
O O5 0.230377 0.802671 0.501572
O O6 0.252740 0.828992 0.677921
O O7 0.000000 0.779968 0.615226
O O8 0.223868 0.284480 0.381300
O O9 0.281150 0.174646 0.328468
O O10 0.000000 0.206630 0.376183
O O11 0.500000 0.500000 0.902940
O O12 0.750364 0.441521 0.848993
O O13 0.749224 0.500000 0.007365
O O14 0.500000 0.833055 0.902674
O O15 0.264614 0.893073 0.827434
O O16 0.500000 0.500000 0.117958
O O17 0.245102 0.557002 0.163642
O O18 0.000000 0.391160 0.233511
O O19 0.500000 0.603430 0.767829
#
# Coordination Sequence:
#
# PCOD8178576 Si02
#       8
#     8   8   8   4   8   4   8   8
#     4  10  20  37  58  84 116 150 186 235 290 343
#     4   8  17  32  54  81 112 146 183 226 280 337
#     4  10  19  34  55  84 119 154 189 234 286 340
#     4   9  22  41  60  83 118 153 185 228 282 335
#     4  11  22  37  57  85 116 150 190 236 286 345
#     4  11  23  41  60  83 114 151 191 234 280 335
#     4  11  21  37  59  84 113 150 192 238 287 339
#     4  11  21  36  57  83 113 152 195 237 284 339
#
# _framework density 20.28171
#
# number of rings (size 3 to 8) (size 9 to 14) (size 15 to 20)
#    0.000    1.857    0.000    5.786    0.000    1.143 
#    0.000   11.429    0.000    0.857    0.000    0.000 
#    0.000    0.000    0.000    0.000    0.000    0.000 
#
# Total GULP energy -347247.295105 kJ/mol
# GULP energy per Si atom -12401.689111 kJ/mol
# Density = 2.023555 g / cm^3
# Si number density = 20.281710 Si / 1000 Ang^3
#
#
#
# Elastic Constant Matrix: (Units=GPa)
#
#
# Indices 1 2 3 4 5 6 
#
# 1 69.1264 17.7829 34.1017 0.0000 0.0000 0.0000
# 2 17.7829 64.6399 66.6646 0.0000 0.0000 0.0000
# 3 34.1017 66.6646 173.1579 0.0000 0.0000 0.0000
# 4 0.0000 0.0000 0.0000 36.2505 0.0000 0.0000
# 5 0.0000 0.0000 0.0000 0.0000 33.7885 0.0000
# 6 0.0000 0.0000 0.0000 0.0000 0.0000 25.0459
#
#
#
# Elastic Compliance Matrix: (Units=1/GPa)
#
#
# Indices 1 2 3 4 5 6 
#
# 1 0.016167 -0.001931 -0.002441 0.000000 0.000000 0.000000
# 2 -0.001931 0.025888 -0.009587 0.000000 0.000000 0.000000
# 3 -0.002441 -0.009587 0.009947 0.000000 0.000000 0.000000
# 4 0.000000 0.000000 0.000000 0.027586 0.000000 0.000000
# 5 0.000000 0.000000 0.000000 0.000000 0.029596 0.000000
# 6 0.000000 0.000000 0.000000 0.000000 0.000000 0.039927
#
#
# Mechanical properties :
#
#
# Convention : Reuss Voigt Hill
#
# Bulk Modulus (GPa) = 41.51769 60.44698 50.98234
# Shear Modulus (GPa) = 27.01906 31.57531 29.29718
#
# Velocity S-wave (km/s) = 3.65388 3.94996 3.80480
# Velocity P-wave (km/s) = 6.18999 7.11838 6.67036
#
# Compressibility (1/GPa) = 0.02408612
#
# Stress axis : x y z
#
# Youngs Moduli (GPa) = 61.85469 38.62745 100.53751
#
# Poissons Ratio (x) = 0.07457 0.24538
# Poissons Ratio (y) = 0.11941 0.96382
# Poissons Ratio (z) = 0.15097 0.37031
#
# Static dielectric constant tensor:
#      x y z
#    x 3.485210 0.000000 0.000000 
#    y 0.000000 3.802810 0.000000 
#    z 0.000000 0.000000 4.025990 
# 
# 
# High freq. dielectric constant tensor:
#      x y z
#    x 1.781580 0.000000 0.000000 
#    y 0.000000 1.768840 0.000000 
#    z 0.000000 0.000000 1.812660 
# 
# From -- ./inp_files/12454.got.cif
#   From: 2010.03.12/outbox.cif.g09.slc.cpg/sg38_7_cif.got.tgz:12454.got - 2010.04.14 02:38:36.
