data_PCOD8178666
_publ_section_title
;
Structure prediction by ZEFSAII (Michael W. Deem and Ramdas Pophale) SiO2 
 PCOD8178666
Probable space group: A M M 2
;
_chemical_formula_sum "Si O2"
_cell_formula_units_Z 64
_cell_length_a 8.792490
_cell_length_b 24.855389
_cell_length_c 15.144983
_cell_angle_alpha 90.000000
_cell_angle_beta 90.000000
_cell_angle_gamma 90.000000
_cell_volume 3309.796083
_symmetry_space_group_name_H-M "A M M 2"
_symmetry_group_IT_number 38
_symmetry_cell_setting 'orthorhombic'
loop_
_space_group_symop_operation_xyz
x,y,z
-x,-y,z
-x,y,z
x,-y,z
x,1/2+y,1/2+z
-x,1/2-y,1/2+z
-x,1/2+y,1/2+z
x,1/2-y,1/2+z
loop_
_atom_site_type_symbol
_atom_site_label
_atom_site_fract_x
_atom_site_fract_y
_atom_site_fract_z
Si Si1 0.676805 0.061359 0.377110
Si Si2 0.179475 0.104111 0.201275
Si Si3 0.673281 0.938943 0.030119
Si Si4 0.827787 0.219749 0.232598
Si Si5 0.321268 0.851562 0.887250
Si Si6 0.181743 0.837206 0.703613
Si Si7 0.174103 0.758322 0.433918
Si Si8 0.320048 0.855996 0.525602
O O1 0.500000 0.072439 0.361379
O O2 0.759523 0.072512 0.285554
O O3 0.738430 0.099973 0.455044
O O4 0.707961 0.000000 0.406029
O O5 0.220691 0.072442 0.113438
O O6 0.249597 0.165082 0.195697
O O7 0.000000 0.107701 0.212229
O O8 0.500000 0.928128 0.059433
O O9 0.698101 0.000000 0.999529
O O10 0.718333 0.902598 0.947251
O O11 0.753272 0.275449 0.198766
O O12 0.816373 0.215765 0.337794
O O13 0.000000 0.221260 0.199849
O O14 0.500000 0.842279 0.875011
O O15 0.245452 0.863658 0.792805
O O16 0.249059 0.800213 0.935661
O O17 0.244451 0.870140 0.619987
O O18 0.000000 0.838516 0.707784
O O19 0.265866 0.796505 0.499662
O O20 0.000000 0.753511 0.466318
O O21 0.500000 0.857527 0.535316
#
# Coordination Sequence:
#
# PCOD8178666 Si02
#       8
#     8   8   8   8   8   8   8   8
#     4  10  22  40  59  81 116 158 195 235 287 342
#     4  11  21  35  57  87 118 150 192 238 283 338
#     4  10  23  42  60  81 114 154 194 237 290 345
#     4   8  17  33  52  79 113 149 184 218 275 342
#     4  10  21  39  61  86 113 147 196 246 288 340
#     4  10  21  38  59  84 118 157 188 233 296 353
#     4  10  19  35  57  82 117 155 186 228 289 348
#     4  11  22  36  57  87 117 151 198 244 283 337
#
# _framework density 19.336538999999998
#
# number of rings (size 3 to 8) (size 9 to 14) (size 15 to 20)
#    0.000    2.000    1.250    3.000    1.750    3.500 
#    0.000    1.875    0.000    3.750    0.000    0.000 
#    0.000    0.000    0.000    0.000    0.000    0.000 
#
# Total GULP energy -396808.461394 kJ/mol
# GULP energy per Si atom -12400.264419 kJ/mol
# Density = 1.929253 g / cm^3
# Si number density = 19.336539 Si / 1000 Ang^3
#
#
#
# Elastic Constant Matrix: (Units=GPa)
#
#
# Indices 1 2 3 4 5 6 
#
# 1 68.6645 37.6357 39.7570 0.0000 0.0000 0.0000
# 2 37.6357 113.7044 64.4576 0.0000 0.0000 0.0000
# 3 39.7570 64.4576 124.3586 0.0000 0.0000 0.0000
# 4 0.0000 0.0000 0.0000 28.2907 0.0000 0.0000
# 5 0.0000 0.0000 0.0000 0.0000 29.4325 0.0000
# 6 0.0000 0.0000 0.0000 0.0000 0.0000 22.6119
#
#
#
# Elastic Compliance Matrix: (Units=1/GPa)
#
#
# Indices 1 2 3 4 5 6 
#
# 1 0.019105 -0.004052 -0.004008 0.000000 0.000000 0.000000
# 2 -0.004052 0.013313 -0.005605 0.000000 0.000000 0.000000
# 3 -0.004008 -0.005605 0.012228 0.000000 0.000000 0.000000
# 4 0.000000 0.000000 0.000000 0.035347 0.000000 0.000000
# 5 0.000000 0.000000 0.000000 0.000000 0.033976 0.000000
# 6 0.000000 0.000000 0.000000 0.000000 0.000000 0.044224
#
#
# Mechanical properties :
#
#
# Convention : Reuss Voigt Hill
#
# Bulk Modulus (GPa) = 57.74767 65.60310 61.67539
# Shear Modulus (GPa) = 26.13761 27.05886 26.59823
#
# Velocity S-wave (km/s) = 3.68056 3.74487 3.71285
# Velocity P-wave (km/s) = 6.92759 7.25943 7.09545
#
# Compressibility (1/GPa) = 0.01731671
#
# Stress axis : x y z
#
# Youngs Moduli (GPa) = 52.34292 75.11226 81.78075
#
# Poissons Ratio (x) = 0.30433 0.32775
# Poissons Ratio (y) = 0.21208 0.45840
# Poissons Ratio (z) = 0.20977 0.42103
#
# Static dielectric constant tensor:
#      x y z
#    x 3.459950 0.000000 0.000000 
#    y 0.000000 3.633310 0.000000 
#    z 0.000000 0.000000 3.536960 
# 
# 
# High freq. dielectric constant tensor:
#      x y z
#    x 1.745450 0.000000 0.000000 
#    y 0.000000 1.748330 0.000000 
#    z 0.000000 0.000000 1.754120 
# 
# From -- ./inp_files/12809.got.cif
#   From: 2010.03.12/outbox.cif.g09.slc.cpg/sg38_7_cif.got.tgz:12809.got - 2010.04.14 02:38:36.
