data_PCOD8178053
_publ_section_title
;
Structure prediction by ZEFSAII (Michael W. Deem and Ramdas Pophale) SiO2 
 PCOD8178053
Probable space group: A M M 2
;
_chemical_formula_sum "Si O2"
_cell_formula_units_Z 64
_cell_length_a 8.915257
_cell_length_b 33.565412
_cell_length_c 11.835849
_cell_angle_alpha 90.000000
_cell_angle_beta 90.000000
_cell_angle_gamma 90.000000
_cell_volume 3541.810045
_symmetry_space_group_name_H-M "A M M 2"
_symmetry_group_IT_number 38
_symmetry_cell_setting 'orthorhombic'
loop_
_space_group_symop_operation_xyz
x,y,z
-x,-y,z
-x,y,z
x,-y,z
x,1/2+y,1/2+z
-x,1/2-y,1/2+z
-x,1/2+y,1/2+z
x,1/2-y,1/2+z
loop_
_atom_site_type_symbol
_atom_site_label
_atom_site_fract_x
_atom_site_fract_y
_atom_site_fract_z
Si Si1 0.176668 0.670793 0.732870
Si Si2 0.167992 0.545555 0.002290
Si Si3 0.822441 0.686213 0.482094
Si Si4 0.329437 0.163419 0.586182
Si Si5 0.330773 0.607240 0.870849
Si Si6 0.823509 0.225748 0.439442
Si Si7 0.323089 0.045137 0.737668
Si Si8 0.821755 0.123482 0.799677
O O1 0.238153 0.682257 0.609569
O O2 0.257879 0.629933 0.765734
O O3 0.220699 0.705765 0.820269
O O4 0.000000 0.663207 0.733588
O O5 0.164087 0.500000 0.966885
O O6 0.235080 0.567699 0.893724
O O7 0.000000 0.561012 0.030673
O O8 0.273226 0.552952 0.109698
O O9 0.768363 0.728586 0.432314
O O10 0.762695 0.650095 0.404526
O O11 0.000000 0.685057 0.482893
O O12 0.500000 0.170338 0.626464
O O13 0.321901 0.133695 0.482114
O O14 0.258143 0.205094 0.545779
O O15 0.233399 0.144543 0.686116
O O16 0.500000 0.595592 0.839568
O O17 0.000000 0.222454 0.462889
O O18 0.500000 0.051107 0.744389
O O19 0.244381 0.078712 0.815012
O O20 0.277365 0.000000 0.775706
O O21 0.000000 0.120559 0.796790
#
# Coordination Sequence:
#
# PCOD8178053 Si02
#       8
#     8   8   8   8   8   8   8   8
#     4   9  18  34  54  74 101 136 177 221 265 313
#     4  10  19  30  49  79 109 136 170 211 259 316
#     4   9  20  35  54  81 105 135 181 230 272 314
#     4  10  20  33  49  74 107 140 174 213 261 316
#     4  10  19  32  51  73 104 139 172 211 257 312
#     4   9  18  33  56  78 100 135 176 220 268 317
#     4  10  20  34  52  76 110 146 177 217 271 326
#     4  11  21  33  54  81 110 142 180 223 269 325
#
# _framework density 18.069856000000001
#
# number of rings (size 3 to 8) (size 9 to 14) (size 15 to 20)
#    0.000    2.250    1.250    1.875    1.750    2.500 
#    0.000    3.125    0.000    0.750    0.000    1.750 
#    0.000    0.000    0.000    0.000    0.000    0.000 
#
# Total GULP energy -396781.672265 kJ/mol
# GULP energy per Si atom -12399.427258 kJ/mol
# Density = 1.802873 g / cm^3
# Si number density = 18.069856 Si / 1000 Ang^3
#
#
#
# Elastic Constant Matrix: (Units=GPa)
#
#
# Indices 1 2 3 4 5 6 
#
# 1 73.3204 44.9596 26.7230 0.0000 0.0000 0.0000
# 2 44.9596 132.9157 49.3478 0.0000 0.0000 0.0000
# 3 26.7230 49.3478 75.8635 0.0000 0.0000 0.0000
# 4 0.0000 0.0000 0.0000 28.2427 0.0000 0.0000
# 5 0.0000 0.0000 0.0000 0.0000 11.3507 0.0000
# 6 0.0000 0.0000 0.0000 0.0000 0.0000 23.0493
#
#
#
# Elastic Compliance Matrix: (Units=1/GPa)
#
#
# Indices 1 2 3 4 5 6 
#
# 1 0.017742 -0.004853 -0.003093 0.000000 0.000000 0.000000
# 2 -0.004853 0.011247 -0.005606 0.000000 0.000000 0.000000
# 3 -0.003093 -0.005606 0.017918 0.000000 0.000000 0.000000
# 4 0.000000 0.000000 0.000000 0.035407 0.000000 0.000000
# 5 0.000000 0.000000 0.000000 0.000000 0.088100 0.000000
# 6 0.000000 0.000000 0.000000 0.000000 0.000000 0.043385
#
#
# Mechanical properties :
#
#
# Convention : Reuss Voigt Hill
#
# Bulk Modulus (GPa) = 50.49960 58.24003 54.36982
# Shear Modulus (GPa) = 20.20171 23.26649 21.73410
#
# Velocity S-wave (km/s) = 3.34725 3.59219 3.47188
# Velocity P-wave (km/s) = 6.55334 7.03602 6.79896
#
# Compressibility (1/GPa) = 0.01980214
#
# Stress axis : x y z
#
# Youngs Moduli (GPa) = 56.36397 88.91615 55.81065
#
# Poissons Ratio (x) = 0.43151 0.17261
# Poissons Ratio (y) = 0.27354 0.31289
# Poissons Ratio (z) = 0.17432 0.49848
#
# Static dielectric constant tensor:
#      x y z
#    x 3.340810 0.000000 0.000000 
#    y 0.000000 3.611040 0.000000 
#    z 0.000000 0.000000 3.224790 
# 
# 
# High freq. dielectric constant tensor:
#      x y z
#    x 1.696790 0.000000 0.000000 
#    y 0.000000 1.706790 0.000000 
#    z 0.000000 0.000000 1.669170 
# 
# From -- ./inp_files/8514.got.cif
#   From: 2010.03.12/outbox.cif.g09.slc.cpg/sg38_5_cif.got.tgz:8514.got - 2010.04.14 02:38:36.
