data_PCOD8178580
_publ_section_title
;
Structure prediction by ZEFSAII (Michael W. Deem and Ramdas Pophale) SiO2 
 PCOD8178580
Probable space group: A M M 2
;
_chemical_formula_sum "Si O2"
_cell_formula_units_Z 64
_cell_length_a 18.004203
_cell_length_b 12.873308
_cell_length_c 14.020852
_cell_angle_alpha 90.000000
_cell_angle_beta 90.000000
_cell_angle_gamma 90.000000
_cell_volume 3249.664051
_symmetry_space_group_name_H-M "A M M 2"
_symmetry_group_IT_number 38
_symmetry_cell_setting 'orthorhombic'
loop_
_space_group_symop_operation_xyz
x,y,z
-x,-y,z
-x,y,z
x,-y,z
x,1/2+y,1/2+z
-x,1/2-y,1/2+z
-x,1/2+y,1/2+z
x,1/2-y,1/2+z
loop_
_atom_site_type_symbol
_atom_site_label
_atom_site_fract_x
_atom_site_fract_y
_atom_site_fract_z
Si Si1 0.682918 0.729388 0.695670
Si Si2 0.586724 0.620882 0.067358
Si Si3 0.417249 0.877405 0.352534
Si Si4 0.083601 0.378928 0.903879
Si Si5 0.774347 0.379022 0.536115
Si Si6 0.917246 0.886753 0.750835
Si Si7 0.082338 0.766036 0.083457
Si Si8 0.199078 0.721512 0.346567
O O1 0.634178 0.816026 0.643733
O O2 0.635480 0.666462 0.771943
O O3 0.716010 0.650572 0.618156
O O4 0.747217 0.784775 0.755962
O O5 0.500000 0.645423 0.082857
O O6 0.603052 0.500000 0.084917
O O7 0.610094 0.652715 0.959314
O O8 0.500000 0.832901 0.336278
O O9 0.418309 0.000000 0.343366
O O10 0.101028 0.500000 0.916740
O O11 0.151498 0.329455 0.843261
O O12 0.000000 0.363742 0.858993
O O13 0.086681 0.323180 0.004908
O O14 0.763956 0.500000 0.511703
O O15 0.858697 0.357928 0.570266
O O16 0.757468 0.304642 0.444639
O O17 0.898263 0.794539 0.679335
O O18 0.861161 0.872051 0.838946
O O19 0.000000 0.875872 0.792110
O O20 0.906393 0.000000 0.703174
O O21 0.000000 0.815882 0.087083
#
# Coordination Sequence:
#
# PCOD8178580 Si02
#       8
#     8   8   8   8   8   8   8   8
#     4  12  22  38  59  87 120 159 190 227 285 349
#     4   9  20  40  65  93 120 147 188 239 287 338
#     4   9  19  38  64  90 115 147 190 235 278 335
#     4   9  18  34  56  79 107 146 197 259 312 348
#     4  11  24  40  55  81 119 158 194 242 293 346
#     4  10  19  34  56  78 104 144 196 248 292 342
#     4   9  18  36  57  80 105 141 197 252 300 353
#     4  11  23  37  54  81 118 156 199 239 290 353
#
# _framework density 19.694343
#
# number of rings (size 3 to 8) (size 9 to 14) (size 15 to 20)
#    0.000    2.000    1.250    3.375    0.000    4.250 
#    0.000    1.875    0.000    0.000    0.000    5.250 
#    0.000    0.000    0.000    0.000    0.000    0.000 
#
# Total GULP energy -396600.711142 kJ/mol
# GULP energy per Si atom -12393.772223 kJ/mol
# Density = 1.964952 g / cm^3
# Si number density = 19.694343 Si / 1000 Ang^3
#
#
#
# Elastic Constant Matrix: (Units=GPa)
#
#
# Indices 1 2 3 4 5 6 
#
# 1 100.3324 43.6477 56.6275 0.0000 0.0000 0.0000
# 2 43.6477 83.8831 33.2903 0.0000 0.0000 0.0000
# 3 56.6275 33.2903 102.0271 0.0000 0.0000 0.0000
# 4 0.0000 0.0000 0.0000 22.3657 0.0000 0.0000
# 5 0.0000 0.0000 0.0000 0.0000 33.8237 0.0000
# 6 0.0000 0.0000 0.0000 0.0000 0.0000 25.7882
#
#
#
# Elastic Compliance Matrix: (Units=1/GPa)
#
#
# Indices 1 2 3 4 5 6 
#
# 1 0.016604 -0.005724 -0.007348 0.000000 0.000000 0.000000
# 2 -0.005724 0.015668 -0.001935 0.000000 0.000000 0.000000
# 3 -0.007348 -0.001935 0.014511 0.000000 0.000000 0.000000
# 4 0.000000 0.000000 0.000000 0.044711 0.000000 0.000000
# 5 0.000000 0.000000 0.000000 0.000000 0.029565 0.000000
# 6 0.000000 0.000000 0.000000 0.000000 0.000000 0.038777
#
#
# Mechanical properties :
#
#
# Convention : Reuss Voigt Hill
#
# Bulk Modulus (GPa) = 59.63505 61.48595 60.56050
# Shear Modulus (GPa) = 25.58322 26.57399 26.07861
#
# Velocity S-wave (km/s) = 3.60809 3.67730 3.64286
# Velocity P-wave (km/s) = 6.90679 7.02267 6.96497
#
# Compressibility (1/GPa) = 0.01676866
#
# Stress axis : x y z
#
# Youngs Moduli (GPa) = 60.22625 63.82581 68.91213
#
# Poissons Ratio (x) = 0.36531 0.50638
# Poissons Ratio (y) = 0.34471 0.13338
# Poissons Ratio (z) = 0.44255 0.12353
#
# Static dielectric constant tensor:
#      x y z
#    x 3.872440 0.000000 0.000000 
#    y 0.000000 3.363140 0.000000 
#    z 0.000000 0.000000 3.659180 
# 
# 
# High freq. dielectric constant tensor:
#      x y z
#    x 1.769230 0.000000 0.000000 
#    y 0.000000 1.754210 0.000000 
#    z 0.000000 0.000000 1.772610 
# 
# From -- ./inp_files/15280.got.cif
#   From: 2010.03.12/outbox.cif.g09.slc.cpg/sg38_8_cif.got.tgz:15280.got - 2010.04.14 02:38:36.
