data_PCOD8178670
_publ_section_title
;
Structure prediction by ZEFSAII (Michael W. Deem and Ramdas Pophale) SiO2 
 PCOD8178670
Probable space group: A M M 2
;
_chemical_formula_sum "Si O2"
_cell_formula_units_Z 64
_cell_length_a 8.924878
_cell_length_b 24.602393
_cell_length_c 14.938771
_cell_angle_alpha 90.000000
_cell_angle_beta 90.000000
_cell_angle_gamma 90.000000
_cell_volume 3280.156083
_symmetry_space_group_name_H-M "A M M 2"
_symmetry_group_IT_number 38
_symmetry_cell_setting 'orthorhombic'
loop_
_space_group_symop_operation_xyz
x,y,z
-x,-y,z
-x,y,z
x,-y,z
x,1/2+y,1/2+z
-x,1/2-y,1/2+z
-x,1/2+y,1/2+z
x,1/2-y,1/2+z
loop_
_atom_site_type_symbol
_atom_site_label
_atom_site_fract_x
_atom_site_fract_y
_atom_site_fract_z
Si Si1 0.172535 0.563950 0.844040
Si Si2 0.327558 0.937870 0.703608
Si Si3 0.824665 0.330390 0.529958
Si Si4 0.177331 0.890891 0.534989
Si Si5 0.325964 0.280701 0.006355
Si Si6 0.675628 0.365199 0.697607
Si Si7 0.825257 0.351547 0.326437
Si Si8 0.672281 0.241618 0.302914
O O1 0.195894 0.500000 0.843438
O O2 0.271666 0.588579 0.765302
O O3 0.000000 0.580142 0.828467
O O4 0.229975 0.586667 0.938954
O O5 0.500000 0.922249 0.688581
O O6 0.240474 0.930341 0.610785
O O7 0.260931 0.901196 0.782217
O O8 0.308994 0.000000 0.734403
O O9 0.740217 0.273961 0.547885
O O10 0.761882 0.372791 0.603321
O O11 0.787400 0.353374 0.431795
O O12 0.000000 0.321090 0.542195
O O13 0.242402 0.831036 0.551857
O O14 0.000000 0.889342 0.542789
O O15 0.500000 0.283747 0.031090
O O16 0.295910 0.282578 0.900717
O O17 0.500000 0.372077 0.682232
O O18 0.717120 0.305535 0.734524
O O19 0.772921 0.294353 0.283960
O O20 0.000000 0.358034 0.307032
O O21 0.500000 0.259297 0.293155
#
# Coordination Sequence:
#
# PCOD8178670 Si02
#       8
#     8   8   8   8   8   8   8   8
#     4  10  22  40  61  86 120 161 202 248 299 351
#     4  11  25  43  63  87 117 155 200 250 302 356
#     4  10  22  39  59  87 122 158 198 246 301 357
#     4  11  22  37  60  89 122 159 198 242 293 355
#     4  10  19  35  57  85 122 159 196 239 290 350
#     4  11  22  37  59  89 121 160 203 245 297 353
#     4  10  22  40  63  88 116 153 199 249 302 354
#     4   9  19  35  56  84 120 157 193 236 290 351
#
# _framework density 19.511267
#
# number of rings (size 3 to 8) (size 9 to 14) (size 15 to 20)
#    0.000    1.750    1.250    2.625    1.750    5.250 
#    0.000    0.625    0.000    0.750    0.000    0.000 
#    0.000    0.000    0.000    0.000    0.000    0.000 
#
# Total GULP energy -396971.977661 kJ/mol
# GULP energy per Si atom -12405.374302 kJ/mol
# Density = 1.946686 g / cm^3
# Si number density = 19.511267 Si / 1000 Ang^3
#
#
#
# Elastic Constant Matrix: (Units=GPa)
#
#
# Indices 1 2 3 4 5 6 
#
# 1 95.4701 46.9811 36.4663 0.0000 0.0000 0.0000
# 2 46.9811 88.7256 37.3128 0.0000 0.0000 0.0000
# 3 36.4663 37.3128 82.7851 0.0000 0.0000 0.0000
# 4 0.0000 0.0000 0.0000 29.2467 0.0000 0.0000
# 5 0.0000 0.0000 0.0000 0.0000 33.5828 0.0000
# 6 0.0000 0.0000 0.0000 0.0000 0.0000 31.7196
#
#
#
# Elastic Compliance Matrix: (Units=1/GPa)
#
#
# Indices 1 2 3 4 5 6 
#
# 1 0.015053 -0.006394 -0.003749 0.000000 0.000000 0.000000
# 2 -0.006394 0.016623 -0.004676 0.000000 0.000000 0.000000
# 3 -0.003749 -0.004676 0.015838 0.000000 0.000000 0.000000
# 4 0.000000 0.000000 0.000000 0.034192 0.000000 0.000000
# 5 0.000000 0.000000 0.000000 0.000000 0.029777 0.000000
# 6 0.000000 0.000000 0.000000 0.000000 0.000000 0.031526
#
#
# Mechanical properties :
#
#
# Convention : Reuss Voigt Hill
#
# Bulk Modulus (GPa) = 55.93839 56.50013 56.21926
# Shear Modulus (GPa) = 27.99469 28.65784 28.32626
#
# Velocity S-wave (km/s) = 3.79198 3.83663 3.81437
# Velocity P-wave (km/s) = 6.92128 6.97473 6.94806
#
# Compressibility (1/GPa) = 0.01787681
#
# Stress axis : x y z
#
# Youngs Moduli (GPa) = 66.43198 60.15843 63.13872
#
# Poissons Ratio (x) = 0.38467 0.23669
# Poissons Ratio (y) = 0.42478 0.29521
# Poissons Ratio (z) = 0.24904 0.28128
#
# Static dielectric constant tensor:
#      x y z
#    x 3.597530 0.000000 0.000000 
#    y 0.000000 3.416750 0.000000 
#    z 0.000000 0.000000 3.631940 
# 
# 
# High freq. dielectric constant tensor:
#      x y z
#    x 1.769530 0.000000 0.000000 
#    y 0.000000 1.749400 0.000000 
#    z 0.000000 0.000000 1.765540 
# 
# From -- ./inp_files/12724.got.cif
#   From: 2010.03.12/outbox.cif.g09.slc.cpg/sg38_7_cif.got.tgz:12724.got - 2010.04.14 02:38:36.
