data_PCOD8178641
_publ_section_title
;
Structure prediction by ZEFSAII (Michael W. Deem and Ramdas Pophale) SiO2 
 PCOD8178641
Probable space group: A M M 2
;
_chemical_formula_sum "Si O2"
_cell_formula_units_Z 64
_cell_length_a 8.715676
_cell_length_b 28.261092
_cell_length_c 12.513829
_cell_angle_alpha 90.000000
_cell_angle_beta 90.000000
_cell_angle_gamma 90.000000
_cell_volume 3082.337799
_symmetry_space_group_name_H-M "A M M 2"
_symmetry_group_IT_number 38
_symmetry_cell_setting 'orthorhombic'
loop_
_space_group_symop_operation_xyz
x,y,z
-x,-y,z
-x,y,z
x,-y,z
x,1/2+y,1/2+z
-x,1/2-y,1/2+z
-x,1/2+y,1/2+z
x,1/2-y,1/2+z
loop_
_atom_site_type_symbol
_atom_site_label
_atom_site_fract_x
_atom_site_fract_y
_atom_site_fract_z
Si Si1 0.673848 0.703454 0.006170
Si Si2 0.319296 0.597236 0.947620
Si Si3 0.677955 0.613817 0.543858
Si Si4 0.180283 0.055014 0.234800
Si Si5 0.827303 0.948189 0.879272
Si Si6 0.176452 0.201743 0.949506
Si Si7 0.327901 0.176148 0.736652
Si Si8 0.174719 0.414878 0.155525
O O1 0.500000 0.711748 0.966910
O O2 0.684634 0.710386 0.134228
O O3 0.730086 0.652295 0.962612
O O4 0.781432 0.743423 0.957605
O O5 0.500000 0.591123 0.959961
O O6 0.268220 0.577545 0.834183
O O7 0.234622 0.566302 0.040526
O O8 0.500000 0.611752 0.574049
O O9 0.774083 0.585102 0.631104
O O10 0.708916 0.589312 0.428821
O O11 0.728956 0.668548 0.532166
O O12 0.000000 0.059714 0.253771
O O13 0.227835 0.000000 0.219940
O O14 0.813309 0.952996 0.750658
O O15 0.000000 0.931801 0.909969
O O16 0.793714 0.000000 0.927603
O O17 0.205597 0.188530 0.826626
O O18 0.000000 0.193948 0.976388
O O19 0.500000 0.177392 0.785329
O O20 0.292813 0.125275 0.689317
O O21 0.000000 0.396559 0.143412
#
# Coordination Sequence:
#
# PCOD8178641 Si02
#       8
#     8   8   8   8   8   8   8   8
#     4   9  21  40  61  89 124 163 206 258 318 376
#     4  10  22  41  65  92 127 166 209 262 317 375
#     4  12  25  41  63  89 122 163 210 263 319 380
#     4  11  25  45  68  93 127 171 218 271 329 388
#     4  10  21  37  58  87 123 159 197 247 305 364
#     4  12  24  38  61  91 123 163 211 260 316 381
#     4  10  20  37  60  84 117 157 197 250 312 368
#     4  10  19  34  59  88 121 160 200 246 304 367
#
# _framework density 20.763461
#
# number of rings (size 3 to 8) (size 9 to 14) (size 15 to 20)
#    0.000    1.500    1.250    4.875    0.000    7.750 
#    0.000    2.500    0.000    0.000    0.000    0.000 
#    0.000    0.000    0.000    0.000    0.000    0.000 
#
# Total GULP energy -396740.318204 kJ/mol
# GULP energy per Si atom -12398.134944 kJ/mol
# Density = 2.071620 g / cm^3
# Si number density = 20.763461 Si / 1000 Ang^3
#
#
#
# Elastic Constant Matrix: (Units=GPa)
#
#
# Indices 1 2 3 4 5 6 
#
# 1 84.0005 25.9830 21.0588 0.0000 0.0000 0.0000
# 2 25.9830 74.6082 25.4401 0.0000 0.0000 0.0000
# 3 21.0588 25.4401 94.2519 0.0000 0.0000 0.0000
# 4 0.0000 0.0000 0.0000 22.7156 0.0000 0.0000
# 5 0.0000 0.0000 0.0000 0.0000 38.2047 0.0000
# 6 0.0000 0.0000 0.0000 0.0000 0.0000 24.6191
#
#
#
# Elastic Compliance Matrix: (Units=1/GPa)
#
#
# Indices 1 2 3 4 5 6 
#
# 1 0.013659 -0.004093 -0.001947 0.000000 0.000000 0.000000
# 2 -0.004093 0.015988 -0.003401 0.000000 0.000000 0.000000
# 3 -0.001947 -0.003401 0.011963 0.000000 0.000000 0.000000
# 4 0.000000 0.000000 0.000000 0.044023 0.000000 0.000000
# 5 0.000000 0.000000 0.000000 0.000000 0.026175 0.000000
# 6 0.000000 0.000000 0.000000 0.000000 0.000000 0.040619
#
#
# Mechanical properties :
#
#
# Convention : Reuss Voigt Hill
#
# Bulk Modulus (GPa) = 43.99836 44.20273 44.10054
# Shear Modulus (GPa) = 27.95097 29.13311 28.54204
#
# Velocity S-wave (km/s) = 3.67299 3.74985 3.71162
# Velocity P-wave (km/s) = 6.26291 6.33115 6.29712
#
# Compressibility (1/GPa) = 0.02272812
#
# Stress axis : x y z
#
# Youngs Moduli (GPa) = 73.21266 62.54514 83.59175
#
# Poissons Ratio (x) = 0.25599 0.16276
# Poissons Ratio (y) = 0.29965 0.28430
# Poissons Ratio (z) = 0.14255 0.21272
#
# Static dielectric constant tensor:
#      x y z
#    x 3.713240 0.000000 0.000000 
#    y 0.000000 3.727020 0.000000 
#    z 0.000000 0.000000 4.019180 
# 
# 
# High freq. dielectric constant tensor:
#      x y z
#    x 1.816200 0.000000 0.000000 
#    y 0.000000 1.802550 0.000000 
#    z 0.000000 0.000000 1.817520 
# 
# From -- ./inp_files/8610.got.cif
#   From: 2010.03.12/outbox.cif.g09.slc.cpg/sg38_5_cif.got.tgz:8610.got - 2010.04.14 02:38:36.
