data_PCOD8178105
_publ_section_title
;
Structure prediction by ZEFSAII (Michael W. Deem and Ramdas Pophale) SiO2 
 PCOD8178105
Probable space group: A M M 2
;
_chemical_formula_sum "Si O2"
_cell_formula_units_Z 64
_cell_length_a 8.718117
_cell_length_b 27.645050
_cell_length_c 14.598144
_cell_angle_alpha 90.000000
_cell_angle_beta 90.000000
_cell_angle_gamma 90.000000
_cell_volume 3518.339274
_symmetry_space_group_name_H-M "A M M 2"
_symmetry_group_IT_number 38
_symmetry_cell_setting 'orthorhombic'
loop_
_space_group_symop_operation_xyz
x,y,z
-x,-y,z
-x,y,z
x,-y,z
x,1/2+y,1/2+z
-x,1/2-y,1/2+z
-x,1/2+y,1/2+z
x,1/2-y,1/2+z
loop_
_atom_site_type_symbol
_atom_site_label
_atom_site_fract_x
_atom_site_fract_y
_atom_site_fract_z
Si Si1 0.679090 0.444726 0.984960
Si Si2 0.178208 0.555932 0.177974
Si Si3 0.819735 0.673112 0.467382
Si Si4 0.679689 0.364381 0.848033
Si Si5 0.320393 0.361943 0.292245
Si Si6 0.680690 0.723514 0.974716
Si Si7 0.178544 0.172837 0.173951
Si Si8 0.180863 0.717571 0.165046
O O1 0.500000 0.435340 0.005110
O O2 0.710571 0.500000 0.956761
O O3 0.741506 0.411385 0.902411
O O4 0.771504 0.430286 0.075691
O O5 0.213360 0.500000 0.198440
O O6 0.275356 0.586545 0.250349
O O7 0.000000 0.568427 0.189216
O O8 0.727292 0.638143 0.398954
O O9 0.773734 0.728526 0.449861
O O10 0.774565 0.657910 0.570742
O O11 0.000000 0.667744 0.450003
O O12 0.500000 0.368312 0.841775
O O13 0.730604 0.316044 0.900435
O O14 0.742357 0.363571 0.744845
O O15 0.500000 0.352943 0.280932
O O16 0.227691 0.318591 0.244965
O O17 0.500000 0.734226 0.972833
O O18 0.728586 0.702572 0.073494
O O19 0.229820 0.228115 0.193079
O O20 0.000000 0.167315 0.188338
O O21 0.000000 0.714689 0.145567
#
# Coordination Sequence:
#
# PCOD8178105 Si02
#       8
#     8   8   8   8   8   8   8   8
#     4   9  18  34  54  77 107 138 167 205 254 305
#     4  10  21  37  57  81 107 135 167 205 253 310
#     4  10  21  37  52  70 100 137 177 217 259 307
#     4  10  20  31  48  74 101 132 170 209 251 302
#     4  12  23  34  53  79 104 135 174 215 261 310
#     4  10  19  31  48  75 108 138 172 213 257 307
#     4   9  20  35  51  71  98 135 174 213 256 300
#     4  10  20  34  51  74 105 140 175 212 257 309
#
# _framework density 18.1904
#
# number of rings (size 3 to 8) (size 9 to 14) (size 15 to 20)
#    0.000    2.000    0.000    4.875    0.000    8.250 
#    0.000    0.000    0.000    0.750    0.000    3.500 
#    0.000    0.000    0.000    0.000    0.000    0.000 
#
# Total GULP energy -396891.141090 kJ/mol
# GULP energy per Si atom -12402.848159 kJ/mol
# Density = 1.814900 g / cm^3
# Si number density = 18.190400 Si / 1000 Ang^3
#
#
#
# Elastic Constant Matrix: (Units=GPa)
#
#
# Indices 1 2 3 4 5 6 
#
# 1 39.3379 29.1005 28.2620 0.0000 0.0000 0.0000
# 2 29.1005 75.2732 61.8433 0.0000 0.0000 0.0000
# 3 28.2620 61.8433 122.0047 0.0000 0.0000 0.0000
# 4 0.0000 0.0000 0.0000 31.4608 0.0000 0.0000
# 5 0.0000 0.0000 0.0000 0.0000 34.4911 0.0000
# 6 0.0000 0.0000 0.0000 0.0000 0.0000 24.9678
#
#
#
# Elastic Compliance Matrix: (Units=1/GPa)
#
#
# Indices 1 2 3 4 5 6 
#
# 1 0.035943 -0.012090 -0.002198 0.000000 0.000000 0.000000
# 2 -0.012090 0.026832 -0.010801 0.000000 0.000000 0.000000
# 3 -0.002198 -0.010801 0.014180 0.000000 0.000000 0.000000
# 4 0.000000 0.000000 0.000000 0.031786 0.000000 0.000000
# 5 0.000000 0.000000 0.000000 0.000000 0.028993 0.000000
# 6 0.000000 0.000000 0.000000 0.000000 0.000000 0.040052
#
#
# Mechanical properties :
#
#
# Convention : Reuss Voigt Hill
#
# Bulk Modulus (GPa) = 37.34217 52.78082 45.06149
# Shear Modulus (GPa) = 21.10690 26.01129 23.55909
#
# Velocity S-wave (km/s) = 3.41006 3.78556 3.60271
# Velocity P-wave (km/s) = 6.00648 6.94162 6.49091
#
# Compressibility (1/GPa) = 0.02677938
#
# Stress axis : x y z
#
# Youngs Moduli (GPa) = 27.82156 37.26830 70.52044
#
# Poissons Ratio (x) = 0.45057 0.15500
# Poissons Ratio (y) = 0.33636 0.76166
# Poissons Ratio (z) = 0.06115 0.40252
#
# Static dielectric constant tensor:
#      x y z
#    x 3.332500 0.000000 0.000000 
#    y 0.000000 3.285550 0.000000 
#    z 0.000000 0.000000 3.574810 
# 
# 
# High freq. dielectric constant tensor:
#      x y z
#    x 1.710380 0.000000 0.000000 
#    y 0.000000 1.683120 0.000000 
#    z 0.000000 0.000000 1.706620 
# 
# From -- ./inp_files/13129.got.cif
#   From: 2010.03.12/outbox.cif.g09.slc.cpg/sg38_7_cif.got.tgz:13129.got - 2010.04.14 02:38:36.
