data_PCOD8178833
_publ_section_title
;
Structure prediction by ZEFSAII (Michael W. Deem and Ramdas Pophale) SiO2 
 PCOD8178833
Probable space group: A M M 2
;
_chemical_formula_sum "Si O2"
_cell_formula_units_Z 64
_cell_length_a 13.774335
_cell_length_b 28.299679
_cell_length_c 10.061919
_cell_angle_alpha 90.000000
_cell_angle_beta 90.000000
_cell_angle_gamma 90.000000
_cell_volume 3922.229189
_symmetry_space_group_name_H-M "A M M 2"
_symmetry_group_IT_number 38
_symmetry_cell_setting 'orthorhombic'
loop_
_space_group_symop_operation_xyz
x,y,z
-x,-y,z
-x,y,z
x,-y,z
x,1/2+y,1/2+z
-x,1/2-y,1/2+z
-x,1/2+y,1/2+z
x,1/2-y,1/2+z
loop_
_atom_site_type_symbol
_atom_site_label
_atom_site_fract_x
_atom_site_fract_y
_atom_site_fract_z
Si Si1 0.197550 0.353301 0.329620
Si Si2 0.886952 0.643525 0.817730
Si Si3 0.115555 0.448650 0.949655
Si Si4 0.607594 0.272981 0.080539
Si Si5 0.886190 0.446725 0.252605
Si Si6 0.808202 0.696167 0.060405
Si Si7 0.392409 0.804382 0.867749
Si Si8 0.886123 0.200629 0.070749
O O1 0.172805 0.408987 0.342321
O O2 0.163497 0.336347 0.184412
O O3 0.312135 0.345528 0.356566
O O4 0.133663 0.322178 0.428851
O O5 0.839593 0.592723 0.856733
O O6 0.844220 0.664178 0.681317
O O7 0.000000 0.635823 0.798768
O O8 0.869798 0.680990 0.934227
O O9 0.151363 0.500000 0.897174
O O10 0.000000 0.446834 0.948247
O O11 0.149922 0.441417 0.100955
O O12 0.500000 0.292949 0.044318
O O13 0.692162 0.308478 0.031149
O O14 0.617973 0.268266 0.241619
O O15 0.622967 0.223009 0.006513
O O16 0.864222 0.500000 0.303684
O O17 0.000000 0.435677 0.265483
O O18 0.829950 0.750632 0.092141
O O19 0.500000 0.827625 0.865549
O O20 0.000000 0.210225 0.089426
#
# Coordination Sequence:
#
# PCOD8178833 Si02
#       8
#     8   8   8   8   8   8   8   8
#     4  11  20  32  50  70  95 127 161 199 239 283
#     4  10  20  32  45  66  95 125 159 195 229 273
#     4   8  14  28  49  68  85 113 157 201 234 267
#     4   9  18  31  46  66  90 120 157 194 231 272
#     4   9  17  30  49  71  93 122 164 205 235 274
#     4  11  20  31  48  66  91 130 162 189 227 275
#     4   9  18  32  50  70  93 123 158 199 242 282
#     4  11  23  32  41  65 100 130 157 190 230 281
#
# _framework density 16.317250999999999
#
# number of rings (size 3 to 8) (size 9 to 14) (size 15 to 20)
#    0.000    2.250    2.500    2.250    1.750    2.500 
#    0.000    0.625    0.000    2.625    0.000    0.000 
#    0.000    0.500    0.000    0.000    0.000    0.000 
#
# Total GULP energy -396578.415790 kJ/mol
# GULP energy per Si atom -12393.075493 kJ/mol
# Density = 1.628011 g / cm^3
# Si number density = 16.317251 Si / 1000 Ang^3
#
#
#
# Elastic Constant Matrix: (Units=GPa)
#
#
# Indices 1 2 3 4 5 6 
#
# 1 41.2829 32.9329 24.3457 0.0000 0.0000 0.0000
# 2 32.9329 108.9438 25.6593 0.0000 0.0000 0.0000
# 3 24.3457 25.6593 49.8921 0.0000 0.0000 0.0000
# 4 0.0000 0.0000 0.0000 19.2301 0.0000 0.0000
# 5 0.0000 0.0000 0.0000 0.0000 17.3881 0.0000
# 6 0.0000 0.0000 0.0000 0.0000 0.0000 15.4691
#
#
#
# Elastic Compliance Matrix: (Units=1/GPa)
#
#
# Indices 1 2 3 4 5 6 
#
# 1 0.039918 -0.008510 -0.015102 0.000000 0.000000 0.000000
# 2 -0.008510 0.012258 -0.002152 0.000000 0.000000 0.000000
# 3 -0.015102 -0.002152 0.028519 0.000000 0.000000 0.000000
# 4 0.000000 0.000000 0.000000 0.052002 0.000000 0.000000
# 5 0.000000 0.000000 0.000000 0.000000 0.057511 0.000000
# 6 0.000000 0.000000 0.000000 0.000000 0.000000 0.064645
#
#
# Mechanical properties :
#
#
# Convention : Reuss Voigt Hill
#
# Bulk Modulus (GPa) = 34.28428 40.66608 37.47518
# Shear Modulus (GPa) = 15.81762 18.22952 17.02357
#
# Velocity S-wave (km/s) = 3.11686 3.34607 3.23350
# Velocity P-wave (km/s) = 5.83179 6.31700 6.07924
#
# Compressibility (1/GPa) = 0.02916788
#
# Stress axis : x y z
#
# Youngs Moduli (GPa) = 25.05139 81.57700 35.06403
#
# Poissons Ratio (x) = 0.69422 0.52954
# Poissons Ratio (y) = 0.21319 0.07545
# Poissons Ratio (z) = 0.37833 0.17554
#
# Static dielectric constant tensor:
#      x y z
#    x 3.060550 0.000000 0.000000 
#    y 0.000000 3.148300 0.000000 
#    z 0.000000 0.000000 3.137940 
# 
# 
# High freq. dielectric constant tensor:
#      x y z
#    x 1.608310 0.000000 0.000000 
#    y 0.000000 1.607000 0.000000 
#    z 0.000000 0.000000 1.625870 
# 
# From -- ./inp_files/5981.got.cif
#   From: 2010.03.12/outbox.cif.g09.slc.cpg/sg38_3_cif.got.tgz:5981.got - 2010.04.14 02:38:36.
