data_PCOD8178323
_publ_section_title
;
Structure prediction by ZEFSAII (Michael W. Deem and Ramdas Pophale) SiO2 
 PCOD8178323
Probable space group: A M M 2
;
_chemical_formula_sum "Si O2"
_cell_formula_units_Z 64
_cell_length_a 20.824288
_cell_length_b 8.753845
_cell_length_c 18.812988
_cell_angle_alpha 90.000000
_cell_angle_beta 90.000000
_cell_angle_gamma 90.000000
_cell_volume 3429.468297
_symmetry_space_group_name_H-M "A M M 2"
_symmetry_group_IT_number 38
_symmetry_cell_setting 'orthorhombic'
loop_
_space_group_symop_operation_xyz
x,y,z
-x,-y,z
-x,y,z
x,-y,z
x,1/2+y,1/2+z
-x,1/2-y,1/2+z
-x,1/2+y,1/2+z
x,1/2-y,1/2+z
loop_
_atom_site_type_symbol
_atom_site_label
_atom_site_fract_x
_atom_site_fract_y
_atom_site_fract_z
Si Si1 0.792477 0.823208 0.210400
Si Si2 0.573022 0.824334 0.216422
Si Si3 0.793529 0.181380 0.864526
Si Si4 0.682050 0.678873 0.606521
Si Si5 0.068211 0.826458 0.222187
Si Si6 0.932203 0.321718 0.369891
Si Si7 0.425547 0.677152 0.362751
Si Si8 0.680846 0.178400 0.454437
O O1 0.781163 0.740883 0.285199
O O2 0.742986 0.761892 0.151858
O O3 0.865348 0.796473 0.179305
O O4 0.777652 0.000000 0.224301
O O5 0.500000 0.787075 0.194038
O O6 0.617245 0.785484 0.149590
O O7 0.595010 0.722695 0.283106
O O8 0.581006 0.000000 0.239537
O O9 0.862907 0.241509 0.896519
O O10 0.739186 0.235936 0.917209
O O11 0.793202 0.000000 0.860935
O O12 0.687859 0.500000 0.587358
O O13 0.679417 0.778850 0.536500
O O14 0.066865 0.707583 0.286000
O O15 0.000000 0.806254 0.178602
O O16 0.071424 0.000000 0.252282
O O17 0.933999 0.500000 0.384429
O O18 0.000000 0.251978 0.402439
O O19 0.500000 0.715458 0.375264
O O20 0.410209 0.500000 0.374050
O O21 0.386337 0.773430 0.419886
O O22 0.691180 0.000000 0.445038
#
# Coordination Sequence:
#
# PCOD8178323 Si02
#       8
#     8   8   8   8   8   8   8   8
#     4   9  17  30  50  75 102 133 169 210 257 308
#     4   9  18  34  57  83 109 136 166 203 249 301
#     4  10  19  32  53  78 105 137 173 215 260 309
#     4  10  21  36  52  72 101 137 174 212 255 301
#     4   8  13  22  39  66  98 128 160 201 249 301
#     4   8  14  25  43  70 101 130 163 206 256 306
#     4  10  21  38  61  86 110 136 168 208 253 304
#     4  12  25  38  53  74 104 141 179 219 259 303
#
# _framework density 18.661785999999999
#
# number of rings (size 3 to 8) (size 9 to 14) (size 15 to 20)
#    0.000    2.500    0.000    2.625    0.000    3.750 
#    0.000    1.250    0.000    0.750    0.000    3.500 
#    0.000    0.000    0.000    0.000    0.000    0.000 
#
# Total GULP energy -396442.802507 kJ/mol
# GULP energy per Si atom -12388.837578 kJ/mol
# Density = 1.861931 g / cm^3
# Si number density = 18.661786 Si / 1000 Ang^3
#
#
#
# Elastic Constant Matrix: (Units=GPa)
#
#
# Indices 1 2 3 4 5 6 
#
# 1 135.2606 18.4851 55.9603 0.0000 0.0000 0.0000
# 2 18.4851 30.9944 19.0139 0.0000 0.0000 0.0000
# 3 55.9603 19.0139 81.9990 0.0000 0.0000 0.0000
# 4 0.0000 0.0000 0.0000 14.6680 0.0000 0.0000
# 5 0.0000 0.0000 0.0000 0.0000 2.7121 0.0000
# 6 0.0000 0.0000 0.0000 0.0000 0.0000 11.5313
#
#
#
# Elastic Compliance Matrix: (Units=1/GPa)
#
#
# Indices 1 2 3 4 5 6 
#
# 1 0.010424 -0.002160 -0.006613 0.000000 0.000000 0.000000
# 2 -0.002160 0.038062 -0.007352 0.000000 0.000000 0.000000
# 3 -0.006613 -0.007352 0.018413 0.000000 0.000000 0.000000
# 4 0.000000 0.000000 0.000000 0.068176 0.000000 0.000000
# 5 0.000000 0.000000 0.000000 0.000000 0.368724 0.000000
# 6 0.000000 0.000000 0.000000 0.000000 0.000000 0.086720
#
#
# Mechanical properties :
#
#
# Convention : Reuss Voigt Hill
#
# Bulk Modulus (GPa) = 28.86032 48.35252 38.60642
# Shear Modulus (GPa) = 7.88246 16.10191 11.99219
#
# Velocity S-wave (km/s) = 2.05743 2.94058 2.53772
# Velocity P-wave (km/s) = 4.59810 6.12336 5.41470
#
# Compressibility (1/GPa) = 0.03464965
#
# Stress axis : x y z
#
# Youngs Moduli (GPa) = 95.92883 26.27280 54.30886
#
# Poissons Ratio (x) = 0.05675 0.35916
# Poissons Ratio (y) = 0.20722 0.39926
# Poissons Ratio (z) = 0.63440 0.19315
#
# Static dielectric constant tensor:
#      x y z
#    x 4.227000 0.000000 0.000000 
#    y 0.000000 3.401640 0.000000 
#    z 0.000000 0.000000 3.016390 
# 
# 
# High freq. dielectric constant tensor:
#      x y z
#    x 1.759650 0.000000 0.000000 
#    y 0.000000 1.718370 0.000000 
#    z 0.000000 0.000000 1.673680 
# 
# From -- ./inp_files/15811.got.cif
#   From: 2010.03.12/outbox.cif.g09.slc.cpg/sg38_8_cif.got.tgz:15811.got - 2010.04.14 02:38:36.
