data_PCOD8178933
_publ_section_title
;
Structure prediction by ZEFSAII (Michael W. Deem and Ramdas Pophale) SiO2 
 PCOD8178933
Probable space group: A M M 2
;
_chemical_formula_sum "Si O2"
_cell_formula_units_Z 64
_cell_length_a 15.361377
_cell_length_b 8.916793
_cell_length_c 30.548648
_cell_angle_alpha 90.000000
_cell_angle_beta 90.000000
_cell_angle_gamma 90.000000
_cell_volume 4184.377198
_symmetry_space_group_name_H-M "A M M 2"
_symmetry_group_IT_number 38
_symmetry_cell_setting 'orthorhombic'
loop_
_space_group_symop_operation_xyz
x,y,z
-x,-y,z
-x,y,z
x,-y,z
x,1/2+y,1/2+z
-x,1/2-y,1/2+z
-x,1/2+y,1/2+z
x,1/2-y,1/2+z
loop_
_atom_site_type_symbol
_atom_site_label
_atom_site_fract_x
_atom_site_fract_y
_atom_site_fract_z
Si Si1 0.896221 0.330879 0.098930
Si Si2 0.229347 0.177345 0.856982
Si Si3 0.223980 0.820524 0.263340
Si Si4 0.896703 0.668159 0.513089
Si Si5 0.900152 0.675384 0.686360
Si Si6 0.595550 0.668089 0.861009
Si Si7 0.408853 0.167595 0.257078
Si Si8 0.897787 0.825503 0.424581
O O1 0.861569 0.500000 0.096088
O O2 0.858239 0.240172 0.057508
O O3 0.861582 0.257882 0.143821
O O4 0.000000 0.325166 0.098295
O O5 0.206080 0.245266 0.809771
O O6 0.323853 0.228017 0.875939
O O7 0.153472 0.231220 0.888784
O O8 0.228740 0.000000 0.853605
O O9 0.150033 0.770355 0.229592
O O10 0.316611 0.760713 0.242599
O O11 0.226957 0.000000 0.270120
O O12 0.859371 0.500000 0.507749
O O13 0.867465 0.769227 0.472261
O O14 0.000000 0.663855 0.516245
O O15 0.887936 0.500000 0.678228
O O16 0.000000 0.718874 0.694249
O O17 0.500000 0.727511 0.877449
O O18 0.610892 0.500000 0.879317
O O19 0.594867 0.663231 0.809103
O O20 0.500000 0.251100 0.242446
O O21 0.413966 0.000000 0.238177
O O22 0.000000 0.796223 0.417346
O O23 0.874709 0.000000 0.420295
#
# Coordination Sequence:
#
# PCOD8178933 Si02
#       8
#     8   8   8   8   8   8   8   8
#     4   9  16  26  41  60  81 105 133 165 204 251
#     4  11  21  30  42  62  89 117 145 180 219 257
#     4   9  17  29  42  56  78 110 147 179 207 246
#     4   9  16  27  44  64  84 104 130 169 215 256
#     4   9  17  28  41  57  78 106 140 176 210 243
#     4   8  14  27  46  63  80 106 140 176 214 256
#     4   7  10  19  37  57  73  93 126 168 209 244
#     4  10  20  33  47  61  81 113 151 184 212 249
#
# _framework density 15.294987000000001
#
# number of rings (size 3 to 8) (size 9 to 14) (size 15 to 20)
#    0.000    3.000    0.000    3.750    0.000    5.000 
#    0.000    1.250    0.000    0.000    0.000    0.000 
#    0.000    1.000    0.000    5.000    0.000    3.375 
#
# Total GULP energy -396457.669209 kJ/mol
# GULP energy per Si atom -12389.302163 kJ/mol
# Density = 1.526018 g / cm^3
# Si number density = 15.294987 Si / 1000 Ang^3
#
#
#
# Elastic Constant Matrix: (Units=GPa)
#
#
# Indices 1 2 3 4 5 6 
#
# 1 70.2115 31.1584 45.3603 0.0000 0.0000 0.0000
# 2 31.1584 72.2517 38.6140 0.0000 0.0000 0.0000
# 3 45.3603 38.6140 88.2277 0.0000 0.0000 0.0000
# 4 0.0000 0.0000 0.0000 23.9816 0.0000 0.0000
# 5 0.0000 0.0000 0.0000 0.0000 0.5200 0.0000
# 6 0.0000 0.0000 0.0000 0.0000 0.0000 13.9423
#
#
#
# Elastic Compliance Matrix: (Units=1/GPa)
#
#
# Indices 1 2 3 4 5 6 
#
# 1 0.022431 -0.004582 -0.009527 0.000000 0.000000 0.000000
# 2 -0.004582 0.019002 -0.005961 0.000000 0.000000 0.000000
# 3 -0.009527 -0.005961 0.018841 0.000000 0.000000 0.000000
# 4 0.000000 0.000000 0.000000 0.041699 0.000000 0.000000
# 5 0.000000 0.000000 0.000000 0.000000 1.922975 0.000000
# 6 0.000000 0.000000 0.000000 0.000000 0.000000 0.071724
#
#
# Mechanical properties :
#
#
# Convention : Reuss Voigt Hill
#
# Bulk Modulus (GPa) = 49.66499 51.21735 50.44117
# Shear Modulus (GPa) = 2.33261 15.39266 8.86264
#
# Velocity S-wave (km/s) = 1.23628 3.17580 2.40978
# Velocity P-wave (km/s) = 5.88046 6.85614 6.38696
#
# Compressibility (1/GPa) = 0.02013491
#
# Stress axis : x y z
#
# Youngs Moduli (GPa) = 44.58128 52.62576 53.07464
#
# Poissons Ratio (x) = 0.24111 0.50565
# Poissons Ratio (y) = 0.20425 0.31638
# Poissons Ratio (z) = 0.42473 0.31370
#
# Static dielectric constant tensor:
#      x y z
#    x 3.237890 0.000000 0.000000 
#    y 0.000000 2.908050 0.000000 
#    z 0.000000 0.000000 2.790830 
# 
# 
# High freq. dielectric constant tensor:
#      x y z
#    x 1.564890 0.000000 0.000000 
#    y 0.000000 1.580560 0.000000 
#    z 0.000000 0.000000 1.558630 
# 
# From -- ./inp_files/24036.got.cif
#   From: 2010.03.12/outbox.cif.g09.slc.cpg/sg38_13_cif.got.tgz:24036.got - 2010.04.14 02:38:36.
