data_PCOD8178339
_publ_section_title
;
Structure prediction by ZEFSAII (Michael W. Deem and Ramdas Pophale) SiO2 
 PCOD8178339
Probable space group: A M M 2
;
_chemical_formula_sum "Si O2"
_cell_formula_units_Z 64
_cell_length_a 16.405727
_cell_length_b 9.161993
_cell_length_c 22.488835
_cell_angle_alpha 90.000000
_cell_angle_beta 90.000000
_cell_angle_gamma 90.000000
_cell_volume 3380.277807
_symmetry_space_group_name_H-M "A M M 2"
_symmetry_group_IT_number 38
_symmetry_cell_setting 'orthorhombic'
loop_
_space_group_symop_operation_xyz
x,y,z
-x,-y,z
-x,y,z
x,-y,z
x,1/2+y,1/2+z
-x,1/2-y,1/2+z
-x,1/2+y,1/2+z
x,1/2-y,1/2+z
loop_
_atom_site_type_symbol
_atom_site_label
_atom_site_fract_x
_atom_site_fract_y
_atom_site_fract_z
Si Si1 0.751612 0.326679 0.350400
Si Si2 0.407457 0.329168 0.274496
Si Si3 0.907481 0.830083 0.295500
Si Si4 0.091901 0.841577 0.157713
Si Si5 0.216000 0.333081 0.098344
Si Si6 0.722625 0.831757 0.470367
Si Si7 0.409947 0.159832 0.027603
Si Si8 0.641015 0.330851 0.656518
O O1 0.756775 0.500000 0.350453
O O2 0.666833 0.275910 0.317796
O O3 0.835015 0.265198 0.323015
O O4 0.752385 0.268666 0.417287
O O5 0.500000 0.296906 0.299871
O O6 0.397106 0.500000 0.262997
O O7 0.400391 0.249090 0.211637
O O8 0.901104 0.798552 0.226159
O O9 0.000000 0.786694 0.317311
O O10 0.892437 0.000000 0.310521
O O11 0.125852 0.711773 0.116934
O O12 0.000000 0.855703 0.137691
O O13 0.134422 0.000000 0.146602
O O14 0.236233 0.500000 0.112296
O O15 0.270933 0.234485 0.141554
O O16 0.222440 0.300625 0.028303
O O17 0.632108 0.785833 0.489610
O O18 0.723868 0.000000 0.450692
O O19 0.500000 0.153673 0.002012
O O20 0.413279 0.195727 0.097793
O O21 0.367755 0.000000 0.018261
O O22 0.649308 0.500000 0.673345
#
# Coordination Sequence:
#
# PCOD8178339 Si02
#       8
#     8   8   8   8   8   8   8   8
#     4  11  23  38  57  80 107 144 189 233 276 321
#     4  10  22  38  54  77 112 149 182 222 275 330
#     4   9  19  37  60  85 113 144 177 218 272 329
#     4   9  18  33  55  84 114 141 170 208 259 319
#     4  10  20  34  53  78 107 140 177 217 267 323
#     4  10  22  38  54  74 102 139 183 225 266 317
#     4   9  18  33  53  77 105 136 172 219 272 321
#     4  10  19  32  53  80 108 139 177 220 267 321
#
# _framework density 18.933354999999999
#
# number of rings (size 3 to 8) (size 9 to 14) (size 15 to 20)
#    0.000    2.250    0.000    3.375    0.000    7.500 
#    0.000    3.125    0.000    0.750    0.000    0.000 
#    0.000    0.000    0.000    0.000    0.000    0.000 
#
# Total GULP energy -396551.879067 kJ/mol
# GULP energy per Si atom -12392.246221 kJ/mol
# Density = 1.889026 g / cm^3
# Si number density = 18.933355 Si / 1000 Ang^3
#
#
#
# Elastic Constant Matrix: (Units=GPa)
#
#
# Indices 1 2 3 4 5 6 
#
# 1 121.5037 55.8505 57.2680 0.0000 0.0000 0.0000
# 2 55.8505 73.9985 45.2964 0.0000 0.0000 0.0000
# 3 57.2680 45.2964 61.8257 0.0000 0.0000 0.0000
# 4 0.0000 0.0000 0.0000 32.2941 0.0000 0.0000
# 5 0.0000 0.0000 0.0000 0.0000 0.5145 0.0000
# 6 0.0000 0.0000 0.0000 0.0000 0.0000 31.0582
#
#
#
# Elastic Compliance Matrix: (Units=1/GPa)
#
#
# Indices 1 2 3 4 5 6 
#
# 1 0.015692 -0.005342 -0.010621 0.000000 0.000000 0.000000
# 2 -0.005342 0.026321 -0.014336 0.000000 0.000000 0.000000
# 3 -0.010621 -0.014336 0.036516 0.000000 0.000000 0.000000
# 4 0.000000 0.000000 0.000000 0.030965 0.000000 0.000000
# 5 0.000000 0.000000 0.000000 0.000000 1.943608 0.000000
# 6 0.000000 0.000000 0.000000 0.000000 0.000000 0.032198
#
#
# Mechanical properties :
#
#
# Convention : Reuss Voigt Hill
#
# Bulk Modulus (GPa) = 55.77064 63.79531 59.78297
# Shear Modulus (GPa) = 2.32355 19.36755 10.84555
#
# Velocity S-wave (km/s) = 1.10901 3.20180 2.39598
# Velocity P-wave (km/s) = 5.58212 6.88742 6.26884
#
# Compressibility (1/GPa) = 0.01793058
#
# Stress axis : x y z
#
# Youngs Moduli (GPa) = 63.72783 37.99263 27.38521
#
# Poissons Ratio (x) = 0.20295 0.29087
# Poissons Ratio (y) = 0.34042 0.39259
# Poissons Ratio (z) = 0.67687 0.54466
#
# Static dielectric constant tensor:
#      x y z
#    x 3.629600 0.000000 0.000000 
#    y 0.000000 3.578980 0.000000 
#    z 0.000000 0.000000 3.364020 
# 
# 
# High freq. dielectric constant tensor:
#      x y z
#    x 1.736640 0.000000 0.000000 
#    y 0.000000 1.739770 0.000000 
#    z 0.000000 0.000000 1.722340 
# 
# From -- ./inp_files/21418.got.cif
#   From: 2010.03.12/outbox.cif.g09.slc.cpg/sg38_11_cif.got.tgz:21418.got - 2010.04.14 02:38:36.
