data_PCOD8178513
_publ_section_title
;
Structure prediction by ZEFSAII (Michael W. Deem and Ramdas Pophale) SiO2 
 PCOD8178513
Probable space group: A M M 2
;
_chemical_formula_sum "Si O2"
_cell_formula_units_Z 40
_cell_length_a 8.886872
_cell_length_b 7.731941
_cell_length_c 28.884418
_cell_angle_alpha 90.000000
_cell_angle_beta 90.000000
_cell_angle_gamma 90.000000
_cell_volume 1984.728370
_symmetry_space_group_name_H-M "A M M 2"
_symmetry_group_IT_number 38
_symmetry_cell_setting 'orthorhombic'
loop_
_space_group_symop_operation_xyz
x,y,z
-x,-y,z
-x,y,z
x,-y,z
x,1/2+y,1/2+z
-x,1/2-y,1/2+z
-x,1/2+y,1/2+z
x,1/2-y,1/2+z
loop_
_atom_site_type_symbol
_atom_site_label
_atom_site_fract_x
_atom_site_fract_y
_atom_site_fract_z
Si Si1 0.322047 0.000000 0.090370
Si Si2 0.173100 0.304956 0.034821
Si Si3 0.179480 0.500000 0.690539
Si Si4 0.330763 0.802519 0.946734
Si Si5 0.171825 0.796158 0.355474
Si Si6 0.821719 0.807043 0.755180
O O1 0.271124 0.825833 0.064861
O O2 0.500000 0.000000 0.092841
O O3 0.253941 0.000000 0.141022
O O4 0.192151 0.500000 0.054290
O O5 0.000000 0.246319 0.037019
O O6 0.226456 0.305475 0.981517
O O7 0.238505 0.330395 0.717824
O O8 0.000000 0.500000 0.685068
O O9 0.500000 0.728012 0.948250
O O10 0.269874 0.792435 0.894871
O O11 0.329209 0.000000 0.963557
O O12 0.240486 0.736758 0.306252
O O13 0.000000 0.732881 0.360656
O O14 0.183485 0.000000 0.359961
O O15 0.000000 0.790327 0.757300
O O16 0.770521 0.000000 0.740392
#
# Coordination Sequence:
#
# PCOD8178513 Si02
#       6
#     4   8   4   8   8   8
#     4  12  26  44  66  94 128 168 206 254 323 388
#     4  11  24  43  68  95 122 159 210 264 313 367
#     4  10  20  38  62  88 118 156 208 264 309 366
#     4  11  23  37  55  85 125 167 205 249 310 373
#     4  10  19  33  55  85 119 158 205 255 304 359
#     4   9  17  32  57  87 118 153 198 256 312 355
#
# _framework density 20.153890000000001
#
# number of rings (size 3 to 8) (size 9 to 14) (size 15 to 20)
#    0.000    1.600    2.000    3.300    0.000    7.200 
#    0.000    3.000    0.000    1.200    0.000    0.000 
#    0.000    0.000    0.000    0.000    0.000    0.000 
#
# Total GULP energy -248050.231736 kJ/mol
# GULP energy per Si atom -12402.511587 kJ/mol
# Density = 2.010802 g / cm^3
# Si number density = 20.153890 Si / 1000 Ang^3
#
#
#
# Elastic Constant Matrix: (Units=GPa)
#
#
# Indices 1 2 3 4 5 6 
#
# 1 72.4399 33.8318 36.8080 0.0000 0.0000 0.0000
# 2 33.8318 114.2638 50.8472 0.0000 0.0000 0.0000
# 3 36.8080 50.8472 140.3705 0.0000 0.0000 0.0000
# 4 0.0000 0.0000 0.0000 24.6933 0.0000 0.0000
# 5 0.0000 0.0000 0.0000 0.0000 -9.9312 0.0000
# 6 0.0000 0.0000 0.0000 0.0000 0.0000 14.5925
#
#
#
# Elastic Compliance Matrix: (Units=1/GPa)
#
#
# Indices 1 2 3 4 5 6 
#
# 1 0.017122 -0.003662 -0.003163 0.000000 0.000000 0.000000
# 2 -0.003662 0.011217 -0.003103 0.000000 0.000000 0.000000
# 3 -0.003163 -0.003103 0.009077 0.000000 0.000000 0.000000
# 4 0.000000 0.000000 0.000000 0.040497 0.000000 0.000000
# 5 0.000000 0.000000 0.000000 0.000000 -0.100693 0.000000
# 6 0.000000 0.000000 0.000000 0.000000 0.000000 0.068528
#
#
# Mechanical properties :
#
#
# Convention : Reuss Voigt Hill
#
# Bulk Modulus (GPa) = 56.94728 63.33868 60.14298
# Shear Modulus (GPa) = 69.97152 19.57675 44.77413
#
# Velocity S-wave (km/s) = 5.89864 3.12005 4.71851
# Velocity P-wave (km/s) = 8.64347 6.66899 7.71962
#
# Compressibility (1/GPa) = 0.01756010
#
# Stress axis : x y z
#
# Youngs Moduli (GPa) = 58.40400 89.15291 110.16317
#
# Poissons Ratio (x) = 0.32647 0.34848
# Poissons Ratio (y) = 0.21387 0.34182
# Poissons Ratio (z) = 0.18475 0.27663
#
# Static dielectric constant tensor:
#      x y z
#    x 3.443360 0.000000 0.000000 
#    y 0.000000 3.792960 0.000000 
#    z 0.000000 0.000000 3.676020 
# 
# 
# High freq. dielectric constant tensor:
#      x y z
#    x 1.760980 0.000000 0.000000 
#    y 0.000000 1.801890 0.000000 
#    z 0.000000 0.000000 1.788000 
# 
# From -- ./inp_files/23204.got.cif
#   From: 2010.03.12/outbox.cif.g09.slc.cpg/sg38_12_cif.got.tgz:23204.got - 2010.04.14 02:38:36.
