data_PCOD8178718
_publ_section_title
;
Structure prediction by ZEFSAII (Michael W. Deem and Ramdas Pophale) SiO2 
 PCOD8178718
Probable space group: A M M 2
;
_chemical_formula_sum "Si O2"
_cell_formula_units_Z 64
_cell_length_a 23.738051
_cell_length_b 8.677779
_cell_length_c 15.369791
_cell_angle_alpha 90.000000
_cell_angle_beta 90.000000
_cell_angle_gamma 90.000000
_cell_volume 3166.077972
_symmetry_space_group_name_H-M "A M M 2"
_symmetry_group_IT_number 38
_symmetry_cell_setting 'orthorhombic'
loop_
_space_group_symop_operation_xyz
x,y,z
-x,-y,z
-x,y,z
x,-y,z
x,1/2+y,1/2+z
-x,1/2-y,1/2+z
-x,1/2+y,1/2+z
x,1/2-y,1/2+z
loop_
_atom_site_type_symbol
_atom_site_label
_atom_site_fract_x
_atom_site_fract_y
_atom_site_fract_z
Si Si1 0.434883 0.177970 0.493090
Si Si2 0.378760 0.323471 0.328710
Si Si3 0.936224 0.182809 0.996850
Si Si4 0.739215 0.177763 0.911765
Si Si5 0.141137 0.682385 0.342303
Si Si6 0.740949 0.319982 0.094621
Si Si7 0.369165 0.320683 0.651901
Si Si8 0.865053 0.317392 0.148227
O O1 0.500000 0.210515 0.511833
O O2 0.416319 0.275695 0.410131
O O3 0.400588 0.226516 0.577598
O O4 0.422658 0.000000 0.473437
O O5 0.391992 0.500000 0.306500
O O6 0.312741 0.299857 0.347370
O O7 0.395559 0.220930 0.245476
O O8 0.900749 0.251185 0.915450
O O9 0.000000 0.242193 0.987369
O O10 0.933295 0.000000 0.996948
O O11 0.911792 0.241961 0.087560
O O12 0.795149 0.234240 0.862309
O O13 0.744463 0.000000 0.942726
O O14 0.728957 0.286363 0.993983
O O15 0.137413 0.500000 0.342999
O O16 0.123780 0.741924 0.246613
O O17 0.733643 0.500000 0.114723
O O18 0.696476 0.226786 0.152856
O O19 0.803264 0.262038 0.118819
O O20 0.376520 0.500000 0.632599
O O21 0.870114 0.500000 0.140978
#
# Coordination Sequence:
#
# PCOD8178718 Si02
#       8
#     8   8   8   8   8   8   8   8
#     4  11  25  45  67  92 124 162 207 260 311 360
#     4  11  23  40  65  95 126 161 204 253 305 366
#     4  10  21  37  57  81 111 151 198 248 298 351
#     4  10  19  35  61  89 118 156 195 238 299 367
#     4   9  18  35  58  82 114 152 193 235 285 356
#     4  11  21  35  59  90 125 156 194 248 304 363
#     4  12  25  41  64  93 126 167 208 249 306 366
#     4  10  21  37  59  87 115 152 194 241 297 354
#
# _framework density 20.214283999999999
#
# number of rings (size 3 to 8) (size 9 to 14) (size 15 to 20)
#    0.000    1.500    2.500    3.000    0.000    5.250 
#    0.000    2.500    0.000    0.000    0.000    0.000 
#    0.000    0.000    0.000    0.000    0.000    0.000 
#
# Total GULP energy -396938.789719 kJ/mol
# GULP energy per Si atom -12404.337179 kJ/mol
# Density = 2.016828 g / cm^3
# Si number density = 20.214284 Si / 1000 Ang^3
#
#
#
# Elastic Constant Matrix: (Units=GPa)
#
#
# Indices 1 2 3 4 5 6 
#
# 1 95.0870 33.5708 28.5748 0.0000 0.0000 0.0000
# 2 33.5708 38.4053 14.4625 0.0000 0.0000 0.0000
# 3 28.5748 14.4625 123.7755 0.0000 0.0000 0.0000
# 4 0.0000 0.0000 0.0000 33.1652 0.0000 0.0000
# 5 0.0000 0.0000 0.0000 0.0000 9.1677 0.0000
# 6 0.0000 0.0000 0.0000 0.0000 0.0000 27.1777
#
#
#
# Elastic Compliance Matrix: (Units=1/GPa)
#
#
# Indices 1 2 3 4 5 6 
#
# 1 0.015724 -0.012947 -0.002117 0.000000 0.000000 0.000000
# 2 -0.012947 0.037898 -0.001439 0.000000 0.000000 0.000000
# 3 -0.002117 -0.001439 0.008736 0.000000 0.000000 0.000000
# 4 0.000000 0.000000 0.000000 0.030152 0.000000 0.000000
# 5 0.000000 0.000000 0.000000 0.000000 0.109079 0.000000
# 6 0.000000 0.000000 0.000000 0.000000 0.000000 0.036795
#
#
# Mechanical properties :
#
#
# Convention : Reuss Voigt Hill
#
# Bulk Modulus (GPa) = 34.07124 45.60935 39.84030
# Shear Modulus (GPa) = 17.78258 25.94611 21.86434
#
# Velocity S-wave (km/s) = 2.96920 3.58656 3.29238
# Velocity P-wave (km/s) = 5.35224 6.30580 5.84849
#
# Compressibility (1/GPa) = 0.02935027
#
# Stress axis : x y z
#
# Youngs Moduli (GPa) = 63.59675 26.38691 114.46788
#
# Poissons Ratio (x) = 0.34164 0.24235
# Poissons Ratio (y) = 0.82341 0.16473
# Poissons Ratio (z) = 0.13465 0.03797
#
# Static dielectric constant tensor:
#      x y z
#    x 3.807650 0.000000 0.000000 
#    y 0.000000 3.519720 0.000000 
#    z 0.000000 0.000000 3.825390 
# 
# 
# High freq. dielectric constant tensor:
#      x y z
#    x 1.789670 0.000000 0.000000 
#    y 0.000000 1.772510 0.000000 
#    z 0.000000 0.000000 1.801760 
# 
# From -- ./inp_files/15801.got.cif
#   From: 2010.03.12/outbox.cif.g09.slc.cpg/sg38_8_cif.got.tgz:15801.got - 2010.04.14 02:38:36.
