data_PCOD8178371
_publ_section_title
;
Structure prediction by ZEFSAII (Michael W. Deem and Ramdas Pophale) SiO2 
 PCOD8178371
Probable space group: A M M 2
;
_chemical_formula_sum "Si O2"
_cell_formula_units_Z 34
_cell_length_a 7.696805
_cell_length_b 7.977504
_cell_length_c 26.802303
_cell_angle_alpha 90.000000
_cell_angle_beta 90.000000
_cell_angle_gamma 90.000000
_cell_volume 1645.696051
_symmetry_space_group_name_H-M "A M M 2"
_symmetry_group_IT_number 38
_symmetry_cell_setting 'orthorhombic'
loop_
_space_group_symop_operation_xyz
x,y,z
-x,-y,z
-x,y,z
x,-y,z
x,1/2+y,1/2+z
-x,1/2-y,1/2+z
-x,1/2+y,1/2+z
x,1/2-y,1/2+z
loop_
_atom_site_type_symbol
_atom_site_label
_atom_site_fract_x
_atom_site_fract_y
_atom_site_fract_z
Si Si1 0.698426 0.806790 0.868260
Si Si2 0.702941 0.691029 0.759749
Si Si3 0.000000 0.500000 0.508407
Si Si4 0.000000 0.186912 0.435617
Si Si5 0.193652 0.500000 0.603627
Si Si6 0.197698 0.318535 0.156042
O O1 0.500000 0.744358 0.876674
O O2 0.752084 0.784396 0.810796
O O3 0.826880 0.700518 0.902485
O O4 0.718517 0.000000 0.883281
O O5 0.500000 0.702726 0.748681
O O6 0.765976 0.500000 0.763807
O O7 0.800060 0.781849 0.714838
O O8 0.000000 0.329677 0.477381
O O9 0.174143 0.500000 0.543332
O O10 0.000000 0.000000 0.459661
O O11 0.290092 0.668294 0.624139
O O12 0.000000 0.500000 0.628356
O O13 0.288342 0.500000 0.145672
O O14 0.000000 0.332583 0.138037
#
# Coordination Sequence:
#
# PCOD8178371 Si02
#       6
#     8   8   2   4   4   8
#     4  10  21  39  61  88 127 167 207 256 307 365
#     4  10  20  33  52  82 121 161 197 236 289 360
#     4  10  22  42  62  88 120 144 214 260 310 374
#     4  12  24  40  65  93 121 160 206 263 316 375
#     4   8  18  36  57  80 115 146 185 255 293 340
#     4  10  19  32  54  83 111 148 193 228 286 352
#
# _framework density 20.659949000000001
#
# number of rings (size 3 to 8) (size 9 to 14) (size 15 to 20)
#    0.353    1.647    2.353    1.412    1.647    3.765 
#    0.000    0.000    0.000    2.824    0.000    3.294 
#    0.000    0.000    0.000    0.000    0.000    0.000 
#
# Total GULP energy -210699.457676 kJ/mol
# GULP energy per Si atom -12394.085746 kJ/mol
# Density = 2.061293 g / cm^3
# Si number density = 20.659949 Si / 1000 Ang^3
#
#
#
# Elastic Constant Matrix: (Units=GPa)
#
#
# Indices 1 2 3 4 5 6 
#
# 1 47.4094 30.2099 28.0452 0.0000 0.0000 0.0000
# 2 30.2099 178.6438 60.3556 0.0000 0.0000 0.0000
# 3 28.0452 60.3556 117.2356 0.0000 0.0000 0.0000
# 4 0.0000 0.0000 0.0000 33.1748 0.0000 0.0000
# 5 0.0000 0.0000 0.0000 0.0000 -8.6761 0.0000
# 6 0.0000 0.0000 0.0000 0.0000 0.0000 11.6145
#
#
#
# Elastic Compliance Matrix: (Units=1/GPa)
#
#
# Indices 1 2 3 4 5 6 
#
# 1 0.025631 -0.002739 -0.004721 0.000000 0.000000 0.000000
# 2 -0.002739 0.007069 -0.002984 0.000000 0.000000 0.000000
# 3 -0.004721 -0.002984 0.011196 0.000000 0.000000 0.000000
# 4 0.000000 0.000000 0.000000 0.030143 0.000000 0.000000
# 5 0.000000 0.000000 0.000000 0.000000 -0.115259 0.000000
# 6 0.000000 0.000000 0.000000 0.000000 0.000000 0.086099
#
#
# Mechanical properties :
#
#
# Convention : Reuss Voigt Hill
#
# Bulk Modulus (GPa) = 43.46571 64.50113 53.98342
# Shear Modulus (GPa) = 68.08504 22.20118 45.14311
#
# Velocity S-wave (km/s) = 5.74688 3.28167 4.67953
# Velocity P-wave (km/s) = 8.06968 6.75628 7.44201
#
# Compressibility (1/GPa) = 0.02300664
#
# Stress axis : x y z
#
# Youngs Moduli (GPa) = 39.01484 141.45984 89.32145
#
# Poissons Ratio (x) = 0.38750 0.42171
# Poissons Ratio (y) = 0.10687 0.26654
# Poissons Ratio (z) = 0.18420 0.42212
#
# Static dielectric constant tensor:
#      x y z
#    x 3.435710 0.000000 0.000000 
#    y 0.000000 4.184910 0.000000 
#    z 0.000000 0.000000 3.440360 
# 
# 
# High freq. dielectric constant tensor:
#      x y z
#    x 1.777680 0.000000 0.000000 
#    y 0.000000 1.830290 0.000000 
#    z 0.000000 0.000000 1.781060 
# 
# From -- ./inp_files/23175.got.cif
#   From: 2010.03.12/outbox.cif.g09.slc.cpg/sg38_12_cif.got.tgz:23175.got - 2010.04.14 02:38:36.
