data_PCOD8178635
_publ_section_title
;
Structure prediction by ZEFSAII (Michael W. Deem and Ramdas Pophale) SiO2 
 PCOD8178635
Probable space group: A M M 2
;
_chemical_formula_sum "Si O2"
_cell_formula_units_Z 64
_cell_length_a 8.964332
_cell_length_b 15.386695
_cell_length_c 23.895551
_cell_angle_alpha 90.000000
_cell_angle_beta 90.000000
_cell_angle_gamma 90.000000
_cell_volume 3295.947815
_symmetry_space_group_name_H-M "A M M 2"
_symmetry_group_IT_number 38
_symmetry_cell_setting 'orthorhombic'
loop_
_space_group_symop_operation_xyz
x,y,z
-x,-y,z
-x,y,z
x,-y,z
x,1/2+y,1/2+z
-x,1/2-y,1/2+z
-x,1/2+y,1/2+z
x,1/2-y,1/2+z
loop_
_atom_site_type_symbol
_atom_site_label
_atom_site_fract_x
_atom_site_fract_y
_atom_site_fract_z
Si Si1 0.170846 0.097571 0.655970
Si Si2 0.675900 0.348847 0.265197
Si Si3 0.170384 0.902277 0.151879
Si Si4 0.324075 0.748405 0.088475
Si Si5 0.676690 0.246526 0.460704
Si Si6 0.322785 0.595822 0.386984
Si Si7 0.170447 0.830359 0.270699
Si Si8 0.825639 0.598738 0.890746
O O1 0.243736 0.097042 0.717066
O O2 0.253198 0.162762 0.614720
O O3 0.000000 0.127797 0.661297
O O4 0.182984 0.000000 0.631425
O O5 0.500000 0.359863 0.258038
O O6 0.733505 0.385454 0.324329
O O7 0.717805 0.248410 0.260070
O O8 0.275725 0.835578 0.119802
O O9 0.189217 0.895346 0.218754
O O10 0.000000 0.882365 0.134892
O O11 0.215835 0.000000 0.134401
O O12 0.500000 0.739461 0.093672
O O13 0.270692 0.753759 0.024502
O O14 0.500000 0.243644 0.455533
O O15 0.742452 0.331024 0.428523
O O16 0.738783 0.159012 0.433871
O O17 0.500000 0.599343 0.388233
O O18 0.266286 0.500000 0.405604
O O19 0.218504 0.879658 0.326979
O O20 0.000000 0.796401 0.274995
O O21 0.778058 0.500000 0.903186
O O22 0.000000 0.612584 0.900450
#
# Coordination Sequence:
#
# PCOD8178635 Si02
#       8
#     8   8   8   8   8   8   8   8
#     4  11  24  41  61  85 116 154 193 238 294 354
#     4  11  20  33  59  90 120 151 186 231 286 346
#     4  10  21  38  61  87 118 156 193 232 285 349
#     4  11  24  40  60  85 115 153 198 249 295 340
#     4  10  22  40  59  82 113 151 196 243 290 337
#     4   9  18  34  57  84 115 150 184 223 279 342
#     4  10  19  34  58  86 119 155 188 228 286 347
#     4  10  21  37  59  87 118 153 192 234 285 345
#
# _framework density 19.417784000000001
#
# number of rings (size 3 to 8) (size 9 to 14) (size 15 to 20)
#    0.000    1.750    2.500    1.875    0.000    5.500 
#    0.000    3.750    0.000    3.375    0.000    0.000 
#    0.000    0.000    0.000    0.000    0.000    0.000 
#
# Total GULP energy -396872.165406 kJ/mol
# GULP energy per Si atom -12402.255169 kJ/mol
# Density = 1.937359 g / cm^3
# Si number density = 19.417784 Si / 1000 Ang^3
#
#
#
# Elastic Constant Matrix: (Units=GPa)
#
#
# Indices 1 2 3 4 5 6 
#
# 1 57.2732 35.0027 49.1940 0.0000 0.0000 0.0000
# 2 35.0027 139.6639 62.5757 0.0000 0.0000 0.0000
# 3 49.1940 62.5757 135.2110 0.0000 0.0000 0.0000
# 4 0.0000 0.0000 0.0000 10.7568 0.0000 0.0000
# 5 0.0000 0.0000 0.0000 0.0000 20.0477 0.0000
# 6 0.0000 0.0000 0.0000 0.0000 0.0000 23.3038
#
#
#
# Elastic Compliance Matrix: (Units=1/GPa)
#
#
# Indices 1 2 3 4 5 6 
#
# 1 0.026300 -0.002907 -0.008224 0.000000 0.000000 0.000000
# 2 -0.002907 0.009354 -0.003272 0.000000 0.000000 0.000000
# 3 -0.008224 -0.003272 0.011902 0.000000 0.000000 0.000000
# 4 0.000000 0.000000 0.000000 0.092964 0.000000 0.000000
# 5 0.000000 0.000000 0.000000 0.000000 0.049881 0.000000
# 6 0.000000 0.000000 0.000000 0.000000 0.000000 0.042911
#
#
# Mechanical properties :
#
#
# Convention : Reuss Voigt Hill
#
# Bulk Modulus (GPa) = 53.32618 69.52144 61.42381
# Shear Modulus (GPa) = 18.63113 23.18004 20.90558
#
# Velocity S-wave (km/s) = 3.10092 3.45882 3.28475
# Velocity P-wave (km/s) = 6.35162 7.19944 6.78878
#
# Compressibility (1/GPa) = 0.01875251
#
# Stress axis : x y z
#
# Youngs Moduli (GPa) = 38.02244 106.90163 84.01983
#
# Poissons Ratio (x) = 0.31075 0.69094
# Poissons Ratio (y) = 0.11053 0.27488
# Poissons Ratio (z) = 0.31268 0.34974
#
# Static dielectric constant tensor:
#      x y z
#    x 3.407960 0.000000 0.000000 
#    y 0.000000 3.657060 0.000000 
#    z 0.000000 0.000000 3.663020 
# 
# 
# High freq. dielectric constant tensor:
#      x y z
#    x 1.741020 0.000000 0.000000 
#    y 0.000000 1.768260 0.000000 
#    z 0.000000 0.000000 1.756940 
# 
# From -- ./inp_files/22125.got.cif
#   From: 2010.03.12/outbox.cif.g09.slc.cpg/sg38_12_cif.got.tgz:22125.got - 2010.04.14 02:38:36.
