data_PCOD8178554
_publ_section_title
;
Structure prediction by ZEFSAII (Michael W. Deem and Ramdas Pophale) SiO2 
 PCOD8178554
Probable space group: A M M 2
;
_chemical_formula_sum "Si O2"
_cell_formula_units_Z 56
_cell_length_a 8.732368
_cell_length_b 22.538962
_cell_length_c 14.560239
_cell_angle_alpha 90.000000
_cell_angle_beta 90.000000
_cell_angle_gamma 90.000000
_cell_volume 2865.724553
_symmetry_space_group_name_H-M "A M M 2"
_symmetry_group_IT_number 38
_symmetry_cell_setting 'orthorhombic'
loop_
_space_group_symop_operation_xyz
x,y,z
-x,-y,z
-x,y,z
x,-y,z
x,1/2+y,1/2+z
-x,1/2-y,1/2+z
-x,1/2+y,1/2+z
x,1/2-y,1/2+z
loop_
_atom_site_type_symbol
_atom_site_label
_atom_site_fract_x
_atom_site_fract_y
_atom_site_fract_z
Si Si1 0.818320 0.111846 0.560270
Si Si2 0.180299 0.848293 0.371144
Si Si3 0.175962 0.895105 0.981582
Si Si4 0.177848 0.215397 0.859006
Si Si5 0.182262 0.500000 0.172574
Si Si6 0.179689 0.156842 0.169397
Si Si7 0.679379 0.215987 0.670048
Si Si8 0.677655 0.500000 0.373226
O O1 0.758354 0.109500 0.453571
O O2 0.764594 0.174467 0.598287
O O3 0.000000 0.108731 0.564716
O O4 0.750317 0.057270 0.619088
O O5 0.236339 0.780618 0.388081
O O6 0.230680 0.869949 0.268938
O O7 0.000000 0.849115 0.377802
O O8 0.207868 0.829870 0.941499
O O9 0.000000 0.914290 0.966085
O O10 0.283253 0.942454 0.933015
O O11 0.215675 0.891333 0.090203
O O12 0.273742 0.193955 0.771303
O O13 0.000000 0.216794 0.830282
O O14 0.232717 0.500000 0.277783
O O15 0.000000 0.500000 0.171247
O O16 0.271576 0.216773 0.150680
O O17 0.000000 0.173027 0.169338
O O18 0.500000 0.209099 0.656663
O O19 0.500000 0.500000 0.350061
#
# Coordination Sequence:
#
# PCOD8178554 Si02
#       8
#     8   8   8   8   4   8   8   4
#     4  10  19  34  54  76 104 139 177 219 265 312
#     4   8  15  30  54  81 106 131 165 209 261 313
#     4  10  20  36  59  81 103 137 182 223 262 310
#     4   9  17  31  52  77 104 137 174 215 263 315
#     4  10  22  38  57  78 102 136 181 226 263 306
#     4   9  18  35  57  80 106 137 171 213 262 313
#     4  11  21  31  48  78 111 142 175 214 260 314
#     4  12  26  40  55  76 108 142 173 216 267 316
#
# _framework density 19.541305999999999
#
# number of rings (size 3 to 8) (size 9 to 14) (size 15 to 20)
#    0.000    2.286    0.000    4.500    0.000    7.429 
#    0.000    6.429    0.000    3.429    0.000    1.000 
#    0.000    0.000    0.000    0.000    0.000    0.000 
#
# Total GULP energy -347077.550695 kJ/mol
# GULP energy per Si atom -12395.626811 kJ/mol
# Density = 1.949683 g / cm^3
# Si number density = 19.541306 Si / 1000 Ang^3
#
#
#
# Elastic Constant Matrix: (Units=GPa)
#
#
# Indices 1 2 3 4 5 6 
#
# 1 20.3750 13.9561 13.5359 0.0000 0.0000 0.0000
# 2 13.9561 62.2030 61.2679 0.0000 0.0000 0.0000
# 3 13.5359 61.2679 159.4838 0.0000 0.0000 0.0000
# 4 0.0000 0.0000 0.0000 32.4502 0.0000 0.0000
# 5 0.0000 0.0000 0.0000 0.0000 2.6208 0.0000
# 6 0.0000 0.0000 0.0000 0.0000 0.0000 13.6490
#
#
#
# Elastic Compliance Matrix: (Units=1/GPa)
#
#
# Indices 1 2 3 4 5 6 
#
# 1 0.057993 -0.013133 0.000123 0.000000 0.000000 0.000000
# 2 -0.013133 0.028836 -0.009963 0.000000 0.000000 0.000000
# 3 0.000123 -0.009963 0.010087 0.000000 0.000000 0.000000
# 4 0.000000 0.000000 0.000000 0.030816 0.000000 0.000000
# 5 0.000000 0.000000 0.000000 0.000000 0.381556 0.000000
# 6 0.000000 0.000000 0.000000 0.000000 0.000000 0.073266
#
#
# Mechanical properties :
#
#
# Convention : Reuss Voigt Hill
#
# Bulk Modulus (GPa) = 19.61900 46.62019 33.11960
# Shear Modulus (GPa) = 7.74604 19.96414 13.85509
#
# Velocity S-wave (km/s) = 1.99312 3.19978 2.66562
# Velocity P-wave (km/s) = 3.91896 6.12866 5.14387
#
# Compressibility (1/GPa) = 0.05097099
#
# Stress axis : x y z
#
# Youngs Moduli (GPa) = 17.24334 34.67834 99.13447
#
# Poissons Ratio (x) = 0.45543 -0.01221
# Poissons Ratio (y) = 0.22646 0.98770
# Poissons Ratio (z) = -0.00212 0.34551
#
# Static dielectric constant tensor:
#      x y z
#    x 3.214130 0.000000 0.000000 
#    y 0.000000 3.485550 0.000000 
#    z 0.000000 0.000000 4.153870 
# 
# 
# High freq. dielectric constant tensor:
#      x y z
#    x 1.726050 0.000000 0.000000 
#    y 0.000000 1.738560 0.000000 
#    z 0.000000 0.000000 1.782170 
# 
# From -- ./inp_files/12477.got.cif
#   From: 2010.03.12/outbox.cif.g09.slc.cpg/sg38_7_cif.got.tgz:12477.got - 2010.04.14 02:38:36.
