data_PCOD8178454
_publ_section_title
;
Structure prediction by ZEFSAII (Michael W. Deem and Ramdas Pophale) SiO2 
 PCOD8178454
Probable space group: A M M 2
;
_chemical_formula_sum "Si O2"
_cell_formula_units_Z 56
_cell_length_a 16.602788
_cell_length_b 9.202597
_cell_length_c 20.282753
_cell_angle_alpha 90.000000
_cell_angle_beta 90.000000
_cell_angle_gamma 90.000000
_cell_volume 3098.976823
_symmetry_space_group_name_H-M "A M M 2"
_symmetry_group_IT_number 38
_symmetry_cell_setting 'orthorhombic'
loop_
_space_group_symop_operation_xyz
x,y,z
-x,-y,z
-x,y,z
x,-y,z
x,1/2+y,1/2+z
-x,1/2-y,1/2+z
-x,1/2+y,1/2+z
x,1/2-y,1/2+z
loop_
_atom_site_type_symbol
_atom_site_label
_atom_site_fract_x
_atom_site_fract_y
_atom_site_fract_z
Si Si1 0.342545 0.671090 0.228100
Si Si2 0.500000 0.670003 0.049850
Si Si3 0.765985 0.668909 0.107048
Si Si4 0.090717 0.666516 0.562275
Si Si5 0.743750 0.670487 0.362874
Si Si6 0.500000 0.674319 0.689775
Si Si7 0.087739 0.827320 0.913338
Si Si8 0.664817 0.668511 0.980469
O O1 0.364209 0.500000 0.225255
O O2 0.292871 0.722400 0.164449
O O3 0.288061 0.710284 0.290867
O O4 0.423279 0.765961 0.229880
O O5 0.500000 0.500000 0.070901
O O6 0.500000 0.765039 0.115660
O O7 0.576321 0.709980 0.005547
O O8 0.781753 0.500000 0.115297
O O9 0.851872 0.747219 0.112235
O O10 0.727337 0.710530 0.037319
O O11 0.117438 0.500000 0.563449
O O12 0.098983 0.729124 0.488092
O O13 0.000000 0.686354 0.588168
O O14 0.741727 0.500000 0.376117
O O15 0.836314 0.728770 0.370077
O O16 0.684212 0.741612 0.415484
O O17 0.500000 0.500000 0.689079
O O18 0.000000 0.770940 0.886311
O O19 0.085234 0.000000 0.914179
O O20 0.670219 0.500000 0.962456
#
# Coordination Sequence:
#
# PCOD8178454 Si02
#       8
#     8   4   8   8   8   4   8   8
#     4  10  22  40  58  78 112 152 182 216 279 339
#     4  10  20  39  60  79 109 147 179 221 278 332
#     4  10  19  33  54  79 107 144 182 218 269 329
#     4   9  17  30  51  79 111 144 178 226 280 319
#     4  10  20  35  57  82 109 143 182 226 266 318
#     4  12  24  37  58  85 107 139 187 233 270 318
#     4   8  14  27  49  77 105 133 172 221 268 313
#     4  10  20  34  56  80 107 142 175 220 278 325
#
# _framework density 18.07048
#
# number of rings (size 3 to 8) (size 9 to 14) (size 15 to 20)
#    0.000    2.286    2.857    1.500    0.000    2.571 
#    0.000    2.143    0.000    3.000    0.000    0.000 
#    0.000    0.000    0.000    0.000    0.000    0.000 
#
# Total GULP energy -347152.438498 kJ/mol
# GULP energy per Si atom -12398.301375 kJ/mol
# Density = 1.802935 g / cm^3
# Si number density = 18.070480 Si / 1000 Ang^3
#
#
#
# Elastic Constant Matrix: (Units=GPa)
#
#
# Indices 1 2 3 4 5 6 
#
# 1 145.6370 48.9376 35.9934 0.0000 0.0000 0.0000
# 2 48.9376 47.3802 33.2384 0.0000 0.0000 0.0000
# 3 35.9934 33.2384 53.0562 0.0000 0.0000 0.0000
# 4 0.0000 0.0000 0.0000 24.3664 0.0000 0.0000
# 5 0.0000 0.0000 0.0000 0.0000 10.5586 0.0000
# 6 0.0000 0.0000 0.0000 0.0000 0.0000 29.9721
#
#
#
# Elastic Compliance Matrix: (Units=1/GPa)
#
#
# Indices 1 2 3 4 5 6 
#
# 1 0.010527 -0.010460 -0.000588 0.000000 0.000000 0.000000
# 2 -0.010460 0.048048 -0.023005 0.000000 0.000000 0.000000
# 3 -0.000588 -0.023005 0.033659 0.000000 0.000000 0.000000
# 4 0.000000 0.000000 0.000000 0.041040 0.000000 0.000000
# 5 0.000000 0.000000 0.000000 0.000000 0.094709 0.000000
# 6 0.000000 0.000000 0.000000 0.000000 0.000000 0.033364
#
#
# Mechanical properties :
#
#
# Convention : Reuss Voigt Hill
#
# Bulk Modulus (GPa) = 41.44665 53.60134 47.52399
# Shear Modulus (GPa) = 14.81499 21.50635 18.16067
#
# Velocity S-wave (km/s) = 2.86640 3.45358 3.17360
# Velocity P-wave (km/s) = 5.82588 6.75498 6.30756
#
# Compressibility (1/GPa) = 0.02412740
#
# Stress axis : x y z
#
# Youngs Moduli (GPa) = 94.99796 20.81258 29.70958
#
# Poissons Ratio (x) = 0.21769 0.01748
# Poissons Ratio (y) = 0.99365 0.68347
# Poissons Ratio (z) = 0.05591 0.47879
#
# Static dielectric constant tensor:
#      x y z
#    x 3.663870 0.000000 0.000000 
#    y 0.000000 3.067610 0.000000 
#    z 0.000000 0.000000 3.186690 
# 
# 
# High freq. dielectric constant tensor:
#      x y z
#    x 1.719210 0.000000 0.000000 
#    y 0.000000 1.674840 0.000000 
#    z 0.000000 0.000000 1.680100 
# 
# From -- ./inp_files/21135.got.cif
#   From: 2010.03.12/outbox.cif.g09.slc.cpg/sg38_11_cif.got.tgz:21135.got - 2010.04.14 02:38:36.
