data_PCOD8178817
_publ_section_title
;
Structure prediction by ZEFSAII (Michael W. Deem and Ramdas Pophale) SiO2 
 PCOD8178817
Probable space group: A M M 2
;
_chemical_formula_sum "Si O2"
_cell_formula_units_Z 64
_cell_length_a 15.152914
_cell_length_b 14.270472
_cell_length_c 16.685285
_cell_angle_alpha 90.000000
_cell_angle_beta 90.000000
_cell_angle_gamma 90.000000
_cell_volume 3608.013263
_symmetry_space_group_name_H-M "A M M 2"
_symmetry_group_IT_number 38
_symmetry_cell_setting 'orthorhombic'
loop_
_space_group_symop_operation_xyz
x,y,z
-x,-y,z
-x,y,z
x,-y,z
x,1/2+y,1/2+z
-x,1/2-y,1/2+z
-x,1/2+y,1/2+z
x,1/2-y,1/2+z
loop_
_atom_site_type_symbol
_atom_site_label
_atom_site_fract_x
_atom_site_fract_y
_atom_site_fract_z
Si Si1 0.269007 0.271159 0.360840
Si Si2 0.095378 0.705672 0.909328
Si Si3 0.596996 0.255451 0.079573
Si Si4 0.226932 0.758839 0.680462
Si Si5 0.401347 0.106070 0.948174
Si Si6 0.333067 0.604772 0.957866
Si Si7 0.154808 0.896791 0.555049
Si Si8 0.898830 0.391517 0.741930
O O1 0.177288 0.278438 0.412320
O O2 0.245286 0.291039 0.269953
O O3 0.332996 0.354988 0.383825
O O4 0.315638 0.169906 0.379239
O O5 0.115764 0.635960 0.834948
O O6 0.000000 0.755592 0.895956
O O7 0.086602 0.650250 0.993181
O O8 0.500000 0.260117 0.121902
O O9 0.676358 0.250483 0.142151
O O10 0.606729 0.159531 0.031512
O O11 0.599435 0.342823 0.017513
O O12 0.167594 0.835574 0.635032
O O13 0.168719 0.663755 0.683442
O O14 0.500000 0.115585 0.912233
O O15 0.376200 0.000000 0.966691
O O16 0.367422 0.500000 0.933090
O O17 0.244815 0.593716 0.007375
O O18 0.120715 0.000000 0.580679
O O19 0.875628 0.500000 0.732642
O O20 0.000000 0.370793 0.716168
#
# Coordination Sequence:
#
# PCOD8178817 Si02
#       8
#     8   8   8   8   8   8   8   8
#     4   9  18  31  49  73 100 130 160 198 246 292
#     4   9  17  31  52  74  95 124 165 208 248 292
#     4   9  18  32  49  70  97 130 165 199 242 293
#     4  10  20  31  46  73 106 134 156 193 247 299
#     4   9  18  34  54  71  89 122 170 211 234 267
#     4   8  15  30  50  70  92 120 159 204 245 287
#     4   9  17  29  45  67  96 127 159 197 240 286
#     4   9  18  33  52  73  97 127 165 207 249 293
#
# _framework density 17.738295999999998
#
# number of rings (size 3 to 8) (size 9 to 14) (size 15 to 20)
#    0.000    3.000    0.000    1.125    0.000    6.000 
#    0.000    0.000    0.000    0.375    0.000    7.000 
#    0.000    0.000    0.000    0.000    0.000    0.000 
#
# Total GULP energy -396462.568288 kJ/mol
# GULP energy per Si atom -12389.455259 kJ/mol
# Density = 1.769792 g / cm^3
# Si number density = 17.738296 Si / 1000 Ang^3
#
#
#
# Elastic Constant Matrix: (Units=GPa)
#
#
# Indices 1 2 3 4 5 6 
#
# 1 102.9277 33.1385 28.3242 0.0000 0.0000 0.0000
# 2 33.1385 91.1409 33.1086 0.0000 0.0000 0.0000
# 3 28.3242 33.1086 80.9058 0.0000 0.0000 0.0000
# 4 0.0000 0.0000 0.0000 18.3940 0.0000 0.0000
# 5 0.0000 0.0000 0.0000 0.0000 25.4113 0.0000
# 6 0.0000 0.0000 0.0000 0.0000 0.0000 22.5268
#
#
#
# Elastic Compliance Matrix: (Units=1/GPa)
#
#
# Indices 1 2 3 4 5 6 
#
# 1 0.011491 -0.003191 -0.002717 0.000000 0.000000 0.000000
# 2 -0.003191 0.013774 -0.004520 0.000000 0.000000 0.000000
# 3 -0.002717 -0.004520 0.015161 0.000000 0.000000 0.000000
# 4 0.000000 0.000000 0.000000 0.054366 0.000000 0.000000
# 5 0.000000 0.000000 0.000000 0.000000 0.039353 0.000000
# 6 0.000000 0.000000 0.000000 0.000000 0.000000 0.044392
#
#
# Mechanical properties :
#
#
# Convention : Reuss Voigt Hill
#
# Bulk Modulus (GPa) = 51.09729 51.56855 51.33292
# Shear Modulus (GPa) = 24.28206 25.29330 24.78768
#
# Velocity S-wave (km/s) = 3.70389 3.78023 3.74225
# Velocity P-wave (km/s) = 6.86735 6.94179 6.90467
#
# Compressibility (1/GPa) = 0.01957051
#
# Stress axis : x y z
#
# Youngs Moduli (GPa) = 87.02790 72.60027 65.95996
#
# Poissons Ratio (x) = 0.23167 0.17921
# Poissons Ratio (y) = 0.27770 0.29811
# Poissons Ratio (z) = 0.23645 0.32812
#
# Static dielectric constant tensor:
#      x y z
#    x 3.566560 0.000000 0.000000 
#    y 0.000000 3.384970 0.000000 
#    z 0.000000 0.000000 3.075890 
# 
# 
# High freq. dielectric constant tensor:
#      x y z
#    x 1.696080 0.000000 0.000000 
#    y 0.000000 1.668980 0.000000 
#    z 0.000000 0.000000 1.662480 
# 
# From -- ./inp_files/18518.got.cif
#   From: 2010.03.12/outbox.cif.g09.slc.cpg/sg38_10_cif.got.tgz:18518.got - 2010.04.14 02:38:36.
