data_PCOD8178299
_publ_section_title
;
Structure prediction by ZEFSAII (Michael W. Deem and Ramdas Pophale) SiO2 
 PCOD8178299
Probable space group: A M M 2
;
_chemical_formula_sum "Si O2"
_cell_formula_units_Z 64
_cell_length_a 8.927541
_cell_length_b 33.287968
_cell_length_c 11.650925
_cell_angle_alpha 90.000000
_cell_angle_beta 90.000000
_cell_angle_gamma 90.000000
_cell_volume 3462.418386
_symmetry_space_group_name_H-M "A M M 2"
_symmetry_group_IT_number 38
_symmetry_cell_setting 'orthorhombic'
loop_
_space_group_symop_operation_xyz
x,y,z
-x,-y,z
-x,y,z
x,-y,z
x,1/2+y,1/2+z
-x,1/2-y,1/2+z
-x,1/2+y,1/2+z
x,1/2-y,1/2+z
loop_
_atom_site_type_symbol
_atom_site_label
_atom_site_fract_x
_atom_site_fract_y
_atom_site_fract_z
Si Si1 0.322924 0.125769 0.114500
Si Si2 0.329998 0.316545 0.194409
Si Si3 0.169738 0.545134 0.957292
Si Si4 0.172312 0.231985 0.501204
Si Si5 0.175134 0.545182 0.690189
Si Si6 0.173419 0.821444 0.932465
Si Si7 0.826558 0.165881 0.327108
Si Si8 0.668257 0.617418 0.017041
O O1 0.500000 0.124548 0.117439
O O2 0.264216 0.080064 0.124140
O O3 0.266308 0.156075 0.213365
O O4 0.268510 0.143813 0.993576
O O5 0.500000 0.306400 0.231300
O O6 0.278073 0.283719 0.101970
O O7 0.221416 0.316748 0.301660
O O8 0.319792 0.360563 0.138375
O O9 0.191494 0.500000 0.999891
O O10 0.212464 0.549306 0.823977
O O11 0.283247 0.571332 0.034236
O O12 0.000000 0.559272 0.977641
O O13 0.202801 0.279018 0.493561
O O14 0.210069 0.210223 0.378853
O O15 0.000000 0.222510 0.532782
O O16 0.221878 0.500000 0.648615
O O17 0.000000 0.551734 0.667778
O O18 0.000000 0.833335 0.937593
O O19 0.786060 0.134369 0.425637
O O20 0.000000 0.161387 0.294060
O O21 0.500000 0.620906 0.967527
#
# Coordination Sequence:
#
# PCOD8178299 Si02
#       8
#     8   8   8   8   8   8   8   8
#     4  12  24  36  54  85 119 151 187 232 289 343
#     4  10  22  39  57  81 112 143 181 229 283 335
#     4   9  17  29  49  79 112 144 180 223 271 327
#     4   9  21  39  60  82 106 143 189 233 276 329
#     4   9  18  34  56  82 114 151 189 232 283 339
#     4  11  24  41  60  81 108 148 196 237 276 330
#     4  10  19  34  55  79 109 145 185 229 273 327
#     4  10  19  32  52  79 110 144 178 220 273 332
#
# _framework density 18.484190000000002
#
# number of rings (size 3 to 8) (size 9 to 14) (size 15 to 20)
#    0.000    2.000    1.250    3.375    1.750    3.500 
#    0.000    1.250    0.000    0.750    0.000    3.500 
#    0.000    0.000    0.000    0.000    0.000    0.000 
#
# Total GULP energy -396789.436415 kJ/mol
# GULP energy per Si atom -12399.669888 kJ/mol
# Density = 1.844212 g / cm^3
# Si number density = 18.484190 Si / 1000 Ang^3
#
#
#
# Elastic Constant Matrix: (Units=GPa)
#
#
# Indices 1 2 3 4 5 6 
#
# 1 103.7308 61.0358 39.0745 0.0000 0.0000 0.0000
# 2 61.0358 104.7486 30.0208 0.0000 0.0000 0.0000
# 3 39.0745 30.0208 64.4242 0.0000 0.0000 0.0000
# 4 0.0000 0.0000 0.0000 23.4720 0.0000 0.0000
# 5 0.0000 0.0000 0.0000 0.0000 30.1420 0.0000
# 6 0.0000 0.0000 0.0000 0.0000 0.0000 23.6602
#
#
#
# Elastic Compliance Matrix: (Units=1/GPa)
#
#
# Indices 1 2 3 4 5 6 
#
# 1 0.016716 -0.007888 -0.006463 0.000000 0.000000 0.000000
# 2 -0.007888 0.014740 -0.002085 0.000000 0.000000 0.000000
# 3 -0.006463 -0.002085 0.020413 0.000000 0.000000 0.000000
# 4 0.000000 0.000000 0.000000 0.042604 0.000000 0.000000
# 5 0.000000 0.000000 0.000000 0.000000 0.033176 0.000000
# 6 0.000000 0.000000 0.000000 0.000000 0.000000 0.042265
#
#
# Mechanical properties :
#
#
# Convention : Reuss Voigt Hill
#
# Bulk Modulus (GPa) = 52.63485 59.24065 55.93775
# Shear Modulus (GPa) = 23.90975 24.97301 24.44138
#
# Velocity S-wave (km/s) = 3.60046 3.67965 3.64027
# Velocity P-wave (km/s) = 6.76918 7.08322 6.92798
#
# Compressibility (1/GPa) = 0.01899882
#
# Stress axis : x y z
#
# Youngs Moduli (GPa) = 59.82175 67.84068 48.98734
#
# Poissons Ratio (x) = 0.53514 0.31661
# Poissons Ratio (y) = 0.47188 0.10212
# Poissons Ratio (z) = 0.38663 0.14142
#
# Static dielectric constant tensor:
#      x y z
#    x 3.417270 0.000000 0.000000 
#    y 0.000000 3.602360 0.000000 
#    z 0.000000 0.000000 3.127130 
# 
# 
# High freq. dielectric constant tensor:
#      x y z
#    x 1.723620 0.000000 0.000000 
#    y 0.000000 1.723610 0.000000 
#    z 0.000000 0.000000 1.684760 
# 
# From -- ./inp_files/8513.got.cif
#   From: 2010.03.12/outbox.cif.g09.slc.cpg/sg38_5_cif.got.tgz:8513.got - 2010.04.14 02:38:36.
