data_PCOD8178384
_publ_section_title
;
Structure prediction by ZEFSAII (Michael W. Deem and Ramdas Pophale) SiO2 
 PCOD8178384
Probable space group: A M M 2
;
_chemical_formula_sum "Si O2"
_cell_formula_units_Z 64
_cell_length_a 9.531575
_cell_length_b 30.779107
_cell_length_c 11.247654
_cell_angle_alpha 90.000000
_cell_angle_beta 90.000000
_cell_angle_gamma 90.000000
_cell_volume 3299.762123
_symmetry_space_group_name_H-M "A M M 2"
_symmetry_group_IT_number 38
_symmetry_cell_setting 'orthorhombic'
loop_
_space_group_symop_operation_xyz
x,y,z
-x,-y,z
-x,y,z
x,-y,z
x,1/2+y,1/2+z
-x,1/2-y,1/2+z
-x,1/2+y,1/2+z
x,1/2-y,1/2+z
loop_
_atom_site_type_symbol
_atom_site_label
_atom_site_fract_x
_atom_site_fract_y
_atom_site_fract_z
Si Si1 0.660576 0.115412 0.047720
Si Si2 0.352238 0.709452 0.436315
Si Si3 0.160707 0.590661 0.330998
Si Si4 0.658843 0.869923 0.480648
Si Si5 0.763584 0.677125 0.207687
Si Si6 0.167594 0.651418 0.753263
Si Si7 0.150396 0.763645 0.117595
Si Si8 0.340117 0.950716 0.630241
O O1 0.500000 0.097390 0.066487
O O2 0.750953 0.116503 0.169698
O O3 0.652731 0.163689 0.000933
O O4 0.747610 0.087075 0.951635
O O5 0.500000 0.732859 0.459400
O O6 0.340427 0.702249 0.296208
O O7 0.238572 0.740392 0.496489
O O8 0.154573 0.639457 0.277934
O O9 0.232904 0.558644 0.236993
O O10 0.000000 0.576161 0.355694
O O11 0.500000 0.864615 0.431418
O O12 0.673710 0.841507 0.599586
O O13 0.773207 0.854732 0.385557
O O14 0.689796 0.919964 0.516823
O O15 0.868648 0.715189 0.167994
O O16 0.206058 0.700839 0.713202
O O17 0.000000 0.642605 0.752524
O O18 0.000000 0.781000 0.075885
O O19 0.500000 0.942687 0.675661
O O20 0.318303 0.000000 0.587129
#
# Coordination Sequence:
#
# PCOD8178384 Si02
#       8
#     8   8   8   8   8   8   8   8
#     4   9  17  33  55  76 103 139 180 222 268 323
#     4   9  19  34  51  71  94 127 174 226 274 316
#     4  10  19  32  55  84 112 141 177 224 277 330
#     4  10  21  37  57  81 109 143 184 230 281 335
#     4  10  21  35  51  75 103 142 181 228 273 330
#     4  10  21  36  53  77 109 147 190 232 276 327
#     4  10  22  36  50  70 100 141 185 228 273 325
#     4   9  19  37  60  85 114 147 183 224 276 340
#
# _framework density 19.395337000000001
#
# number of rings (size 3 to 8) (size 9 to 14) (size 15 to 20)
#    0.000    2.375    0.000    1.875    1.750   10.750 
#    0.000    0.000    0.000    0.750    0.000    1.750 
#    0.000    0.000    0.000    0.000    0.000    0.000 
#
# Total GULP energy -396547.514180 kJ/mol
# GULP energy per Si atom -12392.109818 kJ/mol
# Density = 1.935119 g / cm^3
# Si number density = 19.395337 Si / 1000 Ang^3
#
#
#
# Elastic Constant Matrix: (Units=GPa)
#
#
# Indices 1 2 3 4 5 6 
#
# 1 134.2818 29.6826 52.4551 0.0000 0.0000 0.0000
# 2 29.6826 78.3531 31.8407 0.0000 0.0000 0.0000
# 3 52.4551 31.8407 108.5045 0.0000 0.0000 0.0000
# 4 0.0000 0.0000 0.0000 15.5313 0.0000 0.0000
# 5 0.0000 0.0000 0.0000 0.0000 29.7692 0.0000
# 6 0.0000 0.0000 0.0000 0.0000 0.0000 16.1258
#
#
#
# Elastic Compliance Matrix: (Units=1/GPa)
#
#
# Indices 1 2 3 4 5 6 
#
# 1 0.009437 -0.001954 -0.003989 0.000000 0.000000 0.000000
# 2 -0.001954 0.014895 -0.003426 0.000000 0.000000 0.000000
# 3 -0.003989 -0.003426 0.012150 0.000000 0.000000 0.000000
# 4 0.000000 0.000000 0.000000 0.064386 0.000000 0.000000
# 5 0.000000 0.000000 0.000000 0.000000 0.033592 0.000000
# 6 0.000000 0.000000 0.000000 0.000000 0.000000 0.062013
#
#
# Mechanical properties :
#
#
# Convention : Reuss Voigt Hill
#
# Bulk Modulus (GPa) = 56.35729 61.01069 58.68399
# Shear Modulus (GPa) = 22.61151 26.09598 24.35375
#
# Velocity S-wave (km/s) = 3.41812 3.67205 3.54736
# Velocity P-wave (km/s) = 6.68568 7.03586 6.86300
#
# Compressibility (1/GPa) = 0.01774393
#
# Stress axis : x y z
#
# Youngs Moduli (GPa) = 105.96415 67.13479 82.30435
#
# Poissons Ratio (x) = 0.13119 0.32830
# Poissons Ratio (y) = 0.20707 0.28200
# Poissons Ratio (z) = 0.42267 0.23003
#
# Static dielectric constant tensor:
#      x y z
#    x 3.680240 0.000000 0.000000 
#    y 0.000000 3.278470 0.000000 
#    z 0.000000 0.000000 3.530910 
# 
# 
# High freq. dielectric constant tensor:
#      x y z
#    x 1.764520 0.000000 0.000000 
#    y 0.000000 1.717150 0.000000 
#    z 0.000000 0.000000 1.747940 
# 
# From -- ./inp_files/8666.got.cif
#   From: 2010.03.12/outbox.cif.g09.slc.cpg/sg38_5_cif.got.tgz:8666.got - 2010.04.14 02:38:36.
