data_PCOD8178550
_publ_section_title
;
Structure prediction by ZEFSAII (Michael W. Deem and Ramdas Pophale) SiO2 
 PCOD8178550
Probable space group: A M M 2
;
_chemical_formula_sum "Si O2"
_cell_formula_units_Z 64
_cell_length_a 8.522551
_cell_length_b 27.470891
_cell_length_c 14.720262
_cell_angle_alpha 90.000000
_cell_angle_beta 90.000000
_cell_angle_gamma 90.000000
_cell_volume 3446.338204
_symmetry_space_group_name_H-M "A M M 2"
_symmetry_group_IT_number 38
_symmetry_cell_setting 'orthorhombic'
loop_
_space_group_symop_operation_xyz
x,y,z
-x,-y,z
-x,y,z
x,-y,z
x,1/2+y,1/2+z
-x,1/2-y,1/2+z
-x,1/2+y,1/2+z
x,1/2-y,1/2+z
loop_
_atom_site_type_symbol
_atom_site_label
_atom_site_fract_x
_atom_site_fract_y
_atom_site_fract_z
Si Si1 0.184310 0.174196 0.959390
Si Si2 0.317737 0.222516 0.264599
Si Si3 0.316695 0.443527 0.769775
Si Si4 0.183552 0.943739 0.463203
Si Si5 0.815042 0.637100 0.647545
Si Si6 0.184174 0.672497 0.259546
Si Si7 0.681916 0.862184 0.581884
Si Si8 0.183603 0.717178 0.953934
O O1 0.248859 0.157849 0.860358
O O2 0.240954 0.228972 0.983269
O O3 0.000000 0.175836 0.948822
O O4 0.233379 0.137805 0.040516
O O5 0.500000 0.235800 0.257967
O O6 0.277414 0.180876 0.193417
O O7 0.217298 0.270497 0.242295
O O8 0.276518 0.201232 0.363732
O O9 0.500000 0.431986 0.772991
O O10 0.281450 0.500000 0.751838
O O11 0.242011 0.426257 0.864627
O O12 0.236718 0.414535 0.687698
O O13 0.272417 0.914435 0.541428
O O14 0.000000 0.933321 0.469850
O O15 0.225445 0.000000 0.478369
O O16 0.000000 0.644972 0.660356
O O17 0.276033 0.638592 0.188410
O O18 0.000000 0.662969 0.248285
O O19 0.500000 0.852339 0.566795
O O20 0.780094 0.819639 0.534514
O O21 0.000000 0.715694 0.931523
#
# Coordination Sequence:
#
# PCOD8178550 Si02
#       8
#     8   8   8   8   8   8   8   8
#     4   8  18  34  53  74  98 133 176 220 257 293
#     4  11  21  33  49  76 111 142 175 216 263 311
#     4  10  21  37  55  78 109 139 167 208 263 317
#     4  10  21  38  59  81 104 134 172 212 257 312
#     4  11  20  33  54  78 103 135 177 218 259 311
#     4  10  20  37  55  73 102 141 183 221 259 305
#     4  12  23  34  52  80 109 138 173 215 266 316
#     4  10  19  34  53  74 104 143 181 215 256 309
#
# _framework density 18.570435
#
# number of rings (size 3 to 8) (size 9 to 14) (size 15 to 20)
#    0.000    1.750    0.000    6.375    0.000    2.500 
#    0.000    6.875    0.000    0.750    0.000    1.750 
#    0.000    0.000    0.000    0.000    0.000    0.000 
#
# Total GULP energy -396859.076252 kJ/mol
# GULP energy per Si atom -12401.846133 kJ/mol
# Density = 1.852817 g / cm^3
# Si number density = 18.570435 Si / 1000 Ang^3
#
#
#
# Elastic Constant Matrix: (Units=GPa)
#
#
# Indices 1 2 3 4 5 6 
#
# 1 65.4136 20.1237 24.8336 0.0000 0.0000 0.0000
# 2 20.1237 70.9374 61.4914 0.0000 0.0000 0.0000
# 3 24.8336 61.4914 134.6552 0.0000 0.0000 0.0000
# 4 0.0000 0.0000 0.0000 29.4907 0.0000 0.0000
# 5 0.0000 0.0000 0.0000 0.0000 17.5251 0.0000
# 6 0.0000 0.0000 0.0000 0.0000 0.0000 25.6948
#
#
#
# Elastic Compliance Matrix: (Units=1/GPa)
#
#
# Indices 1 2 3 4 5 6 
#
# 1 0.016939 -0.003472 -0.001539 0.000000 0.000000 0.000000
# 2 -0.003472 0.024045 -0.010340 0.000000 0.000000 0.000000
# 3 -0.001539 -0.010340 0.012432 0.000000 0.000000 0.000000
# 4 0.000000 0.000000 0.000000 0.033909 0.000000 0.000000
# 5 0.000000 0.000000 0.000000 0.000000 0.057061 0.000000
# 6 0.000000 0.000000 0.000000 0.000000 0.000000 0.038918
#
#
# Mechanical properties :
#
#
# Convention : Reuss Voigt Hill
#
# Bulk Modulus (GPa) = 44.02246 53.76707 48.89477
# Shear Modulus (GPa) = 22.56546 25.51262 24.03904
#
# Velocity S-wave (km/s) = 3.48965 3.71054 3.60179
# Velocity P-wave (km/s) = 6.32408 6.88283 6.60937
#
# Compressibility (1/GPa) = 0.02271568
#
# Stress axis : x y z
#
# Youngs Moduli (GPa) = 59.03367 41.58871 80.43735
#
# Poissons Ratio (x) = 0.14438 0.12377
# Poissons Ratio (y) = 0.20494 0.83173
# Poissons Ratio (z) = 0.09083 0.43003
#
# Static dielectric constant tensor:
#      x y z
#    x 3.396110 0.000000 0.000000 
#    y 0.000000 3.235240 0.000000 
#    z 0.000000 0.000000 3.698420 
# 
# 
# High freq. dielectric constant tensor:
#      x y z
#    x 1.724850 0.000000 0.000000 
#    y 0.000000 1.695160 0.000000 
#    z 0.000000 0.000000 1.724810 
# 
# From -- ./inp_files/12819.got.cif
#   From: 2010.03.12/outbox.cif.g09.slc.cpg/sg38_7_cif.got.tgz:12819.got - 2010.04.14 02:38:36.
