data_PCOD8178902
_publ_section_title
;
Structure prediction by ZEFSAII (Michael W. Deem and Ramdas Pophale) SiO2 
 PCOD8178902
Probable space group: A M M 2
;
_chemical_formula_sum "Si O2"
_cell_formula_units_Z 56
_cell_length_a 8.963425
_cell_length_b 20.241143
_cell_length_c 15.539239
_cell_angle_alpha 90.000000
_cell_angle_beta 90.000000
_cell_angle_gamma 90.000000
_cell_volume 2819.283622
_symmetry_space_group_name_H-M "A M M 2"
_symmetry_group_IT_number 38
_symmetry_cell_setting 'orthorhombic'
loop_
_space_group_symop_operation_xyz
x,y,z
-x,-y,z
-x,y,z
x,-y,z
x,1/2+y,1/2+z
-x,1/2-y,1/2+z
-x,1/2+y,1/2+z
x,1/2-y,1/2+z
loop_
_atom_site_type_symbol
_atom_site_label
_atom_site_fract_x
_atom_site_fract_y
_atom_site_fract_z
Si Si1 0.330615 0.925643 0.815560
Si Si2 0.674862 0.076018 0.311685
Si Si3 0.327837 0.202921 0.720290
Si Si4 0.327917 0.881532 0.119002
Si Si5 0.174354 0.249315 0.057714
Si Si6 0.823306 0.205944 0.366432
Si Si7 0.160337 0.927216 0.974647
O O1 0.500000 0.927042 0.847850
O O2 0.308901 0.874646 0.738360
O O3 0.281917 0.000000 0.787225
O O4 0.236318 0.892211 0.892922
O O5 0.500000 0.083140 0.331141
O O6 0.710650 0.093273 0.213078
O O7 0.765264 0.129748 0.367340
O O8 0.725998 0.000000 0.330693
O O9 0.500000 0.225628 0.719584
O O10 0.261186 0.204809 0.624838
O O11 0.248801 0.252137 0.788379
O O12 0.500000 0.861418 0.110161
O O13 0.220146 0.824156 0.083995
O O14 0.276674 0.937579 0.053016
O O15 0.000000 0.261195 0.070256
O O16 0.221923 0.263769 0.959088
O O17 0.000000 0.205971 0.352571
O O18 0.000000 0.892248 0.996742
O O19 0.126223 0.000000 0.941332
#
# Coordination Sequence:
#
# PCOD8178902 Si02
#       7
#     8   8   8   8   8   8   8
#     4   9  19  36  57  82 114 153 198 247 299 356
#     4  10  22  40  62  89 122 161 208 261 315 372
#     4  11  22  38  62  90 119 156 201 251 306 363
#     4  11  21  35  57  86 116 152 196 246 306 365
#     4  11  24  40  60  88 120 156 202 252 306 364
#     4  11  24  41  62  89 124 165 208 256 308 370
#     4  10  20  32  49  78 115 153 191 231 285 353
#
# _framework density 19.863202000000001
#
# number of rings (size 3 to 8) (size 9 to 14) (size 15 to 20)
#    0.000    1.571    1.429    3.429    0.000    8.000 
#    0.000    0.714    0.000    2.571    0.000    0.000 
#    0.000    0.000    0.000    0.000    0.000    0.000 
#
# Total GULP energy -346902.200434 kJ/mol
# GULP energy per Si atom -12389.364301 kJ/mol
# Density = 1.981799 g / cm^3
# Si number density = 19.863202 Si / 1000 Ang^3
#
#
#
# Elastic Constant Matrix: (Units=GPa)
#
#
# Indices 1 2 3 4 5 6 
#
# 1 80.2464 36.1676 41.2981 0.0000 0.0000 0.0000
# 2 36.1676 102.7621 26.3103 0.0000 0.0000 0.0000
# 3 41.2981 26.3103 86.9872 0.0000 0.0000 0.0000
# 4 0.0000 0.0000 0.0000 20.2929 0.0000 0.0000
# 5 0.0000 0.0000 0.0000 0.0000 33.7252 0.0000
# 6 0.0000 0.0000 0.0000 0.0000 0.0000 23.8266
#
#
#
# Elastic Compliance Matrix: (Units=1/GPa)
#
#
# Indices 1 2 3 4 5 6 
#
# 1 0.018273 -0.004563 -0.007295 0.000000 0.000000 0.000000
# 2 -0.004563 0.011688 -0.001369 0.000000 0.000000 0.000000
# 3 -0.007295 -0.001369 0.015373 0.000000 0.000000 0.000000
# 4 0.000000 0.000000 0.000000 0.049278 0.000000 0.000000
# 5 0.000000 0.000000 0.000000 0.000000 0.029651 0.000000
# 6 0.000000 0.000000 0.000000 0.000000 0.000000 0.041970
#
#
# Mechanical properties :
#
#
# Convention : Reuss Voigt Hill
#
# Bulk Modulus (GPa) = 52.96649 53.06086 53.01368
# Shear Modulus (GPa) = 25.12814 26.65025 25.88920
#
# Velocity S-wave (km/s) = 3.56063 3.66688 3.61414
# Velocity P-wave (km/s) = 6.60512 6.68574 6.64555
#
# Compressibility (1/GPa) = 0.01887986
#
# Stress axis : x y z
#
# Youngs Moduli (GPa) = 54.72675 85.55982 65.04835
#
# Poissons Ratio (x) = 0.39045 0.47452
# Poissons Ratio (y) = 0.24974 0.08902
# Poissons Ratio (z) = 0.39922 0.11709
#
# Static dielectric constant tensor:
#      x y z
#    x 3.983610 0.000000 0.000000 
#    y 0.000000 3.898700 0.000000 
#    z 0.000000 0.000000 3.672300 
# 
# 
# High freq. dielectric constant tensor:
#      x y z
#    x 1.784490 0.000000 0.000000 
#    y 0.000000 1.780970 0.000000 
#    z 0.000000 0.000000 1.760960 
# 
# From -- ./inp_files/12404.got.cif
#   From: 2010.03.12/outbox.cif.g09.slc.cpg/sg38_7_cif.got.tgz:12404.got - 2010.04.14 02:38:36.
