data_PCOD8178768
_publ_section_title
;
Structure prediction by ZEFSAII (Michael W. Deem and Ramdas Pophale) SiO2 
 PCOD8178768
Probable space group: A M M 2
;
_chemical_formula_sum "Si O2"
_cell_formula_units_Z 40
_cell_length_a 16.545994
_cell_length_b 8.481226
_cell_length_c 14.526270
_cell_angle_alpha 90.000000
_cell_angle_beta 90.000000
_cell_angle_gamma 90.000000
_cell_volume 2038.476038
_symmetry_space_group_name_H-M "A M M 2"
_symmetry_group_IT_number 38
_symmetry_cell_setting 'orthorhombic'
loop_
_space_group_symop_operation_xyz
x,y,z
-x,-y,z
-x,y,z
x,-y,z
x,1/2+y,1/2+z
-x,1/2-y,1/2+z
-x,1/2+y,1/2+z
x,1/2-y,1/2+z
loop_
_atom_site_type_symbol
_atom_site_label
_atom_site_fract_x
_atom_site_fract_y
_atom_site_fract_z
Si Si1 0.590885 0.820472 0.836500
Si Si2 0.592469 0.680846 0.644484
Si Si3 0.696410 0.819125 0.492093
Si Si4 0.126217 0.312823 0.497960
Si Si5 0.000000 0.188436 0.357491
Si Si6 0.000000 0.814211 0.148115
O O1 0.500000 0.789174 0.873790
O O2 0.610257 0.706028 0.751862
O O3 0.654122 0.788978 0.916493
O O4 0.599988 0.000000 0.803002
O O5 0.500000 0.726031 0.621595
O O6 0.610272 0.500000 0.618968
O O7 0.651880 0.793401 0.588659
O O8 0.788719 0.771893 0.502106
O O9 0.689542 0.000000 0.462480
O O10 0.136471 0.500000 0.493308
O O11 0.079522 0.255520 0.406943
O O12 0.078715 0.259700 0.590428
O O13 0.000000 0.253448 0.251988
O O14 0.000000 0.000000 0.361418
O O15 0.000000 0.000000 0.154661
#
# Coordination Sequence:
#
# PCOD8178768 Si02
#       6
#     8   8   8   8   4   4
#     4  10  21  38  59  83 112 149 194 241 288 341
#     4  10  21  38  59  83 113 151 193 237 287 343
#     4  12  24  37  56  84 117 153 192 238 289 337
#     4  10  21  39  58  82 114 148 187 229 279 340
#     4  10  19  37  62  87 112 141 181 228 282 343
#     4   8  18  37  62  83 106 143 179 218 274 335
#
# _framework density 19.622502000000001
#
# number of rings (size 3 to 8) (size 9 to 14) (size 15 to 20)
#    0.000    1.800    0.000    5.100    0.000    6.400 
#    0.000   12.000    0.000    0.000    0.000    0.000 
#    0.000    0.000    0.000    0.000    0.000    0.000 
#
# Total GULP energy -248060.565472 kJ/mol
# GULP energy per Si atom -12403.028274 kJ/mol
# Density = 1.957784 g / cm^3
# Si number density = 19.622502 Si / 1000 Ang^3
#
#
#
# Elastic Constant Matrix: (Units=GPa)
#
#
# Indices 1 2 3 4 5 6 
#
# 1 132.0980 26.4264 61.3120 0.0000 0.0000 0.0000
# 2 26.4264 70.7656 19.1262 0.0000 0.0000 0.0000
# 3 61.3120 19.1262 122.6605 0.0000 0.0000 0.0000
# 4 0.0000 0.0000 0.0000 32.8818 0.0000 0.0000
# 5 0.0000 0.0000 0.0000 0.0000 80.6092 0.0000
# 6 0.0000 0.0000 0.0000 0.0000 0.0000 32.6767
#
#
#
# Elastic Compliance Matrix: (Units=1/GPa)
#
#
# Indices 1 2 3 4 5 6 
#
# 1 0.010282 -0.002558 -0.004741 0.000000 0.000000 0.000000
# 2 -0.002558 0.015390 -0.001121 0.000000 0.000000 0.000000
# 3 -0.004741 -0.001121 0.010697 0.000000 0.000000 0.000000
# 4 0.000000 0.000000 0.000000 0.030412 0.000000 0.000000
# 5 0.000000 0.000000 0.000000 0.000000 0.012406 0.000000
# 6 0.000000 0.000000 0.000000 0.000000 0.000000 0.030603
#
#
# Mechanical properties :
#
#
# Convention : Reuss Voigt Hill
#
# Bulk Modulus (GPa) = 51.20624 59.91704 55.56164
# Shear Modulus (GPa) = 37.55483 43.81085 40.68284
#
# Velocity S-wave (km/s) = 4.37952 4.73025 4.55826
# Velocity P-wave (km/s) = 7.19207 7.77399 7.48869
#
# Compressibility (1/GPa) = 0.01952887
#
# Stress axis : x y z
#
# Youngs Moduli (GPa) = 97.25440 64.97935 93.48424
#
# Poissons Ratio (x) = 0.16625 0.44318
# Poissons Ratio (y) = 0.24882 0.10478
# Poissons Ratio (z) = 0.46105 0.07283
#
# Static dielectric constant tensor:
#      x y z
#    x 3.564400 0.000000 0.000000 
#    y 0.000000 3.601160 0.000000 
#    z 0.000000 0.000000 3.673180 
# 
# 
# High freq. dielectric constant tensor:
#      x y z
#    x 1.764260 0.000000 0.000000 
#    y 0.000000 1.768250 0.000000 
#    z 0.000000 0.000000 1.768110 
# 
# From -- ./inp_files/14306.got.cif
#   From: 2010.03.12/outbox.cif.g09.slc.cpg/sg38_8_cif.got.tgz:14306.got - 2010.04.14 02:38:36.
