data_PCOD8178946
_publ_section_title
;
Structure prediction by ZEFSAII (Michael W. Deem and Ramdas Pophale) SiO2 
 PCOD8178946
Probable space group: A M M 2
;
_chemical_formula_sum "Si O2"
_cell_formula_units_Z 64
_cell_length_a 9.166452
_cell_length_b 14.247824
_cell_length_c 28.339381
_cell_angle_alpha 90.000000
_cell_angle_beta 90.000000
_cell_angle_gamma 90.000000
_cell_volume 3701.179690
_symmetry_space_group_name_H-M "A M M 2"
_symmetry_group_IT_number 38
_symmetry_cell_setting 'orthorhombic'
loop_
_space_group_symop_operation_xyz
x,y,z
-x,-y,z
-x,y,z
x,-y,z
x,1/2+y,1/2+z
-x,1/2-y,1/2+z
-x,1/2+y,1/2+z
x,1/2-y,1/2+z
loop_
_atom_site_type_symbol
_atom_site_label
_atom_site_fract_x
_atom_site_fract_y
_atom_site_fract_z
Si Si1 0.826122 0.749917 0.437550
Si Si2 0.670108 0.392872 0.111313
Si Si3 0.328752 0.260686 0.687107
Si Si4 0.829868 0.107644 0.118715
Si Si5 0.827165 0.396381 0.363263
Si Si6 0.171458 0.761154 0.543327
Si Si7 0.171129 0.250353 0.285332
Si Si8 0.827064 0.603779 0.862750
O O1 0.768111 0.658311 0.409496
O O2 0.764374 0.749607 0.490615
O O3 0.770035 0.841860 0.409315
O O4 0.000000 0.748427 0.438304
O O5 0.500000 0.385861 0.099895
O O6 0.719069 0.500000 0.120224
O O7 0.710498 0.332684 0.157535
O O8 0.755023 0.352098 0.066411
O O9 0.500000 0.277438 0.690468
O O10 0.258510 0.352298 0.663098
O O11 0.264560 0.246665 0.738487
O O12 0.789743 0.166410 0.071847
O O13 0.000000 0.116739 0.130790
O O14 0.784654 0.000000 0.109810
O O15 0.756572 0.500000 0.361972
O O16 0.785240 0.341858 0.315554
O O17 0.000000 0.402537 0.366739
O O18 0.000000 0.779759 0.542534
O O19 0.216506 0.158412 0.315130
O O20 0.000000 0.249439 0.272929
O O21 0.756849 0.500000 0.861608
O O22 0.000000 0.597958 0.865441
#
# Coordination Sequence:
#
# PCOD8178946 Si02
#       8
#     8   8   8   8   8   8   8   8
#     4   8  14  24  40  65  94 119 145 180 220 262
#     4   9  19  35  50  64  88 123 157 186 225 281
#     4  10  20  33  49  68  90 118 153 194 235 274
#     4   9  18  32  48  67  94 125 153 184 226 275
#     4   8  14  25  42  66  95 123 150 183 224 270
#     4   9  17  29  47  73  98 118 149 193 232 265
#     4   9  17  29  45  66  90 116 150 188 224 268
#     4   8  14  25  41  62  89 119 147 175 212 260
#
# _framework density 17.291785000000001
#
# number of rings (size 3 to 8) (size 9 to 14) (size 15 to 20)
#    0.000    3.250    0.000    1.875    0.000    3.000 
#    0.000    5.000    0.000    3.000    0.000    0.000 
#    0.000    0.000    0.000    0.000    0.000    0.000 
#
# Total GULP energy -396686.029404 kJ/mol
# GULP energy per Si atom -12396.438419 kJ/mol
# Density = 1.725243 g / cm^3
# Si number density = 17.291785 Si / 1000 Ang^3
#
#
#
# Elastic Constant Matrix: (Units=GPa)
#
#
# Indices 1 2 3 4 5 6 
#
# 1 29.4758 30.3722 37.0961 0.0000 0.0000 0.0000
# 2 30.3722 164.2929 76.3739 0.0000 0.0000 0.0000
# 3 37.0961 76.3739 156.6144 0.0000 0.0000 0.0000
# 4 0.0000 0.0000 0.0000 14.6587 0.0000 0.0000
# 5 0.0000 0.0000 0.0000 0.0000 9.7157 0.0000
# 6 0.0000 0.0000 0.0000 0.0000 0.0000 16.3125
#
#
#
# Elastic Compliance Matrix: (Units=1/GPa)
#
#
# Indices 1 2 3 4 5 6 
#
# 1 0.051277 -0.004957 -0.009728 0.000000 0.000000 0.000000
# 2 -0.004957 0.008350 -0.002898 0.000000 0.000000 0.000000
# 3 -0.009728 -0.002898 0.010103 0.000000 0.000000 0.000000
# 4 0.000000 0.000000 0.000000 0.068219 0.000000 0.000000
# 5 0.000000 0.000000 0.000000 0.000000 0.102927 0.000000
# 6 0.000000 0.000000 0.000000 0.000000 0.000000 0.061303
#
#
# Mechanical properties :
#
#
# Convention : Reuss Voigt Hill
#
# Bulk Modulus (GPa) = 28.93220 70.89638 49.91429
# Shear Modulus (GPa) = 14.33212 21.90674 18.11943
#
# Velocity S-wave (km/s) = 2.88208 3.56320 3.24058
# Velocity P-wave (km/s) = 5.27667 7.61692 6.55213
#
# Compressibility (1/GPa) = 0.03456356
#
# Stress axis : x y z
#
# Youngs Moduli (GPa) = 19.50174 119.75745 98.98477
#
# Poissons Ratio (x) = 0.59365 0.96296
# Poissons Ratio (y) = 0.09667 0.28685
# Poissons Ratio (z) = 0.18972 0.34704
#
# Static dielectric constant tensor:
#      x y z
#    x 2.806830 0.000000 0.000000 
#    y 0.000000 3.727000 0.000000 
#    z 0.000000 0.000000 3.308270 
# 
# 
# High freq. dielectric constant tensor:
#      x y z
#    x 1.623490 0.000000 0.000000 
#    y 0.000000 1.674530 0.000000 
#    z 0.000000 0.000000 1.671640 
# 
# From -- ./inp_files/24786.got.cif
#   From: 2010.03.12/outbox.cif.g09.slc.cpg/sg38_13_cif.got.tgz:24786.got - 2010.04.14 02:38:36.
