data_PCOD8178410
_publ_section_title
;
Structure prediction by ZEFSAII (Michael W. Deem and Ramdas Pophale) SiO2 
 PCOD8178410
Probable space group: A M M 2
;
_chemical_formula_sum "Si O2"
_cell_formula_units_Z 64
_cell_length_a 11.234137
_cell_length_b 30.969251
_cell_length_c 9.130806
_cell_angle_alpha 90.000000
_cell_angle_beta 90.000000
_cell_angle_gamma 90.000000
_cell_volume 3176.724360
_symmetry_space_group_name_H-M "A M M 2"
_symmetry_group_IT_number 38
_symmetry_cell_setting 'orthorhombic'
loop_
_space_group_symop_operation_xyz
x,y,z
-x,-y,z
-x,y,z
x,-y,z
x,1/2+y,1/2+z
-x,1/2-y,1/2+z
-x,1/2+y,1/2+z
x,1/2-y,1/2+z
loop_
_atom_site_type_symbol
_atom_site_label
_atom_site_fract_x
_atom_site_fract_y
_atom_site_fract_z
Si Si1 0.629517 0.796952 0.572230
Si Si2 0.365884 0.550385 0.376038
Si Si3 0.289130 0.611756 0.136105
Si Si4 0.133465 0.838563 0.866974
Si Si5 0.136314 0.949429 0.069757
Si Si6 0.249132 0.752420 0.817803
Si Si7 0.864546 0.673685 0.683063
Si Si8 0.134965 0.407037 0.871760
O O1 0.500000 0.783658 0.517441
O O2 0.636241 0.849119 0.564707
O O3 0.646567 0.780033 0.739214
O O4 0.719467 0.772445 0.465953
O O5 0.500000 0.557878 0.447184
O O6 0.350433 0.500000 0.339877
O O7 0.367609 0.577067 0.223911
O O8 0.250334 0.566417 0.471601
O O9 0.200727 0.634341 0.247603
O O10 0.220508 0.585112 0.009609
O O11 0.145682 0.786715 0.851742
O O12 0.000000 0.851836 0.838580
O O13 0.174673 0.851131 0.033129
O O14 0.167909 0.938416 0.237580
O O15 0.000000 0.930702 0.030785
O O16 0.128006 0.000000 0.052312
O O17 0.210849 0.716678 0.700832
O O18 0.847959 0.642349 0.820554
O O19 0.000000 0.688369 0.665106
O O20 0.000000 0.415478 0.922916
#
# Coordination Sequence:
#
# PCOD8178410 Si02
#       8
#     8   8   8   8   8   8   8   8
#     4  11  23  38  56  75 107 150 199 251 295 353
#     4  10  22  42  66  91 123 164 210 254 300 364
#     4  11  22  37  59  85 124 154 199 242 308 355
#     4  10  21  35  56  83 114 150 191 239 291 355
#     4   9  19  38  65  93 122 156 196 246 304 367
#     4  11  20  37  54  76 105 143 193 237 294 350
#     4  10  19  33  52  77 109 144 183 230 284 346
#     4  10  20  34  57  88 121 152 189 243 303 368
#
# _framework density 20.146540000000002
#
# number of rings (size 3 to 8) (size 9 to 14) (size 15 to 20)
#    0.000    1.750    2.500    2.250    0.000    2.500 
#    0.000    1.250    0.000    1.500    0.000    0.000 
#    0.000    0.000    0.000    0.000    0.000    0.000 
#
# Total GULP energy -396467.497536 kJ/mol
# GULP energy per Si atom -12389.609298 kJ/mol
# Density = 2.010069 g / cm^3
# Si number density = 20.146540 Si / 1000 Ang^3
#
#
#
# Elastic Constant Matrix: (Units=GPa)
#
#
# Indices 1 2 3 4 5 6 
#
# 1 91.7708 24.0479 43.1451 0.0000 0.0000 0.0000
# 2 24.0479 48.5264 16.0237 0.0000 0.0000 0.0000
# 3 43.1451 16.0237 88.9934 0.0000 0.0000 0.0000
# 4 0.0000 0.0000 0.0000 38.0100 0.0000 0.0000
# 5 0.0000 0.0000 0.0000 0.0000 22.5900 0.0000
# 6 0.0000 0.0000 0.0000 0.0000 0.0000 12.7194
#
#
#
# Elastic Compliance Matrix: (Units=1/GPa)
#
#
# Indices 1 2 3 4 5 6 
#
# 1 0.015374 -0.005483 -0.006466 0.000000 0.000000 0.000000
# 2 -0.005483 0.023866 -0.001639 0.000000 0.000000 0.000000
# 3 -0.006466 -0.001639 0.014667 0.000000 0.000000 0.000000
# 4 0.000000 0.000000 0.000000 0.026309 0.000000 0.000000
# 5 0.000000 0.000000 0.000000 0.000000 0.044267 0.000000
# 6 0.000000 0.000000 0.000000 0.000000 0.000000 0.078620
#
#
# Mechanical properties :
#
#
# Convention : Reuss Voigt Hill
#
# Bulk Modulus (GPa) = 37.41147 43.96931 40.69039
# Shear Modulus (GPa) = 20.90403 24.40214 22.65308
#
# Velocity S-wave (km/s) = 3.22467 3.48405 3.35687
# Velocity P-wave (km/s) = 5.69866 6.16903 5.93850
#
# Compressibility (1/GPa) = 0.02672977
#
# Stress axis : x y z
#
# Youngs Moduli (GPa) = 65.04696 41.90085 68.18205
#
# Poissons Ratio (x) = 0.22976 0.44086
# Poissons Ratio (y) = 0.35668 0.11173
# Poissons Ratio (z) = 0.42059 0.06866
#
# Static dielectric constant tensor:
#      x y z
#    x 3.695250 0.000000 0.000000 
#    y 0.000000 3.752570 0.000000 
#    z 0.000000 0.000000 3.623290 
# 
# 
# High freq. dielectric constant tensor:
#      x y z
#    x 1.774360 0.000000 0.000000 
#    y 0.000000 1.792240 0.000000 
#    z 0.000000 0.000000 1.780720 
# 
# From -- ./inp_files/4928.got.cif
#   From: 2010.03.12/outbox.cif.g09.slc.cpg/sg38_3_cif.got.tgz:4928.got - 2010.04.14 02:38:36.
