data_PCOD8178861
_publ_section_title
;
Structure prediction by ZEFSAII (Michael W. Deem and Ramdas Pophale) SiO2 
 PCOD8178861
Probable space group: A M M 2
;
_chemical_formula_sum "Si O2"
_cell_formula_units_Z 64
_cell_length_a 20.741339
_cell_length_b 9.280295
_cell_length_c 18.728729
_cell_angle_alpha 90.000000
_cell_angle_beta 90.000000
_cell_angle_gamma 90.000000
_cell_volume 3605.013347
_symmetry_space_group_name_H-M "A M M 2"
_symmetry_group_IT_number 38
_symmetry_cell_setting 'orthorhombic'
loop_
_space_group_symop_operation_xyz
x,y,z
-x,-y,z
-x,y,z
x,-y,z
x,1/2+y,1/2+z
-x,1/2-y,1/2+z
-x,1/2+y,1/2+z
x,1/2-y,1/2+z
loop_
_atom_site_type_symbol
_atom_site_label
_atom_site_fract_x
_atom_site_fract_y
_atom_site_fract_z
Si Si1 0.570966 0.668248 0.509540
Si Si2 0.812172 0.329392 0.752778
Si Si3 0.293814 0.662856 0.169577
Si Si4 0.074697 0.333537 0.498804
Si Si5 0.181563 0.829422 0.415375
Si Si6 0.070860 0.671294 0.659704
Si Si7 0.305608 0.667441 0.001949
Si Si8 0.568498 0.337702 0.152262
O O1 0.500000 0.698301 0.473970
O O2 0.586895 0.500000 0.507993
O O3 0.630373 0.751725 0.471916
O O4 0.567670 0.720060 0.590743
O O5 0.810333 0.500000 0.747215
O O6 0.750074 0.271977 0.712086
O O7 0.810917 0.277014 0.834053
O O8 0.876454 0.267137 0.714726
O O9 0.269446 0.500000 0.182457
O O10 0.367267 0.684884 0.199852
O O11 0.293658 0.699550 0.085394
O O12 0.094085 0.500000 0.490427
O O13 0.116745 0.239411 0.445508
O O14 0.088441 0.279497 0.579482
O O15 0.000000 0.310113 0.479302
O O16 0.243727 0.774232 0.458948
O O17 0.173982 0.000000 0.420862
O O18 0.068919 0.500000 0.661604
O O19 0.000000 0.731192 0.681244
O O20 0.315968 0.500000 0.986647
O O21 0.500000 0.324633 0.195411
O O22 0.573956 0.500000 0.118617
#
# Coordination Sequence:
#
# PCOD8178861 Si02
#       8
#     8   8   8   8   8   8   8   8
#     4   9  16  25  41  69  98 119 149 197 245 285
#     4  10  20  32  48  70  95 124 156 192 234 277
#     4   9  17  29  47  69  92 122 158 194 231 274
#     4   9  18  33  53  75  97 123 156 192 232 281
#     4  10  21  34  48  70  98 127 161 198 234 277
#     4   8  15  30  51  72  93 119 153 189 225 272
#     4   9  18  32  48  67  94 128 163 196 234 284
#     4   8  14  26  44  66  93 124 156 190 233 284
#
# _framework density 17.753053999999999
#
# number of rings (size 3 to 8) (size 9 to 14) (size 15 to 20)
#    0.000    3.000    0.000    2.625    0.000    4.500 
#    0.000    1.250    0.000    1.875    0.000    3.500 
#    0.000    0.000    0.000    0.000    0.000    0.000 
#
# Total GULP energy -396523.090267 kJ/mol
# GULP energy per Si atom -12391.346571 kJ/mol
# Density = 1.771265 g / cm^3
# Si number density = 17.753054 Si / 1000 Ang^3
#
#
#
# Elastic Constant Matrix: (Units=GPa)
#
#
# Indices 1 2 3 4 5 6 
#
# 1 154.3462 40.3101 65.0292 0.0000 0.0000 0.0000
# 2 40.3101 37.9904 24.8222 0.0000 0.0000 0.0000
# 3 65.0292 24.8222 76.8256 0.0000 0.0000 0.0000
# 4 0.0000 0.0000 0.0000 12.5356 0.0000 0.0000
# 5 0.0000 0.0000 0.0000 0.0000 3.8128 0.0000
# 6 0.0000 0.0000 0.0000 0.0000 0.0000 32.4447
#
#
#
# Elastic Compliance Matrix: (Units=1/GPa)
#
#
# Indices 1 2 3 4 5 6 
#
# 1 0.011511 -0.007412 -0.007348 0.000000 0.000000 0.000000
# 2 -0.007412 0.038139 -0.006049 0.000000 0.000000 0.000000
# 3 -0.007348 -0.006049 0.021191 0.000000 0.000000 0.000000
# 4 0.000000 0.000000 0.000000 0.079773 0.000000 0.000000
# 5 0.000000 0.000000 0.000000 0.000000 0.262272 0.000000
# 6 0.000000 0.000000 0.000000 0.000000 0.000000 0.030822
#
#
# Mechanical properties :
#
#
# Convention : Reuss Voigt Hill
#
# Bulk Modulus (GPa) = 34.22033 58.83168 46.52600
# Shear Modulus (GPa) = 10.09964 19.02534 14.56249
#
# Velocity S-wave (km/s) = 2.38774 3.27718 2.86716
# Velocity P-wave (km/s) = 5.18838 6.89425 6.10123
#
# Compressibility (1/GPa) = 0.02922240
#
# Stress axis : x y z
#
# Youngs Moduli (GPa) = 86.87437 26.21957 47.19005
#
# Poissons Ratio (x) = 0.19435 0.34677
# Poissons Ratio (y) = 0.64395 0.28543
# Poissons Ratio (z) = 0.63839 0.15859
#
# Static dielectric constant tensor:
#      x y z
#    x 3.805080 0.000000 0.000000 
#    y 0.000000 3.079130 0.000000 
#    z 0.000000 0.000000 3.017550 
# 
# 
# High freq. dielectric constant tensor:
#      x y z
#    x 1.712210 0.000000 0.000000 
#    y 0.000000 1.669750 0.000000 
#    z 0.000000 0.000000 1.641790 
# 
# From -- ./inp_files/18997.got.cif
#   From: 2010.03.12/outbox.cif.g09.slc.cpg/sg38_10_cif.got.tgz:18997.got - 2010.04.14 02:38:36.
