data_PCOD8178877
_publ_section_title
;
Structure prediction by ZEFSAII (Michael W. Deem and Ramdas Pophale) SiO2 
 PCOD8178877
Probable space group: A M M 2
;
_chemical_formula_sum "Si O2"
_cell_formula_units_Z 64
_cell_length_a 8.632496
_cell_length_b 30.053957
_cell_length_c 14.300913
_cell_angle_alpha 90.000000
_cell_angle_beta 90.000000
_cell_angle_gamma 90.000000
_cell_volume 3710.238359
_symmetry_space_group_name_H-M "A M M 2"
_symmetry_group_IT_number 38
_symmetry_cell_setting 'orthorhombic'
loop_
_space_group_symop_operation_xyz
x,y,z
-x,-y,z
-x,y,z
x,-y,z
x,1/2+y,1/2+z
-x,1/2-y,1/2+z
-x,1/2+y,1/2+z
x,1/2-y,1/2+z
loop_
_atom_site_type_symbol
_atom_site_label
_atom_site_fract_x
_atom_site_fract_y
_atom_site_fract_z
Si Si1 0.177737 0.049392 0.281530
Si Si2 0.819558 0.862873 0.181097
Si Si3 0.319273 0.450252 0.980725
Si Si4 0.820226 0.863837 0.517945
Si Si5 0.819667 0.725046 0.352242
Si Si6 0.318463 0.695118 0.533975
Si Si7 0.182037 0.720108 0.139466
Si Si8 0.679188 0.683261 0.852836
O O1 0.218122 0.085211 0.200613
O O2 0.283671 0.057565 0.371371
O O3 0.000000 0.055123 0.314075
O O4 0.206639 0.000000 0.239625
O O5 0.766060 0.848080 0.078226
O O6 0.720297 0.831648 0.248989
O O7 0.000000 0.852480 0.195825
O O8 0.500000 0.444011 0.997494
O O9 0.265750 0.500000 0.010115
O O10 0.228224 0.414331 0.045707
O O11 0.776702 0.828257 0.597440
O O12 0.719828 0.855619 0.424856
O O13 0.000000 0.861436 0.493090
O O14 0.727745 0.693896 0.424708
O O15 0.759867 0.717755 0.246549
O O16 0.785624 0.775458 0.382832
O O17 0.000000 0.714542 0.361924
O O18 0.500000 0.689501 0.544865
O O19 0.267847 0.741107 0.583412
O O20 0.000000 0.730599 0.134804
O O21 0.500000 0.696822 0.858456
#
# Coordination Sequence:
#
# PCOD8178877 Si02
#       8
#     8   8   8   8   8   8   8   8
#     4   9  18  32  51  74 100 133 172 212 256 307
#     4  11  21  34  52  74 104 142 177 213 257 309
#     4  10  20  32  48  73 105 138 171 211 259 307
#     4  11  21  34  52  75 102 139 178 212 257 311
#     4  11  22  38  55  72 101 138 177 217 261 308
#     4  12  24  35  52  76 104 137 176 218 257 304
#     4  10  22  37  55  74  99 135 175 215 259 309
#     4  12  22  31  48  76 107 138 176 216 255 303
#
# _framework density 17.249566999999999
#
# number of rings (size 3 to 8) (size 9 to 14) (size 15 to 20)
#    0.000    1.250    3.750    3.750    0.000    2.250 
#    0.000    0.000    0.000    0.000    0.000    0.875 
#    0.000    3.000    0.000    0.000    0.000    0.000 
#
# Total GULP energy -396811.179293 kJ/mol
# GULP energy per Si atom -12400.349353 kJ/mol
# Density = 1.721031 g / cm^3
# Si number density = 17.249567 Si / 1000 Ang^3
#
#
#
# Elastic Constant Matrix: (Units=GPa)
#
#
# Indices 1 2 3 4 5 6 
#
# 1 61.5731 30.6165 25.1544 0.0000 0.0000 0.0000
# 2 30.6165 103.8775 26.1139 0.0000 0.0000 0.0000
# 3 25.1544 26.1139 66.2433 0.0000 0.0000 0.0000
# 4 0.0000 0.0000 0.0000 26.6024 0.0000 0.0000
# 5 0.0000 0.0000 0.0000 0.0000 18.0053 0.0000
# 6 0.0000 0.0000 0.0000 0.0000 0.0000 20.9302
#
#
#
# Elastic Compliance Matrix: (Units=1/GPa)
#
#
# Indices 1 2 3 4 5 6 
#
# 1 0.021078 -0.004662 -0.006166 0.000000 0.000000 0.000000
# 2 -0.004662 0.011717 -0.002849 0.000000 0.000000 0.000000
# 3 -0.006166 -0.002849 0.018560 0.000000 0.000000 0.000000
# 4 0.000000 0.000000 0.000000 0.037591 0.000000 0.000000
# 5 0.000000 0.000000 0.000000 0.000000 0.055539 0.000000
# 6 0.000000 0.000000 0.000000 0.000000 0.000000 0.047778
#
#
# Mechanical properties :
#
#
# Convention : Reuss Voigt Hill
#
# Bulk Modulus (GPa) = 41.66411 43.94041 42.80226
# Shear Modulus (GPa) = 21.96669 23.09487 22.53078
#
# Velocity S-wave (km/s) = 3.57243 3.66302 3.61801
# Velocity P-wave (km/s) = 6.42048 6.58931 6.50544
#
# Compressibility (1/GPa) = 0.02400147
#
# Stress axis : x y z
#
# Youngs Moduli (GPa) = 47.44243 85.34602 53.87880
#
# Poissons Ratio (x) = 0.39792 0.33222
# Poissons Ratio (y) = 0.22120 0.15347
# Poissons Ratio (z) = 0.29253 0.24311
#
# Static dielectric constant tensor:
#      x y z
#    x 3.202820 0.000000 0.000000 
#    y 0.000000 3.412060 0.000000 
#    z 0.000000 0.000000 3.113130 
# 
# 
# High freq. dielectric constant tensor:
#      x y z
#    x 1.674300 0.000000 0.000000 
#    y 0.000000 1.661250 0.000000 
#    z 0.000000 0.000000 1.633260 
# 
# From -- ./inp_files/13044.got.cif
#   From: 2010.03.12/outbox.cif.g09.slc.cpg/sg38_7_cif.got.tgz:13044.got - 2010.04.14 02:38:36.
