data_PCOD8178113
_publ_section_title
;
Structure prediction by ZEFSAII (Michael W. Deem and Ramdas Pophale) SiO2 
 PCOD8178113
Probable space group: A M M 2
;
_chemical_formula_sum "Si O2"
_cell_formula_units_Z 64
_cell_length_a 20.176018
_cell_length_b 8.759127
_cell_length_c 20.201219
_cell_angle_alpha 90.000000
_cell_angle_beta 90.000000
_cell_angle_gamma 90.000000
_cell_volume 3570.046368
_symmetry_space_group_name_H-M "A M M 2"
_symmetry_group_IT_number 38
_symmetry_cell_setting 'orthorhombic'
loop_
_space_group_symop_operation_xyz
x,y,z
-x,-y,z
-x,y,z
x,-y,z
x,1/2+y,1/2+z
-x,1/2-y,1/2+z
-x,1/2+y,1/2+z
x,1/2-y,1/2+z
loop_
_atom_site_type_symbol
_atom_site_label
_atom_site_fract_x
_atom_site_fract_y
_atom_site_fract_z
Si Si1 0.818242 0.181174 0.744940
Si Si2 0.073999 0.681546 0.141599
Si Si3 0.422821 0.176100 0.646604
Si Si4 0.321384 0.320400 0.744124
Si Si5 0.324691 0.320526 0.892100
Si Si6 0.925929 0.818715 0.494056
Si Si7 0.175877 0.319259 0.886180
Si Si8 0.426535 0.318142 0.997700
O O1 0.872360 0.246045 0.693138
O O2 0.746544 0.240399 0.721723
O O3 0.839696 0.241488 0.816490
O O4 0.817026 0.000000 0.745754
O O5 0.075137 0.500000 0.141833
O O6 0.000000 0.738498 0.161100
O O7 0.092077 0.740745 0.067680
O O8 0.500000 0.200373 0.662610
O O9 0.380771 0.280237 0.695493
O O10 0.406803 0.231264 0.572011
O O11 0.402754 0.000000 0.656519
O O12 0.308322 0.500000 0.744631
O O13 0.341015 0.263066 0.817904
O O14 0.334705 0.500000 0.895817
O O15 0.249603 0.275651 0.910658
O O16 0.374800 0.245087 0.945333
O O17 0.874567 0.751651 0.440576
O O18 0.000000 0.765102 0.474672
O O19 0.921550 0.000000 0.493173
O O20 0.168864 0.500000 0.876596
O O21 0.500000 0.256625 0.980107
O O22 0.426992 0.500000 0.995063
#
# Coordination Sequence:
#
# PCOD8178113 Si02
#       8
#     8   8   8   8   8   8   8   8
#     4  10  19  31  49  70  94 126 159 195 239 283
#     4   8  15  28  46  70  96 121 157 202 239 275
#     4   9  18  32  50  73  99 124 152 190 235 282
#     4  10  20  33  49  70  97 127 159 197 236 278
#     4   8  15  27  43  64  89 117 152 192 226 259
#     4   8  14  26  45  68  92 118 152 195 237 276
#     4   9  17  29  45  67  94 120 149 189 234 280
#     4   8  14  26  45  68  91 114 146 189 228 264
#
# _framework density 17.926938
#
# number of rings (size 3 to 8) (size 9 to 14) (size 15 to 20)
#    0.000    3.250    0.000    3.000    0.000    2.250 
#    0.000    5.000    0.000    9.375    0.000    3.500 
#    0.000    0.000    0.000    0.000    0.000    0.000 
#
# Total GULP energy -396637.510920 kJ/mol
# GULP energy per Si atom -12394.922216 kJ/mol
# Density = 1.788614 g / cm^3
# Si number density = 17.926938 Si / 1000 Ang^3
#
#
#
# Elastic Constant Matrix: (Units=GPa)
#
#
# Indices 1 2 3 4 5 6 
#
# 1 134.3153 21.8312 105.0828 0.0000 0.0000 0.0000
# 2 21.8312 27.4758 23.1385 0.0000 0.0000 0.0000
# 3 105.0828 23.1385 130.1560 0.0000 0.0000 0.0000
# 4 0.0000 0.0000 0.0000 22.3312 0.0000 0.0000
# 5 0.0000 0.0000 0.0000 0.0000 45.0824 0.0000
# 6 0.0000 0.0000 0.0000 0.0000 0.0000 17.9695
#
#
#
# Elastic Compliance Matrix: (Units=1/GPa)
#
#
# Indices 1 2 3 4 5 6 
#
# 1 0.020387 -0.002749 -0.015971 0.000000 0.000000 0.000000
# 2 -0.002749 0.043175 -0.005456 0.000000 0.000000 0.000000
# 3 -0.015971 -0.005456 0.021547 0.000000 0.000000 0.000000
# 4 0.000000 0.000000 0.000000 0.044780 0.000000 0.000000
# 5 0.000000 0.000000 0.000000 0.000000 0.022182 0.000000
# 6 0.000000 0.000000 0.000000 0.000000 0.000000 0.055650
#
#
# Mechanical properties :
#
#
# Convention : Reuss Voigt Hill
#
# Bulk Modulus (GPa) = 27.20554 65.78357 46.49455
# Shear Modulus (GPa) = 18.63411 26.53626 22.58519
#
# Velocity S-wave (km/s) = 3.22754 3.85157 3.55328
# Velocity P-wave (km/s) = 5.39427 7.52027 6.54418
#
# Compressibility (1/GPa) = 0.03675722
#
# Stress axis : x y z
#
# Youngs Moduli (GPa) = 49.05079 23.16174 46.40930
#
# Poissons Ratio (x) = 0.06367 0.74120
# Poissons Ratio (y) = 0.13484 0.25321
# Poissons Ratio (z) = 0.78339 0.12637
#
# Static dielectric constant tensor:
#      x y z
#    x 3.579620 0.000000 0.000000 
#    y 0.000000 2.822160 0.000000 
#    z 0.000000 0.000000 3.597200 
# 
# 
# High freq. dielectric constant tensor:
#      x y z
#    x 1.699950 0.000000 0.000000 
#    y 0.000000 1.645000 0.000000 
#    z 0.000000 0.000000 1.699830 
# 
# From -- ./inp_files/21555.got.cif
#   From: 2010.03.12/outbox.cif.g09.slc.cpg/sg38_11_cif.got.tgz:21555.got - 2010.04.14 02:38:36.
