data_PCOD8178934
_publ_section_title
;
Structure prediction by ZEFSAII (Michael W. Deem and Ramdas Pophale) SiO2 
 PCOD8178934
Probable space group: A M M 2
;
_chemical_formula_sum "Si O2"
_cell_formula_units_Z 56
_cell_length_a 8.989634
_cell_length_b 20.519473
_cell_length_c 18.534558
_cell_angle_alpha 90.000000
_cell_angle_beta 90.000000
_cell_angle_gamma 90.000000
_cell_volume 3418.931872
_symmetry_space_group_name_H-M "A M M 2"
_symmetry_group_IT_number 38
_symmetry_cell_setting 'orthorhombic'
loop_
_space_group_symop_operation_xyz
x,y,z
-x,-y,z
-x,y,z
x,-y,z
x,1/2+y,1/2+z
-x,1/2-y,1/2+z
-x,1/2+y,1/2+z
x,1/2-y,1/2+z
loop_
_atom_site_type_symbol
_atom_site_label
_atom_site_fract_x
_atom_site_fract_y
_atom_site_fract_z
Si Si1 0.170294 0.688903 0.718490
Si Si2 0.174970 0.500000 0.085438
Si Si3 0.328150 0.746483 0.931409
Si Si4 0.667601 0.195420 0.787918
Si Si5 0.330871 0.381576 0.156784
Si Si6 0.174771 0.123548 0.361447
Si Si7 0.323248 0.500000 0.930185
Si Si8 0.672095 0.240556 0.090905
O O1 0.210712 0.755212 0.758882
O O2 0.204828 0.630764 0.775152
O O3 0.256611 0.685243 0.642472
O O4 0.000000 0.690280 0.697378
O O5 0.217777 0.436253 0.130783
O O6 0.000000 0.500000 0.070992
O O7 0.260281 0.500000 0.010450
O O8 0.500000 0.723445 0.937679
O O9 0.313679 0.807594 0.875028
O O10 0.230352 0.686337 0.904748
O O11 0.267475 0.768689 0.009404
O O12 0.500000 0.221541 0.769611
O O13 0.688667 0.127529 0.744178
O O14 0.500000 0.402668 0.138198
O O15 0.290800 0.313603 0.117645
O O16 0.267537 0.062397 0.387347
O O17 0.000000 0.114011 0.377195
O O18 0.500000 0.500000 0.934067
O O19 0.500000 0.226138 0.093303
#
# Coordination Sequence:
#
# PCOD8178934 Si02
#       8
#     8   4   8   8   8   8   4   8
#     4   9  17  28  44  65  90 118 147 180 221 265
#     4  12  24  34  46  66  91 120 153 190 225 262
#     4   9  16  28  47  71  95 120 150 185 225 267
#     4   8  15  28  46  65  87 116 150 185 222 263
#     4   9  17  30  45  63  90 124 156 184 218 264
#     4  10  20  33  47  66  92 121 152 187 223 264
#     4  12  24  36  50  66  87 120 155 186 221 264
#     4   9  17  28  45  68  93 119 147 181 221 264
#
# _framework density 16.379384000000002
#
# number of rings (size 3 to 8) (size 9 to 14) (size 15 to 20)
#    0.000    2.571    0.000    3.857    0.000    5.714 
#    0.000    0.000    0.000    0.000    0.000    1.000 
#    0.000    2.286    0.000    0.000    0.000    0.000 
#
# Total GULP energy -346935.598188 kJ/mol
# GULP energy per Si atom -12390.557078 kJ/mol
# Density = 1.634210 g / cm^3
# Si number density = 16.379384 Si / 1000 Ang^3
#
#
#
# Elastic Constant Matrix: (Units=GPa)
#
#
# Indices 1 2 3 4 5 6 
#
# 1 84.0919 41.1402 56.9113 0.0000 0.0000 0.0000
# 2 41.1402 56.2212 51.9602 0.0000 0.0000 0.0000
# 3 56.9113 51.9602 160.2019 0.0000 0.0000 0.0000
# 4 0.0000 0.0000 0.0000 23.2206 0.0000 0.0000
# 5 0.0000 0.0000 0.0000 0.0000 24.4607 0.0000
# 6 0.0000 0.0000 0.0000 0.0000 0.0000 19.0329
#
#
#
# Elastic Compliance Matrix: (Units=1/GPa)
#
#
# Indices 1 2 3 4 5 6 
#
# 1 0.019682 -0.011340 -0.003314 0.000000 0.000000 0.000000
# 2 -0.011340 0.031934 -0.006329 0.000000 0.000000 0.000000
# 3 -0.003314 -0.006329 0.009472 0.000000 0.000000 0.000000
# 4 0.000000 0.000000 0.000000 0.043065 0.000000 0.000000
# 5 0.000000 0.000000 0.000000 0.000000 0.040882 0.000000
# 6 0.000000 0.000000 0.000000 0.000000 0.000000 0.052541
#
#
# Mechanical properties :
#
#
# Convention : Reuss Voigt Hill
#
# Bulk Modulus (GPa) = 52.29363 66.72647 59.51005
# Shear Modulus (GPa) = 20.33200 23.37637 21.85419
#
# Velocity S-wave (km/s) = 3.52705 3.78191 3.65670
# Velocity P-wave (km/s) = 6.97012 7.73931 7.36477
#
# Compressibility (1/GPa) = 0.01912279
#
# Stress axis : x y z
#
# Youngs Moduli (GPa) = 50.80659 31.31417 105.57083
#
# Poissons Ratio (x) = 0.35510 0.34988
# Poissons Ratio (y) = 0.57614 0.66818
# Poissons Ratio (z) = 0.16838 0.19819
#
# Static dielectric constant tensor:
#      x y z
#    x 3.122240 0.000000 0.000000 
#    y 0.000000 2.822830 0.000000 
#    z 0.000000 0.000000 3.591720 
# 
# 
# High freq. dielectric constant tensor:
#      x y z
#    x 1.635700 0.000000 0.000000 
#    y 0.000000 1.578280 0.000000 
#    z 0.000000 0.000000 1.644170 
# 
# From -- ./inp_files/20192.got.cif
#   From: 2010.03.12/outbox.cif.g09.slc.cpg/sg38_11_cif.got.tgz:20192.got - 2010.04.14 02:38:36.
