data_PCOD8178310
_publ_section_title
;
Structure prediction by ZEFSAII (Michael W. Deem and Ramdas Pophale) SiO2 
 PCOD8178310
Probable space group: A M M 2
;
_chemical_formula_sum "Si O2"
_cell_formula_units_Z 64
_cell_length_a 19.551777
_cell_length_b 20.404150
_cell_length_c 8.741258
_cell_angle_alpha 90.000000
_cell_angle_beta 90.000000
_cell_angle_gamma 90.000000
_cell_volume 3487.214658
_symmetry_space_group_name_H-M "A M M 2"
_symmetry_group_IT_number 38
_symmetry_cell_setting 'orthorhombic'
loop_
_space_group_symop_operation_xyz
x,y,z
-x,-y,z
-x,y,z
x,-y,z
x,1/2+y,1/2+z
-x,1/2-y,1/2+z
-x,1/2+y,1/2+z
x,1/2-y,1/2+z
loop_
_atom_site_type_symbol
_atom_site_label
_atom_site_fract_x
_atom_site_fract_y
_atom_site_fract_z
Si Si1 0.338710 0.925784 0.040070
Si Si2 0.817287 0.924138 0.997054
Si Si3 0.131622 0.223191 0.465248
Si Si4 0.421862 0.426926 0.839607
Si Si5 0.422665 0.200127 0.517688
Si Si6 0.793724 0.677351 0.252757
Si Si7 0.359999 0.310275 0.327455
Si Si8 0.923135 0.336130 0.669323
O O1 0.258183 0.913057 0.065936
O O2 0.373912 0.909489 0.198843
O O3 0.352589 0.000000 0.985936
O O4 0.371751 0.878636 0.914208
O O5 0.870674 0.891653 0.113840
O O6 0.836234 0.000000 0.977009
O O7 0.818567 0.890675 0.829575
O O8 0.183049 0.263243 0.359518
O O9 0.175105 0.178639 0.582608
O O10 0.083960 0.270714 0.566513
O O11 0.087461 0.178267 0.350242
O O12 0.500000 0.422092 0.783176
O O13 0.406044 0.500000 0.903360
O O14 0.405447 0.374192 0.969186
O O15 0.500000 0.220225 0.472134
O O16 0.367962 0.250360 0.445854
O O17 0.417401 0.200818 0.700197
O O18 0.712675 0.686258 0.242521
O O19 0.000000 0.362732 0.648102
#
# Coordination Sequence:
#
# PCOD8178310 Si02
#       8
#     8   8   8   8   8   8   8   8
#     4   9  19  36  56  77 101 132 172 217 264 312
#     4   9  19  35  53  75 104 136 170 210 254 303
#     4   9  18  32  51  78 106 128 164 214 259 299
#     4   9  19  36  55  74  99 133 171 211 259 316
#     4  11  23  35  49  73 106 139 172 215 263 312
#     4   9  18  33  53  76 101 132 170 213 259 306
#     4  11  21  33  52  74 101 136 174 215 261 313
#     4  10  19  32  53  77 104 137 169 206 252 306
#
# _framework density 18.352755999999999
#
# number of rings (size 3 to 8) (size 9 to 14) (size 15 to 20)
#    0.000    2.375    0.000    2.250    0.000    7.750 
#    0.000    1.250    0.000    0.000    0.000    0.000 
#    0.000    0.000    0.000    0.000    0.000    0.000 
#
# Total GULP energy -396775.641666 kJ/mol
# GULP energy per Si atom -12399.238802 kJ/mol
# Density = 1.831098 g / cm^3
# Si number density = 18.352756 Si / 1000 Ang^3
#
#
#
# Elastic Constant Matrix: (Units=GPa)
#
#
# Indices 1 2 3 4 5 6 
#
# 1 60.5047 40.2639 33.4769 0.0000 0.0000 0.0000
# 2 40.2639 102.3696 52.2288 0.0000 0.0000 0.0000
# 3 33.4769 52.2288 105.9611 0.0000 0.0000 0.0000
# 4 0.0000 0.0000 0.0000 27.7218 0.0000 0.0000
# 5 0.0000 0.0000 0.0000 0.0000 25.6782 0.0000
# 6 0.0000 0.0000 0.0000 0.0000 0.0000 23.5887
#
#
#
# Elastic Compliance Matrix: (Units=1/GPa)
#
#
# Indices 1 2 3 4 5 6 
#
# 1 0.023497 -0.007287 -0.003832 0.000000 0.000000 0.000000
# 2 -0.007287 0.015310 -0.005244 0.000000 0.000000 0.000000
# 3 -0.003832 -0.005244 0.013233 0.000000 0.000000 0.000000
# 4 0.000000 0.000000 0.000000 0.036073 0.000000 0.000000
# 5 0.000000 0.000000 0.000000 0.000000 0.038944 0.000000
# 6 0.000000 0.000000 0.000000 0.000000 0.000000 0.042393
#
#
# Mechanical properties :
#
#
# Convention : Reuss Voigt Hill
#
# Bulk Modulus (GPa) = 51.77529 57.86383 54.81956
# Shear Modulus (GPa) = 23.96779 24.92214 24.44496
#
# Velocity S-wave (km/s) = 3.61771 3.68904 3.65355
# Velocity P-wave (km/s) = 6.76187 7.05283 6.90888
#
# Compressibility (1/GPa) = 0.01931423
#
# Stress axis : x y z
#
# Youngs Moduli (GPa) = 42.55891 65.31592 75.56868
#
# Poissons Ratio (x) = 0.47594 0.28956
# Poissons Ratio (y) = 0.31012 0.39631
# Poissons Ratio (z) = 0.16308 0.34254
#
# Static dielectric constant tensor:
#      x y z
#    x 3.309120 0.000000 0.000000 
#    y 0.000000 3.431600 0.000000 
#    z 0.000000 0.000000 3.328570 
# 
# 
# High freq. dielectric constant tensor:
#      x y z
#    x 1.710010 0.000000 0.000000 
#    y 0.000000 1.706470 0.000000 
#    z 0.000000 0.000000 1.707350 
# 
# From -- ./inp_files/6479.got.cif
#   From: 2010.03.12/outbox.cif.g09.slc.cpg/sg38_4_cif.got.tgz:6479.got - 2010.04.14 02:38:36.
