data_PCOD8178746
_publ_section_title
;
Structure prediction by ZEFSAII (Michael W. Deem and Ramdas Pophale) SiO2 
 PCOD8178746
Probable space group: A M M 2
;
_chemical_formula_sum "Si O2"
_cell_formula_units_Z 48
_cell_length_a 16.665614
_cell_length_b 15.689629
_cell_length_c 8.959377
_cell_angle_alpha 90.000000
_cell_angle_beta 90.000000
_cell_angle_gamma 90.000000
_cell_volume 2342.673714
_symmetry_space_group_name_H-M "A M M 2"
_symmetry_group_IT_number 38
_symmetry_cell_setting 'orthorhombic'
loop_
_space_group_symop_operation_xyz
x,y,z
-x,-y,z
-x,y,z
x,-y,z
x,1/2+y,1/2+z
-x,1/2-y,1/2+z
-x,1/2+y,1/2+z
x,1/2-y,1/2+z
loop_
_atom_site_type_symbol
_atom_site_label
_atom_site_fract_x
_atom_site_fract_y
_atom_site_fract_z
Si Si1 0.410922 0.500000 0.515970
Si Si2 0.904525 0.000000 0.853923
Si Si3 0.587357 0.500000 0.872232
Si Si4 0.594218 0.677806 0.832762
Si Si5 0.846743 0.826966 0.005002
Si Si6 0.093042 0.165582 0.335525
Si Si7 0.337532 0.824624 0.015178
Si Si8 0.095164 0.500000 0.013762
O O1 0.500000 0.500000 0.445584
O O2 0.416572 0.500000 0.693014
O O3 0.362696 0.417891 0.458596
O O4 0.872535 0.000000 0.683527
O O5 0.872269 0.083058 0.937148
O O6 0.000000 0.000000 0.861003
O O7 0.500000 0.500000 0.946401
O O8 0.627184 0.590781 0.916704
O O9 0.500000 0.665941 0.789425
O O10 0.649371 0.689784 0.689448
O O11 0.604038 0.757596 0.937782
O O12 0.858697 0.828081 0.182267
O O13 0.754033 0.808483 0.971188
O O14 0.897787 0.751263 0.931802
O O15 0.000000 0.152674 0.296577
O O16 0.126343 0.084606 0.428907
O O17 0.000000 0.500000 0.018239
#
# Coordination Sequence:
#
# PCOD8178746 Si02
#       8
#     4   4   4   8   8   8   8   4
#     4   9  17  34  57  79 106 149 190 224 276 353
#     4  11  22  40  63  89 120 162 208 255 310 377
#     4   7  14  29  53  79 104 138 186 228 268 330
#     4  10  19  36  60  85 113 154 199 241 291 360
#     4  12  24  38  59  90 125 161 204 261 315 358
#     4  11  22  40  62  87 118 161 211 257 305 371
#     4  11  22  37  57  86 120 151 193 250 301 350
#     4   9  21  39  63  89 114 147 202 261 306 358
#
# _framework density 20.489408999999998
#
# number of rings (size 3 to 8) (size 9 to 14) (size 15 to 20)
#    0.000    1.667    0.000    7.000    0.000    2.000 
#    0.000    3.333    0.000    1.000    0.000    0.000 
#    0.000    0.000    0.000    0.000    0.000    0.000 
#
# Total GULP energy -297534.622786 kJ/mol
# GULP energy per Si atom -12397.275949 kJ/mol
# Density = 2.044277 g / cm^3
# Si number density = 20.489409 Si / 1000 Ang^3
#
#
#
# Elastic Constant Matrix: (Units=GPa)
#
#
# Indices 1 2 3 4 5 6 
#
# 1 71.3637 11.5976 6.7332 0.0000 0.0000 0.0000
# 2 11.5976 185.1219 56.5867 0.0000 0.0000 0.0000
# 3 6.7332 56.5867 93.8344 0.0000 0.0000 0.0000
# 4 0.0000 0.0000 0.0000 3865.2285 0.0000 0.0000
# 5 0.0000 0.0000 0.0000 0.0000 25.0002 0.0000
# 6 0.0000 0.0000 0.0000 0.0000 0.0000 22.4497
#
#
#
# Elastic Compliance Matrix: (Units=1/GPa)
#
#
# Indices 1 2 3 4 5 6 
#
# 1 0.014184 -0.000708 -0.000591 0.000000 0.000000 0.000000
# 2 -0.000708 0.006658 -0.003964 0.000000 0.000000 0.000000
# 3 -0.000591 -0.003964 0.013090 0.000000 0.000000 0.000000
# 4 0.000000 0.000000 0.000000 0.000259 0.000000 0.000000
# 5 0.000000 0.000000 0.000000 0.000000 0.040000 0.000000
# 6 0.000000 0.000000 0.000000 0.000000 0.000000 0.044544
#
#
# Mechanical properties :
#
#
# Convention : Reuss Voigt Hill
#
# Bulk Modulus (GPa) = 42.72502 55.57276 49.14889
# Shear Modulus (GPa) = 36.47981 800.89583 418.68782
#
# Velocity S-wave (km/s) = 4.22408 19.79221 14.31039
# Velocity P-wave (km/s) = 6.68491 23.44121 17.23627
#
# Compressibility (1/GPa) = 0.02340549
#
# Stress axis : x y z
#
# Youngs Moduli (GPa) = 70.50431 150.19588 76.39350
#
# Poissons Ratio (x) = 0.10634 0.04513
# Poissons Ratio (y) = 0.04992 0.30284
# Poissons Ratio (z) = 0.04165 0.59542
#
# Static dielectric constant tensor:
#      x y z
#    x 3.500270 0.000000 0.000000 
#    y 0.000000 0.291060 0.000000 
#    z 0.000000 0.000000 3.496960 
# 
# 
# High freq. dielectric constant tensor:
#      x y z
#    x 1.790340 0.000000 0.000000 
#    y 0.000000 1.829530 0.000000 
#    z 0.000000 0.000000 1.780300 
# 
# From -- ./inp_files/6244.got.cif
#   From: 2010.03.12/outbox.cif.g09.slc.cpg/sg38_4_cif.got.tgz:6244.got - 2010.04.14 02:38:36.
