data_PCOD8178620
_publ_section_title
;
Structure prediction by ZEFSAII (Michael W. Deem and Ramdas Pophale) SiO2 
 PCOD8178620
Probable space group: A M M 2
;
_chemical_formula_sum "Si O2"
_cell_formula_units_Z 64
_cell_length_a 8.488707
_cell_length_b 25.003291
_cell_length_c 15.073322
_cell_angle_alpha 90.000000
_cell_angle_beta 90.000000
_cell_angle_gamma 90.000000
_cell_volume 3199.246443
_symmetry_space_group_name_H-M "A M M 2"
_symmetry_group_IT_number 38
_symmetry_cell_setting 'orthorhombic'
loop_
_space_group_symop_operation_xyz
x,y,z
-x,-y,z
-x,y,z
x,-y,z
x,1/2+y,1/2+z
-x,1/2-y,1/2+z
-x,1/2+y,1/2+z
x,1/2-y,1/2+z
loop_
_atom_site_type_symbol
_atom_site_label
_atom_site_fract_x
_atom_site_fract_y
_atom_site_fract_z
Si Si1 0.179195 0.394920 0.789430
Si Si2 0.316595 0.767433 0.524396
Si Si3 0.684560 0.058844 0.117581
Si Si4 0.817085 0.865538 0.618095
Si Si5 0.687054 0.831801 0.793868
Si Si6 0.182334 0.722225 0.836220
Si Si7 0.682842 0.061720 0.468286
Si Si8 0.686861 0.649799 0.491836
O O1 0.287895 0.424817 0.719037
O O2 0.205323 0.331382 0.778930
O O3 0.217536 0.413756 0.888423
O O4 0.000000 0.410399 0.768805
O O5 0.500000 0.774949 0.547558
O O6 0.214563 0.804608 0.588437
O O7 0.288950 0.784687 0.423208
O O8 0.259883 0.705989 0.535652
O O9 0.500000 0.056963 0.101224
O O10 0.757354 0.000000 0.099745
O O11 0.761815 0.101317 0.048897
O O12 0.758169 0.871104 0.719517
O O13 0.721797 0.907345 0.558658
O O14 0.000000 0.879151 0.611206
O O15 0.500000 0.829572 0.786064
O O16 0.755951 0.772198 0.778951
O O17 0.743636 0.853805 0.889762
O O18 0.000000 0.730061 0.863395
O O19 0.500000 0.068900 0.446015
O O20 0.728287 0.000000 0.481699
O O21 0.500000 0.647305 0.493671
#
# Coordination Sequence:
#
# PCOD8178620 Si02
#       8
#     8   8   8   8   8   8   8   8
#     4  11  23  37  56  86 123 160 194 239 300 359
#     4  10  19  34  57  84 114 153 197 241 292 354
#     4  10  21  38  60  85 114 152 201 251 295 348
#     4  12  24  38  58  88 124 158 196 245 301 363
#     4  10  21  38  60  84 117 159 201 249 298 357
#     4  10  20  35  54  84 121 156 193 237 297 357
#     4  11  24  42  64  88 116 156 206 251 294 355
#     4   8  18  37  59  85 113 147 196 248 300 343
#
# _framework density 20.004711
#
# number of rings (size 3 to 8) (size 9 to 14) (size 15 to 20)
#    0.000    1.750    1.250    4.125    1.750    4.250 
#    0.000    3.750    0.000    2.250    0.000    0.000 
#    0.000    0.000    0.000    0.000    0.000    0.000 
#
# Total GULP energy -396854.506747 kJ/mol
# GULP energy per Si atom -12401.703336 kJ/mol
# Density = 1.995918 g / cm^3
# Si number density = 20.004711 Si / 1000 Ang^3
#
#
#
# Elastic Constant Matrix: (Units=GPa)
#
#
# Indices 1 2 3 4 5 6 
#
# 1 44.5558 23.4054 4.6506 0.0000 0.0000 0.0000
# 2 23.4054 123.5264 53.4990 0.0000 0.0000 0.0000
# 3 4.6506 53.4990 90.6040 0.0000 0.0000 0.0000
# 4 0.0000 0.0000 0.0000 28.8442 0.0000 0.0000
# 5 0.0000 0.0000 0.0000 0.0000 20.7867 0.0000
# 6 0.0000 0.0000 0.0000 0.0000 0.0000 13.6144
#
#
#
# Elastic Compliance Matrix: (Units=1/GPa)
#
#
# Indices 1 2 3 4 5 6 
#
# 1 0.025205 -0.005664 0.002051 0.000000 0.000000 0.000000
# 2 -0.005664 0.012150 -0.006883 0.000000 0.000000 0.000000
# 3 0.002051 -0.006883 0.014996 0.000000 0.000000 0.000000
# 4 0.000000 0.000000 0.000000 0.034669 0.000000 0.000000
# 5 0.000000 0.000000 0.000000 0.000000 0.048108 0.000000
# 6 0.000000 0.000000 0.000000 0.000000 0.000000 0.073452
#
#
# Mechanical properties :
#
#
# Convention : Reuss Voigt Hill
#
# Bulk Modulus (GPa) = 31.89005 46.86624 39.37815
# Shear Modulus (GPa) = 20.83112 24.45779 22.64446
#
# Velocity S-wave (km/s) = 3.23044 3.50037 3.36811
# Velocity P-wave (km/s) = 5.46719 6.30993 5.90362
#
# Compressibility (1/GPa) = 0.03135775
#
# Stress axis : x y z
#
# Youngs Moduli (GPa) = 39.67464 82.30596 66.68348
#
# Poissons Ratio (x) = 0.46617 -0.13674
# Poissons Ratio (y) = 0.22471 0.45901
# Poissons Ratio (z) = -0.08136 0.56654
#
# Static dielectric constant tensor:
#      x y z
#    x 3.495250 0.000000 0.000000 
#    y 0.000000 3.929740 0.000000 
#    z 0.000000 0.000000 3.629220 
# 
# 
# High freq. dielectric constant tensor:
#      x y z
#    x 1.772480 0.000000 0.000000 
#    y 0.000000 1.776820 0.000000 
#    z 0.000000 0.000000 1.776980 
# 
# From -- ./inp_files/12851.got.cif
#   From: 2010.03.12/outbox.cif.g09.slc.cpg/sg38_7_cif.got.tgz:12851.got - 2010.04.14 02:38:36.
