data_PCOD8178696
_publ_section_title
;
Structure prediction by ZEFSAII (Michael W. Deem and Ramdas Pophale) SiO2 
 PCOD8178696
Probable space group: A M M 2
;
_chemical_formula_sum "Si O2"
_cell_formula_units_Z 64
_cell_length_a 8.923065
_cell_length_b 31.009587
_cell_length_c 12.012250
_cell_angle_alpha 90.000000
_cell_angle_beta 90.000000
_cell_angle_gamma 90.000000
_cell_volume 3323.796307
_symmetry_space_group_name_H-M "A M M 2"
_symmetry_group_IT_number 38
_symmetry_cell_setting 'orthorhombic'
loop_
_space_group_symop_operation_xyz
x,y,z
-x,-y,z
-x,y,z
x,-y,z
x,1/2+y,1/2+z
-x,1/2-y,1/2+z
-x,1/2+y,1/2+z
x,1/2-y,1/2+z
loop_
_atom_site_type_symbol
_atom_site_label
_atom_site_fract_x
_atom_site_fract_y
_atom_site_fract_z
Si Si1 0.171538 0.452331 0.430350
Si Si2 0.828723 0.837827 0.707802
Si Si3 0.824540 0.300936 0.967235
Si Si4 0.675926 0.573519 0.212255
Si Si5 0.821223 0.373687 0.580550
Si Si6 0.826177 0.205656 0.934209
Si Si7 0.321677 0.126456 0.321503
Si Si8 0.322157 0.047786 0.470931
O O1 0.189083 0.500000 0.484533
O O2 0.256939 0.453317 0.313513
O O3 0.234320 0.416389 0.514872
O O4 0.000000 0.441170 0.403765
O O5 0.793777 0.815057 0.592462
O O6 0.716212 0.876731 0.726148
O O7 0.796272 0.803805 0.804977
O O8 0.000000 0.854615 0.714188
O O9 0.000000 0.302937 0.935599
O O10 0.757121 0.252646 0.958418
O O11 0.734149 0.330960 0.883384
O O12 0.500000 0.567299 0.215406
O O13 0.741660 0.556417 0.094856
O O14 0.759833 0.331951 0.513251
O O15 0.744580 0.374469 0.699253
O O16 0.000000 0.373351 0.594357
O O17 0.000000 0.207883 0.962357
O O18 0.500000 0.126989 0.316233
O O19 0.260525 0.084025 0.386448
O O20 0.500000 0.050767 0.474651
O O21 0.270048 0.000000 0.431695
#
# Coordination Sequence:
#
# PCOD8178696 Si02
#       8
#     8   8   8   8   8   8   8   8
#     4  10  21  38  60  86 116 149 186 235 289 332
#     4  10  19  35  59  86 115 145 186 235 283 332
#     4  10  21  36  61  88 111 145 191 236 278 333
#     4  11  20  34  58  86 118 150 185 227 280 342
#     4  10  21  39  60  81 111 150 191 235 279 332
#     4   9  19  36  60  86 111 146 189 233 278 331
#     4  11  23  39  57  81 115 150 186 234 286 337
#     4   9  19  36  56  78 108 148 187 224 273 332
#
# _framework density 19.255091
#
# number of rings (size 3 to 8) (size 9 to 14) (size 15 to 20)
#    0.000    2.000    2.500    1.125    1.750    1.750 
#    0.000    1.250    0.000    3.375    0.000    0.000 
#    0.000    0.000    0.000    0.000    0.000    0.000 
#
# Total GULP energy -396791.282200 kJ/mol
# GULP energy per Si atom -12399.727569 kJ/mol
# Density = 1.921127 g / cm^3
# Si number density = 19.255091 Si / 1000 Ang^3
#
#
#
# Elastic Constant Matrix: (Units=GPa)
#
#
# Indices 1 2 3 4 5 6 
#
# 1 37.0396 25.6279 34.7528 0.0000 0.0000 0.0000
# 2 25.6279 163.2828 69.7069 0.0000 0.0000 0.0000
# 3 34.7528 69.7069 153.0358 0.0000 0.0000 0.0000
# 4 0.0000 0.0000 0.0000 37.0417 0.0000 0.0000
# 5 0.0000 0.0000 0.0000 0.0000 26.8516 0.0000
# 6 0.0000 0.0000 0.0000 0.0000 0.0000 -17.3355
#
#
#
# Elastic Compliance Matrix: (Units=1/GPa)
#
#
# Indices 1 2 3 4 5 6 
#
# 1 0.035189 -0.002621 -0.006797 0.000000 0.000000 0.000000
# 2 -0.002621 0.007798 -0.002957 0.000000 0.000000 0.000000
# 3 -0.006797 -0.002957 0.009425 0.000000 0.000000 0.000000
# 4 0.000000 0.000000 0.000000 0.026997 0.000000 0.000000
# 5 0.000000 0.000000 0.000000 0.000000 0.037242 0.000000
# 6 0.000000 0.000000 0.000000 0.000000 0.000000 -0.057685
#
#
# Mechanical properties :
#
#
# Convention : Reuss Voigt Hill
#
# Bulk Modulus (GPa) = 36.15096 68.17038 52.16067
# Shear Modulus (GPa) = 53.80041 24.19627 38.99834
#
# Velocity S-wave (km/s) = 5.29165 3.54873 4.50527
# Velocity P-wave (km/s) = 7.49339 7.22993 7.36284
#
# Compressibility (1/GPa) = 0.02766178
#
# Stress axis : x y z
#
# Youngs Moduli (GPa) = 28.41770 128.23802 106.10404
#
# Poissons Ratio (x) = 0.33616 0.72120
# Poissons Ratio (y) = 0.07449 0.31371
# Poissons Ratio (z) = 0.19316 0.37916
#
# Static dielectric constant tensor:
#      x y z
#    x 3.227420 0.000000 0.000000 
#    y 0.000000 3.768720 0.000000 
#    z 0.000000 0.000000 3.594370 
# 
# 
# High freq. dielectric constant tensor:
#      x y z
#    x 1.714830 0.000000 0.000000 
#    y 0.000000 1.765700 0.000000 
#    z 0.000000 0.000000 1.755570 
# 
# From -- ./inp_files/8670.got.cif
#   From: 2010.03.12/outbox.cif.g09.slc.cpg/sg38_5_cif.got.tgz:8670.got - 2010.04.14 02:38:36.
