data_PCOD8178726
_publ_section_title
;
Structure prediction by ZEFSAII (Michael W. Deem and Ramdas Pophale) SiO2 
 PCOD8178726
Probable space group: A M M 2
;
_chemical_formula_sum "Si O2"
_cell_formula_units_Z 64
_cell_length_a 15.288239
_cell_length_b 8.618120
_cell_length_c 23.545571
_cell_angle_alpha 90.000000
_cell_angle_beta 90.000000
_cell_angle_gamma 90.000000
_cell_volume 3102.267387
_symmetry_space_group_name_H-M "A M M 2"
_symmetry_group_IT_number 38
_symmetry_cell_setting 'orthorhombic'
loop_
_space_group_symop_operation_xyz
x,y,z
-x,-y,z
-x,y,z
x,-y,z
x,1/2+y,1/2+z
-x,1/2-y,1/2+z
-x,1/2+y,1/2+z
x,1/2-y,1/2+z
loop_
_atom_site_type_symbol
_atom_site_label
_atom_site_fract_x
_atom_site_fract_y
_atom_site_fract_z
Si Si1 0.598081 0.676877 0.173030
Si Si2 0.400891 0.822290 0.902962
Si Si3 0.251528 0.321116 0.975813
Si Si4 0.649738 0.321484 0.788550
Si Si5 0.743746 0.179135 0.097172
Si Si6 0.901251 0.820873 0.662368
Si Si7 0.098649 0.321919 0.406717
Si Si8 0.833995 0.323232 0.284776
O O1 0.500000 0.696296 0.148651
O O2 0.617536 0.500000 0.190640
O O3 0.607710 0.782739 0.228190
O O4 0.665460 0.723193 0.124258
O O5 0.500000 0.797449 0.924381
O O6 0.337131 0.713049 0.938631
O O7 0.395755 0.781608 0.836619
O O8 0.371357 0.000000 0.911135
O O9 0.252363 0.500000 0.993992
O O10 0.164608 0.289006 0.939720
O O11 0.251167 0.214496 0.030916
O O12 0.632083 0.500000 0.802832
O O13 0.752870 0.292440 0.786430
O O14 0.836260 0.216490 0.125924
O O15 0.722344 0.000000 0.106465
O O16 0.890772 0.787255 0.729173
O O17 0.000000 0.777139 0.644889
O O18 0.881227 0.000000 0.648661
O O19 0.121313 0.500000 0.421502
O O20 0.105773 0.293715 0.339332
O O21 0.000000 0.280858 0.425397
O O22 0.798752 0.500000 0.283725
#
# Coordination Sequence:
#
# PCOD8178726 Si02
#       8
#     8   8   8   8   8   8   8   8
#     4  11  24  43  67  94 126 166 209 256 313 375
#     4  11  24  43  67  94 126 166 209 256 313 375
#     4  12  26  44  66  91 124 165 211 263 316 371
#     4  12  23  36  61  97 133 168 205 253 311 369
#     4  12  26  44  66  91 124 165 211 263 316 371
#     4  10  21  39  65  96 129 167 210 256 310 372
#     4  10  21  39  65  96 129 167 210 256 310 372
#     4  10  19  35  63  93 129 169 205 249 307 374
#
# _framework density 20.630071999999998
#
# number of rings (size 3 to 8) (size 9 to 14) (size 15 to 20)
#    0.000    1.000    2.500    4.875    0.000    6.500 
#    0.000    0.000    0.000    2.250    0.000    0.000 
#    0.000    0.000    0.000    0.000    0.000    0.000 
#
# Total GULP energy -397002.833940 kJ/mol
# GULP energy per Si atom -12406.338561 kJ/mol
# Density = 2.058312 g / cm^3
# Si number density = 20.630072 Si / 1000 Ang^3
#
#
#
# Elastic Constant Matrix: (Units=GPa)
#
#
# Indices 1 2 3 4 5 6 
#
# 1 128.1413 37.7764 32.9569 0.0000 0.0000 0.0000
# 2 37.7764 80.7834 8.7099 0.0000 0.0000 0.0000
# 3 32.9569 8.7099 97.4064 0.0000 0.0000 0.0000
# 4 0.0000 0.0000 0.0000 27.7798 0.0000 0.0000
# 5 0.0000 0.0000 0.0000 0.0000 13.5913 0.0000
# 6 0.0000 0.0000 0.0000 0.0000 0.0000 12.3808
#
#
#
# Elastic Compliance Matrix: (Units=1/GPa)
#
#
# Indices 1 2 3 4 5 6 
#
# 1 0.009821 -0.004275 -0.002940 0.000000 0.000000 0.000000
# 2 -0.004275 0.014361 0.000162 0.000000 0.000000 0.000000
# 3 -0.002940 0.000162 0.011247 0.000000 0.000000 0.000000
# 4 0.000000 0.000000 0.000000 0.035997 0.000000 0.000000
# 5 0.000000 0.000000 0.000000 0.000000 0.073577 0.000000
# 6 0.000000 0.000000 0.000000 0.000000 0.000000 0.080770
#
#
# Mechanical properties :
#
#
# Convention : Reuss Voigt Hill
#
# Bulk Modulus (GPa) = 46.90200 51.69085 49.29642
# Shear Modulus (GPa) = 20.24410 25.87623 23.06016
#
# Velocity S-wave (km/s) = 3.13595 3.54545 3.34697
# Velocity P-wave (km/s) = 5.99136 6.47076 6.23567
#
# Compressibility (1/GPa) = 0.02132105
#
# Stress axis : x y z
#
# Youngs Moduli (GPa) = 101.82768 69.63540 88.91562
#
# Poissons Ratio (x) = 0.29771 0.26145
# Poissons Ratio (y) = 0.43534 -0.01444
# Poissons Ratio (z) = 0.29942 -0.01131
#
# Static dielectric constant tensor:
#      x y z
#    x 3.803020 0.000000 0.000000 
#    y 0.000000 3.671750 0.000000 
#    z 0.000000 0.000000 3.651020 
# 
# 
# High freq. dielectric constant tensor:
#      x y z
#    x 1.817840 0.000000 0.000000 
#    y 0.000000 1.804930 0.000000 
#    z 0.000000 0.000000 1.803580 
# 
# From -- ./inp_files/23007.got.cif
#   From: 2010.03.12/outbox.cif.g09.slc.cpg/sg38_12_cif.got.tgz:23007.got - 2010.04.14 02:38:36.
