data_PCOD8178251
_publ_section_title
;
Structure prediction by ZEFSAII (Michael W. Deem and Ramdas Pophale) SiO2 
 PCOD8178251
Probable space group: A M M 2
;
_chemical_formula_sum "Si O2"
_cell_formula_units_Z 64
_cell_length_a 9.214063
_cell_length_b 15.920594
_cell_length_c 23.225982
_cell_angle_alpha 90.000000
_cell_angle_beta 90.000000
_cell_angle_gamma 90.000000
_cell_volume 3407.097249
_symmetry_space_group_name_H-M "A M M 2"
_symmetry_group_IT_number 38
_symmetry_cell_setting 'orthorhombic'
loop_
_space_group_symop_operation_xyz
x,y,z
-x,-y,z
-x,y,z
x,-y,z
x,1/2+y,1/2+z
-x,1/2-y,1/2+z
-x,1/2+y,1/2+z
x,1/2-y,1/2+z
loop_
_atom_site_type_symbol
_atom_site_label
_atom_site_fract_x
_atom_site_fract_y
_atom_site_fract_z
Si Si1 0.837362 0.405953 0.117510
Si Si2 0.329637 0.758985 0.568859
Si Si3 0.330627 0.404448 0.354721
Si Si4 0.671518 0.806118 0.190669
Si Si5 0.159034 0.096631 0.270835
Si Si6 0.669436 0.903711 0.382271
Si Si7 0.170697 0.849142 0.742133
Si Si8 0.670475 0.234997 0.943813
O O1 0.821453 0.500000 0.094769
O O2 0.732051 0.351652 0.078223
O O3 0.798082 0.403941 0.185157
O O4 0.000000 0.371317 0.109076
O O5 0.500000 0.770393 0.564838
O O6 0.285481 0.701927 0.623527
O O7 0.270309 0.719437 0.509050
O O8 0.500000 0.386968 0.342013
O O9 0.309029 0.500000 0.378009
O O10 0.241608 0.395878 0.295939
O O11 0.266460 0.336626 0.400950
O O12 0.500000 0.801348 0.199658
O O13 0.741256 0.891977 0.213772
O O14 0.750528 0.739467 0.232297
O O15 0.244627 0.128871 0.326644
O O16 0.000000 0.140866 0.265913
O O17 0.132342 0.000000 0.278761
O O18 0.500000 0.900955 0.367133
O O19 0.709900 0.832268 0.429093
O O20 0.711738 0.000000 0.401583
O O21 0.000000 0.836999 0.753421
O O22 0.500000 0.222182 0.942706
#
# Coordination Sequence:
#
# PCOD8178251 Si02
#       8
#     8   8   8   8   8   8   8   8
#     4   9  18  32  49  72 103 134 160 192 242 301
#     4   9  19  34  51  71  95 127 169 211 247 289
#     4  10  20  33  51  75 102 134 171 211 256 304
#     4  10  19  32  51  75 102 131 165 206 252 301
#     4  10  20  33  50  74 103 132 164 205 253 305
#     4   9  17  30  51  77 103 133 167 204 250 304
#     4  10  19  32  52  76 103 133 163 200 250 305
#     4   9  18  34  52  71  99 132 168 211 254 297
#
# _framework density 18.784317999999999
#
# number of rings (size 3 to 8) (size 9 to 14) (size 15 to 20)
#    0.000    2.500    0.000    2.250    0.000    4.250 
#    0.000    3.125    0.000    3.750    0.000    0.000 
#    0.000    0.000    0.000    0.000    0.000    0.000 
#
# Total GULP energy -396552.541742 kJ/mol
# GULP energy per Si atom -12392.266929 kJ/mol
# Density = 1.874156 g / cm^3
# Si number density = 18.784318 Si / 1000 Ang^3
#
#
#
# Elastic Constant Matrix: (Units=GPa)
#
#
# Indices 1 2 3 4 5 6 
#
# 1 57.6061 17.7870 36.9597 0.0000 0.0000 0.0000
# 2 17.7870 59.3270 42.0041 0.0000 0.0000 0.0000
# 3 36.9597 42.0041 114.3043 0.0000 0.0000 0.0000
# 4 0.0000 0.0000 0.0000 17.0603 0.0000 0.0000
# 5 0.0000 0.0000 0.0000 0.0000 16.0533 0.0000
# 6 0.0000 0.0000 0.0000 0.0000 0.0000 21.1887
#
#
#
# Elastic Compliance Matrix: (Units=1/GPa)
#
#
# Indices 1 2 3 4 5 6 
#
# 1 0.022098 -0.002117 -0.006367 0.000000 0.000000 0.000000
# 2 -0.002117 0.022986 -0.007762 0.000000 0.000000 0.000000
# 3 -0.006367 -0.007762 0.013660 0.000000 0.000000 0.000000
# 4 0.000000 0.000000 0.000000 0.058616 0.000000 0.000000
# 5 0.000000 0.000000 0.000000 0.000000 0.062292 0.000000
# 6 0.000000 0.000000 0.000000 0.000000 0.000000 0.047195
#
#
# Mechanical properties :
#
#
# Convention : Reuss Voigt Hill
#
# Bulk Modulus (GPa) = 38.09420 47.19322 42.64371
# Shear Modulus (GPa) = 18.65036 19.82624 19.23830
#
# Velocity S-wave (km/s) = 3.15440 3.25232 3.20373
# Velocity P-wave (km/s) = 5.79576 6.26751 6.03625
#
# Compressibility (1/GPa) = 0.02625072
#
# Stress axis : x y z
#
# Youngs Moduli (GPa) = 45.25251 43.50414 73.20701
#
# Poissons Ratio (x) = 0.09211 0.46613
# Poissons Ratio (y) = 0.09581 0.56826
# Poissons Ratio (z) = 0.28814 0.33769
#
# Static dielectric constant tensor:
#      x y z
#    x 3.580430 0.000000 0.000000 
#    y 0.000000 3.542320 0.000000 
#    z 0.000000 0.000000 3.583340 
# 
# 
# High freq. dielectric constant tensor:
#      x y z
#    x 1.719440 0.000000 0.000000 
#    y 0.000000 1.721950 0.000000 
#    z 0.000000 0.000000 1.722220 
# 
# From -- ./inp_files/20072.got.cif
#   From: 2010.03.12/outbox.cif.g09.slc.cpg/sg38_11_cif.got.tgz:20072.got - 2010.04.14 02:38:36.
