data_PCOD8178546
_publ_section_title
;
Structure prediction by ZEFSAII (Michael W. Deem and Ramdas Pophale) SiO2 
 PCOD8178546
Probable space group: A M M 2
;
_chemical_formula_sum "Si O2"
_cell_formula_units_Z 36
_cell_length_a 9.878699
_cell_length_b 12.646752
_cell_length_c 16.020838
_cell_angle_alpha 90.000000
_cell_angle_beta 90.000000
_cell_angle_gamma 90.000000
_cell_volume 2001.538665
_symmetry_space_group_name_H-M "A M M 2"
_symmetry_group_IT_number 38
_symmetry_cell_setting 'orthorhombic'
loop_
_space_group_symop_operation_xyz
x,y,z
-x,-y,z
-x,y,z
x,-y,z
x,1/2+y,1/2+z
-x,1/2-y,1/2+z
-x,1/2+y,1/2+z
x,1/2-y,1/2+z
loop_
_atom_site_type_symbol
_atom_site_label
_atom_site_fract_x
_atom_site_fract_y
_atom_site_fract_z
Si Si1 0.500000 0.882157 0.401791
Si Si2 0.273622 0.191718 0.526050
Si Si3 0.500000 0.164795 0.826553
Si Si4 0.000000 0.380237 0.104717
Si Si5 0.769478 0.381872 0.414076
Si Si6 0.000000 0.125863 0.791093
Si Si7 0.500000 0.622435 0.136966
O O1 0.637753 0.868755 0.455739
O O2 0.500000 0.793362 0.329666
O O3 0.500000 0.000000 0.362695
O O4 0.237304 0.310194 0.497022
O O5 0.366962 0.187034 0.608283
O O6 0.130731 0.139859 0.547824
O O7 0.375552 0.113597 0.873158
O O8 0.500000 0.120878 0.734822
O O9 0.000000 0.322936 0.196837
O O10 0.000000 0.500000 0.131065
O O11 0.814012 0.500000 0.441848
O O12 0.870520 0.334379 0.343993
O O13 0.000000 0.000000 0.786004
O O14 0.500000 0.500000 0.103838
#
# Coordination Sequence:
#
# PCOD8178546 Si02
#       7
#     4   8   4   4   8   4   4
#     4   9  18  35  50  69 102 137 163 195 240 295
#     4  10  20  31  50  75  99 129 165 198 248 297
#     4  10  20  31  53  77  96 127 170 202 241 290
#     4  11  19  30  49  77 101 123 160 211 250 287
#     4  10  19  34  51  72  99 131 165 203 241 291
#     4   9  19  32  50  71  97 127 157 197 251 287
#     4  11  20  34  51  74 102 126 155 207 257 289
#
# _framework density 17.986160999999999
#
# number of rings (size 3 to 8) (size 9 to 14) (size 15 to 20)
#    0.000    2.000    0.000    6.333    0.000    1.778 
#    0.000    1.111    0.000    0.000    0.000    9.333 
#    0.000    0.000    0.000    0.000    0.000    0.000 
#
# Total GULP energy -223052.096026 kJ/mol
# GULP energy per Si atom -12391.783113 kJ/mol
# Density = 1.794522 g / cm^3
# Si number density = 17.986161 Si / 1000 Ang^3
#
#
#
# Elastic Constant Matrix: (Units=GPa)
#
#
# Indices 1 2 3 4 5 6 
#
# 1 141.8108 17.8747 33.5381 0.0000 0.0000 0.0000
# 2 17.8747 93.7985 34.1756 0.0000 0.0000 0.0000
# 3 33.5381 34.1756 73.4952 0.0000 0.0000 0.0000
# 4 0.0000 0.0000 0.0000 23.2828 0.0000 0.0000
# 5 0.0000 0.0000 0.0000 0.0000 14.7857 0.0000
# 6 0.0000 0.0000 0.0000 0.0000 0.0000 25.1892
#
#
#
# Elastic Compliance Matrix: (Units=1/GPa)
#
#
# Indices 1 2 3 4 5 6 
#
# 1 0.007909 -0.000231 -0.003501 0.000000 0.000000 0.000000
# 2 -0.000231 0.012843 -0.005866 0.000000 0.000000 0.000000
# 3 -0.003501 -0.005866 0.017932 0.000000 0.000000 0.000000
# 4 0.000000 0.000000 0.000000 0.042950 0.000000 0.000000
# 5 0.000000 0.000000 0.000000 0.000000 0.067633 0.000000
# 6 0.000000 0.000000 0.000000 0.000000 0.000000 0.039700
#
#
# Mechanical properties :
#
#
# Convention : Reuss Voigt Hill
#
# Bulk Modulus (GPa) = 51.32091 53.36459 52.34275
# Shear Modulus (GPa) = 23.29267 27.55261 25.42264
#
# Velocity S-wave (km/s) = 3.60256 3.91817 3.76367
# Velocity P-wave (km/s) = 6.77496 7.08545 6.93194
#
# Compressibility (1/GPa) = 0.01948523
#
# Stress axis : x y z
#
# Youngs Moduli (GPa) = 126.43971 77.86554 55.76616
#
# Poissons Ratio (x) = 0.01802 0.19526
# Poissons Ratio (y) = 0.02926 0.32714
# Poissons Ratio (z) = 0.44273 0.45678
#
# Static dielectric constant tensor:
#      x y z
#    x 3.538500 0.000000 0.000000 
#    y 0.000000 3.297570 0.000000 
#    z 0.000000 0.000000 3.252350 
# 
# 
# High freq. dielectric constant tensor:
#      x y z
#    x 1.716340 0.000000 0.000000 
#    y 0.000000 1.675380 0.000000 
#    z 0.000000 0.000000 1.680420 
# 
# From -- ./inp_files/11635.got.cif
#   From: 2010.03.12/outbox.cif.g09.slc.cpg/sg38_6_cif.got.tgz:11635.got - 2010.04.14 02:38:36.
