data_PCOD8178352
_publ_section_title
;
Structure prediction by ZEFSAII (Michael W. Deem and Ramdas Pophale) SiO2 
 PCOD8178352
Probable space group: A M M 2
;
_chemical_formula_sum "Si O2"
_cell_formula_units_Z 56
_cell_length_a 8.719132
_cell_length_b 22.690022
_cell_length_c 14.381218
_cell_angle_alpha 90.000000
_cell_angle_beta 90.000000
_cell_angle_gamma 90.000000
_cell_volume 2845.141295
_symmetry_space_group_name_H-M "A M M 2"
_symmetry_group_IT_number 38
_symmetry_cell_setting 'orthorhombic'
loop_
_space_group_symop_operation_xyz
x,y,z
-x,-y,z
-x,y,z
x,-y,z
x,1/2+y,1/2+z
-x,1/2-y,1/2+z
-x,1/2+y,1/2+z
x,1/2-y,1/2+z
loop_
_atom_site_type_symbol
_atom_site_label
_atom_site_fract_x
_atom_site_fract_y
_atom_site_fract_z
Si Si1 0.319921 0.111363 0.264650
Si Si2 0.318029 0.500000 0.441635
Si Si3 0.177925 0.650816 0.943962
Si Si4 0.180237 0.847927 0.653411
Si Si5 0.316579 0.500000 0.652151
Si Si6 0.319427 0.778191 0.145762
Si Si7 0.318942 0.115089 0.832944
Si Si8 0.180041 0.785447 0.953350
O O1 0.500000 0.105027 0.262545
O O2 0.265597 0.109123 0.371436
O O3 0.250689 0.057080 0.205799
O O4 0.267156 0.172664 0.219333
O O5 0.500000 0.500000 0.442066
O O6 0.252631 0.500000 0.546498
O O7 0.258612 0.557715 0.387458
O O8 0.222147 0.718757 0.925518
O O9 0.000000 0.640304 0.928416
O O10 0.225696 0.632824 0.048814
O O11 0.225516 0.780160 0.669926
O O12 0.271936 0.890068 0.724523
O O13 0.000000 0.854288 0.670421
O O14 0.500000 0.500000 0.649188
O O15 0.500000 0.765008 0.150399
O O16 0.275405 0.803354 0.044666
O O17 0.500000 0.123199 0.843453
O O18 0.232043 0.172455 0.870606
O O19 0.000000 0.791584 0.974157
#
# Coordination Sequence:
#
# PCOD8178352 Si02
#       8
#     8   4   8   8   4   8   8   8
#     4  10  20  33  54  79 104 137 177 218 264 311
#     4   9  20  38  58  79 108 140 175 223 276 323
#     4   9  20  36  53  74 106 143 176 212 263 320
#     4  10  21  37  54  77 110 146 178 219 276 331
#     4   9  18  36  56  77 106 138 169 211 266 319
#     4  10  19  32  53  83 112 142 181 224 267 320
#     4  11  21  35  57  82 106 141 185 229 274 325
#     4  10  20  34  53  80 113 148 178 216 273 331
#
# _framework density 19.682677999999999
#
# number of rings (size 3 to 8) (size 9 to 14) (size 15 to 20)
#    0.000    2.143    0.000    4.286    0.000    9.143 
#    0.000    2.500    0.000    6.000    0.000    0.000 
#    0.000    0.000    0.000    0.000    0.000    0.000 
#
# Total GULP energy -347249.022011 kJ/mol
# GULP energy per Si atom -12401.750786 kJ/mol
# Density = 1.963788 g / cm^3
# Si number density = 19.682678 Si / 1000 Ang^3
#
#
#
# Elastic Constant Matrix: (Units=GPa)
#
#
# Indices 1 2 3 4 5 6 
#
# 1 24.0593 21.7814 17.4428 0.0000 0.0000 0.0000
# 2 21.7814 76.9558 71.3582 0.0000 0.0000 0.0000
# 3 17.4428 71.3582 152.6945 0.0000 0.0000 0.0000
# 4 0.0000 0.0000 0.0000 34.6239 0.0000 0.0000
# 5 0.0000 0.0000 0.0000 0.0000 34.6857 0.0000
# 6 0.0000 0.0000 0.0000 0.0000 0.0000 11.1750
#
#
#
# Elastic Compliance Matrix: (Units=1/GPa)
#
#
# Indices 1 2 3 4 5 6 
#
# 1 0.056159 -0.017553 0.001788 0.000000 0.000000 0.000000
# 2 -0.017553 0.028418 -0.011275 0.000000 0.000000 0.000000
# 3 0.001788 -0.011275 0.011614 0.000000 0.000000 0.000000
# 4 0.000000 0.000000 0.000000 0.028882 0.000000 0.000000
# 5 0.000000 0.000000 0.000000 0.000000 0.028830 0.000000
# 6 0.000000 0.000000 0.000000 0.000000 0.000000 0.089485
#
#
# Mechanical properties :
#
#
# Convention : Reuss Voigt Hill
#
# Bulk Modulus (GPa) = 23.74742 52.76380 38.25561
# Shear Modulus (GPa) = 16.05114 25.63875 20.84494
#
# Velocity S-wave (km/s) = 2.85879 3.61308 3.25784
# Velocity P-wave (km/s) = 4.79460 6.65366 5.79911
#
# Compressibility (1/GPa) = 0.04210984
#
# Stress axis : x y z
#
# Youngs Moduli (GPa) = 17.80673 35.18950 86.10290
#
# Poissons Ratio (x) = 0.61767 -0.15392
# Poissons Ratio (y) = 0.31255 0.97083
# Poissons Ratio (z) = -0.03183 0.39677
#
# Static dielectric constant tensor:
#      x y z
#    x 3.339010 0.000000 0.000000 
#    y 0.000000 3.490070 0.000000 
#    z 0.000000 0.000000 3.842270 
# 
# 
# High freq. dielectric constant tensor:
#      x y z
#    x 1.752510 0.000000 0.000000 
#    y 0.000000 1.745780 0.000000 
#    z 0.000000 0.000000 1.783570 
# 
# From -- ./inp_files/12503.got.cif
#   From: 2010.03.12/outbox.cif.g09.slc.cpg/sg38_7_cif.got.tgz:12503.got - 2010.04.14 02:38:36.
