data_PCOD8178016
_publ_section_title
;
Structure prediction by ZEFSAII (Michael W. Deem and Ramdas Pophale) SiO2 
 PCOD8178016
Probable space group: A M M 2
;
_chemical_formula_sum "Si O2"
_cell_formula_units_Z 56
_cell_length_a 8.778683
_cell_length_b 20.779747
_cell_length_c 18.214545
_cell_angle_alpha 90.000000
_cell_angle_beta 90.000000
_cell_angle_gamma 90.000000
_cell_volume 3322.675655
_symmetry_space_group_name_H-M "A M M 2"
_symmetry_group_IT_number 38
_symmetry_cell_setting 'orthorhombic'
loop_
_space_group_symop_operation_xyz
x,y,z
-x,-y,z
-x,y,z
x,-y,z
x,1/2+y,1/2+z
-x,1/2-y,1/2+z
-x,1/2+y,1/2+z
x,1/2-y,1/2+z
loop_
_atom_site_type_symbol
_atom_site_label
_atom_site_fract_x
_atom_site_fract_y
_atom_site_fract_z
Si Si1 0.679583 0.247039 0.698340
Si Si2 0.681438 0.000000 0.692273
Si Si3 0.678830 0.500000 0.358382
Si Si4 0.821768 0.743972 0.853195
Si Si5 0.329070 0.682698 0.985194
Si Si6 0.175205 0.622083 0.431068
Si Si7 0.332162 0.320224 0.560814
Si Si8 0.819365 0.125816 0.621557
O O1 0.500000 0.231352 0.694691
O O2 0.728856 0.267312 0.779141
O O3 0.719480 0.307689 0.644986
O O4 0.771874 0.184147 0.674360
O O5 0.743336 0.000000 0.775795
O O6 0.745773 0.938114 0.652399
O O7 0.500000 0.000000 0.688705
O O8 0.500000 0.500000 0.355848
O O9 0.729814 0.436681 0.400581
O O10 0.763906 0.689616 0.909558
O O11 0.785132 0.815059 0.883532
O O12 0.000000 0.734619 0.839302
O O13 0.500000 0.656929 0.969609
O O14 0.337662 0.750780 0.024299
O O15 0.240118 0.633990 0.038410
O O16 0.216628 0.633971 0.516741
O O17 0.000000 0.603633 0.426307
O O18 0.500000 0.352012 0.557866
O O19 0.000000 0.120173 0.621018
#
# Coordination Sequence:
#
# PCOD8178016 Si02
#       8
#     8   4   4   8   8   8   8   8
#     4  10  19  31  48  71  98 129 161 196 239 288
#     4  11  23  37  51  69  94 129 168 199 233 283
#     4  11  23  35  49  67  92 127 164 197 229 273
#     4  10  19  30  47  73 100 126 157 199 245 285
#     4   9  17  31  49  68  93 126 160 195 236 288
#     4  10  20  32  47  67  94 125 158 195 236 279
#     4   8  16  30  47  66  90 121 158 194 232 279
#     4  11  21  33  49  70  97 128 162 202 242 282
#
# _framework density 16.853888000000001
#
# number of rings (size 3 to 8) (size 9 to 14) (size 15 to 20)
#    0.000    2.143    0.000    5.143    0.000    9.143 
#    0.000    0.000    0.000    0.000    0.000    1.000 
#    0.000    5.714    0.000    0.000    0.000    0.000 
#
# Total GULP energy -347186.716150 kJ/mol
# GULP energy per Si atom -12399.525577 kJ/mol
# Density = 1.681553 g / cm^3
# Si number density = 16.853888 Si / 1000 Ang^3
#
#
#
# Elastic Constant Matrix: (Units=GPa)
#
#
# Indices 1 2 3 4 5 6 
#
# 1 84.2428 32.2992 39.1450 0.0000 0.0000 0.0000
# 2 32.2992 62.8482 48.9617 0.0000 0.0000 0.0000
# 3 39.1450 48.9617 124.8922 0.0000 0.0000 0.0000
# 4 0.0000 0.0000 0.0000 21.5417 0.0000 0.0000
# 5 0.0000 0.0000 0.0000 0.0000 28.9875 0.0000
# 6 0.0000 0.0000 0.0000 0.0000 0.0000 23.7425
#
#
#
# Elastic Compliance Matrix: (Units=1/GPa)
#
#
# Indices 1 2 3 4 5 6 
#
# 1 0.015293 -0.005939 -0.002465 0.000000 0.000000 0.000000
# 2 -0.005939 0.025214 -0.008023 0.000000 0.000000 0.000000
# 3 -0.002465 -0.008023 0.011925 0.000000 0.000000 0.000000
# 4 0.000000 0.000000 0.000000 0.046422 0.000000 0.000000
# 5 0.000000 0.000000 0.000000 0.000000 0.034498 0.000000
# 6 0.000000 0.000000 0.000000 0.000000 0.000000 0.042119
#
#
# Mechanical properties :
#
#
# Convention : Reuss Voigt Hill
#
# Bulk Modulus (GPa) = 51.07952 56.97720 54.02836
# Shear Modulus (GPa) = 23.27205 24.95947 24.11576
#
# Velocity S-wave (km/s) = 3.71996 3.85246 3.78679
# Velocity P-wave (km/s) = 6.98741 7.32588 7.15865
#
# Compressibility (1/GPa) = 0.01957732
#
# Stress axis : x y z
#
# Youngs Moduli (GPa) = 65.38975 39.66045 83.85848
#
# Poissons Ratio (x) = 0.23555 0.20671
# Poissons Ratio (y) = 0.38835 0.67281
# Poissons Ratio (z) = 0.16118 0.31820
#
# Static dielectric constant tensor:
#      x y z
#    x 3.297050 0.000000 0.000000 
#    y 0.000000 2.857150 0.000000 
#    z 0.000000 0.000000 3.461060 
# 
# 
# High freq. dielectric constant tensor:
#      x y z
#    x 1.666660 0.000000 0.000000 
#    y 0.000000 1.606900 0.000000 
#    z 0.000000 0.000000 1.655640 
# 
# From -- ./inp_files/12473.got.cif
#   From: 2010.03.12/outbox.cif.g09.slc.cpg/sg38_7_cif.got.tgz:12473.got - 2010.04.14 02:38:36.
