data_PCOD8178867
_publ_section_title
;
Structure prediction by ZEFSAII (Michael W. Deem and Ramdas Pophale) SiO2 
 PCOD8178867
Probable space group: A M M 2
;
_chemical_formula_sum "Si O2"
_cell_formula_units_Z 64
_cell_length_a 19.981750
_cell_length_b 9.327730
_cell_length_c 19.804210
_cell_angle_alpha 90.000000
_cell_angle_beta 90.000000
_cell_angle_gamma 90.000000
_cell_volume 3691.195183
_symmetry_space_group_name_H-M "A M M 2"
_symmetry_group_IT_number 38
_symmetry_cell_setting 'orthorhombic'
loop_
_space_group_symop_operation_xyz
x,y,z
-x,-y,z
-x,y,z
x,-y,z
x,1/2+y,1/2+z
-x,1/2-y,1/2+z
-x,1/2+y,1/2+z
x,1/2-y,1/2+z
loop_
_atom_site_type_symbol
_atom_site_label
_atom_site_fract_x
_atom_site_fract_y
_atom_site_fract_z
Si Si1 0.184171 0.666150 0.459030
Si Si2 0.426259 0.330216 0.853747
Si Si3 0.923891 0.332529 0.719159
Si Si4 0.319953 0.668175 0.111453
Si Si5 0.315165 0.167644 0.455463
Si Si6 0.421525 0.835351 0.201462
Si Si7 0.187213 0.166818 0.113334
Si Si8 0.923970 0.666842 0.351397
O O1 0.201437 0.500000 0.449622
O O2 0.247462 0.754889 0.433051
O O3 0.167369 0.702369 0.536507
O O4 0.120320 0.712688 0.415287
O O5 0.500000 0.265394 0.869006
O O6 0.430625 0.500000 0.859707
O O7 0.374194 0.269086 0.908490
O O8 0.403500 0.289345 0.778040
O O9 0.918454 0.500000 0.734068
O O10 0.876236 0.286293 0.657778
O O11 0.898981 0.251562 0.785826
O O12 0.000000 0.288813 0.700331
O O13 0.314252 0.500000 0.125665
O O14 0.382355 0.731530 0.151517
O O15 0.251585 0.742464 0.136204
O O16 0.333043 0.701550 0.032834
O O17 0.304732 0.000000 0.443081
O O18 0.500000 0.814946 0.188105
O O19 0.400544 0.000000 0.188332
O O20 0.204727 0.000000 0.123025
O O21 0.916633 0.500000 0.335005
O O22 0.000000 0.708158 0.369552
#
# Coordination Sequence:
#
# PCOD8178867 Si02
#       8
#     8   8   8   8   8   8   8   8
#     4   9  18  32  49  69  94 124 157 193 232 276
#     4   8  15  30  51  71  90 117 156 195 227 267
#     4   9  18  32  50  72  95 121 158 201 239 277
#     4  10  20  32  48  72 100 127 156 194 238 284
#     4   9  18  32  50  71  94 122 156 194 234 275
#     4   9  18  33  52  72  95 125 160 196 234 279
#     4   9  18  33  51  69  93 126 161 198 237 278
#     4   9  18  32  49  70  97 127 156 189 235 288
#
# _framework density 17.338557000000002
#
# number of rings (size 3 to 8) (size 9 to 14) (size 15 to 20)
#    0.000    3.000    0.000    1.125    0.000    3.750 
#    0.000    8.125    0.000    1.125    0.000    7.000 
#    0.000    0.000    0.000    0.000    0.000    0.000 
#
# Total GULP energy -396804.731071 kJ/mol
# GULP energy per Si atom -12400.147846 kJ/mol
# Density = 1.729909 g / cm^3
# Si number density = 17.338557 Si / 1000 Ang^3
#
#
#
# Elastic Constant Matrix: (Units=GPa)
#
#
# Indices 1 2 3 4 5 6 
#
# 1 116.5458 47.9003 81.8426 0.0000 0.0000 0.0000
# 2 47.9003 47.9702 42.9801 0.0000 0.0000 0.0000
# 3 81.8426 42.9801 103.1987 0.0000 0.0000 0.0000
# 4 0.0000 0.0000 0.0000 25.3756 0.0000 0.0000
# 5 0.0000 0.0000 0.0000 0.0000 36.0408 0.0000
# 6 0.0000 0.0000 0.0000 0.0000 0.0000 27.5055
#
#
#
# Elastic Compliance Matrix: (Units=1/GPa)
#
#
# Indices 1 2 3 4 5 6 
#
# 1 0.022078 -0.010143 -0.013285 0.000000 0.000000 0.000000
# 2 -0.010143 0.037916 -0.007747 0.000000 0.000000 0.000000
# 3 -0.013285 -0.007747 0.023452 0.000000 0.000000 0.000000
# 4 0.000000 0.000000 0.000000 0.039408 0.000000 0.000000
# 5 0.000000 0.000000 0.000000 0.000000 0.027746 0.000000
# 6 0.000000 0.000000 0.000000 0.000000 0.000000 0.036356
#
#
# Mechanical properties :
#
#
# Convention : Reuss Voigt Hill
#
# Bulk Modulus (GPa) = 47.40216 68.12897 57.76557
# Shear Modulus (GPa) = 19.50537 24.11716 21.81126
#
# Velocity S-wave (km/s) = 3.35770 3.73360 3.55063
# Velocity P-wave (km/s) = 6.51388 7.61347 7.08504
#
# Compressibility (1/GPa) = 0.02109609
#
# Stress axis : x y z
#
# Youngs Moduli (GPa) = 45.29319 26.37420 42.63972
#
# Poissons Ratio (x) = 0.26752 0.56647
# Poissons Ratio (y) = 0.45942 0.33033
# Poissons Ratio (z) = 0.60172 0.20432
#
# Static dielectric constant tensor:
#      x y z
#    x 3.394060 0.000000 0.000000 
#    y 0.000000 3.083770 0.000000 
#    z 0.000000 0.000000 3.309550 
# 
# 
# High freq. dielectric constant tensor:
#      x y z
#    x 1.672700 0.000000 0.000000 
#    y 0.000000 1.653710 0.000000 
#    z 0.000000 0.000000 1.670070 
# 
# From -- ./inp_files/18869.got.cif
#   From: 2010.03.12/outbox.cif.g09.slc.cpg/sg38_10_cif.got.tgz:18869.got - 2010.04.14 02:38:36.
