data_PCOD8178259
_publ_section_title
;
Structure prediction by ZEFSAII (Michael W. Deem and Ramdas Pophale) SiO2 
 PCOD8178259
Probable space group: A M M 2
;
_chemical_formula_sum "Si O2"
_cell_formula_units_Z 64
_cell_length_a 32.207760
_cell_length_b 18.507760
_cell_length_c 5.101482
_cell_angle_alpha 90.000000
_cell_angle_beta 90.000000
_cell_angle_gamma 90.000000
_cell_volume 3040.960221
_symmetry_space_group_name_H-M "A M M 2"
_symmetry_group_IT_number 38
_symmetry_cell_setting 'orthorhombic'
loop_
_space_group_symop_operation_xyz
x,y,z
-x,-y,z
-x,y,z
x,-y,z
x,1/2+y,1/2+z
-x,1/2-y,1/2+z
-x,1/2+y,1/2+z
x,1/2-y,1/2+z
loop_
_atom_site_type_symbol
_atom_site_label
_atom_site_fract_x
_atom_site_fract_y
_atom_site_fract_z
Si Si1 0.454743 0.662809 0.251960
Si Si2 0.955780 0.203783 0.750637
Si Si3 0.366713 0.709862 0.211643
Si Si4 0.744534 0.415065 0.729273
Si Si5 0.205006 0.414048 0.230478
Si Si6 0.568257 0.417956 0.754833
Si Si7 0.866186 0.699640 0.169364
Si Si8 0.343791 0.083768 0.047740
O O1 0.500000 0.700013 0.206651
O O2 0.417185 0.719145 0.212014
O O3 0.454935 0.630067 0.541518
O O4 0.448357 0.598571 0.042877
O O5 0.955369 0.272125 0.553361
O O6 0.912467 0.162949 0.689856
O O7 0.000000 0.160838 0.703244
O O8 0.348831 0.764017 0.434809
O O9 0.352636 0.628179 0.279378
O O10 0.742671 0.500000 0.709279
O O11 0.775696 0.387564 0.504129
O O12 0.697897 0.386146 0.684949
O O13 0.761513 0.390865 0.010632
O O14 0.195198 0.500000 0.220544
O O15 0.163319 0.369463 0.184965
O O16 0.558591 0.500000 0.685469
O O17 0.618019 0.402373 0.746257
O O18 0.859042 0.758284 0.397843
O O19 0.339962 0.000000 0.962581
#
# Coordination Sequence:
#
# PCOD8178259 Si02
#       8
#     8   8   8   8   8   8   8   8
#     4  11  23  38  57  82 112 149 184 211 250 314
#     4   8  14  25  43  68  97 132 176 223 270 321
#     4  11  24  42  60  84 116 143 173 217 266 309
#     4   9  19  35  58  82 106 141 186 226 261 320
#     4  10  20  35  53  77 108 144 182 221 271 326
#     4  10  21  36  58  87 115 141 174 223 273 308
#     4  10  19  32  51  76 107 141 180 229 278 324
#     4   9  20  41  65  87 111 145 187 225 266 320
#
# _framework density 21.045984000000001
#
# number of rings (size 3 to 8) (size 9 to 14) (size 15 to 20)
#    0.000    2.250    0.000    3.000    0.000    5.500 
#    0.000   11.875    0.000    0.375    0.000    0.000 
#    0.000   13.000    0.000    0.000    0.000    2.000 
#
# Total GULP energy -396542.110130 kJ/mol
# GULP energy per Si atom -12391.940942 kJ/mol
# Density = 2.099808 g / cm^3
# Si number density = 21.045984 Si / 1000 Ang^3
#
#
#
# Elastic Constant Matrix: (Units=GPa)
#
#
# Indices 1 2 3 4 5 6 
#
# 1 122.0099 25.4782 3.3463 0.0000 0.0000 0.0000
# 2 25.4782 47.9902 10.8397 0.0000 0.0000 0.0000
# 3 3.3463 10.8397 77.2208 0.0000 0.0000 0.0000
# 4 0.0000 0.0000 0.0000 23.7221 0.0000 0.0000
# 5 0.0000 0.0000 0.0000 0.0000 20.8656 0.0000
# 6 0.0000 0.0000 0.0000 0.0000 0.0000 19.4245
#
#
#
# Elastic Compliance Matrix: (Units=1/GPa)
#
#
# Indices 1 2 3 4 5 6 
#
# 1 0.009225 -0.004964 0.000297 0.000000 0.000000 0.000000
# 2 -0.004964 0.024192 -0.003181 0.000000 0.000000 0.000000
# 3 0.000297 -0.003181 0.013383 0.000000 0.000000 0.000000
# 4 0.000000 0.000000 0.000000 0.042155 0.000000 0.000000
# 5 0.000000 0.000000 0.000000 0.000000 0.047926 0.000000
# 6 0.000000 0.000000 0.000000 0.000000 0.000000 0.051481
#
#
# Mechanical properties :
#
#
# Convention : Reuss Voigt Hill
#
# Bulk Modulus (GPa) = 32.15059 36.28325 34.21692
# Shear Modulus (GPa) = 23.31810 26.63955 24.97883
#
# Velocity S-wave (km/s) = 3.33221 3.56164 3.44883
# Velocity P-wave (km/s) = 5.48766 5.84732 5.67034
#
# Compressibility (1/GPa) = 0.03110363
#
# Stress axis : x y z
#
# Youngs Moduli (GPa) = 108.40587 41.33656 74.71897
#
# Poissons Ratio (x) = 0.20521 -0.02220
# Poissons Ratio (y) = 0.53818 0.23766
# Poissons Ratio (z) = -0.03221 0.13148
#
# Static dielectric constant tensor:
#      x y z
#    x 4.255860 0.000000 0.000000 
#    y 0.000000 3.395530 0.000000 
#    z 0.000000 0.000000 4.094970 
# 
# 
# High freq. dielectric constant tensor:
#      x y z
#    x 1.825710 0.000000 0.000000 
#    y 0.000000 1.779770 0.000000 
#    z 0.000000 0.000000 1.844160 
# 
# From -- ./inp_files/2314.got.cif
#   From: 2010.03.12/outbox.cif.g09.slc.cpg/sg38_2_cif.got.tgz:2314.got - 2010.04.14 02:38:36.
