data_PCOD8178516
_publ_section_title
;
Structure prediction by ZEFSAII (Michael W. Deem and Ramdas Pophale) SiO2 
 PCOD8178516
Probable space group: A M M 2
;
_chemical_formula_sum "Si O2"
_cell_formula_units_Z 64
_cell_length_a 23.766533
_cell_length_b 9.078347
_cell_length_c 15.548434
_cell_angle_alpha 90.000000
_cell_angle_beta 90.000000
_cell_angle_gamma 90.000000
_cell_volume 3354.743080
_symmetry_space_group_name_H-M "A M M 2"
_symmetry_group_IT_number 38
_symmetry_cell_setting 'orthorhombic'
loop_
_space_group_symop_operation_xyz
x,y,z
-x,-y,z
-x,y,z
x,-y,z
x,1/2+y,1/2+z
-x,1/2-y,1/2+z
-x,1/2+y,1/2+z
x,1/2-y,1/2+z
loop_
_atom_site_type_symbol
_atom_site_label
_atom_site_fract_x
_atom_site_fract_y
_atom_site_fract_z
Si Si1 0.562592 0.166585 0.959200
Si Si2 0.739376 0.674843 0.541203
Si Si3 0.937558 0.674898 0.383573
Si Si4 0.332294 0.674447 0.702852
Si Si5 0.436067 0.671005 0.133971
Si Si6 0.065870 0.670355 0.191031
Si Si7 0.866349 0.175315 0.043203
Si Si8 0.324428 0.670533 0.372159
O O1 0.500000 0.186936 0.919438
O O2 0.608688 0.195390 0.885919
O O3 0.570331 0.000000 0.995651
O O4 0.572759 0.279268 0.036085
O O5 0.738961 0.500000 0.542202
O O6 0.705165 0.733616 0.623586
O O7 0.802789 0.736117 0.544766
O O8 0.709407 0.731352 0.454593
O O9 0.940164 0.500000 0.387142
O O10 0.917766 0.721528 0.287896
O O11 0.895308 0.736750 0.455965
O O12 0.000000 0.738384 0.402375
O O13 0.334528 0.500000 0.706214
O O14 0.395260 0.737666 0.695733
O O15 0.304667 0.735610 0.790263
O O16 0.500000 0.701538 0.163502
O O17 0.420682 0.500000 0.141004
O O18 0.081226 0.500000 0.176621
O O19 0.101248 0.768725 0.126430
O O20 0.000000 0.697346 0.174936
O O21 0.867680 0.000000 0.044699
O O22 0.310381 0.500000 0.355170
#
# Coordination Sequence:
#
# PCOD8178516 Si02
#       8
#     8   8   8   8   8   8   8   8
#     4   9  17  32  56  81 107 140 172 211 272 335
#     4   9  20  38  55  75 109 145 179 223 275 319
#     4   8  15  29  50  76 105 137 173 212 259 316
#     4  11  22  38  57  79 108 145 183 224 275 328
#     4  10  20  34  55  83 111 138 175 223 271 325
#     4   9  18  33  52  78 113 144 170 213 273 325
#     4  10  19  33  56  80 103 140 187 227 260 310
#     4  10  20  37  57  79 107 143 183 225 273 328
#
# _framework density 19.077466999999999
#
# number of rings (size 3 to 8) (size 9 to 14) (size 15 to 20)
#    0.000    2.500    1.250    1.875    0.000    3.500 
#    0.000    5.000    0.000    0.750    0.000    0.000 
#    0.000    0.000    0.000    0.000    0.000    0.000 
#
# Total GULP energy -396769.238015 kJ/mol
# GULP energy per Si atom -12399.038688 kJ/mol
# Density = 1.903405 g / cm^3
# Si number density = 19.077467 Si / 1000 Ang^3
#
#
#
# Elastic Constant Matrix: (Units=GPa)
#
#
# Indices 1 2 3 4 5 6 
#
# 1 116.5928 32.6976 76.4303 0.0000 0.0000 0.0000
# 2 32.6976 47.4750 40.3501 0.0000 0.0000 0.0000
# 3 76.4303 40.3501 156.1478 0.0000 0.0000 0.0000
# 4 0.0000 0.0000 0.0000 32.0310 0.0000 0.0000
# 5 0.0000 0.0000 0.0000 0.0000 14.3109 0.0000
# 6 0.0000 0.0000 0.0000 0.0000 0.0000 19.7602
#
#
#
# Elastic Compliance Matrix: (Units=1/GPa)
#
#
# Indices 1 2 3 4 5 6 
#
# 1 0.013395 -0.004681 -0.005347 0.000000 0.000000 0.000000
# 2 -0.004681 0.028628 -0.005106 0.000000 0.000000 0.000000
# 3 -0.005347 -0.005106 0.010341 0.000000 0.000000 0.000000
# 4 0.000000 0.000000 0.000000 0.031220 0.000000 0.000000
# 5 0.000000 0.000000 0.000000 0.000000 0.069877 0.000000
# 6 0.000000 0.000000 0.000000 0.000000 0.000000 0.050607
#
#
# Mechanical properties :
#
#
# Convention : Reuss Voigt Hill
#
# Bulk Modulus (GPa) = 45.25942 68.79683 57.02812
# Shear Modulus (GPa) = 20.68684 24.60293 22.64488
#
# Velocity S-wave (km/s) = 3.29653 3.59504 3.44902
# Velocity P-wave (km/s) = 6.18587 7.30565 6.76896
#
# Compressibility (1/GPa) = 0.02209485
#
# Stress axis : x y z
#
# Youngs Moduli (GPa) = 74.65742 34.93113 96.70435
#
# Poissons Ratio (x) = 0.16351 0.51704
# Poissons Ratio (y) = 0.34947 0.49382
# Poissons Ratio (z) = 0.39917 0.17837
#
# Static dielectric constant tensor:
#      x y z
#    x 3.739570 0.000000 0.000000 
#    y 0.000000 3.172540 0.000000 
#    z 0.000000 0.000000 3.533270 
# 
# 
# High freq. dielectric constant tensor:
#      x y z
#    x 1.742220 0.000000 0.000000 
#    y 0.000000 1.709570 0.000000 
#    z 0.000000 0.000000 1.744860 
# 
# From -- ./inp_files/15878.got.cif
#   From: 2010.03.12/outbox.cif.g09.slc.cpg/sg38_8_cif.got.tgz:15878.got - 2010.04.14 02:38:36.
