data_PCOD8178370
_publ_section_title
;
Structure prediction by ZEFSAII (Michael W. Deem and Ramdas Pophale) SiO2 
 PCOD8178370
Probable space group: A M M 2
;
_chemical_formula_sum "Si O2"
_cell_formula_units_Z 56
_cell_length_a 9.095632
_cell_length_b 18.499875
_cell_length_c 17.347004
_cell_angle_alpha 90.000000
_cell_angle_beta 90.000000
_cell_angle_gamma 90.000000
_cell_volume 2918.946624
_symmetry_space_group_name_H-M "A M M 2"
_symmetry_group_IT_number 38
_symmetry_cell_setting 'orthorhombic'
loop_
_space_group_symop_operation_xyz
x,y,z
-x,-y,z
-x,y,z
x,-y,z
x,1/2+y,1/2+z
-x,1/2-y,1/2+z
-x,1/2+y,1/2+z
x,1/2-y,1/2+z
loop_
_atom_site_type_symbol
_atom_site_label
_atom_site_fract_x
_atom_site_fract_y
_atom_site_fract_z
Si Si1 0.827235 0.303464 0.943210
Si Si2 0.826182 0.919022 0.320946
Si Si3 0.327397 0.082471 0.732626
Si Si4 0.173366 0.817995 0.619294
Si Si5 0.673804 0.838928 0.888136
Si Si6 0.167347 0.584220 0.521611
Si Si7 0.174289 0.336374 0.672710
O O1 0.785923 0.377835 0.899869
O O2 0.745613 0.238859 0.899961
O O3 0.000000 0.287159 0.938569
O O4 0.773512 0.309656 0.031087
O O5 0.758443 0.874306 0.248745
O O6 0.000000 0.924022 0.310822
O O7 0.758844 0.000000 0.323652
O O8 0.500000 0.087127 0.719449
O O9 0.249542 0.112408 0.656129
O O10 0.277757 0.130203 0.805417
O O11 0.276834 0.000000 0.745809
O O12 0.223003 0.747228 0.667530
O O13 0.000000 0.829715 0.621902
O O14 0.500000 0.832259 0.895440
O O15 0.730721 0.896103 0.950321
O O16 0.173320 0.500000 0.537641
O O17 0.232745 0.623067 0.596954
O O18 0.000000 0.610145 0.505125
O O19 0.000000 0.342121 0.675016
#
# Coordination Sequence:
#
# PCOD8178370 Si02
#       7
#     8   8   8   8   8   8   8
#     4  10  20  36  58  84 114 143 182 232 278 331
#     4   9  17  29  50  80 110 141 176 219 272 325
#     4  10  23  41  57  77 110 150 192 238 284 333
#     4  10  20  35  57  83 110 143 185 234 282 332
#     4  11  22  37  57  80 111 150 189 229 279 339
#     4  10  19  32  54  82 113 147 181 224 277 330
#     4   9  16  30  50  78 113 143 174 216 268 326
#
# _framework density 19.185003999999999
#
# number of rings (size 3 to 8) (size 9 to 14) (size 15 to 20)
#    0.000    2.143    1.429    2.143    0.000    6.286 
#    0.000    1.429    0.000    0.429    0.000    0.000 
#    0.000    0.000    0.000    0.000    0.000    0.000 
#
# Total GULP energy -347236.587326 kJ/mol
# GULP energy per Si atom -12401.306690 kJ/mol
# Density = 1.914134 g / cm^3
# Si number density = 19.185004 Si / 1000 Ang^3
#
#
#
# Elastic Constant Matrix: (Units=GPa)
#
#
# Indices 1 2 3 4 5 6 
#
# 1 32.0212 35.1373 33.0277 0.0000 0.0000 0.0000
# 2 35.1373 133.7232 81.4584 0.0000 0.0000 0.0000
# 3 33.0277 81.4584 128.0001 0.0000 0.0000 0.0000
# 4 0.0000 0.0000 0.0000 36.7800 0.0000 0.0000
# 5 0.0000 0.0000 0.0000 0.0000 20.1072 0.0000
# 6 0.0000 0.0000 0.0000 0.0000 0.0000 23.5105
#
#
#
# Elastic Compliance Matrix: (Units=1/GPa)
#
#
# Indices 1 2 3 4 5 6 
#
# 1 0.047473 -0.008185 -0.007040 0.000000 0.000000 0.000000
# 2 -0.008185 0.013624 -0.006558 0.000000 0.000000 0.000000
# 3 -0.007040 -0.006558 0.013803 0.000000 0.000000 0.000000
# 4 0.000000 0.000000 0.000000 0.027189 0.000000 0.000000
# 5 0.000000 0.000000 0.000000 0.000000 0.049733 0.000000
# 6 0.000000 0.000000 0.000000 0.000000 0.000000 0.042534
#
#
# Mechanical properties :
#
#
# Convention : Reuss Voigt Hill
#
# Bulk Modulus (GPa) = 31.91639 65.88793 48.90216
# Shear Modulus (GPa) = 20.13151 25.68761 22.90956
#
# Velocity S-wave (km/s) = 3.24286 3.66313 3.45938
# Velocity P-wave (km/s) = 5.54019 7.23252 6.44217
#
# Compressibility (1/GPa) = 0.03133186
#
# Stress axis : x y z
#
# Youngs Moduli (GPa) = 21.06469 73.40083 72.45031
#
# Poissons Ratio (x) = 0.60082 0.51007
# Poissons Ratio (y) = 0.17242 0.47513
# Poissons Ratio (z) = 0.14830 0.48137
#
# Static dielectric constant tensor:
#      x y z
#    x 3.108420 0.000000 0.000000 
#    y 0.000000 3.640960 0.000000 
#    z 0.000000 0.000000 3.658290 
# 
# 
# High freq. dielectric constant tensor:
#      x y z
#    x 1.701560 0.000000 0.000000 
#    y 0.000000 1.758840 0.000000 
#    z 0.000000 0.000000 1.757540 
# 
# From -- ./inp_files/12397.got.cif
#   From: 2010.03.12/outbox.cif.g09.slc.cpg/sg38_7_cif.got.tgz:12397.got - 2010.04.14 02:38:36.
