data_PCOD8178162
_publ_section_title
;
Structure prediction by ZEFSAII (Michael W. Deem and Ramdas Pophale) SiO2 
 PCOD8178162
Probable space group: A M M 2
;
_chemical_formula_sum "Si O2"
_cell_formula_units_Z 64
_cell_length_a 9.378597
_cell_length_b 17.492987
_cell_length_c 21.956012
_cell_angle_alpha 90.000000
_cell_angle_beta 90.000000
_cell_angle_gamma 90.000000
_cell_volume 3602.096202
_symmetry_space_group_name_H-M "A M M 2"
_symmetry_group_IT_number 38
_symmetry_cell_setting 'orthorhombic'
loop_
_space_group_symop_operation_xyz
x,y,z
-x,-y,z
-x,y,z
x,-y,z
x,1/2+y,1/2+z
-x,1/2-y,1/2+z
-x,1/2+y,1/2+z
x,1/2-y,1/2+z
loop_
_atom_site_type_symbol
_atom_site_label
_atom_site_fract_x
_atom_site_fract_y
_atom_site_fract_z
Si Si1 0.340614 0.800677 0.675650
Si Si2 0.748293 0.827410 0.260243
Si Si3 0.163051 0.916375 0.144687
Si Si4 0.845696 0.793516 0.849481
Si Si5 0.669707 0.226522 0.449909
Si Si6 0.171100 0.272840 0.571633
Si Si7 0.161926 0.912249 0.751389
Si Si8 0.662350 0.083692 0.375949
O O1 0.500000 0.817864 0.651218
O O2 0.354631 0.729134 0.722243
O O3 0.231723 0.785843 0.620847
O O4 0.277717 0.875886 0.706750
O O5 0.827743 0.882106 0.212584
O O6 0.854652 0.772846 0.297852
O O7 0.667328 0.881503 0.308059
O O8 0.221905 0.857716 0.093370
O O9 0.000000 0.929262 0.129644
O O10 0.240633 0.000000 0.140648
O O11 0.715068 0.783948 0.895985
O O12 0.822901 0.875076 0.818006
O O13 0.000000 0.791545 0.883181
O O14 0.500000 0.231520 0.460311
O O15 0.756019 0.251796 0.508566
O O16 0.722400 0.142189 0.427308
O O17 0.000000 0.265554 0.567833
O O18 0.000000 0.900344 0.726810
O O19 0.201507 0.000000 0.758467
O O20 0.500000 0.070905 0.392622
O O21 0.740048 0.000000 0.379112
#
# Coordination Sequence:
#
# PCOD8178162 Si02
#       8
#     8   8   8   8   8   8   8   8
#     4  10  19  31  50  76 103 131 165 202 244 298
#     4   9  16  27  47  73 104 133 156 184 231 292
#     4   9  17  29  47  73 100 125 158 199 240 284
#     4   9  17  30  50  74  99 129 164 198 238 292
#     4  10  20  34  52  71  94 127 167 209 248 290
#     4  10  20  35  54  71  93 130 171 208 247 293
#     4   9  18  33  52  75 103 132 165 208 254 298
#     4   9  17  29  46  70  98 126 156 191 234 284
#
# _framework density 17.767431999999999
#
# number of rings (size 3 to 8) (size 9 to 14) (size 15 to 20)
#    0.000    2.625    0.000    2.250    0.000    6.250 
#    0.000    1.250    0.000   21.000    0.000    0.000 
#    0.000    0.000    0.000    0.000    0.000    0.000 
#
# Total GULP energy -396448.943502 kJ/mol
# GULP energy per Si atom -12389.029484 kJ/mol
# Density = 1.772699 g / cm^3
# Si number density = 17.767432 Si / 1000 Ang^3
#
#
#
# Elastic Constant Matrix: (Units=GPa)
#
#
# Indices 1 2 3 4 5 6 
#
# 1 86.4739 39.8473 40.1694 0.0000 0.0000 0.0000
# 2 39.8473 136.5250 62.9252 0.0000 0.0000 0.0000
# 3 40.1694 62.9252 113.6018 0.0000 0.0000 0.0000
# 4 0.0000 0.0000 0.0000 10.9860 0.0000 0.0000
# 5 0.0000 0.0000 0.0000 0.0000 28.2902 0.0000
# 6 0.0000 0.0000 0.0000 0.0000 0.0000 17.5420
#
#
#
# Elastic Compliance Matrix: (Units=1/GPa)
#
#
# Indices 1 2 3 4 5 6 
#
# 1 0.014446 -0.002500 -0.003723 0.000000 0.000000 0.000000
# 2 -0.002500 0.010268 -0.004804 0.000000 0.000000 0.000000
# 3 -0.003723 -0.004804 0.012780 0.000000 0.000000 0.000000
# 4 0.000000 0.000000 0.000000 0.091025 0.000000 0.000000
# 5 0.000000 0.000000 0.000000 0.000000 0.035348 0.000000
# 6 0.000000 0.000000 0.000000 0.000000 0.000000 0.057006
#
#
# Mechanical properties :
#
#
# Convention : Reuss Voigt Hill
#
# Bulk Modulus (GPa) = 64.76645 69.16496 66.96570
# Shear Modulus (GPa) = 20.15530 24.27423 22.21476
#
# Velocity S-wave (km/s) = 3.37173 3.70025 3.53981
# Velocity P-wave (km/s) = 7.18955 7.56758 7.38098
#
# Compressibility (1/GPa) = 0.01544009
#
# Stress axis : x y z
#
# Youngs Moduli (GPa) = 69.22432 97.38529 78.24727
#
# Poissons Ratio (x) = 0.24349 0.29132
# Poissons Ratio (y) = 0.17308 0.37588
# Poissons Ratio (z) = 0.25773 0.46781
#
# Static dielectric constant tensor:
#      x y z
#    x 3.131400 0.000000 0.000000 
#    y 0.000000 3.651030 0.000000 
#    z 0.000000 0.000000 3.214430 
# 
# 
# High freq. dielectric constant tensor:
#      x y z
#    x 1.674490 0.000000 0.000000 
#    y 0.000000 1.687160 0.000000 
#    z 0.000000 0.000000 1.672940 
# 
# From -- ./inp_files/20065.got.cif
#   From: 2010.03.12/outbox.cif.g09.slc.cpg/sg38_11_cif.got.tgz:20065.got - 2010.04.14 02:38:36.
