data_PCOD8178222
_publ_section_title
;
Structure prediction by ZEFSAII (Michael W. Deem and Ramdas Pophale) SiO2 
 PCOD8178222
Probable space group: A M M 2
;
_chemical_formula_sum "Si O2"
_cell_formula_units_Z 48
_cell_length_a 8.690815
_cell_length_b 12.451625
_cell_length_c 22.737039
_cell_angle_alpha 90.000000
_cell_angle_beta 90.000000
_cell_angle_gamma 90.000000
_cell_volume 2460.483431
_symmetry_space_group_name_H-M "A M M 2"
_symmetry_group_IT_number 38
_symmetry_cell_setting 'orthorhombic'
loop_
_space_group_symop_operation_xyz
x,y,z
-x,-y,z
-x,y,z
x,-y,z
x,1/2+y,1/2+z
-x,1/2-y,1/2+z
-x,1/2+y,1/2+z
x,1/2-y,1/2+z
loop_
_atom_site_type_symbol
_atom_site_label
_atom_site_fract_x
_atom_site_fract_y
_atom_site_fract_z
Si Si1 0.817113 0.500000 0.681700
Si Si2 0.175046 0.881571 0.649018
Si Si3 0.676368 0.878415 0.770961
Si Si4 0.180179 0.726094 0.861162
Si Si5 0.183275 0.380182 0.461444
Si Si6 0.820345 0.170651 0.089220
Si Si7 0.815856 0.500000 0.815644
O O1 0.755700 0.603182 0.644841
O O2 0.750393 0.500000 0.748327
O O3 0.000000 0.500000 0.686639
O O4 0.291883 0.865413 0.702172
O O5 0.215480 0.796167 0.598609
O O6 0.000000 0.864246 0.671859
O O7 0.194319 0.000000 0.621119
O O8 0.500000 0.849147 0.783839
O O9 0.787171 0.797122 0.804145
O O10 0.714006 0.000000 0.790978
O O11 0.252213 0.788627 0.917689
O O12 0.246433 0.605615 0.850514
O O13 0.000000 0.716254 0.869908
O O14 0.231359 0.500000 0.439969
O O15 0.253544 0.362393 0.526725
O O16 0.000000 0.369806 0.462409
O O17 0.000000 0.145514 0.085061
O O18 0.000000 0.500000 0.813441
#
# Coordination Sequence:
#
# PCOD8178222 Si02
#       7
#     4   8   8   8   8   8   4
#     4   9  14  22  40  61  91 125 156 195 238 292
#     4   9  17  29  46  70  98 127 160 199 248 305
#     4  10  20  33  50  73 100 130 166 210 257 300
#     4  10  19  32  50  73 102 134 170 207 247 301
#     4   9  16  27  44  69  99 129 164 205 252 299
#     4   9  15  25  42  67  95 125 159 200 247 295
#     4   9  18  30  45  73 103 133 166 203 254 298
#
# _framework density 19.508361000000001
#
# number of rings (size 3 to 8) (size 9 to 14) (size 15 to 20)
#    0.000    2.667    0.833    2.000    0.000    4.333 
#    1.500    0.417    0.000    1.000    0.000    0.000 
#    0.000    0.000    0.000    0.000    0.000    0.000 
#
# Total GULP energy -297429.235699 kJ/mol
# GULP energy per Si atom -12392.884821 kJ/mol
# Density = 1.946396 g / cm^3
# Si number density = 19.508361 Si / 1000 Ang^3
#
#
#
# Elastic Constant Matrix: (Units=GPa)
#
#
# Indices 1 2 3 4 5 6 
#
# 1 4.1650 10.0425 4.8426 0.0000 0.0000 0.0000
# 2 10.0425 175.7363 87.1443 0.0000 0.0000 0.0000
# 3 4.8426 87.1443 118.3755 0.0000 0.0000 0.0000
# 4 0.0000 0.0000 0.0000 36.1606 0.0000 0.0000
# 5 0.0000 0.0000 0.0000 0.0000 4.0914 0.0000
# 6 0.0000 0.0000 0.0000 0.0000 0.0000 8.1059
#
#
#
# Elastic Compliance Matrix: (Units=1/GPa)
#
#
# Indices 1 2 3 4 5 6 
#
# 1 0.278486 -0.016166 0.000509 0.000000 0.000000 0.000000
# 2 -0.016166 0.009900 -0.006627 0.000000 0.000000 0.000000
# 3 0.000509 -0.006627 0.013305 0.000000 0.000000 0.000000
# 4 0.000000 0.000000 0.000000 0.027654 0.000000 0.000000
# 5 0.000000 0.000000 0.000000 0.000000 0.244415 0.000000
# 6 0.000000 0.000000 0.000000 0.000000 0.000000 0.123367
#
#
# Mechanical properties :
#
#
# Convention : Reuss Voigt Hill
#
# Bulk Modulus (GPa) = 3.88920 55.81508 29.85214
# Shear Modulus (GPa) = 6.04299 22.75473 14.39886
#
# Velocity S-wave (km/s) = 1.76192 3.41898 2.71972
# Velocity P-wave (km/s) = 2.47731 6.65273 5.01976
#
# Compressibility (1/GPa) = 0.25712230
#
# Stress axis : x y z
#
# Youngs Moduli (GPa) = 3.59084 101.00624 75.15705
#
# Poissons Ratio (x) = 1.63290 -0.03822
# Poissons Ratio (y) = 0.05805 0.49807
# Poissons Ratio (z) = -0.00183 0.66937
#
# Static dielectric constant tensor:
#      x y z
#    x 2.907180 0.000000 0.000000 
#    y 0.000000 3.921050 0.000000 
#    z 0.000000 0.000000 3.633160 
# 
# 
# High freq. dielectric constant tensor:
#      x y z
#    x 1.689240 0.000000 0.000000 
#    y 0.000000 1.776300 0.000000 
#    z 0.000000 0.000000 1.750420 
# 
# From -- ./inp_files/20639.got.cif
#   From: 2010.03.12/outbox.cif.g09.slc.cpg/sg38_11_cif.got.tgz:20639.got - 2010.04.14 02:38:36.
