data_PCOD8178673
_publ_section_title
;
Structure prediction by ZEFSAII (Michael W. Deem and Ramdas Pophale) SiO2 
 PCOD8178673
Probable space group: A M M 2
;
_chemical_formula_sum "Si O2"
_cell_formula_units_Z 48
_cell_length_a 9.145762
_cell_length_b 28.180640
_cell_length_c 10.420085
_cell_angle_alpha 90.000000
_cell_angle_beta 90.000000
_cell_angle_gamma 90.000000
_cell_volume 2685.604211
_symmetry_space_group_name_H-M "A M M 2"
_symmetry_group_IT_number 38
_symmetry_cell_setting 'orthorhombic'
loop_
_space_group_symop_operation_xyz
x,y,z
-x,-y,z
-x,y,z
x,-y,z
x,1/2+y,1/2+z
-x,1/2-y,1/2+z
-x,1/2+y,1/2+z
x,1/2-y,1/2+z
loop_
_atom_site_type_symbol
_atom_site_label
_atom_site_fract_x
_atom_site_fract_y
_atom_site_fract_z
Si Si1 0.828503 0.150126 0.897580
Si Si2 0.671196 0.947875 0.275617
Si Si3 0.329209 0.809522 0.651822
Si Si4 0.168629 0.947272 0.013983
Si Si5 0.329225 0.198395 0.134560
Si Si6 0.327962 0.647510 0.889572
O O1 0.757856 0.166692 0.766303
O O2 0.796559 0.093536 0.910244
O O3 0.000000 0.160844 0.895099
O O4 0.759672 0.178955 0.014597
O O5 0.500000 0.946405 0.249524
O O6 0.714590 0.908283 0.380570
O O7 0.721092 0.000000 0.325109
O O8 0.742992 0.934843 0.141194
O O9 0.500000 0.821279 0.669372
O O10 0.300948 0.753889 0.648627
O O11 0.262833 0.831414 0.520478
O O12 0.000000 0.945986 0.053462
O O13 0.210984 0.000000 0.960746
O O14 0.500000 0.187015 0.112428
O O15 0.266979 0.174508 0.264306
O O16 0.500000 0.655973 0.892719
#
# Coordination Sequence:
#
# PCOD8178673 Si02
#       6
#     8   8   8   8   8   8
#     4  11  22  35  53  80 110 139 174 220 267 307
#     4   9  16  28  50  77 101 127 165 217 267 306
#     4  10  21  36  54  75 105 144 179 211 255 315
#     4   9  18  33  52  74 102 137 175 213 257 312
#     4  10  19  35  58  78  99 135 182 220 256 310
#     4   9  17  31  51  76 101 128 169 217 258 303
#
# _framework density 17.873072000000001
#
# number of rings (size 3 to 8) (size 9 to 14) (size 15 to 20)
#    0.000    2.333    1.667    1.500    0.000    4.000 
#    0.000    2.500    0.000    1.000    0.000    0.000 
#    0.000    0.000    0.000    0.000    0.000    0.000 
#
# Total GULP energy -297527.239501 kJ/mol
# GULP energy per Si atom -12396.968313 kJ/mol
# Density = 1.783239 g / cm^3
# Si number density = 17.873072 Si / 1000 Ang^3
#
#
#
# Elastic Constant Matrix: (Units=GPa)
#
#
# Indices 1 2 3 4 5 6 
#
# 1 46.0547 45.3678 41.9992 0.0000 0.0000 0.0000
# 2 45.3678 130.4402 77.4281 0.0000 0.0000 0.0000
# 3 41.9992 77.4281 147.6396 0.0000 0.0000 0.0000
# 4 0.0000 0.0000 0.0000 -20.7024 0.0000 0.0000
# 5 0.0000 0.0000 0.0000 0.0000 6799.1037 0.0000
# 6 0.0000 0.0000 0.0000 0.0000 0.0000 14.5360
#
#
#
# Elastic Compliance Matrix: (Units=1/GPa)
#
#
# Indices 1 2 3 4 5 6 
#
# 1 0.035661 -0.009266 -0.005285 0.000000 0.000000 0.000000
# 2 -0.009266 0.013539 -0.004465 0.000000 0.000000 0.000000
# 3 -0.005285 -0.004465 0.010618 0.000000 0.000000 0.000000
# 4 0.000000 0.000000 0.000000 -0.048304 0.000000 0.000000
# 5 0.000000 0.000000 0.000000 0.000000 0.000147 0.000000
# 6 0.000000 0.000000 0.000000 0.000000 0.000000 0.068795
#
#
# Mechanical properties :
#
#
# Convention : Reuss Voigt Hill
#
# Bulk Modulus (GPa) = 45.89910 72.63610 59.26760
# Shear Modulus (GPa) = 39.76166 1369.21009 704.48587
#
# Velocity S-wave (km/s) = 4.72176 27.70807 19.87501
# Velocity P-wave (km/s) = 7.44735 32.62481 23.66264
#
# Compressibility (1/GPa) = 0.02178692
#
# Stress axis : x y z
#
# Youngs Moduli (GPa) = 28.04220 73.85947 94.17845
#
# Poissons Ratio (x) = 0.68437 0.49774
# Poissons Ratio (y) = 0.25983 0.42047
# Poissons Ratio (z) = 0.14820 0.32976
#
# Static dielectric constant tensor:
#      x y z
#    x 2.830810 0.000000 0.000000 
#    y 0.000000 3.856940 0.000000 
#    z 0.000000 0.000000 3.321860 
# 
# 
# High freq. dielectric constant tensor:
#      x y z
#    x 1.671180 0.000000 0.000000 
#    y 0.000000 1.713630 0.000000 
#    z 0.000000 0.000000 1.676030 
# 
# From -- ./inp_files/3757.got.cif
#   From: 2010.03.12/outbox.cif.g09.slc.cpg/sg38_2_cif.got.tgz:3757.got - 2010.04.14 02:38:36.
