data_PCOD8178982
_publ_section_title
;
Structure prediction by ZEFSAII (Michael W. Deem and Ramdas Pophale) SiO2 
 PCOD8178982
Probable space group: A M M 2
;
_chemical_formula_sum "Si O2"
_cell_formula_units_Z 64
_cell_length_a 13.998790
_cell_length_b 8.961376
_cell_length_c 30.816333
_cell_angle_alpha 90.000000
_cell_angle_beta 90.000000
_cell_angle_gamma 90.000000
_cell_volume 3865.860308
_symmetry_space_group_name_H-M "A M M 2"
_symmetry_group_IT_number 38
_symmetry_cell_setting 'orthorhombic'
loop_
_space_group_symop_operation_xyz
x,y,z
-x,-y,z
-x,y,z
x,-y,z
x,1/2+y,1/2+z
-x,1/2-y,1/2+z
-x,1/2+y,1/2+z
x,1/2-y,1/2+z
loop_
_atom_site_type_symbol
_atom_site_label
_atom_site_fract_x
_atom_site_fract_y
_atom_site_fract_z
Si Si1 0.701574 0.673536 0.954220
Si Si2 0.712995 0.823895 0.615837
Si Si3 0.613434 0.668355 0.694296
Si Si4 0.609897 0.324267 0.374857
Si Si5 0.108095 0.673978 0.588013
Si Si6 0.386676 0.835000 0.778218
Si Si7 0.388412 0.672675 0.535302
Si Si8 0.106360 0.670107 0.998525
O O1 0.675731 0.500000 0.957711
O O2 0.678119 0.733023 0.906605
O O3 0.814571 0.702122 0.961883
O O4 0.637511 0.761866 0.988601
O O5 0.654366 0.774809 0.657609
O O6 0.821356 0.763768 0.619802
O O7 0.667403 0.759923 0.572264
O O8 0.712538 0.000000 0.612902
O O9 0.500000 0.677800 0.691859
O O10 0.649324 0.500000 0.686770
O O11 0.651160 0.722482 0.741346
O O12 0.500000 0.277755 0.382821
O O13 0.622299 0.500000 0.382591
O O14 0.643517 0.280163 0.326180
O O15 0.129812 0.500000 0.592172
O O16 0.126880 0.721161 0.538493
O O17 0.000000 0.712577 0.601941
O O18 0.500000 0.844640 0.776982
O O19 0.344479 0.000000 0.768991
O O20 0.500000 0.693391 0.543722
O O21 0.358740 0.500000 0.537062
O O22 0.115334 0.500000 0.015531
O O23 0.000000 0.699097 0.979228
#
# Coordination Sequence:
#
# PCOD8178982 Si02
#       8
#     8   8   8   8   8   8   8   8
#     4  11  21  31  47  72  97 127 164 203 245 290
#     4  12  23  34  50  72  98 131 166 201 242 289
#     4  10  20  33  50  73 101 131 163 202 247 292
#     4   9  18  32  49  69  97 133 166 198 240 290
#     4  10  20  34  53  74  95 123 161 205 249 292
#     4   8  15  30  50  70  93 124 163 203 244 290
#     4  11  23  36  48  64  94 134 169 202 241 285
#     4   9  18  33  50  68  93 125 161 203 250 294
#
# _framework density 16.555177
#
# number of rings (size 3 to 8) (size 9 to 14) (size 15 to 20)
#    0.000    2.000    1.250    4.125    0.000    6.750 
#    0.000    1.250    0.000    0.000    0.000    0.875 
#    0.000    3.000    0.000    0.000    0.000    0.000 
#
# Total GULP energy -396808.645195 kJ/mol
# GULP energy per Si atom -12400.270162 kJ/mol
# Density = 1.651750 g / cm^3
# Si number density = 16.555177 Si / 1000 Ang^3
#
#
#
# Elastic Constant Matrix: (Units=GPa)
#
#
# Indices 1 2 3 4 5 6 
#
# 1 58.5144 42.4850 26.6549 0.0000 0.0000 0.0000
# 2 42.4850 111.5763 48.0836 0.0000 0.0000 0.0000
# 3 26.6549 48.0836 88.3737 0.0000 0.0000 0.0000
# 4 0.0000 0.0000 0.0000 30.5455 0.0000 0.0000
# 5 0.0000 0.0000 0.0000 0.0000 9.7402 0.0000
# 6 0.0000 0.0000 0.0000 0.0000 0.0000 23.9712
#
#
#
# Elastic Compliance Matrix: (Units=1/GPa)
#
#
# Indices 1 2 3 4 5 6 
#
# 1 0.024209 -0.007931 -0.002987 0.000000 0.000000 0.000000
# 2 -0.007931 0.014306 -0.005392 0.000000 0.000000 0.000000
# 3 -0.002987 -0.005392 0.015150 0.000000 0.000000 0.000000
# 4 0.000000 0.000000 0.000000 0.032738 0.000000 0.000000
# 5 0.000000 0.000000 0.000000 0.000000 0.102668 0.000000
# 6 0.000000 0.000000 0.000000 0.000000 0.000000 0.041717
#
#
# Mechanical properties :
#
#
# Convention : Reuss Voigt Hill
#
# Bulk Modulus (GPa) = 47.51451 54.76794 51.14123
# Shear Modulus (GPa) = 18.48972 22.26742 20.37857
#
# Velocity S-wave (km/s) = 3.34556 3.67146 3.51229
# Velocity P-wave (km/s) = 6.60959 7.15030 6.88525
#
# Compressibility (1/GPa) = 0.02104620
#
# Stress axis : x y z
#
# Youngs Moduli (GPa) = 41.30772 69.90159 66.00693
#
# Poissons Ratio (x) = 0.55438 0.19713
# Poissons Ratio (y) = 0.32761 0.35588
# Poissons Ratio (z) = 0.12337 0.37688
#
# Static dielectric constant tensor:
#      x y z
#    x 3.164210 0.000000 0.000000 
#    y 0.000000 3.289490 0.000000 
#    z 0.000000 0.000000 3.127750 
# 
# 
# High freq. dielectric constant tensor:
#      x y z
#    x 1.619370 0.000000 0.000000 
#    y 0.000000 1.650660 0.000000 
#    z 0.000000 0.000000 1.622860 
# 
# From -- ./inp_files/25103.got.cif
#   From: 2010.03.12/outbox.cif.g09.slc.cpg/sg38_13_cif.got.tgz:25103.got - 2010.04.14 02:38:36.
