data_PCOD8178442
_publ_section_title
;
Structure prediction by ZEFSAII (Michael W. Deem and Ramdas Pophale) SiO2 
 PCOD8178442
Probable space group: A M M 2
;
_chemical_formula_sum "Si O2"
_cell_formula_units_Z 40
_cell_length_a 12.712414
_cell_length_b 8.818415
_cell_length_c 19.604203
_cell_angle_alpha 90.000000
_cell_angle_beta 90.000000
_cell_angle_gamma 90.000000
_cell_volume 2197.696680
_symmetry_space_group_name_H-M "A M M 2"
_symmetry_group_IT_number 38
_symmetry_cell_setting 'orthorhombic'
loop_
_space_group_symop_operation_xyz
x,y,z
-x,-y,z
-x,y,z
x,-y,z
x,1/2+y,1/2+z
-x,1/2-y,1/2+z
-x,1/2+y,1/2+z
x,1/2-y,1/2+z
loop_
_atom_site_type_symbol
_atom_site_label
_atom_site_fract_x
_atom_site_fract_y
_atom_site_fract_z
Si Si1 0.223555 0.679827 0.610950
Si Si2 0.000000 0.832279 0.262278
Si Si3 0.378634 0.172650 0.509904
Si Si4 0.214748 0.821953 0.755845
Si Si5 0.000000 0.665270 0.600725
Si Si6 0.378595 0.825316 0.352528
O O1 0.213744 0.500000 0.622124
O O2 0.313093 0.714565 0.556811
O O3 0.249758 0.753897 0.683339
O O4 0.110861 0.746076 0.581704
O O5 0.105287 0.744424 0.285150
O O6 0.000000 0.848264 0.181832
O O7 0.000000 0.000000 0.296016
O O8 0.500000 0.199881 0.527188
O O9 0.355878 0.210306 0.431454
O O10 0.346777 0.000000 0.526378
O O11 0.307001 0.785522 0.808633
O O12 0.201511 0.000000 0.747759
O O13 0.000000 0.500000 0.565907
O O14 0.500000 0.791823 0.335205
O O15 0.351700 0.000000 0.335940
#
# Coordination Sequence:
#
# PCOD8178442 Si02
#       6
#     8   4   8   8   4   8
#     4  10  19  33  54  77 103 137 174 211 254 307
#     4   9  17  33  54  75 104 139 173 209 255 311
#     4   9  19  36  55  75 102 135 172 217 265 310
#     4  11  21  33  53  81 109 136 172 217 261 306
#     4   7  14  29  48  71  98 129 163 201 245 291
#     4   9  19  37  57  74  99 139 180 216 262 317
#
# _framework density 18.200873000000001
#
# number of rings (size 3 to 8) (size 9 to 14) (size 15 to 20)
#    0.000    2.600    0.000    5.100    0.000    2.400 
#    0.000    4.500    0.000    4.800    0.000    0.000 
#    0.000    0.000    0.000    0.000    0.000    0.000 
#
# Total GULP energy -247903.940713 kJ/mol
# GULP energy per Si atom -12395.197036 kJ/mol
# Density = 1.815945 g / cm^3
# Si number density = 18.200873 Si / 1000 Ang^3
#
#
#
# Elastic Constant Matrix: (Units=GPa)
#
#
# Indices 1 2 3 4 5 6 
#
# 1 116.8675 51.0238 59.7722 0.0000 0.0000 0.0000
# 2 51.0238 103.1851 38.2910 0.0000 0.0000 0.0000
# 3 59.7722 38.2910 66.1353 0.0000 0.0000 0.0000
# 4 0.0000 0.0000 0.0000 28.3034 0.0000 0.0000
# 5 0.0000 0.0000 0.0000 0.0000 -19.2284 0.0000
# 6 0.0000 0.0000 0.0000 0.0000 0.0000 32.4469
#
#
#
# Elastic Compliance Matrix: (Units=1/GPa)
#
#
# Indices 1 2 3 4 5 6 
#
# 1 0.016801 -0.003405 -0.013214 0.000000 0.000000 0.000000
# 2 -0.003405 0.013033 -0.004469 0.000000 0.000000 0.000000
# 3 -0.013214 -0.004469 0.029650 0.000000 0.000000 0.000000
# 4 0.000000 0.000000 0.000000 0.035331 0.000000 0.000000
# 5 0.000000 0.000000 0.000000 0.000000 -0.052006 0.000000
# 6 0.000000 0.000000 0.000000 0.000000 0.000000 0.030820
#
#
# Mechanical properties :
#
#
# Convention : Reuss Voigt Hill
#
# Bulk Modulus (GPa) = 57.76851 64.92911 61.34881
# Shear Modulus (GPa) = 41.12733 17.44443 29.28588
#
# Velocity S-wave (km/s) = 4.75872 3.09923 4.01563
# Velocity P-wave (km/s) = 7.87415 6.96836 7.43506
#
# Compressibility (1/GPa) = 0.01731047
#
# Stress axis : x y z
#
# Youngs Moduli (GPa) = 59.51943 76.72688 33.72658
#
# Poissons Ratio (x) = 0.26122 0.44565
# Poissons Ratio (y) = 0.20264 0.15072
# Poissons Ratio (z) = 0.78646 0.34289
#
# Static dielectric constant tensor:
#      x y z
#    x 3.667940 0.000000 0.000000 
#    y 0.000000 3.252430 0.000000 
#    z 0.000000 0.000000 3.030080 
# 
# 
# High freq. dielectric constant tensor:
#      x y z
#    x 1.720920 0.000000 0.000000 
#    y 0.000000 1.698450 0.000000 
#    z 0.000000 0.000000 1.677390 
# 
# From -- ./inp_files/20450.got.cif
#   From: 2010.03.12/outbox.cif.g09.slc.cpg/sg38_11_cif.got.tgz:20450.got - 2010.04.14 02:38:36.
