data_PCOD8178269
_publ_section_title
;
Structure prediction by ZEFSAII (Michael W. Deem and Ramdas Pophale) SiO2 
 PCOD8178269
Probable space group: A M M 2
;
_chemical_formula_sum "Si O2"
_cell_formula_units_Z 64
_cell_length_a 9.006422
_cell_length_b 24.787379
_cell_length_c 15.263048
_cell_angle_alpha 90.000000
_cell_angle_beta 90.000000
_cell_angle_gamma 90.000000
_cell_volume 3407.408241
_symmetry_space_group_name_H-M "A M M 2"
_symmetry_group_IT_number 38
_symmetry_cell_setting 'orthorhombic'
loop_
_space_group_symop_operation_xyz
x,y,z
-x,-y,z
-x,y,z
x,-y,z
x,1/2+y,1/2+z
-x,1/2-y,1/2+z
-x,1/2+y,1/2+z
x,1/2-y,1/2+z
loop_
_atom_site_type_symbol
_atom_site_label
_atom_site_fract_x
_atom_site_fract_y
_atom_site_fract_z
Si Si1 0.675474 0.645834 0.118710
Si Si2 0.826301 0.642676 0.749740
Si Si3 0.324392 0.233668 0.152990
Si Si4 0.324065 0.559356 0.254544
Si Si5 0.829925 0.837399 0.443897
Si Si6 0.826429 0.783873 0.975437
Si Si7 0.325711 0.113658 0.932152
Si Si8 0.325501 0.437512 0.617141
O O1 0.500000 0.642822 0.113765
O O2 0.725650 0.703948 0.156461
O O3 0.743093 0.600988 0.183685
O O4 0.734525 0.635633 0.020812
O O5 0.750834 0.700463 0.731036
O O6 0.797592 0.631828 0.852931
O O7 0.757329 0.594094 0.694365
O O8 0.000000 0.646985 0.729090
O O9 0.500000 0.226583 0.158113
O O10 0.265476 0.207108 0.064199
O O11 0.500000 0.559625 0.245627
O O12 0.259690 0.500000 0.234249
O O13 0.279263 0.574496 0.353214
O O14 0.790294 0.774008 0.432961
O O15 0.000000 0.843334 0.472000
O O16 0.764851 0.831246 0.913571
O O17 0.000000 0.791339 0.994180
O O18 0.500000 0.126756 0.930372
O O19 0.277308 0.085104 0.022482
O O20 0.500000 0.429795 0.631171
O O21 0.279346 0.500000 0.622758
#
# Coordination Sequence:
#
# PCOD8178269 Si02
#       8
#     8   8   8   8   8   8   8   8
#     4   9  19  35  56  82 108 140 185 232 276 322
#     4  11  22  36  55  80 111 148 187 226 274 330
#     4  10  19  32  51  79 112 142 177 223 273 326
#     4   9  18  34  56  82 111 143 182 227 275 327
#     4   9  21  38  54  76 110 149 184 222 277 333
#     4  10  19  33  52  77 110 146 182 219 265 325
#     4  10  19  32  54  82 112 146 180 218 269 329
#     4  10  21  37  56  80 112 148 186 227 272 325
#
# _framework density 18.782605
#
# number of rings (size 3 to 8) (size 9 to 14) (size 15 to 20)
#    0.000    2.250    1.250    1.500    1.750    3.750 
#    0.000    1.250    0.000    4.500    0.000    0.000 
#    0.000    0.000    0.000    0.000    0.000    0.000 
#
# Total GULP energy -396791.717975 kJ/mol
# GULP energy per Si atom -12399.741187 kJ/mol
# Density = 1.873986 g / cm^3
# Si number density = 18.782605 Si / 1000 Ang^3
#
#
#
# Elastic Constant Matrix: (Units=GPa)
#
#
# Indices 1 2 3 4 5 6 
#
# 1 47.3973 36.1230 37.1837 0.0000 0.0000 0.0000
# 2 36.1230 128.1850 72.1090 0.0000 0.0000 0.0000
# 3 37.1837 72.1090 117.7868 0.0000 0.0000 0.0000
# 4 0.0000 0.0000 0.0000 30.2915 0.0000 0.0000
# 5 0.0000 0.0000 0.0000 0.0000 22.4634 0.0000
# 6 0.0000 0.0000 0.0000 0.0000 0.0000 20.0795
#
#
#
# Elastic Compliance Matrix: (Units=1/GPa)
#
#
# Indices 1 2 3 4 5 6 
#
# 1 0.029819 -0.004740 -0.006512 0.000000 0.000000 0.000000
# 2 -0.004740 0.012653 -0.006250 0.000000 0.000000 0.000000
# 3 -0.006512 -0.006250 0.014372 0.000000 0.000000 0.000000
# 4 0.000000 0.000000 0.000000 0.033013 0.000000 0.000000
# 5 0.000000 0.000000 0.000000 0.000000 0.044517 0.000000
# 6 0.000000 0.000000 0.000000 0.000000 0.000000 0.049802
#
#
# Mechanical properties :
#
#
# Convention : Reuss Voigt Hill
#
# Bulk Modulus (GPa) = 45.78580 64.91118 55.34849
# Shear Modulus (GPa) = 22.07917 24.43044 23.25481
#
# Velocity S-wave (km/s) = 3.43229 3.61043 3.52249
# Velocity P-wave (km/s) = 6.33539 7.21211 6.78792
#
# Compressibility (1/GPa) = 0.02184083
#
# Stress axis : x y z
#
# Youngs Moduli (GPa) = 33.53527 79.03503 69.58210
#
# Poissons Ratio (x) = 0.37464 0.45309
# Poissons Ratio (y) = 0.15896 0.43486
# Poissons Ratio (z) = 0.21837 0.49393
#
# Static dielectric constant tensor:
#      x y z
#    x 3.262110 0.000000 0.000000 
#    y 0.000000 3.565770 0.000000 
#    z 0.000000 0.000000 3.430890 
# 
# 
# High freq. dielectric constant tensor:
#      x y z
#    x 1.713800 0.000000 0.000000 
#    y 0.000000 1.725990 0.000000 
#    z 0.000000 0.000000 1.727310 
# 
# From -- ./inp_files/12767.got.cif
#   From: 2010.03.12/outbox.cif.g09.slc.cpg/sg38_7_cif.got.tgz:12767.got - 2010.04.14 02:38:36.
