data_PCOD8178461
_publ_section_title
;
Structure prediction by ZEFSAII (Michael W. Deem and Ramdas Pophale) SiO2 
 PCOD8178461
Probable space group: A M M 2
;
_chemical_formula_sum "Si O2"
_cell_formula_units_Z 48
_cell_length_a 8.522858
_cell_length_b 31.092847
_cell_length_c 9.179826
_cell_angle_alpha 90.000000
_cell_angle_beta 90.000000
_cell_angle_gamma 90.000000
_cell_volume 2432.653154
_symmetry_space_group_name_H-M "A M M 2"
_symmetry_group_IT_number 38
_symmetry_cell_setting 'orthorhombic'
loop_
_space_group_symop_operation_xyz
x,y,z
-x,-y,z
-x,y,z
x,-y,z
x,1/2+y,1/2+z
-x,1/2-y,1/2+z
-x,1/2+y,1/2+z
x,1/2-y,1/2+z
loop_
_atom_site_type_symbol
_atom_site_label
_atom_site_fract_x
_atom_site_fract_y
_atom_site_fract_z
Si Si1 0.813276 0.952335 0.917060
Si Si2 0.813370 0.371272 0.243929
Si Si3 0.813907 0.047160 0.243618
Si Si4 0.186685 0.370258 0.913054
Si Si5 0.185827 0.710933 0.420577
Si Si6 0.684131 0.290480 0.743607
O O1 0.744437 0.915705 0.810326
O O2 0.000000 0.950673 0.914680
O O3 0.756801 0.000000 0.866562
O O4 0.752155 0.942812 0.080613
O O5 0.749264 0.331261 0.337745
O O6 0.000000 0.372508 0.248048
O O7 0.755146 0.366012 0.078772
O O8 0.755671 0.083285 0.355585
O O9 0.000000 0.046779 0.240058
O O10 0.752681 0.000000 0.294344
O O11 0.274036 0.335369 0.816922
O O12 0.000000 0.364144 0.898059
O O13 0.243998 0.711037 0.584327
O O14 0.245260 0.752892 0.340162
O O15 0.000000 0.711295 0.420351
O O16 0.500000 0.284470 0.732533
#
# Coordination Sequence:
#
# PCOD8178461 Si02
#       6
#     8   8   8   8   8   8
#     4   8  13  23  40  67 106 144 174 213 270 326
#     4   9  18  30  49  78 107 139 180 223 266 320
#     4   8  14  25  45  75 109 144 184 231 279 327
#     4  10  19  33  54  80 111 147 187 228 276 336
#     4  11  22  39  61  82 108 145 188 229 275 334
#     4  12  25  40  58  83 113 143 181 230 284 337
#
# _framework density 19.731541
#
# number of rings (size 3 to 8) (size 9 to 14) (size 15 to 20)
#    0.000    2.333    0.000    5.000    0.000    4.667 
#    0.000    4.167    0.000    0.500    0.000    0.000 
#    0.000    4.667    0.000    0.000    0.000    0.000 
#
# Total GULP energy -297547.208634 kJ/mol
# GULP energy per Si atom -12397.800360 kJ/mol
# Density = 1.968663 g / cm^3
# Si number density = 19.731541 Si / 1000 Ang^3
#
#
#
# Elastic Constant Matrix: (Units=GPa)
#
#
# Indices 1 2 3 4 5 6 
#
# 1 43.1495 22.0887 23.3369 0.0000 0.0000 0.0000
# 2 22.0887 161.5441 88.5148 0.0000 0.0000 0.0000
# 3 23.3369 88.5148 167.7812 0.0000 0.0000 0.0000
# 4 0.0000 0.0000 0.0000 46.3226 0.0000 0.0000
# 5 0.0000 0.0000 0.0000 0.0000 5.4365 0.0000
# 6 0.0000 0.0000 0.0000 0.0000 0.0000 -2.1503
#
#
#
# Elastic Compliance Matrix: (Units=1/GPa)
#
#
# Indices 1 2 3 4 5 6 
#
# 1 0.025594 -0.002179 -0.002410 0.000000 0.000000 0.000000
# 2 -0.002179 0.008893 -0.004388 0.000000 0.000000 0.000000
# 3 -0.002410 -0.004388 0.008611 0.000000 0.000000 0.000000
# 4 0.000000 0.000000 0.000000 0.021588 0.000000 0.000000
# 5 0.000000 0.000000 0.000000 0.000000 0.183943 0.000000
# 6 0.000000 0.000000 0.000000 0.000000 0.000000 -0.465053
#
#
# Mechanical properties :
#
#
# Convention : Reuss Voigt Hill
#
# Bulk Modulus (GPa) = 39.77389 71.15063 55.46226
# Shear Modulus (GPa) = -26.30355 25.82404 -0.23975
#
# Velocity S-wave (km/s) = -3.65509 3.62162 -0.34896
# Velocity P-wave (km/s) = 1.54545 7.32296 5.29217
#
# Compressibility (1/GPa) = 0.02514213
#
# Stress axis : x y z
#
# Youngs Moduli (GPa) = 39.07123 112.45168 116.13655
#
# Poissons Ratio (x) = 0.24502 0.27994
# Poissons Ratio (y) = 0.08513 0.50965
# Poissons Ratio (z) = 0.09418 0.49348
#
# Static dielectric constant tensor:
#      x y z
#    x 3.099300 0.000000 0.000000 
#    y 0.000000 4.135120 0.000000 
#    z 0.000000 0.000000 3.807700 
# 
# 
# High freq. dielectric constant tensor:
#      x y z
#    x 1.714130 0.000000 0.000000 
#    y 0.000000 1.791470 0.000000 
#    z 0.000000 0.000000 1.778310 
# 
# From -- ./inp_files/3787.got.cif
#   From: 2010.03.12/outbox.cif.g09.slc.cpg/sg38_2_cif.got.tgz:3787.got - 2010.04.14 02:38:36.
