data_PCOD8178372
_publ_section_title
;
Structure prediction by ZEFSAII (Michael W. Deem and Ramdas Pophale) SiO2 
 PCOD8178372
Probable space group: A M M 2
;
_chemical_formula_sum "Si O2"
_cell_formula_units_Z 64
_cell_length_a 8.914608
_cell_length_b 15.734908
_cell_length_c 23.082542
_cell_angle_alpha 90.000000
_cell_angle_beta 90.000000
_cell_angle_gamma 90.000000
_cell_volume 3237.800556
_symmetry_space_group_name_H-M "A M M 2"
_symmetry_group_IT_number 38
_symmetry_cell_setting 'orthorhombic'
loop_
_space_group_symop_operation_xyz
x,y,z
-x,-y,z
-x,y,z
x,-y,z
x,1/2+y,1/2+z
-x,1/2-y,1/2+z
-x,1/2+y,1/2+z
x,1/2-y,1/2+z
loop_
_atom_site_type_symbol
_atom_site_label
_atom_site_fract_x
_atom_site_fract_y
_atom_site_fract_z
Si Si1 0.826311 0.596815 0.703150
Si Si2 0.824817 0.730750 0.800974
Si Si3 0.823312 0.684039 0.033958
Si Si4 0.825000 0.597219 0.241096
Si Si5 0.321452 0.765582 0.419632
Si Si6 0.335894 0.902995 0.626949
Si Si7 0.325104 0.410139 0.464231
Si Si8 0.325354 0.154735 0.087566
O O1 0.799944 0.500000 0.725721
O O2 0.772605 0.665710 0.750767
O O3 0.731733 0.609218 0.645063
O O4 0.000000 0.612108 0.688299
O O5 0.786509 0.830397 0.788712
O O6 0.734811 0.701882 0.857935
O O7 0.000000 0.718979 0.813054
O O8 0.769933 0.602630 0.070323
O O9 0.765262 0.759410 0.075378
O O10 0.000000 0.688154 0.025595
O O11 0.746159 0.677777 0.971159
O O12 0.776365 0.500000 0.259814
O O13 0.743648 0.633687 0.184149
O O14 0.000000 0.597516 0.227010
O O15 0.500000 0.770122 0.423408
O O16 0.255932 0.670073 0.430482
O O17 0.500000 0.859318 0.617858
O O18 0.361076 0.000000 0.640594
O O19 0.500000 0.409866 0.451007
O O20 0.254488 0.500000 0.442321
O O21 0.296281 0.406219 0.532955
O O22 0.500000 0.176488 0.094101
#
# Coordination Sequence:
#
# PCOD8178372 Si02
#       8
#     8   8   8   8   8   8   8   8
#     4  10  21  36  54  78 108 143 185 230 275 326
#     4  10  21  37  54  73 103 144 185 227 274 322
#     4  11  21  35  56  79 107 143 179 217 268 329
#     4   9  18  33  54  81 113 147 181 217 263 325
#     4  10  21  36  54  76 102 135 179 228 272 319
#     4  10  20  34  54  82 113 140 173 222 273 321
#     4   8  15  29  49  75 106 135 162 200 256 319
#     4  10  19  32  54  83 112 140 173 215 267 326
#
# _framework density 19.766504000000001
#
# number of rings (size 3 to 8) (size 9 to 14) (size 15 to 20)
#    0.000    2.250    0.000    4.125    0.000    4.000 
#    0.000    0.625    0.000    9.375    0.000    0.000 
#    0.000    0.000    0.000    0.000    0.000    0.000 
#
# Total GULP energy -396578.045276 kJ/mol
# GULP energy per Si atom -12393.063915 kJ/mol
# Density = 1.972151 g / cm^3
# Si number density = 19.766504 Si / 1000 Ang^3
#
#
#
# Elastic Constant Matrix: (Units=GPa)
#
#
# Indices 1 2 3 4 5 6 
#
# 1 82.3363 14.9379 41.1146 0.0000 0.0000 0.0000
# 2 14.9379 55.0765 21.3481 0.0000 0.0000 0.0000
# 3 41.1146 21.3481 100.9046 0.0000 0.0000 0.0000
# 4 0.0000 0.0000 0.0000 20.2072 0.0000 0.0000
# 5 0.0000 0.0000 0.0000 0.0000 33.8150 0.0000
# 6 0.0000 0.0000 0.0000 0.0000 0.0000 18.5362
#
#
#
# Elastic Compliance Matrix: (Units=1/GPa)
#
#
# Indices 1 2 3 4 5 6 
#
# 1 0.015429 -0.001904 -0.005884 0.000000 0.000000 0.000000
# 2 -0.001904 0.020013 -0.003458 0.000000 0.000000 0.000000
# 3 -0.005884 -0.003458 0.013039 0.000000 0.000000 0.000000
# 4 0.000000 0.000000 0.000000 0.049487 0.000000 0.000000
# 5 0.000000 0.000000 0.000000 0.000000 0.029573 0.000000
# 6 0.000000 0.000000 0.000000 0.000000 0.000000 0.053949
#
#
# Mechanical properties :
#
#
# Convention : Reuss Voigt Hill
#
# Bulk Modulus (GPa) = 38.47731 43.67985 41.07858
# Shear Modulus (GPa) = 23.51328 25.23946 24.37637
#
# Velocity S-wave (km/s) = 3.45273 3.57722 3.51553
# Velocity P-wave (km/s) = 5.95007 6.26162 6.10783
#
# Compressibility (1/GPa) = 0.02598934
#
# Stress axis : x y z
#
# Youngs Moduli (GPa) = 64.81372 49.96635 76.69031
#
# Poissons Ratio (x) = 0.09514 0.45123
# Poissons Ratio (y) = 0.12340 0.26523
# Poissons Ratio (z) = 0.38135 0.17280
#
# Static dielectric constant tensor:
#      x y z
#    x 3.625040 0.000000 0.000000 
#    y 0.000000 3.523180 0.000000 
#    z 0.000000 0.000000 3.468990 
# 
# 
# High freq. dielectric constant tensor:
#      x y z
#    x 1.761160 0.000000 0.000000 
#    y 0.000000 1.765770 0.000000 
#    z 0.000000 0.000000 1.762080 
# 
# From -- ./inp_files/20082.got.cif
#   From: 2010.03.12/outbox.cif.g09.slc.cpg/sg38_11_cif.got.tgz:20082.got - 2010.04.14 02:38:36.
