data_PCOD8178618
_publ_section_title
;
Structure prediction by ZEFSAII (Michael W. Deem and Ramdas Pophale) SiO2 
 PCOD8178618
Probable space group: A M M 2
;
_chemical_formula_sum "Si O2"
_cell_formula_units_Z 56
_cell_length_a 9.216484
_cell_length_b 19.927382
_cell_length_c 15.497266
_cell_angle_alpha 90.000000
_cell_angle_beta 90.000000
_cell_angle_gamma 90.000000
_cell_volume 2846.234032
_symmetry_space_group_name_H-M "A M M 2"
_symmetry_group_IT_number 38
_symmetry_cell_setting 'orthorhombic'
loop_
_space_group_symop_operation_xyz
x,y,z
-x,-y,z
-x,y,z
x,-y,z
x,1/2+y,1/2+z
-x,1/2-y,1/2+z
-x,1/2+y,1/2+z
x,1/2-y,1/2+z
loop_
_atom_site_type_symbol
_atom_site_label
_atom_site_fract_x
_atom_site_fract_y
_atom_site_fract_z
Si Si1 0.331056 0.293021 0.539880
Si Si2 0.336027 0.749359 0.354901
Si Si3 0.339639 0.103441 0.431100
Si Si4 0.330076 0.921686 0.626404
Si Si5 0.334955 0.075098 0.131318
Si Si6 0.174508 0.205083 0.685579
Si Si7 0.153690 0.573534 0.785134
O O1 0.500000 0.270421 0.550115
O O2 0.280742 0.288787 0.440640
O O3 0.309626 0.372337 0.555207
O O4 0.237006 0.246861 0.604184
O O5 0.500000 0.727703 0.328582
O O6 0.333155 0.825775 0.383964
O O7 0.227481 0.737724 0.275511
O O8 0.500000 0.071683 0.424737
O O9 0.292794 0.103347 0.530115
O O10 0.225873 0.060287 0.377791
O O11 0.500000 0.912311 0.647602
O O12 0.234410 0.871891 0.685558
O O13 0.285382 0.000000 0.639565
O O14 0.500000 0.072600 0.161348
O O15 0.254008 0.108414 0.213626
O O16 0.284803 0.000000 0.102715
O O17 0.000000 0.205197 0.681815
O O18 0.124707 0.500000 0.746983
O O19 0.000000 0.612727 0.793809
#
# Coordination Sequence:
#
# PCOD8178618 Si02
#       7
#     8   8   8   8   8   8   8
#     4  10  20  39  63  85 114 153 200 253 302 355
#     4  10  21  38  61  85 114 152 200 252 300 357
#     4  10  19  34  57  84 110 143 190 247 300 349
#     4  10  21  40  65  89 117 158 210 261 310 367
#     4   9  18  33  55  82 110 144 189 242 296 348
#     4  12  25  39  59  89 127 163 201 251 308 378
#     4  10  20  31  45  72 112 151 182 218 275 349
#
# _framework density 19.675122000000002
#
# number of rings (size 3 to 8) (size 9 to 14) (size 15 to 20)
#    0.000    1.857    1.429    3.000    0.000    7.429 
#    0.000    0.714    0.000    2.571    0.000    0.000 
#    0.000    0.000    0.000    0.000    0.000    0.000 
#
# Total GULP energy -346893.035048 kJ/mol
# GULP energy per Si atom -12389.036966 kJ/mol
# Density = 1.963034 g / cm^3
# Si number density = 19.675122 Si / 1000 Ang^3
#
#
#
# Elastic Constant Matrix: (Units=GPa)
#
#
# Indices 1 2 3 4 5 6 
#
# 1 94.5456 36.5291 36.8826 0.0000 0.0000 0.0000
# 2 36.5291 92.6753 27.1296 0.0000 0.0000 0.0000
# 3 36.8826 27.1296 73.1017 0.0000 0.0000 0.0000
# 4 0.0000 0.0000 0.0000 28.7132 0.0000 0.0000
# 5 0.0000 0.0000 0.0000 0.0000 10.2364 0.0000
# 6 0.0000 0.0000 0.0000 0.0000 0.0000 19.2498
#
#
#
# Elastic Compliance Matrix: (Units=1/GPa)
#
#
# Indices 1 2 3 4 5 6 
#
# 1 0.014363 -0.003972 -0.005773 0.000000 0.000000 0.000000
# 2 -0.003972 0.013204 -0.002896 0.000000 0.000000 0.000000
# 3 -0.005773 -0.002896 0.017667 0.000000 0.000000 0.000000
# 4 0.000000 0.000000 0.000000 0.034827 0.000000 0.000000
# 5 0.000000 0.000000 0.000000 0.000000 0.097691 0.000000
# 6 0.000000 0.000000 0.000000 0.000000 0.000000 0.051949
#
#
# Mechanical properties :
#
#
# Convention : Reuss Voigt Hill
#
# Bulk Modulus (GPa) = 50.11906 51.26723 50.69314
# Shear Modulus (GPa) = 19.11074 22.29199 20.70136
#
# Velocity S-wave (km/s) = 3.11997 3.36966 3.24722
# Velocity P-wave (km/s) = 6.20545 6.42285 6.31508
#
# Compressibility (1/GPa) = 0.01995249
#
# Stress axis : x y z
#
# Youngs Moduli (GPa) = 69.62123 75.73654 56.60220
#
# Poissons Ratio (x) = 0.30079 0.32676
# Poissons Ratio (y) = 0.27650 0.16394
# Poissons Ratio (z) = 0.40192 0.21936
#
# Static dielectric constant tensor:
#      x y z
#    x 3.830930 0.000000 0.000000 
#    y 0.000000 3.734770 0.000000 
#    z 0.000000 0.000000 3.563540 
# 
# 
# High freq. dielectric constant tensor:
#      x y z
#    x 1.755940 0.000000 0.000000 
#    y 0.000000 1.771580 0.000000 
#    z 0.000000 0.000000 1.752100 
# 
# From -- ./inp_files/12365.got.cif
#   From: 2010.03.12/outbox.cif.g09.slc.cpg/sg38_7_cif.got.tgz:12365.got - 2010.04.14 02:38:36.
