data_PCOD8178027
_publ_section_title
;
Structure prediction by ZEFSAII (Michael W. Deem and Ramdas Pophale) SiO2 
 PCOD8178027
Probable space group: A M M 2
;
_chemical_formula_sum "Si O2"
_cell_formula_units_Z 48
_cell_length_a 8.934653
_cell_length_b 13.694113
_cell_length_c 23.827834
_cell_angle_alpha 90.000000
_cell_angle_beta 90.000000
_cell_angle_gamma 90.000000
_cell_volume 2915.386667
_symmetry_space_group_name_H-M "A M M 2"
_symmetry_group_IT_number 38
_symmetry_cell_setting 'orthorhombic'
loop_
_space_group_symop_operation_xyz
x,y,z
-x,-y,z
-x,y,z
x,-y,z
x,1/2+y,1/2+z
-x,1/2-y,1/2+z
-x,1/2+y,1/2+z
x,1/2-y,1/2+z
loop_
_atom_site_type_symbol
_atom_site_label
_atom_site_fract_x
_atom_site_fract_y
_atom_site_fract_z
Si Si1 0.823429 0.393236 0.136230
Si Si2 0.674790 0.387053 0.470329
Si Si3 0.822843 0.202724 0.076005
Si Si4 0.173781 0.387762 0.355563
Si Si5 0.673272 0.387885 0.681790
Si Si6 0.176776 0.721674 0.244056
O O1 0.751093 0.500000 0.123962
O O2 0.775493 0.314825 0.089058
O O3 0.769816 0.355562 0.197051
O O4 0.000000 0.403702 0.137001
O O5 0.500000 0.366693 0.475471
O O6 0.714028 0.500000 0.481294
O O7 0.760872 0.321921 0.515139
O O8 0.729676 0.355221 0.408937
O O9 0.754721 0.131661 0.122822
O O10 0.000000 0.188920 0.077175
O O11 0.205448 0.500000 0.339162
O O12 0.225313 0.319665 0.304279
O O13 0.000000 0.372475 0.369843
O O14 0.500000 0.361685 0.673997
O O15 0.696732 0.500000 0.698578
O O16 0.742216 0.324454 0.732501
O O17 0.000000 0.738949 0.240386
#
# Coordination Sequence:
#
# PCOD8178027 Si02
#       6
#     8   8   8   8   8   8
#     4   8  14  26  45  69  94 117 143 179 224 271
#     4  10  20  32  46  66  94 126 155 186 229 277
#     4  10  19  30  48  71  92 119 155 193 231 270
#     4   9  17  30  49  72  96 121 151 188 228 271
#     4  10  20  32  46  66  94 126 155 186 229 276
#     4   9  17  29  48  72  94 119 151 186 225 269
#
# _framework density 16.464369000000001
#
# number of rings (size 3 to 8) (size 9 to 14) (size 15 to 20)
#    0.000    2.667    0.000    3.500    0.000    7.000 
#    0.000    0.000    0.000   17.500    0.000    2.333 
#    0.000    0.000    0.000    0.000    0.000    0.000 
#
# Total GULP energy -297575.862722 kJ/mol
# GULP energy per Si atom -12398.994280 kJ/mol
# Density = 1.642690 g / cm^3
# Si number density = 16.464369 Si / 1000 Ang^3
#
#
#
# Elastic Constant Matrix: (Units=GPa)
#
#
# Indices 1 2 3 4 5 6 
#
# 1 67.4197 47.3380 51.2480 0.0000 0.0000 0.0000
# 2 47.3380 116.4144 71.0314 0.0000 0.0000 0.0000
# 3 51.2480 71.0314 124.7396 0.0000 0.0000 0.0000
# 4 0.0000 0.0000 0.0000 26.4756 0.0000 0.0000
# 5 0.0000 0.0000 0.0000 0.0000 18.8283 0.0000
# 6 0.0000 0.0000 0.0000 0.0000 0.0000 18.5003
#
#
#
# Elastic Compliance Matrix: (Units=1/GPa)
#
#
# Indices 1 2 3 4 5 6 
#
# 1 0.023795 -0.005687 -0.006538 0.000000 0.000000 0.000000
# 2 -0.005687 0.014523 -0.005933 0.000000 0.000000 0.000000
# 3 -0.006538 -0.005933 0.014081 0.000000 0.000000 0.000000
# 4 0.000000 0.000000 0.000000 0.037771 0.000000 0.000000
# 5 0.000000 0.000000 0.000000 0.000000 0.053112 0.000000
# 6 0.000000 0.000000 0.000000 0.000000 0.000000 0.054053
#
#
# Mechanical properties :
#
#
# Convention : Reuss Voigt Hill
#
# Bulk Modulus (GPa) = 62.17639 71.97871 67.07755
# Shear Modulus (GPa) = 20.91952 22.02459 21.47205
#
# Velocity S-wave (km/s) = 3.56841 3.66144 3.61522
# Velocity P-wave (km/s) = 7.40434 7.85415 7.63256
#
# Compressibility (1/GPa) = 0.01608327
#
# Stress axis : x y z
#
# Youngs Moduli (GPa) = 42.02595 68.85724 71.01599
#
# Poissons Ratio (x) = 0.39158 0.46427
# Poissons Ratio (y) = 0.23899 0.42137
# Poissons Ratio (z) = 0.27475 0.40856
#
# Static dielectric constant tensor:
#      x y z
#    x 3.023310 0.000000 0.000000 
#    y 0.000000 3.240180 0.000000 
#    z 0.000000 0.000000 3.047750 
# 
# 
# High freq. dielectric constant tensor:
#      x y z
#    x 1.627500 0.000000 0.000000 
#    y 0.000000 1.625960 0.000000 
#    z 0.000000 0.000000 1.625080 
# 
# From -- ./inp_files/19636.got.cif
#   From: 2010.03.12/outbox.cif.g09.slc.cpg/sg38_10_cif.got.tgz:19636.got - 2010.04.14 02:38:36.
