data_PCOD8178147
_publ_section_title
;
Structure prediction by ZEFSAII (Michael W. Deem and Ramdas Pophale) SiO2 
 PCOD8178147
Probable space group: A M M 2
;
_chemical_formula_sum "Si O2"
_cell_formula_units_Z 64
_cell_length_a 19.823468
_cell_length_b 8.889789
_cell_length_c 20.067152
_cell_angle_alpha 90.000000
_cell_angle_beta 90.000000
_cell_angle_gamma 90.000000
_cell_volume 3536.362914
_symmetry_space_group_name_H-M "A M M 2"
_symmetry_group_IT_number 38
_symmetry_cell_setting 'orthorhombic'
loop_
_space_group_symop_operation_xyz
x,y,z
-x,-y,z
-x,y,z
x,-y,z
x,1/2+y,1/2+z
-x,1/2-y,1/2+z
-x,1/2+y,1/2+z
x,1/2-y,1/2+z
loop_
_atom_site_type_symbol
_atom_site_label
_atom_site_fract_x
_atom_site_fract_y
_atom_site_fract_z
Si Si1 0.575129 0.821147 0.542500
Si Si2 0.166524 0.828197 0.791699
Si Si3 0.685482 0.821468 0.439468
Si Si4 0.077492 0.325394 0.684581
Si Si5 0.173918 0.175879 0.944569
Si Si6 0.320536 0.324519 0.299388
Si Si7 0.575368 0.178586 0.690930
Si Si8 0.920801 0.673465 0.048808
O O1 0.500000 0.765543 0.522335
O O2 0.629381 0.757587 0.490408
O O3 0.593003 0.761755 0.616823
O O4 0.576746 0.000000 0.542552
O O5 0.121076 0.717898 0.748474
O O6 0.153231 0.788544 0.868729
O O7 0.244554 0.799094 0.773851
O O8 0.146256 0.000000 0.776270
O O9 0.757248 0.759491 0.463652
O O10 0.665222 0.765223 0.366642
O O11 0.688418 0.000000 0.439618
O O12 0.087159 0.500000 0.668542
O O13 0.103214 0.232479 0.620734
O O14 0.000000 0.286382 0.700677
O O15 0.186208 0.000000 0.954553
O O16 0.114223 0.232243 0.991074
O O17 0.333122 0.500000 0.314131
O O18 0.370716 0.257381 0.243608
O O19 0.500000 0.231333 0.711338
O O20 0.579377 0.000000 0.691069
O O21 0.900236 0.500000 0.042553
O O22 0.000000 0.699242 0.040132
#
# Coordination Sequence:
#
# PCOD8178147 Si02
#       8
#     8   8   8   8   8   8   8   8
#     4   8  15  28  46  71 101 131 167 210 253 299
#     4   9  19  34  51  72 101 136 170 208 254 303
#     4  10  19  31  50  74 100 133 170 209 254 304
#     4  10  21  36  54  77 105 135 168 209 254 300
#     4  10  21  37  55  76 105 138 172 214 260 306
#     4   9  18  32  49  72 101 130 163 206 254 303
#     4   8  14  27  48  71  95 126 165 206 246 294
#     4  10  21  37  57  80 106 136 171 210 251 302
#
# _framework density 18.097688000000002
#
# number of rings (size 3 to 8) (size 9 to 14) (size 15 to 20)
#    0.000    2.750    0.000    3.000    0.000    6.000 
#    0.000    5.000    0.000    2.625    0.000    3.500 
#    0.000    0.000    0.000    0.000    0.000    0.000 
#
# Total GULP energy -396801.025433 kJ/mol
# GULP energy per Si atom -12400.032045 kJ/mol
# Density = 1.805650 g / cm^3
# Si number density = 18.097688 Si / 1000 Ang^3
#
#
#
# Elastic Constant Matrix: (Units=GPa)
#
#
# Indices 1 2 3 4 5 6 
#
# 1 92.4559 34.1359 75.5457 0.0000 0.0000 0.0000
# 2 34.1359 52.4263 39.1252 0.0000 0.0000 0.0000
# 3 75.5457 39.1252 111.4844 0.0000 0.0000 0.0000
# 4 0.0000 0.0000 0.0000 30.1947 0.0000 0.0000
# 5 0.0000 0.0000 0.0000 0.0000 41.4172 0.0000
# 6 0.0000 0.0000 0.0000 0.0000 0.0000 21.1446
#
#
#
# Elastic Compliance Matrix: (Units=1/GPa)
#
#
# Indices 1 2 3 4 5 6 
#
# 1 0.025150 -0.004955 -0.015304 0.000000 0.000000 0.000000
# 2 -0.004955 0.026819 -0.006055 0.000000 0.000000 0.000000
# 3 -0.015304 -0.006055 0.021465 0.000000 0.000000 0.000000
# 4 0.000000 0.000000 0.000000 0.033118 0.000000 0.000000
# 5 0.000000 0.000000 0.000000 0.000000 0.024145 0.000000
# 6 0.000000 0.000000 0.000000 0.000000 0.000000 0.047293
#
#
# Mechanical properties :
#
#
# Convention : Reuss Voigt Hill
#
# Bulk Modulus (GPa) = 48.05831 61.55335 54.80583
# Shear Modulus (GPa) = 21.04803 25.72195 23.38499
#
# Velocity S-wave (km/s) = 3.41401 3.77408 3.59855
# Velocity P-wave (km/s) = 6.49255 7.28541 6.90038
#
# Compressibility (1/GPa) = 0.02080806
#
# Stress axis : x y z
#
# Youngs Moduli (GPa) = 39.76161 37.28705 46.58757
#
# Poissons Ratio (x) = 0.18475 0.71296
# Poissons Ratio (y) = 0.19701 0.28207
# Poissons Ratio (z) = 0.60850 0.22576
#
# Static dielectric constant tensor:
#      x y z
#    x 3.448920 0.000000 0.000000 
#    y 0.000000 3.117760 0.000000 
#    z 0.000000 0.000000 3.466660 
# 
# 
# High freq. dielectric constant tensor:
#      x y z
#    x 1.703020 0.000000 0.000000 
#    y 0.000000 1.682170 0.000000 
#    z 0.000000 0.000000 1.705400 
# 
# From -- ./inp_files/18871.got.cif
#   From: 2010.03.12/outbox.cif.g09.slc.cpg/sg38_10_cif.got.tgz:18871.got - 2010.04.14 02:38:36.
