data_PCOD8178419
_publ_section_title
;
Structure prediction by ZEFSAII (Michael W. Deem and Ramdas Pophale) SiO2 
 PCOD8178419
Probable space group: A M M 2
;
_chemical_formula_sum "Si O2"
_cell_formula_units_Z 64
_cell_length_a 28.422405
_cell_length_b 8.601364
_cell_length_c 14.270687
_cell_angle_alpha 90.000000
_cell_angle_beta 90.000000
_cell_angle_gamma 90.000000
_cell_volume 3488.775560
_symmetry_space_group_name_H-M "A M M 2"
_symmetry_group_IT_number 38
_symmetry_cell_setting 'orthorhombic'
loop_
_space_group_symop_operation_xyz
x,y,z
-x,-y,z
-x,y,z
x,-y,z
x,1/2+y,1/2+z
-x,1/2-y,1/2+z
-x,1/2+y,1/2+z
x,1/2-y,1/2+z
loop_
_atom_site_type_symbol
_atom_site_label
_atom_site_fract_x
_atom_site_fract_y
_atom_site_fract_z
Si Si1 0.374063 0.183620 0.234550
Si Si2 0.697741 0.182120 0.387768
Si Si3 0.054077 0.315980 0.379393
Si Si4 0.799784 0.182323 0.883351
Si Si5 0.126280 0.315620 0.743588
Si Si6 0.374511 0.816150 0.025532
Si Si7 0.447012 0.184533 0.385093
Si Si8 0.874844 0.817457 0.033385
O O1 0.327584 0.236490 0.291642
O O2 0.373351 0.255278 0.130599
O O3 0.420195 0.241431 0.291196
O O4 0.375032 0.000000 0.225956
O O5 0.752081 0.222316 0.381679
O O6 0.673784 0.267753 0.475277
O O7 0.690608 0.000000 0.403172
O O8 0.060805 0.500000 0.365545
O O9 0.076696 0.228973 0.290658
O O10 0.080187 0.257607 0.473924
O O11 0.000000 0.267070 0.386912
O O12 0.830798 0.230229 0.794449
O O13 0.827152 0.227925 0.978664
O O14 0.789047 0.000000 0.878703
O O15 0.134174 0.500000 0.747288
O O16 0.125370 0.247756 0.637720
O O17 0.378108 0.000000 0.026913
O O18 0.420716 0.749427 0.975955
O O19 0.500000 0.250127 0.382425
O O20 0.446420 0.000000 0.391601
O O21 0.879140 0.000000 0.042652
#
# Coordination Sequence:
#
# PCOD8178419 Si02
#       8
#     8   8   8   8   8   8   8   8
#     4   8  17  33  52  72  98 134 169 199 239 300
#     4  10  20  36  54  74 101 132 166 203 248 298
#     4   9  18  34  53  73 101 136 169 203 248 298
#     4  10  20  36  54  74 101 132 166 203 248 298
#     4  10  19  33  53  76 100 129 168 209 246 288
#     4  10  19  33  53  76 100 129 168 209 246 288
#     4   9  18  34  53  73 101 136 169 203 248 298
#     4   8  17  33  52  72  98 134 169 199 239 300
#
# _framework density 18.344543999999999
#
# number of rings (size 3 to 8) (size 9 to 14) (size 15 to 20)
#    0.000    2.750    0.000    3.000    0.000    2.500 
#    0.000   20.000    0.000    0.000    0.000    0.000 
#    0.000    0.000    0.000    0.000    0.000    0.000 
#
# Total GULP energy -396741.317327 kJ/mol
# GULP energy per Si atom -12398.166166 kJ/mol
# Density = 1.830279 g / cm^3
# Si number density = 18.344544 Si / 1000 Ang^3
#
#
#
# Elastic Constant Matrix: (Units=GPa)
#
#
# Indices 1 2 3 4 5 6 
#
# 1 125.5458 6.3752 60.5393 0.0000 0.0000 0.0000
# 2 6.3752 20.9677 13.7634 0.0000 0.0000 0.0000
# 3 60.5393 13.7634 172.9369 0.0000 0.0000 0.0000
# 4 0.0000 0.0000 0.0000 24.8749 0.0000 0.0000
# 5 0.0000 0.0000 0.0000 0.0000 12.4649 0.0000
# 6 0.0000 0.0000 0.0000 0.0000 0.0000 30.6075
#
#
#
# Elastic Compliance Matrix: (Units=1/GPa)
#
#
# Indices 1 2 3 4 5 6 
#
# 1 0.009594 -0.000752 -0.003299 0.000000 0.000000 0.000000
# 2 -0.000752 0.050380 -0.003746 0.000000 0.000000 0.000000
# 3 -0.003299 -0.003746 0.007235 0.000000 0.000000 0.000000
# 4 0.000000 0.000000 0.000000 0.040201 0.000000 0.000000
# 5 0.000000 0.000000 0.000000 0.000000 0.080225 0.000000
# 6 0.000000 0.000000 0.000000 0.000000 0.000000 0.032672
#
#
# Mechanical properties :
#
#
# Convention : Reuss Voigt Hill
#
# Bulk Modulus (GPa) = 19.37391 53.42292 36.39841
# Shear Modulus (GPa) = 19.75450 29.50763 24.63106
#
# Velocity S-wave (km/s) = 3.28511 4.01499 3.66825
# Velocity P-wave (km/s) = 4.99733 7.11890 6.15029
#
# Compressibility (1/GPa) = 0.05161581
#
# Stress axis : x y z
#
# Youngs Moduli (GPa) = 104.23103 19.84910 138.20952
#
# Poissons Ratio (x) = 0.01492 0.45592
# Poissons Ratio (y) = 0.07835 0.51779
# Poissons Ratio (z) = 0.34383 0.07436
#
# Static dielectric constant tensor:
#      x y z
#    x 3.447450 0.000000 0.000000 
#    y 0.000000 3.169780 0.000000 
#    z 0.000000 0.000000 3.760620 
# 
# 
# High freq. dielectric constant tensor:
#      x y z
#    x 1.714550 0.000000 0.000000 
#    y 0.000000 1.693740 0.000000 
#    z 0.000000 0.000000 1.716640 
# 
# From -- ./inp_files/15918.got.cif
#   From: 2010.03.12/outbox.cif.g09.slc.cpg/sg38_8_cif.got.tgz:15918.got - 2010.04.14 02:38:36.
