data_PCOD8178218
_publ_section_title
;
Structure prediction by ZEFSAII (Michael W. Deem and Ramdas Pophale) SiO2 
 PCOD8178218
Probable space group: A M M 2
;
_chemical_formula_sum "Si O2"
_cell_formula_units_Z 64
_cell_length_a 8.613969
_cell_length_b 23.156240
_cell_length_c 19.101358
_cell_angle_alpha 90.000000
_cell_angle_beta 90.000000
_cell_angle_gamma 90.000000
_cell_volume 3810.093127
_symmetry_space_group_name_H-M "A M M 2"
_symmetry_group_IT_number 38
_symmetry_cell_setting 'orthorhombic'
loop_
_space_group_symop_operation_xyz
x,y,z
-x,-y,z
-x,y,z
x,-y,z
x,1/2+y,1/2+z
-x,1/2-y,1/2+z
-x,1/2+y,1/2+z
x,1/2-y,1/2+z
loop_
_atom_site_type_symbol
_atom_site_label
_atom_site_fract_x
_atom_site_fract_y
_atom_site_fract_z
Si Si1 0.682876 0.736267 0.793990
Si Si2 0.682746 0.331669 0.664265
Si Si3 0.318129 0.065562 0.072734
Si Si4 0.318557 0.566303 0.298354
Si Si5 0.818982 0.618115 0.436306
Si Si6 0.181616 0.339359 0.208442
Si Si7 0.683216 0.221210 0.581571
Si Si8 0.818815 0.748644 0.939618
O O1 0.500000 0.747411 0.788946
O O2 0.733852 0.682310 0.744111
O O3 0.767033 0.794173 0.768116
O O4 0.732857 0.721689 0.872492
O O5 0.500000 0.329557 0.659597
O O6 0.741054 0.393981 0.637034
O O7 0.747236 0.281391 0.613626
O O8 0.500000 0.075266 0.056707
O O9 0.283700 0.000000 0.095076
O O10 0.221076 0.080798 0.004228
O O11 0.500000 0.573209 0.283871
O O12 0.266019 0.500000 0.298946
O O13 0.280960 0.594206 0.372824
O O14 0.225108 0.597286 0.236061
O O15 0.772388 0.684491 0.449610
O O16 0.000000 0.611799 0.418288
O O17 0.268255 0.329499 0.134691
O O18 0.000000 0.334089 0.195711
O O19 0.500000 0.220821 0.571277
O O20 0.763471 0.212211 0.506615
O O21 0.000000 0.740496 0.928450
#
# Coordination Sequence:
#
# PCOD8178218 Si02
#       8
#     8   8   8   8   8   8   8   8
#     4  10  19  32  51  71  96 131 169 208 252 304
#     4   8  16  30  47  70  94 122 163 205 245 288
#     4  10  19  32  50  70  96 133 174 211 245 289
#     4  11  23  37  53  72  97 135 180 215 246 295
#     4  11  22  33  46  69 103 138 170 208 251 295
#     4  11  21  34  51  74 102 130 164 210 258 305
#     4  10  19  33  53  72  97 132 167 206 250 304
#     4  11  21  32  48  75 103 132 166 207 258 304
#
# _framework density 16.797488000000001
#
# number of rings (size 3 to 8) (size 9 to 14) (size 15 to 20)
#    0.000    1.750    2.500    4.125    0.000    3.750 
#    0.000    0.625    0.000    0.000    0.000    0.875 
#    0.000    5.000    0.000    0.000    0.000    0.000 
#
# Total GULP energy -396833.598358 kJ/mol
# GULP energy per Si atom -12401.049949 kJ/mol
# Density = 1.675926 g / cm^3
# Si number density = 16.797488 Si / 1000 Ang^3
#
#
#
# Elastic Constant Matrix: (Units=GPa)
#
#
# Indices 1 2 3 4 5 6 
#
# 1 47.0171 16.5028 11.4520 0.0000 0.0000 0.0000
# 2 16.5028 63.9012 37.5004 0.0000 0.0000 0.0000
# 3 11.4520 37.5004 103.4581 0.0000 0.0000 0.0000
# 4 0.0000 0.0000 0.0000 21.7535 0.0000 0.0000
# 5 0.0000 0.0000 0.0000 0.0000 24.2657 0.0000
# 6 0.0000 0.0000 0.0000 0.0000 0.0000 17.5300
#
#
#
# Elastic Compliance Matrix: (Units=1/GPa)
#
#
# Indices 1 2 3 4 5 6 
#
# 1 0.023410 -0.005748 -0.000508 0.000000 0.000000 0.000000
# 2 -0.005748 0.021289 -0.007080 0.000000 0.000000 0.000000
# 3 -0.000508 -0.007080 0.012288 0.000000 0.000000 0.000000
# 4 0.000000 0.000000 0.000000 0.045970 0.000000 0.000000
# 5 0.000000 0.000000 0.000000 0.000000 0.041211 0.000000
# 6 0.000000 0.000000 0.000000 0.000000 0.000000 0.057045
#
#
# Mechanical properties :
#
#
# Convention : Reuss Voigt Hill
#
# Bulk Modulus (GPa) = 32.98674 38.36519 35.67597
# Shear Modulus (GPa) = 21.00940 22.63792 21.82366
#
# Velocity S-wave (km/s) = 3.54043 3.67508 3.60838
# Velocity P-wave (km/s) = 6.03269 6.39513 6.21655
#
# Compressibility (1/GPa) = 0.03031521
#
# Stress axis : x y z
#
# Youngs Moduli (GPa) = 42.71679 46.97361 81.37793
#
# Poissons Ratio (x) = 0.26999 0.04134
# Poissons Ratio (y) = 0.24552 0.57617
# Poissons Ratio (z) = 0.02170 0.33258
#
# Static dielectric constant tensor:
#      x y z
#    x 3.094180 0.000000 0.000000 
#    y 0.000000 3.151090 0.000000 
#    z 0.000000 0.000000 3.258630 
# 
# 
# High freq. dielectric constant tensor:
#      x y z
#    x 1.651060 0.000000 0.000000 
#    y 0.000000 1.617120 0.000000 
#    z 0.000000 0.000000 1.645980 
# 
# From -- ./inp_files/17287.got.cif
#   From: 2010.03.12/outbox.cif.g09.slc.cpg/sg38_9_cif.got.tgz:17287.got - 2010.04.14 02:38:36.
