data_PCOD8178741
_publ_section_title
;
Structure prediction by ZEFSAII (Michael W. Deem and Ramdas Pophale) SiO2 
 PCOD8178741
Probable space group: A M M 2
;
_chemical_formula_sum "Si O2"
_cell_formula_units_Z 40
_cell_length_a 8.486473
_cell_length_b 25.967510
_cell_length_c 8.949087
_cell_angle_alpha 90.000000
_cell_angle_beta 90.000000
_cell_angle_gamma 90.000000
_cell_volume 1972.133324
_symmetry_space_group_name_H-M "A M M 2"
_symmetry_group_IT_number 38
_symmetry_cell_setting 'orthorhombic'
loop_
_space_group_symop_operation_xyz
x,y,z
-x,-y,z
-x,y,z
x,-y,z
x,1/2+y,1/2+z
-x,1/2-y,1/2+z
-x,1/2+y,1/2+z
x,1/2-y,1/2+z
loop_
_atom_site_type_symbol
_atom_site_label
_atom_site_fract_x
_atom_site_fract_y
_atom_site_fract_z
Si Si1 0.315364 0.400888 0.489510
Si Si2 0.314060 0.299878 0.326417
Si Si3 0.184585 0.400364 0.815740
Si Si4 0.184874 0.500000 0.328768
Si Si5 0.687073 0.303502 0.983215
Si Si6 0.186914 0.500000 0.994666
O O1 0.500000 0.405494 0.461630
O O2 0.244827 0.349985 0.409805
O O3 0.281855 0.397356 0.664128
O O4 0.234299 0.450160 0.419475
O O5 0.500000 0.300273 0.343105
O O6 0.250382 0.248258 0.404332
O O7 0.261919 0.300299 0.155106
O O8 0.218789 0.350363 0.912787
O O9 0.246810 0.449630 0.907636
O O10 0.000000 0.404842 0.779613
O O11 0.000000 0.500000 0.313713
O O12 0.259758 0.500000 0.162105
O O13 0.500000 0.311451 0.963117
O O14 0.000000 0.500000 0.003584
#
# Coordination Sequence:
#
# PCOD8178741 Si02
#       6
#     8   8   8   4   8   4
#     4  11  22  38  59  86 115 150 193 236 279 337
#     4   9  19  35  59  85 113 148 190 236 287 339
#     4  11  22  38  58  83 113 151 192 234 283 339
#     4  11  22  39  60  84 114 149 184 233 292 342
#     4  10  19  36  59  84 112 147 187 235 289 342
#     4   9  21  39  58  78 110 151 188 225 280 342
#
# _framework density 20.282605
#
# number of rings (size 3 to 8) (size 9 to 14) (size 15 to 20)
#    0.000    1.800    0.000    4.500    0.000    4.000 
#    0.000   10.500    0.000    0.000    0.000    0.000 
#    0.000    0.000    0.000    0.000    0.000    0.000 
#
# Total GULP energy -248078.770560 kJ/mol
# GULP energy per Si atom -12403.938528 kJ/mol
# Density = 2.023644 g / cm^3
# Si number density = 20.282605 Si / 1000 Ang^3
#
#
#
# Elastic Constant Matrix: (Units=GPa)
#
#
# Indices 1 2 3 4 5 6 
#
# 1 31.2024 13.8887 5.4764 0.0000 0.0000 0.0000
# 2 13.8887 196.9000 80.4151 0.0000 0.0000 0.0000
# 3 5.4764 80.4151 152.5593 0.0000 0.0000 0.0000
# 4 0.0000 0.0000 0.0000 39.8865 0.0000 0.0000
# 5 0.0000 0.0000 0.0000 0.0000 27.1714 0.0000
# 6 0.0000 0.0000 0.0000 0.0000 0.0000 -5.8548
#
#
#
# Elastic Compliance Matrix: (Units=1/GPa)
#
#
# Indices 1 2 3 4 5 6 
#
# 1 0.033088 -0.002356 0.000054 0.000000 0.000000 0.000000
# 2 -0.002356 0.006640 -0.003415 0.000000 0.000000 0.000000
# 3 0.000054 -0.003415 0.008353 0.000000 0.000000 0.000000
# 4 0.000000 0.000000 0.000000 0.025071 0.000000 0.000000
# 5 0.000000 0.000000 0.000000 0.000000 0.036803 0.000000
# 6 0.000000 0.000000 0.000000 0.000000 0.000000 -0.170799
#
#
# Mechanical properties :
#
#
# Convention : Reuss Voigt Hill
#
# Bulk Modulus (GPa) = 27.28773 64.46913 45.87843
# Shear Modulus (GPa) = -134.43011 30.96604 -51.73204
#
# Velocity S-wave (km/s) = -8.14999 3.91158 -5.05579
# Velocity P-wave (km/s) = 8.66489 7.22876 3.37826
#
# Compressibility (1/GPa) = 0.03664651
#
# Stress axis : x y z
#
# Youngs Moduli (GPa) = 30.22240 150.60868 119.71604
#
# Poissons Ratio (x) = 0.35484 -0.00648
# Poissons Ratio (y) = 0.07120 0.40886
# Poissons Ratio (z) = -0.00164 0.51437
#
# Static dielectric constant tensor:
#      x y z
#    x 3.330610 0.000000 0.000000 
#    y 0.000000 3.977030 0.000000 
#    z 0.000000 0.000000 3.911410 
# 
# 
# High freq. dielectric constant tensor:
#      x y z
#    x 1.762540 0.000000 0.000000 
#    y 0.000000 1.813840 0.000000 
#    z 0.000000 0.000000 1.811960 
# 
# From -- ./inp_files/3470.got.cif
#   From: 2010.03.12/outbox.cif.g09.slc.cpg/sg38_2_cif.got.tgz:3470.got - 2010.04.14 02:38:36.
