data_PCOD8178100
_publ_section_title
;
Structure prediction by ZEFSAII (Michael W. Deem and Ramdas Pophale) SiO2 
 PCOD8178100
Probable space group: A M M 2
;
_chemical_formula_sum "Si O2"
_cell_formula_units_Z 48
_cell_length_a 21.190619
_cell_length_b 9.215698
_cell_length_c 14.139660
_cell_angle_alpha 90.000000
_cell_angle_beta 90.000000
_cell_angle_gamma 90.000000
_cell_volume 2761.282523
_symmetry_space_group_name_H-M "A M M 2"
_symmetry_group_IT_number 38
_symmetry_cell_setting 'orthorhombic'
loop_
_space_group_symop_operation_xyz
x,y,z
-x,-y,z
-x,y,z
x,-y,z
x,1/2+y,1/2+z
-x,1/2-y,1/2+z
-x,1/2+y,1/2+z
x,1/2-y,1/2+z
loop_
_atom_site_type_symbol
_atom_site_label
_atom_site_fract_x
_atom_site_fract_y
_atom_site_fract_z
Si Si1 0.842712 0.169618 0.125000
Si Si2 0.261379 0.331163 0.474031
Si Si3 0.928345 0.330643 0.987820
Si Si4 0.175044 0.329701 0.837552
Si Si5 0.595187 0.671342 0.499116
Si Si6 0.500000 0.325863 0.130114
Si Si7 0.500000 0.330810 0.341527
O O1 0.902958 0.248387 0.080019
O O2 0.833335 0.227878 0.231123
O O3 0.857641 0.000000 0.124710
O O4 0.779764 0.207156 0.066300
O O5 0.258320 0.500000 0.449416
O O6 0.235822 0.246584 0.382867
O O7 0.332304 0.280985 0.494770
O O8 0.923011 0.500000 0.009228
O O9 0.000000 0.282755 0.968081
O O10 0.887837 0.287621 0.895630
O O11 0.188070 0.500000 0.839019
O O12 0.586852 0.500000 0.519573
O O13 0.562909 0.762165 0.582484
O O14 0.562330 0.715052 0.399983
O O15 0.500000 0.500000 0.122688
O O16 0.500000 0.262883 0.237112
O O17 0.500000 0.500000 0.325496
#
# Coordination Sequence:
#
# PCOD8178100 Si02
#       7
#     8   8   8   8   8   4   4
#     4   9  18  32  49  71  97 124 156 195 238 281
#     4   9  18  32  50  71  95 124 159 194 229 278
#     4   9  18  32  48  67  92 123 159 195 232 280
#     4   9  18  32  49  69  96 126 154 191 238 282
#     4   9  18  34  51  67  94 130 158 186 234 288
#     4  10  19  31  48  71  94 117 155 202 234 268
#     4   8  16  31  48  65  90 123 155 186 228 280
#
# _framework density 17.383226000000001
#
# number of rings (size 3 to 8) (size 9 to 14) (size 15 to 20)
#    0.000    3.000    0.000    0.750    0.000    3.667 
#    0.000    5.000    0.000    0.000    0.000    0.000 
#    0.000    0.000    0.000    0.000    0.000    0.000 
#
# Total GULP energy -297599.587894 kJ/mol
# GULP energy per Si atom -12399.982829 kJ/mol
# Density = 1.734366 g / cm^3
# Si number density = 17.383226 Si / 1000 Ang^3
#
#
#
# Elastic Constant Matrix: (Units=GPa)
#
#
# Indices 1 2 3 4 5 6 
#
# 1 139.0845 36.2108 59.7533 0.0000 0.0000 0.0000
# 2 36.2108 35.3785 38.5177 0.0000 0.0000 0.0000
# 3 59.7533 38.5177 151.9467 0.0000 0.0000 0.0000
# 4 0.0000 0.0000 0.0000 26.1492 0.0000 0.0000
# 5 0.0000 0.0000 0.0000 0.0000 10.4851 0.0000
# 6 0.0000 0.0000 0.0000 0.0000 0.0000 28.0407
#
#
#
# Elastic Compliance Matrix: (Units=1/GPa)
#
#
# Indices 1 2 3 4 5 6 
#
# 1 0.010177 -0.008369 -0.001881 0.000000 0.000000 0.000000
# 2 -0.008369 0.045922 -0.008350 0.000000 0.000000 0.000000
# 3 -0.001881 -0.008350 0.009437 0.000000 0.000000 0.000000
# 4 0.000000 0.000000 0.000000 0.038242 0.000000 0.000000
# 5 0.000000 0.000000 0.000000 0.000000 0.095373 0.000000
# 6 0.000000 0.000000 0.000000 0.000000 0.000000 0.035662
#
#
# Mechanical properties :
#
#
# Convention : Reuss Voigt Hill
#
# Bulk Modulus (GPa) = 35.28855 66.15260 50.72058
# Shear Modulus (GPa) = 17.76461 25.73019 21.74740
#
# Velocity S-wave (km/s) = 3.20025 3.85148 3.54087
# Velocity P-wave (km/s) = 5.83094 7.61029 6.77925
#
# Compressibility (1/GPa) = 0.02833780
#
# Stress axis : x y z
#
# Youngs Moduli (GPa) = 98.26505 21.77602 105.96039
#
# Poissons Ratio (x) = 0.18223 0.19927
# Poissons Ratio (y) = 0.82233 0.88478
# Poissons Ratio (z) = 0.18479 0.18183
#
# Static dielectric constant tensor:
#      x y z
#    x 3.325800 0.000000 0.000000 
#    y 0.000000 3.084230 0.000000 
#    z 0.000000 0.000000 3.383390 
# 
# 
# High freq. dielectric constant tensor:
#      x y z
#    x 1.673760 0.000000 0.000000 
#    y 0.000000 1.658190 0.000000 
#    z 0.000000 0.000000 1.673440 
# 
# From -- ./inp_files/15018.got.cif
#   From: 2010.03.12/outbox.cif.g09.slc.cpg/sg38_8_cif.got.tgz:15018.got - 2010.04.14 02:38:36.
