data_PCOD8178238
_publ_section_title
;
Structure prediction by ZEFSAII (Michael W. Deem and Ramdas Pophale) SiO2 
 PCOD8178238
Probable space group: A M M 2
;
_chemical_formula_sum "Si O2"
_cell_formula_units_Z 48
_cell_length_a 16.607741
_cell_length_b 8.980804
_cell_length_c 18.071456
_cell_angle_alpha 90.000000
_cell_angle_beta 90.000000
_cell_angle_gamma 90.000000
_cell_volume 2695.373327
_symmetry_space_group_name_H-M "A M M 2"
_symmetry_group_IT_number 38
_symmetry_cell_setting 'orthorhombic'
loop_
_space_group_symop_operation_xyz
x,y,z
-x,-y,z
-x,y,z
x,-y,z
x,1/2+y,1/2+z
-x,1/2-y,1/2+z
-x,1/2+y,1/2+z
x,1/2-y,1/2+z
loop_
_atom_site_type_symbol
_atom_site_label
_atom_site_fract_x
_atom_site_fract_y
_atom_site_fract_z
Si Si1 0.739853 0.325832 0.674560
Si Si2 0.330365 0.665402 0.397783
Si Si3 0.825576 0.335480 0.296557
Si Si4 0.590091 0.328957 0.772767
Si Si5 0.236592 0.676281 0.019113
Si Si6 0.091205 0.325751 0.439149
O O1 0.745728 0.500000 0.656147
O O2 0.812331 0.282528 0.730785
O O3 0.653868 0.280123 0.710137
O O4 0.749830 0.229202 0.602028
O O5 0.357563 0.500000 0.422165
O O6 0.252143 0.658279 0.347726
O O7 0.400859 0.739377 0.349408
O O8 0.310473 0.760747 0.470609
O O9 0.842458 0.500000 0.262800
O O10 0.897327 0.285132 0.351840
O O11 0.500000 0.301845 0.741748
O O12 0.605767 0.500000 0.792838
O O13 0.238218 0.500000 0.015039
O O14 0.149755 0.732062 0.991457
O O15 0.111039 0.500000 0.450730
O O16 0.000000 0.287434 0.461801
#
# Coordination Sequence:
#
# PCOD8178238 Si02
#       6
#     8   8   8   8   8   8
#     4  10  19  32  51  73 100 136 172 206 248 300
#     4   9  17  31  51  73  97 128 166 203 242 294
#     4   8  15  29  49  72  96 124 160 200 242 292
#     4   9  18  33  53  77 103 130 164 209 257 302
#     4  11  21  33  51  74 102 136 172 211 253 299
#     4   9  18  34  55  77 102 131 164 207 256 303
#
# _framework density 17.808294
#
# number of rings (size 3 to 8) (size 9 to 14) (size 15 to 20)
#    0.000    2.667    0.000    3.500    0.000    5.333 
#    0.000    1.667    0.000    6.000    0.000    0.000 
#    0.000    0.000    0.000    0.000    0.000    0.000 
#
# Total GULP energy -297518.580762 kJ/mol
# GULP energy per Si atom -12396.607532 kJ/mol
# Density = 1.776776 g / cm^3
# Si number density = 17.808294 Si / 1000 Ang^3
#
#
#
# Elastic Constant Matrix: (Units=GPa)
#
#
# Indices 1 2 3 4 5 6 
#
# 1 73.0989 41.6737 43.3357 0.0000 0.0000 0.0000
# 2 41.6737 114.6900 62.3078 0.0000 0.0000 0.0000
# 3 43.3357 62.3078 112.3229 0.0000 0.0000 0.0000
# 4 0.0000 0.0000 0.0000 31.3038 0.0000 0.0000
# 5 0.0000 0.0000 0.0000 0.0000 18.7765 0.0000
# 6 0.0000 0.0000 0.0000 0.0000 0.0000 21.6536
#
#
#
# Elastic Compliance Matrix: (Units=1/GPa)
#
#
# Indices 1 2 3 4 5 6 
#
# 1 0.019048 -0.004192 -0.005024 0.000000 0.000000 0.000000
# 2 -0.004192 0.013403 -0.005817 0.000000 0.000000 0.000000
# 3 -0.005024 -0.005817 0.014068 0.000000 0.000000 0.000000
# 4 0.000000 0.000000 0.000000 0.031945 0.000000 0.000000
# 5 0.000000 0.000000 0.000000 0.000000 0.053258 0.000000
# 6 0.000000 0.000000 0.000000 0.000000 0.000000 0.046182
#
#
# Mechanical properties :
#
#
# Convention : Reuss Voigt Hill
#
# Bulk Modulus (GPa) = 60.77991 66.08293 63.43142
# Shear Modulus (GPa) = 23.42418 24.53309 23.97863
#
# Velocity S-wave (km/s) = 3.63071 3.71566 3.67343
# Velocity P-wave (km/s) = 7.19585 7.45632 7.32724
#
# Compressibility (1/GPa) = 0.01645281
#
# Stress axis : x y z
#
# Youngs Moduli (GPa) = 52.49834 74.61078 71.08263
#
# Poissons Ratio (x) = 0.31278 0.35709
# Poissons Ratio (y) = 0.22008 0.41352
# Poissons Ratio (z) = 0.26373 0.43405
#
# Static dielectric constant tensor:
#      x y z
#    x 3.346350 0.000000 0.000000 
#    y 0.000000 3.425960 0.000000 
#    z 0.000000 0.000000 3.296440 
# 
# 
# High freq. dielectric constant tensor:
#      x y z
#    x 1.668060 0.000000 0.000000 
#    y 0.000000 1.693700 0.000000 
#    z 0.000000 0.000000 1.678320 
# 
# From -- ./inp_files/18164.got.cif
#   From: 2010.03.12/outbox.cif.g09.slc.cpg/sg38_10_cif.got.tgz:18164.got - 2010.04.14 02:38:36.
