data_PCOD8178280
_publ_section_title
;
Structure prediction by ZEFSAII (Michael W. Deem and Ramdas Pophale) SiO2 
 PCOD8178280
Probable space group: A M M 2
;
_chemical_formula_sum "Si O2"
_cell_formula_units_Z 56
_cell_length_a 9.123592
_cell_length_b 14.318037
_cell_length_c 22.765717
_cell_angle_alpha 90.000000
_cell_angle_beta 90.000000
_cell_angle_gamma 90.000000
_cell_volume 2973.929500
_symmetry_space_group_name_H-M "A M M 2"
_symmetry_group_IT_number 38
_symmetry_cell_setting 'orthorhombic'
loop_
_space_group_symop_operation_xyz
x,y,z
-x,-y,z
-x,y,z
x,-y,z
x,1/2+y,1/2+z
-x,1/2-y,1/2+z
-x,1/2+y,1/2+z
x,1/2-y,1/2+z
loop_
_atom_site_type_symbol
_atom_site_label
_atom_site_fract_x
_atom_site_fract_y
_atom_site_fract_z
Si Si1 0.830485 0.792154 0.566210
Si Si2 0.671526 0.394157 0.302562
Si Si3 0.825408 0.606088 0.951728
Si Si4 0.825913 0.717833 0.838066
Si Si5 0.832346 0.603706 0.617772
Si Si6 0.333151 0.107275 0.667582
Si Si7 0.331079 0.392463 0.737142
O O1 0.759683 0.839472 0.508445
O O2 0.803884 0.679919 0.566426
O O3 0.767355 0.831254 0.626378
O O4 0.000000 0.817563 0.566135
O O5 0.500000 0.376540 0.312337
O O6 0.712683 0.500000 0.320614
O O7 0.764328 0.323261 0.342712
O O8 0.713904 0.376454 0.234753
O O9 0.765154 0.500000 0.951445
O O10 0.768956 0.659746 0.894139
O O11 0.000000 0.606267 0.952695
O O12 0.764195 0.669791 0.780164
O O13 0.000000 0.720658 0.835098
O O14 0.801568 0.500000 0.591978
O O15 0.724693 0.624914 0.671494
O O16 0.000000 0.611167 0.640448
O O17 0.500000 0.138632 0.658460
O O18 0.312474 0.000000 0.649960
O O19 0.500000 0.361057 0.740530
O O20 0.311212 0.500000 0.755302
#
# Coordination Sequence:
#
# PCOD8178280 Si02
#       7
#     8   8   8   8   8   8   8
#     4  10  19  32  52  75  98 131 172 207 244 295
#     4   9  19  36  55  75 104 139 169 203 253 308
#     4   9  19  35  52  72 101 134 166 204 252 301
#     4  11  21  33  52  76 102 135 174 214 256 301
#     4   9  18  32  50  75 105 132 162 205 255 304
#     4   9  18  32  50  74 103 132 160 196 249 304
#     4  10  20  33  51  76 105 137 172 210 255 308
#
# _framework density 18.830304000000002
#
# number of rings (size 3 to 8) (size 9 to 14) (size 15 to 20)
#    0.000    2.429    0.000    3.429    0.000    6.000 
#    0.000    3.571    0.000    6.000    0.000    2.000 
#    0.000    0.000    0.000    0.000    0.000    0.000 
#
# Total GULP energy -347171.199265 kJ/mol
# GULP energy per Si atom -12398.971402 kJ/mol
# Density = 1.878745 g / cm^3
# Si number density = 18.830304 Si / 1000 Ang^3
#
#
#
# Elastic Constant Matrix: (Units=GPa)
#
#
# Indices 1 2 3 4 5 6 
#
# 1 52.5755 44.9039 27.3619 0.0000 0.0000 0.0000
# 2 44.9039 152.5273 77.3716 0.0000 0.0000 0.0000
# 3 27.3619 77.3716 69.7711 0.0000 0.0000 0.0000
# 4 0.0000 0.0000 0.0000 34.2271 0.0000 0.0000
# 5 0.0000 0.0000 0.0000 0.0000 9.5299 0.0000
# 6 0.0000 0.0000 0.0000 0.0000 0.0000 30.1336
#
#
#
# Elastic Compliance Matrix: (Units=1/GPa)
#
#
# Indices 1 2 3 4 5 6 
#
# 1 0.025862 -0.005644 -0.003884 0.000000 0.000000 0.000000
# 2 -0.005644 0.016218 -0.015771 0.000000 0.000000 0.000000
# 3 -0.003884 -0.015771 0.033345 0.000000 0.000000 0.000000
# 4 0.000000 0.000000 0.000000 0.029217 0.000000 0.000000
# 5 0.000000 0.000000 0.000000 0.000000 0.104933 0.000000
# 6 0.000000 0.000000 0.000000 0.000000 0.000000 0.033186
#
#
# Mechanical properties :
#
#
# Convention : Reuss Voigt Hill
#
# Bulk Modulus (GPa) = 40.27840 63.79431 52.03636
# Shear Modulus (GPa) = 16.57645 23.12721 19.85183
#
# Velocity S-wave (km/s) = 2.97022 3.50836 3.25044
# Velocity P-wave (km/s) = 5.76190 7.09673 6.46386
#
# Compressibility (1/GPa) = 0.02482720
#
# Stress axis : x y z
#
# Youngs Moduli (GPa) = 38.66749 61.66029 29.98944
#
# Poissons Ratio (x) = 0.34798 0.11647
# Poissons Ratio (y) = 0.21822 0.47297
# Poissons Ratio (z) = 0.15017 0.97247
#
# Static dielectric constant tensor:
#      x y z
#    x 3.259360 0.000000 0.000000 
#    y 0.000000 3.837580 0.000000 
#    z 0.000000 0.000000 3.323700 
# 
# 
# High freq. dielectric constant tensor:
#      x y z
#    x 1.713370 0.000000 0.000000 
#    y 0.000000 1.752730 0.000000 
#    z 0.000000 0.000000 1.706650 
# 
# From -- ./inp_files/19777.got.cif
#   From: 2010.03.12/outbox.cif.g09.slc.cpg/sg38_10_cif.got.tgz:19777.got - 2010.04.14 02:38:36.
