data_PCOD8178921
_publ_section_title
;
Structure prediction by ZEFSAII (Michael W. Deem and Ramdas Pophale) SiO2 
 PCOD8178921
Probable space group: A M M 2
;
_chemical_formula_sum "Si O2"
_cell_formula_units_Z 56
_cell_length_a 16.410350
_cell_length_b 9.131824
_cell_length_c 20.282360
_cell_angle_alpha 90.000000
_cell_angle_beta 90.000000
_cell_angle_gamma 90.000000
_cell_volume 3039.442021
_symmetry_space_group_name_H-M "A M M 2"
_symmetry_group_IT_number 38
_symmetry_cell_setting 'orthorhombic'
loop_
_space_group_symop_operation_xyz
x,y,z
-x,-y,z
-x,y,z
x,-y,z
x,1/2+y,1/2+z
-x,1/2-y,1/2+z
-x,1/2+y,1/2+z
x,1/2-y,1/2+z
loop_
_atom_site_type_symbol
_atom_site_label
_atom_site_fract_x
_atom_site_fract_y
_atom_site_fract_z
Si Si1 0.661326 0.673179 0.437200
Si Si2 0.256199 0.831975 0.555572
Si Si3 0.908686 0.168639 0.619121
Si Si4 0.344322 0.167789 0.693284
Si Si5 0.500000 0.327146 0.739761
Si Si6 0.500000 0.825230 0.392100
Si Si7 0.907216 0.332429 0.754360
Si Si8 0.230638 0.669673 0.313952
O O1 0.643832 0.500000 0.438018
O O2 0.706274 0.720507 0.503608
O O3 0.577477 0.760226 0.429790
O O4 0.719255 0.719926 0.377367
O O5 0.159834 0.794695 0.564417
O O6 0.302842 0.804500 0.623537
O O7 0.267228 0.000000 0.532142
O O8 0.890869 0.261537 0.683695
O O9 0.000000 0.200901 0.591089
O O10 0.899734 0.000000 0.640700
O O11 0.422472 0.269405 0.700299
O O12 0.280836 0.212466 0.749286
O O13 0.371950 0.000000 0.702166
O O14 0.500000 0.500000 0.737086
O O15 0.500000 0.273057 0.815831
O O16 0.500000 0.000000 0.398459
O O17 0.881921 0.500000 0.748087
O O18 0.853710 0.257964 0.811459
O O19 0.000000 0.312244 0.776665
O O20 0.209078 0.500000 0.316943
#
# Coordination Sequence:
#
# PCOD8178921 Si02
#       8
#     8   8   8   8   4   4   8   8
#     4  11  24  40  61  85 114 153 192 236 286 338
#     4  10  21  38  58  85 118 153 191 233 284 340
#     4   9  17  33  58  84 112 151 195 234 279 341
#     4  10  20  37  60  83 111 148 188 232 279 333
#     4  11  23  36  57  90 117 143 185 240 291 330
#     4  11  23  40  61  86 115 149 189 232 285 346
#     4  10  20  32  52  86 121 150 186 239 293 332
#     4  10  20  37  59  83 110 148 194 232 278 340
#
# _framework density 18.424433000000001
#
# number of rings (size 3 to 8) (size 9 to 14) (size 15 to 20)
#    0.000    1.857    2.857    1.286    0.000    4.857 
#    0.000    1.429    0.000    2.571    0.000    0.000 
#    0.000    0.000    0.000    0.000    0.000    0.000 
#
# Total GULP energy -347272.060372 kJ/mol
# GULP energy per Si atom -12402.573585 kJ/mol
# Density = 1.838250 g / cm^3
# Si number density = 18.424433 Si / 1000 Ang^3
#
#
#
# Elastic Constant Matrix: (Units=GPa)
#
#
# Indices 1 2 3 4 5 6 
#
# 1 133.2822 55.5527 52.1404 0.0000 0.0000 0.0000
# 2 55.5527 61.3790 35.7366 0.0000 0.0000 0.0000
# 3 52.1404 35.7366 93.1125 0.0000 0.0000 0.0000
# 4 0.0000 0.0000 0.0000 29.5915 0.0000 0.0000
# 5 0.0000 0.0000 0.0000 0.0000 24.8319 0.0000
# 6 0.0000 0.0000 0.0000 0.0000 0.0000 27.2607
#
#
#
# Elastic Compliance Matrix: (Units=1/GPa)
#
#
# Indices 1 2 3 4 5 6 
#
# 1 0.012889 -0.009611 -0.003529 0.000000 0.000000 0.000000
# 2 -0.009611 0.028147 -0.005421 0.000000 0.000000 0.000000
# 3 -0.003529 -0.005421 0.014796 0.000000 0.000000 0.000000
# 4 0.000000 0.000000 0.000000 0.033793 0.000000 0.000000
# 5 0.000000 0.000000 0.000000 0.000000 0.040271 0.000000
# 6 0.000000 0.000000 0.000000 0.000000 0.000000 0.036683
#
#
# Mechanical properties :
#
#
# Convention : Reuss Voigt Hill
#
# Bulk Modulus (GPa) = 53.44473 63.84815 58.64644
# Shear Modulus (GPa) = 23.81638 25.95975 24.88806
#
# Velocity S-wave (km/s) = 3.59925 3.75772 3.67934
# Velocity P-wave (km/s) = 6.80759 7.31823 7.06752
#
# Compressibility (1/GPa) = 0.01871092
#
# Stress axis : x y z
#
# Youngs Moduli (GPa) = 77.58291 35.52726 67.58431
#
# Poissons Ratio (x) = 0.34146 0.23850
# Poissons Ratio (y) = 0.74567 0.36637
# Poissons Ratio (z) = 0.27378 0.19259
#
# Static dielectric constant tensor:
#      x y z
#    x 3.598840 0.000000 0.000000 
#    y 0.000000 3.392080 0.000000 
#    z 0.000000 0.000000 3.430580 
# 
# 
# High freq. dielectric constant tensor:
#      x y z
#    x 1.729900 0.000000 0.000000 
#    y 0.000000 1.716680 0.000000 
#    z 0.000000 0.000000 1.694900 
# 
# From -- ./inp_files/21112.got.cif
#   From: 2010.03.12/outbox.cif.g09.slc.cpg/sg38_11_cif.got.tgz:21112.got - 2010.04.14 02:38:36.
