data_PCOD8178931
_publ_section_title
;
Structure prediction by ZEFSAII (Michael W. Deem and Ramdas Pophale) SiO2 
 PCOD8178931
Probable space group: A M M 2
;
_chemical_formula_sum "Si O2"
_cell_formula_units_Z 64
_cell_length_a 18.388704
_cell_length_b 21.877525
_cell_length_c 8.743214
_cell_angle_alpha 90.000000
_cell_angle_beta 90.000000
_cell_angle_gamma 90.000000
_cell_volume 3517.389147
_symmetry_space_group_name_H-M "A M M 2"
_symmetry_group_IT_number 38
_symmetry_cell_setting 'orthorhombic'
loop_
_space_group_symop_operation_xyz
x,y,z
-x,-y,z
-x,y,z
x,-y,z
x,1/2+y,1/2+z
-x,1/2-y,1/2+z
-x,1/2+y,1/2+z
x,1/2-y,1/2+z
loop_
_atom_site_type_symbol
_atom_site_label
_atom_site_fract_x
_atom_site_fract_y
_atom_site_fract_z
Si Si1 0.317862 0.568248 0.297990
Si Si2 0.756375 0.154266 0.204922
Si Si3 0.697924 0.844532 0.526583
Si Si4 0.914979 0.680474 0.385951
Si Si5 0.827212 0.431321 0.490372
Si Si6 0.364451 0.676733 0.474280
Si Si7 0.164553 0.735400 0.123943
Si Si8 0.582253 0.232467 0.678540
O O1 0.350335 0.500000 0.291231
O O2 0.310249 0.594229 0.126958
O O3 0.238436 0.568779 0.370490
O O4 0.374621 0.609183 0.400483
O O5 0.705182 0.137321 0.348020
O O6 0.808818 0.211277 0.242041
O O7 0.799857 0.093311 0.155819
O O8 0.714659 0.178662 0.051848
O O9 0.768489 0.807217 0.576861
O O10 0.623821 0.805822 0.547299
O O11 0.891393 0.611782 0.429379
O O12 0.894349 0.693166 0.209801
O O13 0.873757 0.731716 0.482951
O O14 0.000000 0.686514 0.412789
O O15 0.857460 0.500000 0.512385
O O16 0.419580 0.697653 0.610789
O O17 0.371291 0.725517 0.334300
O O18 0.500000 0.209170 0.705099
#
# Coordination Sequence:
#
# PCOD8178931 Si02
#       8
#     8   8   8   8   8   8   8   8
#     4   9  19  35  55  82 111 144 193 241 274 326
#     4  10  20  32  55  81 108 145 186 237 278 330
#     4  11  20  33  59  82 110 152 185 237 286 334
#     4  11  22  35  54  80 113 147 183 231 282 340
#     4   9  19  35  54  79 109 145 189 231 278 332
#     4  10  20  33  53  79 114 152 181 227 284 332
#     4  11  20  34  53  81 110 143 184 227 282 339
#     4  11  22  33  51  83 120 145 180 230 284 344
#
# _framework density 18.195314
#
# number of rings (size 3 to 8) (size 9 to 14) (size 15 to 20)
#    0.000    1.750    3.750    1.500    3.500    0.750 
#    0.000    0.625    0.000    9.375    0.000    0.000 
#    0.000   22.000    0.000    0.000    0.000    0.000 
#
# Total GULP energy -396451.818543 kJ/mol
# GULP energy per Si atom -12389.119329 kJ/mol
# Density = 1.815390 g / cm^3
# Si number density = 18.195314 Si / 1000 Ang^3
#
#
#
# Elastic Constant Matrix: (Units=GPa)
#
#
# Indices 1 2 3 4 5 6 
#
# 1 72.0151 40.2949 21.4344 0.0000 0.0000 0.0000
# 2 40.2949 125.8575 58.6696 0.0000 0.0000 0.0000
# 3 21.4344 58.6696 91.7533 0.0000 0.0000 0.0000
# 4 0.0000 0.0000 0.0000 24.7423 0.0000 0.0000
# 5 0.0000 0.0000 0.0000 0.0000 11.7587 0.0000
# 6 0.0000 0.0000 0.0000 0.0000 0.0000 16.5561
#
#
#
# Elastic Compliance Matrix: (Units=1/GPa)
#
#
# Indices 1 2 3 4 5 6 
#
# 1 0.016948 -0.005101 -0.000697 0.000000 0.000000 0.000000
# 2 -0.005101 0.012855 -0.007028 0.000000 0.000000 0.000000
# 3 -0.000697 -0.007028 0.015556 0.000000 0.000000 0.000000
# 4 0.000000 0.000000 0.000000 0.040417 0.000000 0.000000
# 5 0.000000 0.000000 0.000000 0.000000 0.085043 0.000000
# 6 0.000000 0.000000 0.000000 0.000000 0.000000 0.060401
#
#
# Mechanical properties :
#
#
# Convention : Reuss Voigt Hill
#
# Bulk Modulus (GPa) = 50.74790 58.93595 54.84193
# Shear Modulus (GPa) = 18.97966 21.89325 20.43645
#
# Velocity S-wave (km/s) = 3.23322 3.47253 3.35501
# Velocity P-wave (km/s) = 6.47221 6.96699 6.72415
#
# Compressibility (1/GPa) = 0.01970525
#
# Stress axis : x y z
#
# Youngs Moduli (GPa) = 59.00510 77.79187 64.28518
#
# Poissons Ratio (x) = 0.39681 0.04484
# Poissons Ratio (y) = 0.30098 0.45180
# Poissons Ratio (z) = 0.04116 0.54673
#
# Static dielectric constant tensor:
#      x y z
#    x 3.112810 0.000000 0.000000 
#    y 0.000000 3.515400 0.000000 
#    z 0.000000 0.000000 3.458280 
# 
# 
# High freq. dielectric constant tensor:
#      x y z
#    x 1.677640 0.000000 0.000000 
#    y 0.000000 1.690980 0.000000 
#    z 0.000000 0.000000 1.712190 
# 
# From -- ./inp_files/6572.got.cif
#   From: 2010.03.12/outbox.cif.g09.slc.cpg/sg38_4_cif.got.tgz:6572.got - 2010.04.14 02:38:36.
