data_PCOD8178031
_publ_section_title
;
Structure prediction by ZEFSAII (Michael W. Deem and Ramdas Pophale) SiO2 
 PCOD8178031
Probable space group: A M M 2
;
_chemical_formula_sum "Si O2"
_cell_formula_units_Z 64
_cell_length_a 16.108114
_cell_length_b 20.941129
_cell_length_c 11.021925
_cell_angle_alpha 90.000000
_cell_angle_beta 90.000000
_cell_angle_gamma 90.000000
_cell_volume 3717.938812
_symmetry_space_group_name_H-M "A M M 2"
_symmetry_group_IT_number 38
_symmetry_cell_setting 'orthorhombic'
loop_
_space_group_symop_operation_xyz
x,y,z
-x,-y,z
-x,y,z
x,-y,z
x,1/2+y,1/2+z
-x,1/2-y,1/2+z
-x,1/2+y,1/2+z
x,1/2-y,1/2+z
loop_
_atom_site_type_symbol
_atom_site_label
_atom_site_fract_x
_atom_site_fract_y
_atom_site_fract_z
Si Si1 0.594468 0.722826 0.217500
Si Si2 0.695794 0.340144 0.793169
Si Si3 0.797893 0.816030 0.065532
Si Si4 0.781092 0.570833 0.244554
Si Si5 0.253284 0.181546 0.559208
Si Si6 0.593006 0.070948 0.147695
Si Si7 0.902623 0.427328 0.455850
Si Si8 0.344880 0.368582 0.410432
O O1 0.500000 0.729714 0.167617
O O2 0.623451 0.787745 0.281186
O O3 0.657798 0.706487 0.108852
O O4 0.594939 0.668656 0.319943
O O5 0.772277 0.326881 0.704070
O O6 0.654022 0.406272 0.753446
O O7 0.732104 0.346888 0.926693
O O8 0.815614 0.739318 0.055717
O O9 0.869298 0.868531 0.039145
O O10 0.725059 0.822675 0.966563
O O11 0.777934 0.500000 0.185767
O O12 0.781798 0.624590 0.141422
O O13 0.865027 0.579592 0.321723
O O14 0.702076 0.576280 0.334865
O O15 0.500000 0.076642 0.197015
O O16 0.620103 0.000000 0.117496
O O17 0.599684 0.107327 0.020545
O O18 0.881817 0.500000 0.505820
O O19 0.000000 0.417734 0.445904
#
# Coordination Sequence:
#
# PCOD8178031 Si02
#       8
#     8   8   8   8   8   8   8   8
#     4  10  19  30  48  73  97 129 178 230 277 308
#     4  10  20  33  47  69  99 140 173 212 256 308
#     4   9  18  32  53  75 102 135 171 209 253 307
#     4   9  18  32  54  79 103 134 174 214 255 310
#     4  10  20  34  50  72 105 143 178 217 257 310
#     4  10  20  31  44  66  97 132 171 218 270 317
#     4   9  18  35  61  89 111 130 161 210 260 305
#     4   9  16  31  50  70  95 125 172 223 269 304
#
# _framework density 17.213839
#
# number of rings (size 3 to 8) (size 9 to 14) (size 15 to 20)
#    0.000    2.500    1.250    1.125    1.750    4.500 
#    0.000    0.625    0.000    4.125    0.000    1.750 
#    0.000    0.000    0.000    0.000    0.000    0.000 
#
# Total GULP energy -396522.128141 kJ/mol
# GULP energy per Si atom -12391.316504 kJ/mol
# Density = 1.717466 g / cm^3
# Si number density = 17.213839 Si / 1000 Ang^3
#
#
#
# Elastic Constant Matrix: (Units=GPa)
#
#
# Indices 1 2 3 4 5 6 
#
# 1 71.7263 38.9921 25.7563 0.0000 0.0000 0.0000
# 2 38.9921 111.5529 36.7081 0.0000 0.0000 0.0000
# 3 25.7563 36.7081 89.7192 0.0000 0.0000 0.0000
# 4 0.0000 0.0000 0.0000 18.9848 0.0000 0.0000
# 5 0.0000 0.0000 0.0000 0.0000 11.6155 0.0000
# 6 0.0000 0.0000 0.0000 0.0000 0.0000 24.2045
#
#
#
# Elastic Compliance Matrix: (Units=1/GPa)
#
#
# Indices 1 2 3 4 5 6 
#
# 1 0.017875 -0.005269 -0.002976 0.000000 0.000000 0.000000
# 2 -0.005269 0.011912 -0.003361 0.000000 0.000000 0.000000
# 3 -0.002976 -0.003361 0.013375 0.000000 0.000000 0.000000
# 4 0.000000 0.000000 0.000000 0.052674 0.000000 0.000000
# 5 0.000000 0.000000 0.000000 0.000000 0.086092 0.000000
# 6 0.000000 0.000000 0.000000 0.000000 0.000000 0.041315
#
#
# Mechanical properties :
#
#
# Convention : Reuss Voigt Hill
#
# Bulk Modulus (GPa) = 50.12342 52.87904 51.50123
# Shear Modulus (GPa) = 19.75477 22.39711 21.07594
#
# Velocity S-wave (km/s) = 3.39131 3.61100 3.50288
# Velocity P-wave (km/s) = 6.67203 6.94056 6.80762
#
# Compressibility (1/GPa) = 0.01995075
#
# Stress axis : x y z
#
# Youngs Moduli (GPa) = 55.94525 83.94879 74.76430
#
# Poissons Ratio (x) = 0.44230 0.22248
# Poissons Ratio (y) = 0.29476 0.25130
# Poissons Ratio (z) = 0.16648 0.28217
#
# Static dielectric constant tensor:
#      x y z
#    x 2.948230 0.000000 0.000000 
#    y 0.000000 3.441850 0.000000 
#    z 0.000000 0.000000 3.137680 
# 
# 
# High freq. dielectric constant tensor:
#      x y z
#    x 1.631900 0.000000 0.000000 
#    y 0.000000 1.676990 0.000000 
#    z 0.000000 0.000000 1.653970 
# 
# From -- ./inp_files/10647.got.cif
#   From: 2010.03.12/outbox.cif.g09.slc.cpg/sg38_6_cif.got.tgz:10647.got - 2010.04.14 02:38:36.
