data_PCOD8178688
_publ_section_title
;
Structure prediction by ZEFSAII (Michael W. Deem and Ramdas Pophale) SiO2 
 PCOD8178688
Probable space group: A M M 2
;
_chemical_formula_sum "Si O2"
_cell_formula_units_Z 48
_cell_length_a 8.599232
_cell_length_b 18.203424
_cell_length_c 15.388890
_cell_angle_alpha 90.000000
_cell_angle_beta 90.000000
_cell_angle_gamma 90.000000
_cell_volume 2408.907070
_symmetry_space_group_name_H-M "A M M 2"
_symmetry_group_IT_number 38
_symmetry_cell_setting 'orthorhombic'
loop_
_space_group_symop_operation_xyz
x,y,z
-x,-y,z
-x,y,z
x,-y,z
x,1/2+y,1/2+z
-x,1/2-y,1/2+z
-x,1/2+y,1/2+z
x,1/2-y,1/2+z
loop_
_atom_site_type_symbol
_atom_site_label
_atom_site_fract_x
_atom_site_fract_y
_atom_site_fract_z
Si Si1 0.176216 0.393407 0.647390
Si Si2 0.182649 0.275936 0.904251
Si Si3 0.319426 0.500000 0.520345
Si Si4 0.818787 0.500000 0.337007
Si Si5 0.823567 0.771512 0.596251
Si Si6 0.321502 0.081707 0.325691
Si Si7 0.816418 0.842423 0.765840
O O1 0.237933 0.427505 0.558072
O O2 0.185465 0.306933 0.640929
O O3 0.285532 0.422074 0.723774
O O4 0.000000 0.419210 0.664811
O O5 0.212532 0.357891 0.869938
O O6 0.253354 0.212642 0.840385
O O7 0.000000 0.261641 0.910750
O O8 0.259172 0.271283 0.001340
O O9 0.500000 0.500000 0.542444
O O10 0.293372 0.500000 0.418473
O O11 0.776488 0.427217 0.282925
O O12 0.000000 0.500000 0.364879
O O13 0.746140 0.824484 0.669598
O O14 0.000000 0.796775 0.580007
O O15 0.500000 0.104458 0.339626
O O16 0.290242 0.000000 0.364950
O O17 0.000000 0.828163 0.762645
#
# Coordination Sequence:
#
# PCOD8178688 Si02
#       7
#     8   8   4   4   8   8   8
#     4  11  20  35  61  85 111 147 191 234 286 345
#     4  10  19  35  59  83 112 150 194 237 284 346
#     4  12  24  36  52  83 124 149 182 239 292 346
#     4  10  20  36  60  83 112 155 196 233 286 340
#     4   9  18  33  57  88 114 141 187 246 288 325
#     4  11  23  38  55  80 118 152 184 235 293 341
#     4   9  17  33  56  85 117 147 189 246 289 329
#
# _framework density 19.926048999999999
#
# number of rings (size 3 to 8) (size 9 to 14) (size 15 to 20)
#    0.000    1.833    2.500    2.750    0.000    3.667 
#    1.500    4.167    0.000    0.000    0.000    0.000 
#    0.000    0.000    0.000    0.000    0.000    0.000 
#
# Total GULP energy -297493.083334 kJ/mol
# GULP energy per Si atom -12395.545139 kJ/mol
# Density = 1.988070 g / cm^3
# Si number density = 19.926049 Si / 1000 Ang^3
#
#
#
# Elastic Constant Matrix: (Units=GPa)
#
#
# Indices 1 2 3 4 5 6 
#
# 1 29.2280 14.0361 6.9013 0.0000 0.0000 0.0000
# 2 14.0361 129.3435 61.3933 0.0000 0.0000 0.0000
# 3 6.9013 61.3933 141.6112 0.0000 0.0000 0.0000
# 4 0.0000 0.0000 0.0000 21.3036 0.0000 0.0000
# 5 0.0000 0.0000 0.0000 0.0000 13.7641 0.0000
# 6 0.0000 0.0000 0.0000 0.0000 0.0000 7.4285
#
#
#
# Elastic Compliance Matrix: (Units=1/GPa)
#
#
# Indices 1 2 3 4 5 6 
#
# 1 0.036095 -0.003881 -0.000077 0.000000 0.000000 0.000000
# 2 -0.003881 0.010152 -0.004212 0.000000 0.000000 0.000000
# 3 -0.000077 -0.004212 0.008891 0.000000 0.000000 0.000000
# 4 0.000000 0.000000 0.000000 0.046940 0.000000 0.000000
# 5 0.000000 0.000000 0.000000 0.000000 0.072653 0.000000
# 6 0.000000 0.000000 0.000000 0.000000 0.000000 0.134617
#
#
# Mechanical properties :
#
#
# Convention : Reuss Voigt Hill
#
# Bulk Modulus (GPa) = 25.77324 51.64935 38.71130
# Shear Modulus (GPa) = 14.76582 23.02272 18.89427
#
# Velocity S-wave (km/s) = 2.72514 3.40282 3.08266
# Velocity P-wave (km/s) = 4.78167 6.43550 5.66922
#
# Compressibility (1/GPa) = 0.03879993
#
# Stress axis : x y z
#
# Youngs Moduli (GPa) = 27.70432 98.50564 112.46855
#
# Poissons Ratio (x) = 0.38226 0.00863
# Poissons Ratio (y) = 0.10751 0.47372
# Poissons Ratio (z) = 0.00212 0.41491
#
# Static dielectric constant tensor:
#      x y z
#    x 3.185770 0.000000 0.000000 
#    y 0.000000 3.861910 0.000000 
#    z 0.000000 0.000000 3.834890 
# 
# 
# High freq. dielectric constant tensor:
#      x y z
#    x 1.731400 0.000000 0.000000 
#    y 0.000000 1.785580 0.000000 
#    z 0.000000 0.000000 1.780430 
# 
# From -- ./inp_files/12097.got.cif
#   From: 2010.03.12/outbox.cif.g09.slc.cpg/sg38_7_cif.got.tgz:12097.got - 2010.04.14 02:38:36.
