data_PCOD8178165
_publ_section_title
;
Structure prediction by ZEFSAII (Michael W. Deem and Ramdas Pophale) SiO2 
 PCOD8178165
Probable space group: A M M 2
;
_chemical_formula_sum "Si O2"
_cell_formula_units_Z 48
_cell_length_a 28.717886
_cell_length_b 16.211641
_cell_length_c 5.152024
_cell_angle_alpha 90.000000
_cell_angle_beta 90.000000
_cell_angle_gamma 90.000000
_cell_volume 2398.597201
_symmetry_space_group_name_H-M "A M M 2"
_symmetry_group_IT_number 38
_symmetry_cell_setting 'orthorhombic'
loop_
_space_group_symop_operation_xyz
x,y,z
-x,-y,z
-x,y,z
x,-y,z
x,1/2+y,1/2+z
-x,1/2-y,1/2+z
-x,1/2+y,1/2+z
x,1/2-y,1/2+z
loop_
_atom_site_type_symbol
_atom_site_label
_atom_site_fract_x
_atom_site_fract_y
_atom_site_fract_z
Si Si1 0.500000 0.801341 0.788440
Si Si2 0.745364 0.401534 0.843200
Si Si3 0.691034 0.402260 0.343135
Si Si4 0.000000 0.804155 0.880333
Si Si5 0.849990 0.902070 0.359347
Si Si6 0.094248 0.901956 0.861216
Si Si7 0.400695 0.195607 0.888944
O O1 0.500000 0.777616 0.484427
O O2 0.548469 0.848917 0.852319
O O3 0.746548 0.500000 0.844816
O O4 0.719190 0.367665 0.589671
O O5 0.717379 0.367568 0.090785
O O6 0.797776 0.365940 0.847865
O O7 0.690373 0.500000 0.344122
O O8 0.638111 0.372879 0.344779
O O9 0.000000 0.731225 0.670666
O O10 0.044182 0.861706 0.838068
O O11 0.879792 0.869118 0.117313
O O12 0.847544 0.000000 0.349674
O O13 0.874683 0.871717 0.620559
O O14 0.087821 0.000000 0.863549
O O15 0.395775 0.268533 0.678251
#
# Coordination Sequence:
#
# PCOD8178165 Si02
#       7
#     4   8   8   4   8   8   8
#     4   8  16  30  49  70  91 126 170 210 252 300
#     4   9  17  30  50  77 106 134 166 205 251 301
#     4  10  19  31  50  76 105 135 167 205 251 303
#     4  12  25  40  57  78 110 144 168 198 257 320
#     4   9  17  31  55  82 103 129 170 216 251 285
#     4  10  20  36  59  83 103 129 174 220 248 283
#     4  10  19  33  52  72  98 131 171 213 254 302
#
# _framework density 20.011699
#
# number of rings (size 3 to 8) (size 9 to 14) (size 15 to 20)
#    0.000    2.333    0.000    3.250    0.000    4.000 
#    0.000    3.750    0.000   20.000    0.000   10.500 
#    0.000    0.000    0.000    0.000    0.000    0.000 
#
# Total GULP energy -297560.516206 kJ/mol
# GULP energy per Si atom -12398.354842 kJ/mol
# Density = 1.996615 g / cm^3
# Si number density = 20.011699 Si / 1000 Ang^3
#
#
#
# Elastic Constant Matrix: (Units=GPa)
#
#
# Indices 1 2 3 4 5 6 
#
# 1 191.1809 29.3710 49.7833 0.0000 0.0000 0.0000
# 2 29.3710 16.4178 15.8273 0.0000 0.0000 0.0000
# 3 49.7833 15.8273 137.1103 0.0000 0.0000 0.0000
# 4 0.0000 0.0000 0.0000 8.9988 0.0000 0.0000
# 5 0.0000 0.0000 0.0000 0.0000 35.6384 0.0000
# 6 0.0000 0.0000 0.0000 0.0000 0.0000 10.8360
#
#
#
# Elastic Compliance Matrix: (Units=1/GPa)
#
#
# Indices 1 2 3 4 5 6 
#
# 1 0.007415 -0.012006 -0.001306 0.000000 0.000000 0.000000
# 2 -0.012006 0.087976 -0.005796 0.000000 0.000000 0.000000
# 3 -0.001306 -0.005796 0.008437 0.000000 0.000000 0.000000
# 4 0.000000 0.000000 0.000000 0.111126 0.000000 0.000000
# 5 0.000000 0.000000 0.000000 0.000000 0.028060 0.000000
# 6 0.000000 0.000000 0.000000 0.000000 0.000000 0.092285
#
#
# Mechanical properties :
#
#
# Convention : Reuss Voigt Hill
#
# Bulk Modulus (GPa) = 15.24150 59.40804 37.32477
# Shear Modulus (GPa) = 12.64584 27.74314 20.19449
#
# Velocity S-wave (km/s) = 2.51653 3.72741 3.18013
# Velocity P-wave (km/s) = 4.00958 6.94808 5.67242
#
# Compressibility (1/GPa) = 0.06561033
#
# Stress axis : x y z
#
# Youngs Moduli (GPa) = 134.85454 11.36672 118.52779
#
# Poissons Ratio (x) = 0.13647 0.15486
# Poissons Ratio (y) = 1.61912 0.68700
# Poissons Ratio (z) = 0.17619 0.06588
#
# Static dielectric constant tensor:
#      x y z
#    x 3.995550 0.000000 0.000000 
#    y 0.000000 2.976600 0.000000 
#    z 0.000000 0.000000 4.004090 
# 
# 
# High freq. dielectric constant tensor:
#      x y z
#    x 1.806320 0.000000 0.000000 
#    y 0.000000 1.718880 0.000000 
#    z 0.000000 0.000000 1.803860 
# 
# From -- ./inp_files/2209.got.cif
#   From: 2010.03.12/outbox.cif.g09.slc.cpg/sg38_2_cif.got.tgz:2209.got - 2010.04.14 02:38:36.
