data_PCOD8178742
_publ_section_title
;
Structure prediction by ZEFSAII (Michael W. Deem and Ramdas Pophale) SiO2 
 PCOD8178742
Probable space group: A M M 2
;
_chemical_formula_sum "Si O2"
_cell_formula_units_Z 64
_cell_length_a 8.931719
_cell_length_b 24.519953
_cell_length_c 15.010750
_cell_angle_alpha 90.000000
_cell_angle_beta 90.000000
_cell_angle_gamma 90.000000
_cell_volume 3287.434259
_symmetry_space_group_name_H-M "A M M 2"
_symmetry_group_IT_number 38
_symmetry_cell_setting 'orthorhombic'
loop_
_space_group_symop_operation_xyz
x,y,z
-x,-y,z
-x,y,z
x,-y,z
x,1/2+y,1/2+z
-x,1/2-y,1/2+z
-x,1/2+y,1/2+z
x,1/2-y,1/2+z
loop_
_atom_site_type_symbol
_atom_site_label
_atom_site_fract_x
_atom_site_fract_y
_atom_site_fract_z
Si Si1 0.327772 0.563589 0.870780
Si Si2 0.328206 0.937672 0.716308
Si Si3 0.825910 0.329755 0.542636
Si Si4 0.177066 0.892756 0.546056
Si Si5 0.327315 0.282025 0.016497
Si Si6 0.673690 0.362013 0.709493
Si Si7 0.826341 0.353890 0.341768
Si Si8 0.669978 0.244300 0.316164
O O1 0.500000 0.579712 0.891237
O O2 0.309807 0.500000 0.851578
O O3 0.269974 0.595085 0.783227
O O4 0.229158 0.580529 0.954295
O O5 0.500000 0.922358 0.696702
O O6 0.234031 0.929674 0.626718
O O7 0.267656 0.901499 0.796997
O O8 0.311851 0.000000 0.746874
O O9 0.736741 0.273738 0.555388
O O10 0.768250 0.371067 0.619084
O O11 0.791460 0.356346 0.446950
O O12 0.000000 0.317466 0.553578
O O13 0.240334 0.832162 0.560346
O O14 0.000000 0.890387 0.547394
O O15 0.500000 0.286046 0.044159
O O16 0.303568 0.284992 0.910625
O O17 0.500000 0.371854 0.688607
O O18 0.704777 0.300467 0.741957
O O19 0.779652 0.295209 0.302153
O O20 0.000000 0.362754 0.320549
O O21 0.500000 0.265953 0.310045
#
# Coordination Sequence:
#
# PCOD8178742 Si02
#       8
#     8   8   8   8   8   8   8   8
#     4  10  21  40  63  86 118 159 204 250 292 342
#     4  11  25  44  65  87 113 151 201 250 295 350
#     4  10  22  38  57  87 124 158 194 242 300 356
#     4  12  24  37  58  89 124 158 193 238 294 359
#     4  10  19  36  59  84 118 158 198 239 286 345
#     4  10  20  36  58  87 119 159 204 245 293 345
#     4  10  22  40  61  86 119 155 194 244 302 355
#     4   9  18  34  57  84 116 154 196 240 287 345
#
# _framework density 19.468070000000001
#
# number of rings (size 3 to 8) (size 9 to 14) (size 15 to 20)
#    0.000    1.750    1.250    3.000    1.750    5.750 
#    0.000    0.625    0.000    2.250    0.000    0.000 
#    0.000    0.000    0.000    0.000    0.000    0.000 
#
# Total GULP energy -396961.980433 kJ/mol
# GULP energy per Si atom -12405.061889 kJ/mol
# Density = 1.942376 g / cm^3
# Si number density = 19.468070 Si / 1000 Ang^3
#
#
#
# Elastic Constant Matrix: (Units=GPa)
#
#
# Indices 1 2 3 4 5 6 
#
# 1 121.8732 56.6450 55.2478 0.0000 0.0000 0.0000
# 2 56.6450 91.5358 48.8767 0.0000 0.0000 0.0000
# 3 55.2478 48.8767 106.2941 0.0000 0.0000 0.0000
# 4 0.0000 0.0000 0.0000 28.3971 0.0000 0.0000
# 5 0.0000 0.0000 0.0000 0.0000 32.5167 0.0000
# 6 0.0000 0.0000 0.0000 0.0000 0.0000 16.1248
#
#
#
# Elastic Compliance Matrix: (Units=1/GPa)
#
#
# Indices 1 2 3 4 5 6 
#
# 1 0.012654 -0.005724 -0.003945 0.000000 0.000000 0.000000
# 2 -0.005724 0.017069 -0.004874 0.000000 0.000000 0.000000
# 3 -0.003945 -0.004874 0.013699 0.000000 0.000000 0.000000
# 4 0.000000 0.000000 0.000000 0.035215 0.000000 0.000000
# 5 0.000000 0.000000 0.000000 0.000000 0.030753 0.000000
# 6 0.000000 0.000000 0.000000 0.000000 0.000000 0.062016
#
#
# Mechanical properties :
#
#
# Convention : Reuss Voigt Hill
#
# Bulk Modulus (GPa) = 69.74948 71.24911 70.49929
# Shear Modulus (GPa) = 24.35786 26.00329 25.18057
#
# Velocity S-wave (km/s) = 3.54102 3.65867 3.60033
# Velocity P-wave (km/s) = 7.25423 7.38412 7.31946
#
# Compressibility (1/GPa) = 0.01433703
#
# Stress axis : x y z
#
# Youngs Moduli (GPa) = 79.02524 58.58441 72.99610
#
# Poissons Ratio (x) = 0.33535 0.28797
# Poissons Ratio (y) = 0.45236 0.35576
# Poissons Ratio (z) = 0.31176 0.28552
#
# Static dielectric constant tensor:
#      x y z
#    x 3.556370 0.000000 0.000000 
#    y 0.000000 3.468380 0.000000 
#    z 0.000000 0.000000 3.595880 
# 
# 
# High freq. dielectric constant tensor:
#      x y z
#    x 1.760540 0.000000 0.000000 
#    y 0.000000 1.748460 0.000000 
#    z 0.000000 0.000000 1.762860 
# 
# From -- ./inp_files/12852.got.cif
#   From: 2010.03.12/outbox.cif.g09.slc.cpg/sg38_7_cif.got.tgz:12852.got - 2010.04.14 02:38:36.
