data_PCOD8178401
_publ_section_title
;
Structure prediction by ZEFSAII (Michael W. Deem and Ramdas Pophale) SiO2 
 PCOD8178401
Probable space group: A M M 2
;
_chemical_formula_sum "Si O2"
_cell_formula_units_Z 40
_cell_length_a 8.875920
_cell_length_b 20.977846
_cell_length_c 12.659131
_cell_angle_alpha 90.000000
_cell_angle_beta 90.000000
_cell_angle_gamma 90.000000
_cell_volume 2357.100859
_symmetry_space_group_name_H-M "A M M 2"
_symmetry_group_IT_number 38
_symmetry_cell_setting 'orthorhombic'
loop_
_space_group_symop_operation_xyz
x,y,z
-x,-y,z
-x,y,z
x,-y,z
x,1/2+y,1/2+z
-x,1/2-y,1/2+z
-x,1/2+y,1/2+z
x,1/2-y,1/2+z
loop_
_atom_site_type_symbol
_atom_site_label
_atom_site_fract_x
_atom_site_fract_y
_atom_site_fract_z
Si Si1 0.821749 0.926516 0.533600
Si Si2 0.821504 0.707163 0.635590
Si Si3 0.322473 0.661575 0.196626
Si Si4 0.172149 0.337912 0.852536
Si Si5 0.828250 0.192511 0.904483
O O1 0.743085 0.900455 0.638948
O O2 0.752516 0.889483 0.430973
O O3 0.000000 0.915399 0.544508
O O4 0.779659 0.000000 0.520360
O O5 0.743501 0.775701 0.641617
O O6 0.761838 0.662615 0.732363
O O7 0.784392 0.672486 0.524496
O O8 0.000000 0.720062 0.647200
O O9 0.500000 0.662355 0.186537
O O10 0.277843 0.657399 0.320463
O O11 0.193510 0.268275 0.901381
O O12 0.000000 0.358058 0.844122
O O13 0.000000 0.173834 0.878303
#
# Coordination Sequence:
#
# PCOD8178401 Si02
#       5
#     8   8   8   8   8
#     4  10  19  33  52  71  96 131 171 205 237 288
#     4   9  16  30  51  71  96 128 161 201 246 295
#     4  11  21  30  44  70 104 130 161 202 246 300
#     4   8  14  26  46  72  94 118 158 202 244 281
#     4   9  16  29  50  69  94 127 162 201 242 294
#
# _framework density 16.970001
#
# number of rings (size 3 to 8) (size 9 to 14) (size 15 to 20)
#    0.000    2.600    2.000    3.000    0.000    1.200 
#    0.000    0.000    0.000    1.200    0.000    5.600 
#    0.000    0.000    0.000    0.000    0.000    0.000 
#
# Total GULP energy -247862.070375 kJ/mol
# GULP energy per Si atom -12393.103519 kJ/mol
# Density = 1.693138 g / cm^3
# Si number density = 16.970001 Si / 1000 Ang^3
#
#
#
# Elastic Constant Matrix: (Units=GPa)
#
#
# Indices 1 2 3 4 5 6 
#
# 1 57.1543 29.8933 38.1528 0.0000 0.0000 0.0000
# 2 29.8933 65.6990 46.1288 0.0000 0.0000 0.0000
# 3 38.1528 46.1288 145.9716 0.0000 0.0000 0.0000
# 4 0.0000 0.0000 0.0000 24.2691 0.0000 0.0000
# 5 0.0000 0.0000 0.0000 0.0000 11.1562 0.0000
# 6 0.0000 0.0000 0.0000 0.0000 0.0000 8.2726
#
#
#
# Elastic Compliance Matrix: (Units=1/GPa)
#
#
# Indices 1 2 3 4 5 6 
#
# 1 0.024415 -0.008518 -0.003689 0.000000 0.000000 0.000000
# 2 -0.008518 0.022533 -0.004894 0.000000 0.000000 0.000000
# 3 -0.003689 -0.004894 0.009362 0.000000 0.000000 0.000000
# 4 0.000000 0.000000 0.000000 0.041205 0.000000 0.000000
# 5 0.000000 0.000000 0.000000 0.000000 0.089636 0.000000
# 6 0.000000 0.000000 0.000000 0.000000 0.000000 0.120880
#
#
# Mechanical properties :
#
#
# Convention : Reuss Voigt Hill
#
# Bulk Modulus (GPa) = 45.23787 55.24164 50.23976
# Shear Modulus (GPa) = 14.30192 19.04958 16.67575
#
# Velocity S-wave (km/s) = 2.90621 3.35407 3.13814
# Velocity P-wave (km/s) = 6.16254 6.90094 6.54216
#
# Compressibility (1/GPa) = 0.02210537
#
# Stress axis : x y z
#
# Youngs Moduli (GPa) = 40.95896 44.37887 106.81909
#
# Poissons Ratio (x) = 0.37804 0.39410
# Poissons Ratio (y) = 0.34890 0.52281
# Poissons Ratio (z) = 0.15111 0.21720
#
# Static dielectric constant tensor:
#      x y z
#    x 2.879810 0.000000 0.000000 
#    y 0.000000 2.853690 0.000000 
#    z 0.000000 0.000000 3.654810 
# 
# 
# High freq. dielectric constant tensor:
#      x y z
#    x 1.624120 0.000000 0.000000 
#    y 0.000000 1.605130 0.000000 
#    z 0.000000 0.000000 1.678200 
# 
# From -- ./inp_files/7776.got.cif
#   From: 2010.03.12/outbox.cif.g09.slc.cpg/sg38_4_cif.got.tgz:7776.got - 2010.04.14 02:38:36.
