data_PCOD8178360
_publ_section_title
;
Structure prediction by ZEFSAII (Michael W. Deem and Ramdas Pophale) SiO2 
 PCOD8178360
Probable space group: A M M 2
;
_chemical_formula_sum "Si O2"
_cell_formula_units_Z 64
_cell_length_a 9.686204
_cell_length_b 18.312453
_cell_length_c 19.234050
_cell_angle_alpha 90.000000
_cell_angle_beta 90.000000
_cell_angle_gamma 90.000000
_cell_volume 3411.700312
_symmetry_space_group_name_H-M "A M M 2"
_symmetry_group_IT_number 38
_symmetry_cell_setting 'orthorhombic'
loop_
_space_group_symop_operation_xyz
x,y,z
-x,-y,z
-x,y,z
x,-y,z
x,1/2+y,1/2+z
-x,1/2-y,1/2+z
-x,1/2+y,1/2+z
x,1/2-y,1/2+z
loop_
_atom_site_type_symbol
_atom_site_label
_atom_site_fract_x
_atom_site_fract_y
_atom_site_fract_z
Si Si1 0.339228 0.169614 0.676410
Si Si2 0.163451 0.698991 0.684440
Si Si3 0.156319 0.342057 0.938169
Si Si4 0.159483 0.291911 0.526239
Si Si5 0.836883 0.583155 0.799614
Si Si6 0.157208 0.917821 0.926093
Si Si7 0.650208 0.414446 0.309857
Si Si8 0.843055 0.082093 0.575711
O O1 0.500000 0.187557 0.659536
O O2 0.259757 0.236521 0.714254
O O3 0.322622 0.104005 0.730258
O O4 0.258647 0.142777 0.607820
O O5 0.216965 0.697766 0.604274
O O6 0.198940 0.625256 0.727414
O O7 0.000000 0.716108 0.690749
O O8 0.225666 0.370918 0.865820
O O9 0.000000 0.319618 0.919545
O O10 0.227530 0.271001 0.976301
O O11 0.162546 0.408923 0.992514
O O12 0.183789 0.371385 0.494592
O O13 0.000000 0.270087 0.532921
O O14 0.776400 0.500000 0.796295
O O15 0.000000 0.577723 0.809594
O O16 0.239604 0.880432 0.862720
O O17 0.000000 0.915831 0.902082
O O18 0.205566 0.000000 0.943635
O O19 0.500000 0.385263 0.332701
O O20 0.661297 0.500000 0.316210
O O21 0.000000 0.096115 0.602213
O O22 0.795478 0.000000 0.594211
#
# Coordination Sequence:
#
# PCOD8178360 Si02
#       8
#     8   8   8   8   8   8   8   8
#     4  11  22  35  51  74 107 144 178 217 263 316
#     4  10  20  35  55  78 106 139 178 221 261 312
#     4   9  16  29  49  77 110 138 168 214 271 323
#     4   9  17  30  49  74 106 139 167 209 270 318
#     4   9  18  31  51  81 110 139 178 224 272 319
#     4   9  18  31  50  77 103 130 168 213 260 313
#     4   9  19  35  51  69  99 137 170 205 255 311
#     4  10  19  32  54  80 106 139 177 217 264 322
#
# _framework density 18.758973999999998
#
# number of rings (size 3 to 8) (size 9 to 14) (size 15 to 20)
#    0.000    2.500    1.250    1.125    1.750    3.750 
#    0.000    4.375    0.000    1.125    0.000    0.000 
#    0.000    0.000    0.000    0.000    0.000    0.000 
#
# Total GULP energy -396436.909661 kJ/mol
# GULP energy per Si atom -12388.653427 kJ/mol
# Density = 1.871628 g / cm^3
# Si number density = 18.758974 Si / 1000 Ang^3
#
#
#
# Elastic Constant Matrix: (Units=GPa)
#
#
# Indices 1 2 3 4 5 6 
#
# 1 51.3080 28.7097 28.0410 0.0000 0.0000 0.0000
# 2 28.7097 101.5406 55.3651 0.0000 0.0000 0.0000
# 3 28.0410 55.3651 109.7444 0.0000 0.0000 0.0000
# 4 0.0000 0.0000 0.0000 26.6565 0.0000 0.0000
# 5 0.0000 0.0000 0.0000 0.0000 -0.0271 0.0000
# 6 0.0000 0.0000 0.0000 0.0000 0.0000 12.5433
#
#
#
# Elastic Compliance Matrix: (Units=1/GPa)
#
#
# Indices 1 2 3 4 5 6 
#
# 1 0.024235 -0.004795 -0.003773 0.000000 0.000000 0.000000
# 2 -0.004795 0.014534 -0.006107 0.000000 0.000000 0.000000
# 3 -0.003773 -0.006107 0.013157 0.000000 0.000000 0.000000
# 4 0.000000 0.000000 0.000000 0.037514 0.000000 0.000000
# 5 0.000000 0.000000 0.000000 0.000000-36.949963 0.000000
# 6 0.000000 0.000000 0.000000 0.000000 0.000000 0.079724
#
#
# Mechanical properties :
#
#
# Convention : Reuss Voigt Hill
#
# Bulk Modulus (GPa) = 44.29540 54.09161 49.19350
# Shear Modulus (GPa) = -0.13608 17.86635 8.86514
#
# Velocity S-wave (km/s) = -0.26962 3.08947 2.17625
# Velocity P-wave (km/s) = 4.85461 6.45167 5.70926
#
# Compressibility (1/GPa) = 0.02257571
#
# Stress axis : x y z
#
# Youngs Moduli (GPa) = 41.26188 68.80483 76.00397
#
# Poissons Ratio (x) = 0.32991 0.28680
# Poissons Ratio (y) = 0.19785 0.46416
# Poissons Ratio (z) = 0.15570 0.42020
#
# Static dielectric constant tensor:
#      x y z
#    x 3.149250 0.000000 0.000000 
#    y 0.000000 3.547970 0.000000 
#    z 0.000000 0.000000 3.529330 
# 
# 
# High freq. dielectric constant tensor:
#      x y z
#    x 1.675380 0.000000 0.000000 
#    y 0.000000 1.732600 0.000000 
#    z 0.000000 0.000000 1.730170 
# 
# From -- ./inp_files/20081.got.cif
#   From: 2010.03.12/outbox.cif.g09.slc.cpg/sg38_11_cif.got.tgz:20081.got - 2010.04.14 02:38:36.
