data_PCOD8178204
_publ_section_title
;
Structure prediction by ZEFSAII (Michael W. Deem and Ramdas Pophale) SiO2 
 PCOD8178204
Probable space group: A M M 2
;
_chemical_formula_sum "Si O2"
_cell_formula_units_Z 64
_cell_length_a 23.772067
_cell_length_b 9.320170
_cell_length_c 15.489908
_cell_angle_alpha 90.000000
_cell_angle_beta 90.000000
_cell_angle_gamma 90.000000
_cell_volume 3431.939458
_symmetry_space_group_name_H-M "A M M 2"
_symmetry_group_IT_number 38
_symmetry_cell_setting 'orthorhombic'
loop_
_space_group_symop_operation_xyz
x,y,z
-x,-y,z
-x,y,z
x,-y,z
x,1/2+y,1/2+z
-x,1/2-y,1/2+z
-x,1/2+y,1/2+z
x,1/2-y,1/2+z
loop_
_atom_site_type_symbol
_atom_site_label
_atom_site_fract_x
_atom_site_fract_y
_atom_site_fract_z
Si Si1 0.246059 0.164461 0.620180
Si Si2 0.372484 0.835700 0.614943
Si Si3 0.642433 0.831193 0.812350
Si Si4 0.564362 0.831817 0.969588
Si Si5 0.125886 0.334800 0.851756
Si Si6 0.750989 0.835430 0.290811
Si Si7 0.132247 0.332003 0.039955
Si Si8 0.935360 0.669919 0.202301
O O1 0.308431 0.187653 0.581967
O O2 0.234671 0.270434 0.698338
O O3 0.198839 0.201693 0.549465
O O4 0.240139 0.000000 0.653254
O O5 0.377992 0.788743 0.715627
O O6 0.412747 0.741317 0.556020
O O7 0.391191 0.000000 0.604383
O O8 0.700063 0.749958 0.835868
O O9 0.654576 0.000000 0.815955
O O10 0.596494 0.782652 0.882725
O O11 0.500000 0.786304 0.956628
O O12 0.571191 0.000000 0.983705
O O13 0.107833 0.500000 0.837325
O O14 0.193132 0.320416 0.847123
O O15 0.092611 0.236472 0.786256
O O16 0.110413 0.276238 0.947482
O O17 0.732457 0.000000 0.280200
O O18 0.122210 0.500000 0.041785
O O19 0.095849 0.264984 0.117986
O O20 0.928066 0.500000 0.208660
O O21 0.000000 0.716217 0.197222
#
# Coordination Sequence:
#
# PCOD8178204 Si02
#       8
#     8   8   8   8   8   8   8   8
#     4   9  17  33  57  79 108 147 182 217 268 329
#     4   9  19  34  56  83 108 139 182 225 270 322
#     4   9  20  38  57  78 107 148 187 219 268 328
#     4  10  22  39  57  79 110 147 186 225 270 328
#     4  10  21  35  55  84 112 144 180 222 277 328
#     4  10  19  31  53  84 116 140 175 226 277 326
#     4   9  18  34  56  80 108 144 184 220 263 325
#     4  10  21  38  59  80 106 145 190 230 266 316
#
# _framework density 18.648347000000001
#
# number of rings (size 3 to 8) (size 9 to 14) (size 15 to 20)
#    0.000    2.500    1.250    1.125    1.750    4.500 
#    0.000    3.750    0.000    0.000    0.000    0.000 
#    0.000    0.000    0.000    0.000    0.000    0.000 
#
# Total GULP energy -396717.356514 kJ/mol
# GULP energy per Si atom -12397.417391 kJ/mol
# Density = 1.860590 g / cm^3
# Si number density = 18.648347 Si / 1000 Ang^3
#
#
#
# Elastic Constant Matrix: (Units=GPa)
#
#
# Indices 1 2 3 4 5 6 
#
# 1 109.2125 38.5677 63.5722 0.0000 0.0000 0.0000
# 2 38.5677 44.1550 34.8343 0.0000 0.0000 0.0000
# 3 63.5722 34.8343 126.7235 0.0000 0.0000 0.0000
# 4 0.0000 0.0000 0.0000 27.5659 0.0000 0.0000
# 5 0.0000 0.0000 0.0000 0.0000 21.4634 0.0000
# 6 0.0000 0.0000 0.0000 0.0000 0.0000 25.1989
#
#
#
# Elastic Compliance Matrix: (Units=1/GPa)
#
#
# Indices 1 2 3 4 5 6 
#
# 1 0.015515 -0.009464 -0.005182 0.000000 0.000000 0.000000
# 2 -0.009464 0.034691 -0.004789 0.000000 0.000000 0.000000
# 3 -0.005182 -0.004789 0.011807 0.000000 0.000000 0.000000
# 4 0.000000 0.000000 0.000000 0.036277 0.000000 0.000000
# 5 0.000000 0.000000 0.000000 0.000000 0.046591 0.000000
# 6 0.000000 0.000000 0.000000 0.000000 0.000000 0.039684
#
#
# Mechanical properties :
#
#
# Convention : Reuss Voigt Hill
#
# Bulk Modulus (GPa) = 43.20554 61.55993 52.38274
# Shear Modulus (GPa) = 21.63118 24.38676 23.00897
#
# Velocity S-wave (km/s) = 3.40950 3.62016 3.51641
# Velocity P-wave (km/s) = 6.22242 7.11032 6.68113
#
# Compressibility (1/GPa) = 0.02314518
#
# Stress axis : x y z
#
# Youngs Moduli (GPa) = 64.45480 28.82565 84.69569
#
# Poissons Ratio (x) = 0.27279 0.43887
# Poissons Ratio (y) = 0.60998 0.40557
# Poissons Ratio (z) = 0.33399 0.13803
#
# Static dielectric constant tensor:
#      x y z
#    x 3.524220 0.000000 0.000000 
#    y 0.000000 3.260910 0.000000 
#    z 0.000000 0.000000 3.553360 
# 
# 
# High freq. dielectric constant tensor:
#      x y z
#    x 1.724430 0.000000 0.000000 
#    y 0.000000 1.703880 0.000000 
#    z 0.000000 0.000000 1.726800 
# 
# From -- ./inp_files/15813.got.cif
#   From: 2010.03.12/outbox.cif.g09.slc.cpg/sg38_8_cif.got.tgz:15813.got - 2010.04.14 02:38:36.
