data_PCOD8178739
_publ_section_title
;
Structure prediction by ZEFSAII (Michael W. Deem and Ramdas Pophale) SiO2 
 PCOD8178739
Probable space group: A M M 2
;
_chemical_formula_sum "Si O2"
_cell_formula_units_Z 48
_cell_length_a 8.537018
_cell_length_b 30.780763
_cell_length_c 9.155723
_cell_angle_alpha 90.000000
_cell_angle_beta 90.000000
_cell_angle_gamma 90.000000
_cell_volume 2405.903606
_symmetry_space_group_name_H-M "A M M 2"
_symmetry_group_IT_number 38
_symmetry_cell_setting 'orthorhombic'
loop_
_space_group_symop_operation_xyz
x,y,z
-x,-y,z
-x,y,z
x,-y,z
x,1/2+y,1/2+z
-x,1/2-y,1/2+z
-x,1/2+y,1/2+z
x,1/2-y,1/2+z
loop_
_atom_site_type_symbol
_atom_site_label
_atom_site_fract_x
_atom_site_fract_y
_atom_site_fract_z
Si Si1 0.819371 0.050153 0.496980
Si Si2 0.313975 0.706424 0.007175
Si Si3 0.685127 0.289467 0.334548
Si Si4 0.816569 0.370445 0.503386
Si Si5 0.185983 0.547623 0.326458
Si Si6 0.682168 0.875066 0.318800
O O1 0.759572 0.058478 0.661823
O O2 0.712798 0.078114 0.388983
O O3 0.000000 0.064167 0.479297
O O4 0.797798 0.000000 0.453704
O O5 0.500000 0.709195 0.013757
O O6 0.243792 0.707853 0.171093
O O7 0.245753 0.746984 0.915312
O O8 0.260313 0.661867 0.931157
O O9 0.500000 0.285716 0.325396
O O10 0.727960 0.331644 0.425444
O O11 0.750979 0.415684 0.436285
O O12 0.783129 0.369681 0.673941
O O13 0.000000 0.365624 0.473891
O O14 0.251633 0.500000 0.373537
O O15 0.000000 0.545625 0.328426
O O16 0.500000 0.869879 0.279742
#
# Coordination Sequence:
#
# PCOD8178739 Si02
#       6
#     8   8   8   8   8   8
#     4   9  18  35  58  81 106 139 178 222 275 329
#     4   9  19  35  58  82 105 139 180 221 268 325
#     4  10  19  36  59  80 104 137 177 218 268 328
#     4  11  22  35  53  80 110 141 180 224 269 317
#     4   8  16  33  56  78 102 137 179 219 264 322
#     4  11  22  36  54  79 111 146 184 224 266 315
#
# _framework density 19.950924000000001
#
# number of rings (size 3 to 8) (size 9 to 14) (size 15 to 20)
#    0.000    2.333    0.000    4.000    0.000    3.667 
#    0.000    7.500    0.000    3.500    0.000    0.000 
#    0.000    0.000    0.000    0.000    0.000    0.000 
#
# Total GULP energy -297622.225031 kJ/mol
# GULP energy per Si atom -12400.926043 kJ/mol
# Density = 1.990551 g / cm^3
# Si number density = 19.950924 Si / 1000 Ang^3
#
#
#
# Elastic Constant Matrix: (Units=GPa)
#
#
# Indices 1 2 3 4 5 6 
#
# 1 12.5728 8.2592 2.3841 0.0000 0.0000 0.0000
# 2 8.2592 133.1496 69.2339 0.0000 0.0000 0.0000
# 3 2.3841 69.2339 140.5544 0.0000 0.0000 0.0000
# 4 0.0000 0.0000 0.0000 41.6937 0.0000 0.0000
# 5 0.0000 0.0000 0.0000 0.0000 25.0559 0.0000
# 6 0.0000 0.0000 0.0000 0.0000 0.0000 25.2712
#
#
#
# Elastic Compliance Matrix: (Units=1/GPa)
#
#
# Indices 1 2 3 4 5 6 
#
# 1 0.083156 -0.005948 0.001519 0.000000 0.000000 0.000000
# 2 -0.005948 0.010522 -0.005082 0.000000 0.000000 0.000000
# 3 0.001519 -0.005082 0.009592 0.000000 0.000000 0.000000
# 4 0.000000 0.000000 0.000000 0.023984 0.000000 0.000000
# 5 0.000000 0.000000 0.000000 0.000000 0.039911 0.000000
# 6 0.000000 0.000000 0.000000 0.000000 0.000000 0.039571
#
#
# Mechanical properties :
#
#
# Convention : Reuss Voigt Hill
#
# Bulk Modulus (GPa) = 11.86965 49.55902 30.71434
# Shear Modulus (GPa) = 19.69747 32.16413 25.93080
#
# Velocity S-wave (km/s) = 3.14554 4.01953 3.60909
# Velocity P-wave (km/s) = 4.37663 6.81444 5.72675
#
# Compressibility (1/GPa) = 0.08424846
#
# Stress axis : x y z
#
# Youngs Moduli (GPa) = 12.02562 95.04126 104.25210
#
# Poissons Ratio (x) = 0.56533 -0.15841
# Poissons Ratio (y) = 0.07153 0.52980
# Poissons Ratio (z) = -0.01827 0.48299
#
# Static dielectric constant tensor:
#      x y z
#    x 3.181440 0.000000 0.000000 
#    y 0.000000 3.926850 0.000000 
#    z 0.000000 0.000000 3.808330 
# 
# 
# High freq. dielectric constant tensor:
#      x y z
#    x 1.738540 0.000000 0.000000 
#    y 0.000000 1.794390 0.000000 
#    z 0.000000 0.000000 1.786530 
# 
# From -- ./inp_files/3716.got.cif
#   From: 2010.03.12/outbox.cif.g09.slc.cpg/sg38_2_cif.got.tgz:3716.got - 2010.04.14 02:38:36.
