data_PCOD8178543
_publ_section_title
;
Structure prediction by ZEFSAII (Michael W. Deem and Ramdas Pophale) SiO2 
 PCOD8178543
Probable space group: A M M 2
;
_chemical_formula_sum "Si O2"
_cell_formula_units_Z 48
_cell_length_a 19.048032
_cell_length_b 8.334826
_cell_length_c 14.849840
_cell_angle_alpha 90.000000
_cell_angle_beta 90.000000
_cell_angle_gamma 90.000000
_cell_volume 2357.590779
_symmetry_space_group_name_H-M "A M M 2"
_symmetry_group_IT_number 38
_symmetry_cell_setting 'orthorhombic'
loop_
_space_group_symop_operation_xyz
x,y,z
-x,-y,z
-x,y,z
x,-y,z
x,1/2+y,1/2+z
-x,1/2-y,1/2+z
-x,1/2+y,1/2+z
x,1/2-y,1/2+z
loop_
_atom_site_type_symbol
_atom_site_label
_atom_site_fract_x
_atom_site_fract_y
_atom_site_fract_z
Si Si1 0.000000 0.811580 0.685140
Si Si2 0.000000 0.810058 0.480838
Si Si3 0.651780 0.189475 0.666759
Si Si4 0.500000 0.316515 0.909437
Si Si5 0.500000 0.683536 0.217658
Si Si6 0.360351 0.686086 0.481016
Si Si7 0.735222 0.186562 0.329118
Si Si8 0.895090 0.310597 0.829487
O O1 0.000000 0.736971 0.582655
O O2 0.930892 0.759814 0.739804
O O3 0.000000 0.000000 0.675294
O O4 0.932340 0.752502 0.422318
O O5 0.000000 0.000000 0.488705
O O6 0.572203 0.259135 0.679613
O O7 0.677258 0.235084 0.567168
O O8 0.704609 0.284351 0.730578
O O9 0.656062 0.000000 0.685992
O O10 0.500000 0.500000 0.876006
O O11 0.500000 0.198234 0.825026
O O12 0.432157 0.283615 0.969190
O O13 0.500000 0.500000 0.188898
O O14 0.376978 0.500000 0.495510
O O15 0.309157 0.706153 0.397138
O O16 0.815077 0.247680 0.332319
O O17 0.729347 0.000000 0.355206
O O18 0.901209 0.500000 0.820576
#
# Coordination Sequence:
#
# PCOD8178543 Si02
#       8
#     4   4   8   4   4   8   8   8
#     4  10  19  33  60  93 118 147 197 246 286 340
#     4   8  16  35  60  85 114 153 193 230 278 338
#     4  11  23  40  62  87 119 157 202 252 304 363
#     4  12  23  38  63  88 116 154 201 252 305 364
#     4  10  21  38  61  86 114 152 199 250 307 356
#     4  12  25  41  61  87 121 158 201 252 305 360
#     4  11  23  40  61  88 121 160 204 248 299 358
#     4   9  20  39  60  83 119 160 194 234 290 352
#
# _framework density 20.359767999999999
#
# number of rings (size 3 to 8) (size 9 to 14) (size 15 to 20)
#    0.000    1.500    1.667    4.500    0.000    4.000 
#    0.000    5.000    0.000    0.000    0.000    0.000 
#    0.000    0.000    0.000    0.000    0.000    0.000 
#
# Total GULP energy -297636.762993 kJ/mol
# GULP energy per Si atom -12401.531791 kJ/mol
# Density = 2.031343 g / cm^3
# Si number density = 20.359768 Si / 1000 Ang^3
#
#
#
# Elastic Constant Matrix: (Units=GPa)
#
#
# Indices 1 2 3 4 5 6 
#
# 1 147.7131 27.4915 51.0386 0.0000 0.0000 0.0000
# 2 27.4915 51.4064 9.4032 0.0000 0.0000 0.0000
# 3 51.0386 9.4032 146.8950 0.0000 0.0000 0.0000
# 4 0.0000 0.0000 0.0000 31.2102 0.0000 0.0000
# 5 0.0000 0.0000 0.0000 0.0000 -28.1450 0.0000
# 6 0.0000 0.0000 0.0000 0.0000 0.0000 24.6572
#
#
#
# Elastic Compliance Matrix: (Units=1/GPa)
#
#
# Indices 1 2 3 4 5 6 
#
# 1 0.008444 -0.004026 -0.002676 0.000000 0.000000 0.000000
# 2 -0.004026 0.021603 0.000016 0.000000 0.000000 0.000000
# 3 -0.002676 0.000016 0.007736 0.000000 0.000000 0.000000
# 4 0.000000 0.000000 0.000000 0.032041 0.000000 0.000000
# 5 0.000000 0.000000 0.000000 0.000000 -0.035530 0.000000
# 6 0.000000 0.000000 0.000000 0.000000 0.000000 0.040556
#
#
# Mechanical properties :
#
#
# Convention : Reuss Voigt Hill
#
# Bulk Modulus (GPa) = 40.96548 57.98678 49.47613
# Shear Modulus (GPa) = 51.88906 22.74988 37.31947
#
# Velocity S-wave (km/s) = 5.05385 3.34637 4.28600
# Velocity P-wave (km/s) = 7.36340 6.59347 6.98905
#
# Compressibility (1/GPa) = 0.02441080
#
# Stress axis : x y z
#
# Youngs Moduli (GPa) = 118.42925 46.28974 129.25973
#
# Poissons Ratio (x) = 0.18637 0.34591
# Poissons Ratio (y) = 0.47682 -0.00207
# Poissons Ratio (z) = 0.31693 -0.00074
#
# Static dielectric constant tensor:
#      x y z
#    x 3.993250 0.000000 0.000000 
#    y 0.000000 3.468270 0.000000 
#    z 0.000000 0.000000 3.819490 
# 
# 
# High freq. dielectric constant tensor:
#      x y z
#    x 1.791310 0.000000 0.000000 
#    y 0.000000 1.785700 0.000000 
#    z 0.000000 0.000000 1.806180 
# 
# From -- ./inp_files/15095.got.cif
#   From: 2010.03.12/outbox.cif.g09.slc.cpg/sg38_8_cif.got.tgz:15095.got - 2010.04.14 02:38:36.
