data_PCOD8178724
_publ_section_title
;
Structure prediction by ZEFSAII (Michael W. Deem and Ramdas Pophale) SiO2 
 PCOD8178724
Probable space group: A M M 2
;
_chemical_formula_sum "Si O2"
_cell_formula_units_Z 32
_cell_length_a 7.573933
_cell_length_b 9.064294
_cell_length_c 23.766738
_cell_angle_alpha 90.000000
_cell_angle_beta 90.000000
_cell_angle_gamma 90.000000
_cell_volume 1631.642545
_symmetry_space_group_name_H-M "A M M 2"
_symmetry_group_IT_number 38
_symmetry_cell_setting 'orthorhombic'
loop_
_space_group_symop_operation_xyz
x,y,z
-x,-y,z
-x,y,z
x,-y,z
x,1/2+y,1/2+z
-x,1/2-y,1/2+z
-x,1/2+y,1/2+z
x,1/2-y,1/2+z
loop_
_atom_site_type_symbol
_atom_site_label
_atom_site_fract_x
_atom_site_fract_y
_atom_site_fract_z
Si Si1 0.698830 0.331447 0.235140
Si Si2 0.207910 0.667907 0.844012
Si Si3 0.000000 0.672909 0.537337
Si Si4 0.702486 0.828903 0.468565
Si Si5 0.000000 0.826867 0.167819
O O1 0.500000 0.319597 0.211437
O O2 0.764263 0.500000 0.235875
O O3 0.699348 0.270550 0.298474
O O4 0.824105 0.238001 0.195040
O O5 0.273926 0.500000 0.836089
O O6 0.263947 0.726972 0.905203
O O7 0.000000 0.678973 0.835924
O O8 0.176974 0.738421 0.510922
O O9 0.000000 0.500000 0.526807
O O10 0.000000 0.713894 0.602635
O O11 0.500000 0.802337 0.485745
O O12 0.755914 0.000000 0.472864
O O13 0.000000 0.000000 0.179296
#
# Coordination Sequence:
#
# PCOD8178724 Si02
#       5
#     8   8   4   8   4
#     4  11  24  40  61  91 123 155 193 243 301 353
#     4  10  19  35  62  92 122 158 196 236 288 351
#     4  11  25  42  61  86 119 156 198 249 300 349
#     4  10  21  39  64  91 120 157 199 241 289 349
#     4  11  25  44  63  84 113 158 206 247 294 349
#
# _framework density 19.612138000000002
#
# number of rings (size 3 to 8) (size 9 to 14) (size 15 to 20)
#    0.000    1.500    2.500    2.250    0.000    7.500 
#    0.000    5.000    0.000    0.000    0.000    0.000 
#    0.000    0.000    0.000    0.000    0.000    0.000 
#
# Total GULP energy -198483.774486 kJ/mol
# GULP energy per Si atom -12405.235905 kJ/mol
# Density = 1.956750 g / cm^3
# Si number density = 19.612138 Si / 1000 Ang^3
#
#
#
# Elastic Constant Matrix: (Units=GPa)
#
#
# Indices 1 2 3 4 5 6 
#
# 1 112.8699 50.0902 62.6944 0.0000 0.0000 0.0000
# 2 50.0902 98.9687 84.6517 0.0000 0.0000 0.0000
# 3 62.6944 84.6517 147.6764 0.0000 0.0000 0.0000
# 4 0.0000 0.0000 0.0000 34.9508 0.0000 0.0000
# 5 0.0000 0.0000 0.0000 0.0000 5.0664 0.0000
# 6 0.0000 0.0000 0.0000 0.0000 0.0000 26.6632
#
#
#
# Elastic Compliance Matrix: (Units=1/GPa)
#
#
# Indices 1 2 3 4 5 6 
#
# 1 0.012153 -0.003410 -0.003205 0.000000 0.000000 0.000000
# 2 -0.003410 0.020780 -0.010464 0.000000 0.000000 0.000000
# 3 -0.003205 -0.010464 0.014131 0.000000 0.000000 0.000000
# 4 0.000000 0.000000 0.000000 0.028612 0.000000 0.000000
# 5 0.000000 0.000000 0.000000 0.000000 0.197379 0.000000
# 6 0.000000 0.000000 0.000000 0.000000 0.000000 0.037505
#
#
# Mechanical properties :
#
#
# Convention : Reuss Voigt Hill
#
# Bulk Modulus (GPa) = 77.48160 83.82085 80.65123
# Shear Modulus (GPa) = 14.32585 24.14133 19.23359
#
# Velocity S-wave (km/s) = 2.70563 3.51228 3.13501
# Velocity P-wave (km/s) = 7.02519 7.69936 7.36999
#
# Compressibility (1/GPa) = 0.01290629
#
# Stress axis : x y z
#
# Youngs Moduli (GPa) = 82.28323 48.12225 70.76830
#
# Poissons Ratio (x) = 0.16408 0.22681
# Poissons Ratio (y) = 0.28055 0.74054
# Poissons Ratio (z) = 0.26372 0.50357
#
# Static dielectric constant tensor:
#      x y z
#    x 3.624430 0.000000 0.000000 
#    y 0.000000 3.599180 0.000000 
#    z 0.000000 0.000000 3.565180 
# 
# 
# High freq. dielectric constant tensor:
#      x y z
#    x 1.780310 0.000000 0.000000 
#    y 0.000000 1.762810 0.000000 
#    z 0.000000 0.000000 1.762070 
# 
# From -- ./inp_files/21621.got.cif
#   From: 2010.03.12/outbox.cif.g09.slc.cpg/sg38_11_cif.got.tgz:21621.got - 2010.04.14 02:38:36.
