data_PCOD8178695
_publ_section_title
;
Structure prediction by ZEFSAII (Michael W. Deem and Ramdas Pophale) SiO2 
 PCOD8178695
Probable space group: A M M 2
;
_chemical_formula_sum "Si O2"
_cell_formula_units_Z 64
_cell_length_a 9.145956
_cell_length_b 28.088465
_cell_length_c 12.689829
_cell_angle_alpha 90.000000
_cell_angle_beta 90.000000
_cell_angle_gamma 90.000000
_cell_volume 3259.964598
_symmetry_space_group_name_H-M "A M M 2"
_symmetry_group_IT_number 38
_symmetry_cell_setting 'orthorhombic'
loop_
_space_group_symop_operation_xyz
x,y,z
-x,-y,z
-x,y,z
x,-y,z
x,1/2+y,1/2+z
-x,1/2-y,1/2+z
-x,1/2+y,1/2+z
x,1/2-y,1/2+z
loop_
_atom_site_type_symbol
_atom_site_label
_atom_site_fract_x
_atom_site_fract_y
_atom_site_fract_z
Si Si1 0.663464 0.573444 0.824420
Si Si2 0.834792 0.947116 0.121620
Si Si3 0.171418 0.444596 0.249364
Si Si4 0.170482 0.204020 0.460310
Si Si5 0.327829 0.607307 0.440332
Si Si6 0.171042 0.098163 0.523407
Si Si7 0.331050 0.294779 0.532624
Si Si8 0.660657 0.817815 0.265004
O O1 0.500000 0.551077 0.827779
O O2 0.761884 0.548416 0.736433
O O3 0.653276 0.628164 0.797797
O O4 0.740087 0.567115 0.938131
O O5 0.000000 0.926434 0.131389
O O6 0.840900 0.000000 0.072799
O O7 0.738757 0.915131 0.045263
O O8 0.218140 0.500000 0.251722
O O9 0.257190 0.414852 0.336724
O O10 0.213943 0.421745 0.137585
O O11 0.000000 0.439232 0.272213
O O12 0.214281 0.154039 0.515363
O O13 0.238444 0.247260 0.523791
O O14 0.226347 0.208856 0.340561
O O15 0.000000 0.211093 0.458679
O O16 0.500000 0.596739 0.440553
O O17 0.297076 0.664289 0.445561
O O18 0.000000 0.091226 0.500053
O O19 0.500000 0.280462 0.527515
O O20 0.285888 0.315827 0.645568
O O21 0.500000 0.794232 0.278167
#
# Coordination Sequence:
#
# PCOD8178695 Si02
#       8
#     8   8   8   8   8   8   8   8
#     4  10  19  35  59  86 114 146 189 240 292 345
#     4  11  23  37  56  84 117 152 189 231 289 357
#     4  10  22  41  63  86 119 164 206 248 304 367
#     4  10  21  35  55  87 118 150 196 247 298 348
#     4  11  23  40  60  85 116 151 198 252 301 355
#     4   9  20  39  59  83 120 159 199 245 296 356
#     4  10  21  38  58  82 114 154 198 240 297 362
#     4   9  18  36  57  77 110 151 188 231 288 351
#
# _framework density 19.632114999999999
#
# number of rings (size 3 to 8) (size 9 to 14) (size 15 to 20)
#    0.000    2.000    1.250    1.875    0.000    7.250 
#    0.000    3.750    0.000    0.000    0.000    0.000 
#    0.000    0.000    0.000    0.000    0.000    0.000 
#
# Total GULP energy -396759.435125 kJ/mol
# GULP energy per Si atom -12398.732348 kJ/mol
# Density = 1.958743 g / cm^3
# Si number density = 19.632115 Si / 1000 Ang^3
#
#
#
# Elastic Constant Matrix: (Units=GPa)
#
#
# Indices 1 2 3 4 5 6 
#
# 1 88.1304 39.6283 57.3258 0.0000 0.0000 0.0000
# 2 39.6283 72.8680 44.6280 0.0000 0.0000 0.0000
# 3 57.3258 44.6280 127.0147 0.0000 0.0000 0.0000
# 4 0.0000 0.0000 0.0000 24.4184 0.0000 0.0000
# 5 0.0000 0.0000 0.0000 0.0000 40.2346 0.0000
# 6 0.0000 0.0000 0.0000 0.0000 0.0000 24.1066
#
#
#
# Elastic Compliance Matrix: (Units=1/GPa)
#
#
# Indices 1 2 3 4 5 6 
#
# 1 0.017980 -0.006127 -0.005962 0.000000 0.000000 0.000000
# 2 -0.006127 0.019574 -0.004112 0.000000 0.000000 0.000000
# 3 -0.005962 -0.004112 0.012009 0.000000 0.000000 0.000000
# 4 0.000000 0.000000 0.000000 0.040953 0.000000 0.000000
# 5 0.000000 0.000000 0.000000 0.000000 0.024854 0.000000
# 6 0.000000 0.000000 0.000000 0.000000 0.000000 0.041482
#
#
# Mechanical properties :
#
#
# Convention : Reuss Voigt Hill
#
# Bulk Modulus (GPa) = 58.27376 63.46417 60.86896
# Shear Modulus (GPa) = 25.64434 27.51400 26.57917
#
# Velocity S-wave (km/s) = 3.61812 3.74769 3.68348
# Velocity P-wave (km/s) = 6.87035 7.15009 7.01162
#
# Compressibility (1/GPa) = 0.01716038
#
# Stress axis : x y z
#
# Youngs Moduli (GPa) = 55.61759 51.08835 83.27076
#
# Poissons Ratio (x) = 0.31300 0.49648
# Poissons Ratio (y) = 0.34074 0.34244
# Poissons Ratio (z) = 0.33161 0.21010
#
# Static dielectric constant tensor:
#      x y z
#    x 3.882720 0.000000 0.000000 
#    y 0.000000 3.581750 0.000000 
#    z 0.000000 0.000000 3.659800 
# 
# 
# High freq. dielectric constant tensor:
#      x y z
#    x 1.768960 0.000000 0.000000 
#    y 0.000000 1.763210 0.000000 
#    z 0.000000 0.000000 1.765580 
# 
# From -- ./inp_files/8641.got.cif
#   From: 2010.03.12/outbox.cif.g09.slc.cpg/sg38_5_cif.got.tgz:8641.got - 2010.04.14 02:38:36.
