data_PCOD8178303
_publ_section_title
;
Structure prediction by ZEFSAII (Michael W. Deem and Ramdas Pophale) SiO2 
 PCOD8178303
Probable space group: A M M 2
;
_chemical_formula_sum "Si O2"
_cell_formula_units_Z 64
_cell_length_a 21.588573
_cell_length_b 9.322310
_cell_length_c 16.284570
_cell_angle_alpha 90.000000
_cell_angle_beta 90.000000
_cell_angle_gamma 90.000000
_cell_volume 3277.357160
_symmetry_space_group_name_H-M "A M M 2"
_symmetry_group_IT_number 38
_symmetry_cell_setting 'orthorhombic'
loop_
_space_group_symop_operation_xyz
x,y,z
-x,-y,z
-x,y,z
x,-y,z
x,1/2+y,1/2+z
-x,1/2-y,1/2+z
-x,1/2+y,1/2+z
x,1/2-y,1/2+z
loop_
_atom_site_type_symbol
_atom_site_label
_atom_site_fract_x
_atom_site_fract_y
_atom_site_fract_z
Si Si1 0.716774 0.167269 0.028290
Si Si2 0.350208 0.344046 0.899905
Si Si3 0.319579 0.835021 0.674276
Si Si4 0.070722 0.832355 0.687499
Si Si5 0.138197 0.667038 0.357112
Si Si6 0.757123 0.156273 0.284230
Si Si7 0.861374 0.334669 0.541328
Si Si8 0.430545 0.662566 0.297981
O O1 0.671398 0.251200 0.089988
O O2 0.703625 0.000000 0.034833
O O3 0.692978 0.227628 0.943028
O O4 0.788875 0.202992 0.039373
O O5 0.362436 0.500000 0.943878
O O6 0.310336 0.376101 0.819585
O O7 0.414692 0.269762 0.873231
O O8 0.255833 0.766809 0.710615
O O9 0.382829 0.814603 0.723983
O O10 0.304404 0.000000 0.658449
O O11 0.092985 0.795754 0.780655
O O12 0.107768 0.754745 0.614660
O O13 0.000000 0.781519 0.682207
O O14 0.077752 0.000000 0.671063
O O15 0.158883 0.500000 0.354502
O O16 0.197159 0.769838 0.348903
O O17 0.110498 0.698447 0.449100
O O18 0.783885 0.000000 0.254301
O O19 0.872895 0.500000 0.562833
O O20 0.500000 0.696337 0.266737
O O21 0.425613 0.500000 0.330946
#
# Coordination Sequence:
#
# PCOD8178303 Si02
#       8
#     8   8   8   8   8   8   8   8
#     4  11  21  35  55  83 116 144 184 236 289 348
#     4  10  20  33  53  81 112 145 179 223 280 339
#     4  10  20  33  53  79 110 147 184 228 287 346
#     4  10  23  41  59  82 114 152 196 243 291 349
#     4  10  20  37  60  84 111 151 195 237 290 352
#     4  10  19  32  52  81 112 140 178 225 278 340
#     4  10  22  38  60  88 117 152 195 242 296 353
#     4   9  19  37  58  78 104 144 191 234 277 332
#
# _framework density 19.527929
#
# number of rings (size 3 to 8) (size 9 to 14) (size 15 to 20)
#    0.000    2.000    1.250    2.250    0.000    6.500 
#    0.000    1.875    0.000    2.250    0.000    0.000 
#    0.000    0.000    0.000    0.000    0.000    0.000 
#
# Total GULP energy -396424.844935 kJ/mol
# GULP energy per Si atom -12388.276404 kJ/mol
# Density = 1.948348 g / cm^3
# Si number density = 19.527929 Si / 1000 Ang^3
#
#
#
# Elastic Constant Matrix: (Units=GPa)
#
#
# Indices 1 2 3 4 5 6 
#
# 1 84.3558 56.1928 46.3221 0.0000 0.0000 0.0000
# 2 56.1928 122.5883 58.2567 0.0000 0.0000 0.0000
# 3 46.3221 58.2567 106.3238 0.0000 0.0000 0.0000
# 4 0.0000 0.0000 0.0000 32.9583 0.0000 0.0000
# 5 0.0000 0.0000 0.0000 0.0000 16.0709 0.0000
# 6 0.0000 0.0000 0.0000 0.0000 0.0000 23.5059
#
#
#
# Elastic Compliance Matrix: (Units=1/GPa)
#
#
# Indices 1 2 3 4 5 6 
#
# 1 0.018621 -0.006328 -0.004645 0.000000 0.000000 0.000000
# 2 -0.006328 0.013180 -0.004464 0.000000 0.000000 0.000000
# 3 -0.004645 -0.004464 0.013875 0.000000 0.000000 0.000000
# 4 0.000000 0.000000 0.000000 0.030341 0.000000 0.000000
# 5 0.000000 0.000000 0.000000 0.000000 0.062224 0.000000
# 6 0.000000 0.000000 0.000000 0.000000 0.000000 0.042542
#
#
# Mechanical properties :
#
#
# Convention : Reuss Voigt Hill
#
# Bulk Modulus (GPa) = 67.56683 70.53457 69.05070
# Shear Modulus (GPa) = 23.08484 24.67344 23.87914
#
# Velocity S-wave (km/s) = 3.44196 3.55842 3.50068
# Velocity P-wave (km/s) = 7.10432 7.28570 7.19558
#
# Compressibility (1/GPa) = 0.01480016
#
# Stress axis : x y z
#
# Youngs Moduli (GPa) = 53.70364 75.87458 72.07093
#
# Poissons Ratio (x) = 0.48013 0.33479
# Poissons Ratio (y) = 0.33983 0.32176
# Poissons Ratio (z) = 0.24947 0.33874
#
# Static dielectric constant tensor:
#      x y z
#    x 3.377750 0.000000 0.000000 
#    y 0.000000 3.880490 0.000000 
#    z 0.000000 0.000000 3.647070 
# 
# 
# High freq. dielectric constant tensor:
#      x y z
#    x 1.735600 0.000000 0.000000 
#    y 0.000000 1.772250 0.000000 
#    z 0.000000 0.000000 1.759290 
# 
# From -- ./inp_files/18852.got.cif
#   From: 2010.03.12/outbox.cif.g09.slc.cpg/sg38_10_cif.got.tgz:18852.got - 2010.04.14 02:38:36.
