data_PCOD8178956
_publ_section_title
;
Structure prediction by ZEFSAII (Michael W. Deem and Ramdas Pophale) SiO2 
 PCOD8178956
Probable space group: A M M 2
;
_chemical_formula_sum "Si O2"
_cell_formula_units_Z 64
_cell_length_a 8.880222
_cell_length_b 14.427374
_cell_length_c 28.207187
_cell_angle_alpha 90.000000
_cell_angle_beta 90.000000
_cell_angle_gamma 90.000000
_cell_volume 3613.856395
_symmetry_space_group_name_H-M "A M M 2"
_symmetry_group_IT_number 38
_symmetry_cell_setting 'orthorhombic'
loop_
_space_group_symop_operation_xyz
x,y,z
-x,-y,z
-x,y,z
x,-y,z
x,1/2+y,1/2+z
-x,1/2-y,1/2+z
-x,1/2+y,1/2+z
x,1/2-y,1/2+z
loop_
_atom_site_type_symbol
_atom_site_label
_atom_site_fract_x
_atom_site_fract_y
_atom_site_fract_z
Si Si1 0.825689 0.392356 0.540150
Si Si2 0.176478 0.394052 0.088236
Si Si3 0.321534 0.397729 0.711188
Si Si4 0.821693 0.771402 0.397027
Si Si5 0.178271 0.602111 0.981570
Si Si6 0.321752 0.720872 0.624184
Si Si7 0.676213 0.106017 0.940598
Si Si8 0.675598 0.892404 0.317857
O O1 0.801987 0.500000 0.551901
O O2 0.744011 0.334154 0.580075
O O3 0.756083 0.366818 0.489598
O O4 0.000000 0.364043 0.538679
O O5 0.221583 0.500000 0.099267
O O6 0.266898 0.327218 0.123614
O O7 0.000000 0.379219 0.095882
O O8 0.223849 0.366826 0.034532
O O9 0.500000 0.402942 0.708796
O O10 0.255908 0.500000 0.699355
O O11 0.259596 0.324612 0.672822
O O12 0.274233 0.368328 0.764185
O O13 0.758519 0.826964 0.442808
O O14 0.743957 0.670404 0.398942
O O15 0.775028 0.826003 0.350215
O O16 0.000000 0.759430 0.397692
O O17 0.245759 0.500000 0.970989
O O18 0.000000 0.596446 0.977935
O O19 0.500000 0.716626 0.621709
O O20 0.500000 0.123353 0.946334
O O21 0.711314 0.000000 0.926625
O O22 0.500000 0.871331 0.326003
O O23 0.710417 0.000000 0.329201
#
# Coordination Sequence:
#
# PCOD8178956 Si02
#       8
#     8   8   8   8   8   8   8   8
#     4  10  20  33  49  72 104 138 169 202 244 296
#     4   9  18  33  50  67  94 134 172 203 240 290
#     4   8  16  32  52  73  98 129 164 203 249 298
#     4  11  20  30  50  77 103 130 161 201 249 301
#     4   8  15  28  45  66  94 128 161 189 224 278
#     4  11  20  30  50  76 100 129 168 212 253 297
#     4  10  21  36  52  71  98 133 173 213 247 284
#     4   9  18  34  54  74  99 131 166 205 248 296
#
# _framework density 17.709613999999998
#
# number of rings (size 3 to 8) (size 9 to 14) (size 15 to 20)
#    0.000    2.500    0.000    4.500    0.000    4.000 
#    0.000    1.875    0.000    3.750    0.000    1.750 
#    0.000    0.000    0.000    0.000    0.000    0.000 
#
# Total GULP energy -396768.346784 kJ/mol
# GULP energy per Si atom -12399.010837 kJ/mol
# Density = 1.766931 g / cm^3
# Si number density = 17.709614 Si / 1000 Ang^3
#
#
#
# Elastic Constant Matrix: (Units=GPa)
#
#
# Indices 1 2 3 4 5 6 
#
# 1 61.3659 45.7874 34.8649 0.0000 0.0000 0.0000
# 2 45.7874 112.9438 77.4597 0.0000 0.0000 0.0000
# 3 34.8649 77.4597 97.7911 0.0000 0.0000 0.0000
# 4 0.0000 0.0000 0.0000 29.1425 0.0000 0.0000
# 5 0.0000 0.0000 0.0000 0.0000 17.6888 0.0000
# 6 0.0000 0.0000 0.0000 0.0000 0.0000 29.8371
#
#
#
# Elastic Compliance Matrix: (Units=1/GPa)
#
#
# Indices 1 2 3 4 5 6 
#
# 1 0.023510 -0.008281 -0.001823 0.000000 0.000000 0.000000
# 2 -0.008281 0.022301 -0.014712 0.000000 0.000000 0.000000
# 3 -0.001823 -0.014712 0.022529 0.000000 0.000000 0.000000
# 4 0.000000 0.000000 0.000000 0.034314 0.000000 0.000000
# 5 0.000000 0.000000 0.000000 0.000000 0.056533 0.000000
# 6 0.000000 0.000000 0.000000 0.000000 0.000000 0.033515
#
#
# Mechanical properties :
#
#
# Convention : Reuss Voigt Hill
#
# Bulk Modulus (GPa) = 53.45109 65.36940 59.41025
# Shear Modulus (GPa) = 20.11504 22.93291 21.52398
#
# Velocity S-wave (km/s) = 3.37386 3.60243 3.49002
# Velocity P-wave (km/s) = 6.73979 7.36854 7.06116
#
# Compressibility (1/GPa) = 0.01870869
#
# Stress axis : x y z
#
# Youngs Moduli (GPa) = 42.53524 44.84095 44.38705
#
# Poissons Ratio (x) = 0.37133 0.08090
# Poissons Ratio (y) = 0.35223 0.65303
# Poissons Ratio (z) = 0.07752 0.65971
#
# Static dielectric constant tensor:
#      x y z
#    x 3.064610 0.000000 0.000000 
#    y 0.000000 3.519690 0.000000 
#    z 0.000000 0.000000 3.290800 
# 
# 
# High freq. dielectric constant tensor:
#      x y z
#    x 1.669270 0.000000 0.000000 
#    y 0.000000 1.691090 0.000000 
#    z 0.000000 0.000000 1.666480 
# 
# From -- ./inp_files/24706.got.cif
#   From: 2010.03.12/outbox.cif.g09.slc.cpg/sg38_13_cif.got.tgz:24706.got - 2010.04.14 02:38:36.
