data_PCOD8178665
_publ_section_title
;
Structure prediction by ZEFSAII (Michael W. Deem and Ramdas Pophale) SiO2 
 PCOD8178665
Probable space group: A M M 2
;
_chemical_formula_sum "Si O2"
_cell_formula_units_Z 64
_cell_length_a 8.682731
_cell_length_b 20.596634
_cell_length_c 19.560755
_cell_angle_alpha 90.000000
_cell_angle_beta 90.000000
_cell_angle_gamma 90.000000
_cell_volume 3498.148257
_symmetry_space_group_name_H-M "A M M 2"
_symmetry_group_IT_number 38
_symmetry_cell_setting 'orthorhombic'
loop_
_space_group_symop_operation_xyz
x,y,z
-x,-y,z
-x,y,z
x,-y,z
x,1/2+y,1/2+z
-x,1/2-y,1/2+z
-x,1/2+y,1/2+z
x,1/2-y,1/2+z
loop_
_atom_site_type_symbol
_atom_site_label
_atom_site_fract_x
_atom_site_fract_y
_atom_site_fract_z
Si Si1 0.821004 0.237862 0.432770
Si Si2 0.819842 0.870357 0.789939
Si Si3 0.323442 0.927000 0.661076
Si Si4 0.178000 0.683436 0.076885
Si Si5 0.681136 0.770084 0.293226
Si Si6 0.176683 0.572813 0.561071
Si Si7 0.181412 0.187743 0.157922
Si Si8 0.679994 0.623344 0.429554
O O1 0.792876 0.189581 0.495877
O O2 0.761973 0.204558 0.362892
O O3 0.727346 0.303319 0.447069
O O4 0.000000 0.256328 0.426173
O O5 0.779365 0.918534 0.728653
O O6 0.731259 0.803197 0.777093
O O7 0.767660 0.901701 0.861691
O O8 0.000000 0.855740 0.790732
O O9 0.500000 0.914445 0.680903
O O10 0.275834 0.877662 0.601571
O O11 0.297995 0.000000 0.633564
O O12 0.232012 0.748905 0.115114
O O13 0.000000 0.670219 0.093478
O O14 0.500000 0.773874 0.303395
O O15 0.732650 0.815048 0.230424
O O16 0.194453 0.500000 0.590583
O O17 0.236295 0.623737 0.617362
O O18 0.276097 0.577462 0.492349
O O19 0.000000 0.589021 0.542519
O O20 0.000000 0.187326 0.170997
O O21 0.500000 0.619500 0.415195
#
# Coordination Sequence:
#
# PCOD8178665 Si02
#       8
#     8   8   8   8   8   8   8   8
#     4  10  19  35  57  82 111 142 181 228 271 318
#     4  11  21  35  55  77 107 147 188 227 265 317
#     4  11  24  39  55  79 112 146 181 225 275 327
#     4  10  20  35  59  84 108 142 183 228 272 319
#     4  11  21  33  53  84 114 143 179 223 277 328
#     4  10  21  38  58  79 108 147 188 227 269 321
#     4  10  19  35  57  83 110 142 184 228 272 318
#     4  11  21  33  52  79 113 148 182 223 270 324
#
# _framework density 18.295393000000001
#
# number of rings (size 3 to 8) (size 9 to 14) (size 15 to 20)
#    0.000    1.500    2.500    5.625    0.000    3.250 
#    0.000    0.000    0.000    0.750    0.000    1.750 
#    0.000    0.000    0.000    0.000    0.000    0.000 
#
# Total GULP energy -396906.756582 kJ/mol
# GULP energy per Si atom -12403.336143 kJ/mol
# Density = 1.825375 g / cm^3
# Si number density = 18.295393 Si / 1000 Ang^3
#
#
#
# Elastic Constant Matrix: (Units=GPa)
#
#
# Indices 1 2 3 4 5 6 
#
# 1 65.4068 24.8741 38.0455 0.0000 0.0000 0.0000
# 2 24.8741 91.7806 54.4529 0.0000 0.0000 0.0000
# 3 38.0455 54.4529 126.2015 0.0000 0.0000 0.0000
# 4 0.0000 0.0000 0.0000 24.8564 0.0000 0.0000
# 5 0.0000 0.0000 0.0000 0.0000 22.7111 0.0000
# 6 0.0000 0.0000 0.0000 0.0000 0.0000 20.7362
#
#
#
# Elastic Compliance Matrix: (Units=1/GPa)
#
#
# Indices 1 2 3 4 5 6 
#
# 1 0.018907 -0.002342 -0.004689 0.000000 0.000000 0.000000
# 2 -0.002342 0.014934 -0.005738 0.000000 0.000000 0.000000
# 3 -0.004689 -0.005738 0.011813 0.000000 0.000000 0.000000
# 4 0.000000 0.000000 0.000000 0.040231 0.000000 0.000000
# 5 0.000000 0.000000 0.000000 0.000000 0.044031 0.000000
# 6 0.000000 0.000000 0.000000 0.000000 0.000000 0.048225
#
#
# Mechanical properties :
#
#
# Convention : Reuss Voigt Hill
#
# Bulk Modulus (GPa) = 49.71022 57.57042 53.64032
# Shear Modulus (GPa) = 23.76579 24.72849 24.24714
#
# Velocity S-wave (km/s) = 3.60808 3.68043 3.64444
# Velocity P-wave (km/s) = 6.67739 7.04246 6.86235
#
# Compressibility (1/GPa) = 0.02011659
#
# Stress axis : x y z
#
# Youngs Moduli (GPa) = 52.88961 66.95909 84.65066
#
# Poissons Ratio (x) = 0.15682 0.39696
# Poissons Ratio (y) = 0.12387 0.48571
# Poissons Ratio (z) = 0.24802 0.38420
#
# Static dielectric constant tensor:
#      x y z
#    x 3.396550 0.000000 0.000000 
#    y 0.000000 3.125300 0.000000 
#    z 0.000000 0.000000 3.539210 
# 
# 
# High freq. dielectric constant tensor:
#      x y z
#    x 1.715840 0.000000 0.000000 
#    y 0.000000 1.676800 0.000000 
#    z 0.000000 0.000000 1.714730 
# 
# From -- ./inp_files/20087.got.cif
#   From: 2010.03.12/outbox.cif.g09.slc.cpg/sg38_11_cif.got.tgz:20087.got - 2010.04.14 02:38:36.
