data_PCOD8178814
_publ_section_title
;
Structure prediction by ZEFSAII (Michael W. Deem and Ramdas Pophale) SiO2 
 PCOD8178814
Probable space group: A M M 2
;
_chemical_formula_sum "Si O2"
_cell_formula_units_Z 48
_cell_length_a 9.174543
_cell_length_b 7.959410
_cell_length_c 34.496571
_cell_angle_alpha 90.000000
_cell_angle_beta 90.000000
_cell_angle_gamma 90.000000
_cell_volume 2519.075852
_symmetry_space_group_name_H-M "A M M 2"
_symmetry_group_IT_number 38
_symmetry_cell_setting 'orthorhombic'
loop_
_space_group_symop_operation_xyz
x,y,z
-x,-y,z
-x,y,z
x,-y,z
x,1/2+y,1/2+z
-x,1/2-y,1/2+z
-x,1/2+y,1/2+z
x,1/2-y,1/2+z
loop_
_atom_site_type_symbol
_atom_site_label
_atom_site_fract_x
_atom_site_fract_y
_atom_site_fract_z
Si Si1 0.174216 0.500000 0.684000
Si Si2 0.827256 0.000000 0.271074
Si Si3 0.826608 0.685529 0.135058
Si Si4 0.665631 0.695763 0.402018
Si Si5 0.166995 0.691624 0.555073
Si Si6 0.171657 0.191872 0.823513
Si Si7 0.838238 0.807606 0.474978
O O1 0.236463 0.500000 0.727663
O O2 0.235153 0.668516 0.663093
O O3 0.000000 0.500000 0.684031
O O4 0.773945 0.827942 0.291900
O O5 0.000000 0.000000 0.269926
O O6 0.781753 0.500000 0.150649
O O7 0.764027 0.705792 0.091173
O O8 0.000000 0.704835 0.133301
O O9 0.500000 0.756910 0.397133
O O10 0.675289 0.500000 0.410605
O O11 0.751430 0.743326 0.363280
O O12 0.736300 0.789189 0.438043
O O13 0.182623 0.500000 0.567511
O O14 0.239314 0.724050 0.512924
O O15 0.000000 0.746900 0.549562
O O16 0.000000 0.206293 0.830363
O O17 0.213175 0.000000 0.810770
O O18 0.000000 0.729759 0.466497
O O19 0.854940 0.000000 0.485338
#
# Coordination Sequence:
#
# PCOD8178814 Si02
#       7
#     4   4   8   8   8   8   8
#     4   9  16  26  38  61  93 125 161 201 247 295
#     4   9  18  30  47  69  95 127 169 211 249 303
#     4   9  15  23  37  58  89 128 164 198 239 291
#     4  10  21  36  52  71  97 128 165 210 259 307
#     4   9  15  25  41  61  90 128 169 206 241 285
#     4   9  18  33  52  72  97 131 168 207 251 302
#     4  10  20  31  46  71 100 131 169 210 250 297
#
# _framework density 19.054606
#
# number of rings (size 3 to 8) (size 9 to 14) (size 15 to 20)
#    0.000    2.667    0.833    1.500    1.167    4.667 
#    0.000    3.333    0.000    0.000    0.000    0.000 
#    0.000    2.667    0.000    4.667    0.000    4.833 
#
# Total GULP energy -297445.742155 kJ/mol
# GULP energy per Si atom -12393.572590 kJ/mol
# Density = 1.901124 g / cm^3
# Si number density = 19.054606 Si / 1000 Ang^3
#
#
#
# Elastic Constant Matrix: (Units=GPa)
#
#
# Indices 1 2 3 4 5 6 
#
# 1 29.2691 17.2382 25.1584 0.0000 0.0000 0.0000
# 2 17.2382 121.5032 78.7555 0.0000 0.0000 0.0000
# 3 25.1584 78.7555 160.6675 0.0000 0.0000 0.0000
# 4 0.0000 0.0000 0.0000 32.5820 0.0000 0.0000
# 5 0.0000 0.0000 0.0000 0.0000 -1.8030 0.0000
# 6 0.0000 0.0000 0.0000 0.0000 0.0000 9.9660
#
#
#
# Elastic Compliance Matrix: (Units=1/GPa)
#
#
# Indices 1 2 3 4 5 6 
#
# 1 0.039937 -0.002364 -0.005095 0.000000 0.000000 0.000000
# 2 -0.002364 0.012203 -0.005611 0.000000 0.000000 0.000000
# 3 -0.005095 -0.005611 0.009772 0.000000 0.000000 0.000000
# 4 0.000000 0.000000 0.000000 0.030692 0.000000 0.000000
# 5 0.000000 0.000000 0.000000 0.000000 -0.554619 0.000000
# 6 0.000000 0.000000 0.000000 0.000000 0.000000 0.100341
#
#
# Mechanical properties :
#
#
# Convention : Reuss Voigt Hill
#
# Bulk Modulus (GPa) = 27.95451 61.52710 44.74081
# Shear Modulus (GPa) = -15.45070 20.83486 2.69208
#
# Velocity S-wave (km/s) = -2.85066 3.31029 1.18991
# Velocity P-wave (km/s) = 1.96662 6.85352 5.04174
#
# Compressibility (1/GPa) = 0.03577240
#
# Stress axis : x y z
#
# Youngs Moduli (GPa) = 25.03924 81.94885 102.32863
#
# Poissons Ratio (x) = 0.19369 0.52137
# Poissons Ratio (y) = 0.05918 0.57421
# Poissons Ratio (z) = 0.12758 0.45985
#
# Static dielectric constant tensor:
#      x y z
#    x 2.902320 0.000000 0.000000 
#    y 0.000000 3.622220 0.000000 
#    z 0.000000 0.000000 3.615430 
# 
# 
# High freq. dielectric constant tensor:
#      x y z
#    x 1.665080 0.000000 0.000000 
#    y 0.000000 1.753660 0.000000 
#    z 0.000000 0.000000 1.747080 
# 
# From -- ./inp_files/24351.got.cif
#   From: 2010.03.12/outbox.cif.g09.slc.cpg/sg38_13_cif.got.tgz:24351.got - 2010.04.14 02:38:36.
