data_PCOD8178538
_publ_section_title
;
Structure prediction by ZEFSAII (Michael W. Deem and Ramdas Pophale) SiO2 
 PCOD8178538
Probable space group: A M M 2
;
_chemical_formula_sum "Si O2"
_cell_formula_units_Z 40
_cell_length_a 16.562067
_cell_length_b 8.634551
_cell_length_c 14.580055
_cell_angle_alpha 90.000000
_cell_angle_beta 90.000000
_cell_angle_gamma 90.000000
_cell_volume 2085.035523
_symmetry_space_group_name_H-M "A M M 2"
_symmetry_group_IT_number 38
_symmetry_cell_setting 'orthorhombic'
loop_
_space_group_symop_operation_xyz
x,y,z
-x,-y,z
-x,y,z
x,-y,z
x,1/2+y,1/2+z
-x,1/2-y,1/2+z
-x,1/2+y,1/2+z
x,1/2-y,1/2+z
loop_
_atom_site_type_symbol
_atom_site_label
_atom_site_fract_x
_atom_site_fract_y
_atom_site_fract_z
Si Si1 0.907304 0.678211 0.401660
Si Si2 0.500000 0.683316 0.403274
Si Si3 0.621217 0.682460 0.043479
Si Si4 0.908690 0.823123 0.211135
Si Si5 0.805941 0.820225 0.554610
Si Si6 0.500000 0.182602 0.696583
O O1 0.887332 0.500000 0.423499
O O2 0.890105 0.710326 0.295396
O O3 0.849588 0.790345 0.458535
O O4 0.000000 0.717121 0.425885
O O5 0.500000 0.500000 0.399839
O O6 0.419777 0.738876 0.455440
O O7 0.500000 0.753835 0.299309
O O8 0.611278 0.500000 0.030320
O O9 0.713718 0.734292 0.047038
O O10 0.578660 0.736322 0.138457
O O11 0.847632 0.784319 0.130707
O O12 0.000000 0.797052 0.175195
O O13 0.896189 0.000000 0.242450
O O14 0.812538 0.000000 0.581054
O O15 0.500000 0.000000 0.706925
#
# Coordination Sequence:
#
# PCOD8178538 Si02
#       6
#     8   4   8   8   8   4
#     4  10  21  37  56  78 107 146 189 231 276 325
#     4  10  19  33  58  85 104 133 177 222 266 314
#     4   9  20  38  55  76 109 144 175 212 264 326
#     4  10  21  37  56  79 109 145 185 230 278 327
#     4  11  22  35  55  82 111 146 185 226 274 325
#     4   8  16  35  58  75 100 137 171 206 256 316
#
# _framework density 19.184324
#
# number of rings (size 3 to 8) (size 9 to 14) (size 15 to 20)
#    0.000    2.200    0.000    3.300    0.000    8.000 
#    0.000    6.000    0.000    0.000    0.000    0.000 
#    0.000    0.000    0.000    0.000    0.000    0.000 
#
# Total GULP energy -248039.521756 kJ/mol
# GULP energy per Si atom -12401.976088 kJ/mol
# Density = 1.914066 g / cm^3
# Si number density = 19.184324 Si / 1000 Ang^3
#
#
#
# Elastic Constant Matrix: (Units=GPa)
#
#
# Indices 1 2 3 4 5 6 
#
# 1 143.6857 35.6093 72.9362 0.0000 0.0000 0.0000
# 2 35.6093 47.3992 25.4756 0.0000 0.0000 0.0000
# 3 72.9362 25.4756 133.2043 0.0000 0.0000 0.0000
# 4 0.0000 0.0000 0.0000 32.8802 0.0000 0.0000
# 5 0.0000 0.0000 0.0000 0.0000 60.2383 0.0000
# 6 0.0000 0.0000 0.0000 0.0000 0.0000 29.0232
#
#
#
# Elastic Compliance Matrix: (Units=1/GPa)
#
#
# Indices 1 2 3 4 5 6 
#
# 1 0.010785 -0.005493 -0.004855 0.000000 0.000000 0.000000
# 2 -0.005493 0.026312 -0.002024 0.000000 0.000000 0.000000
# 3 -0.004855 -0.002024 0.010553 0.000000 0.000000 0.000000
# 4 0.000000 0.000000 0.000000 0.030413 0.000000 0.000000
# 5 0.000000 0.000000 0.000000 0.000000 0.016601 0.000000
# 6 0.000000 0.000000 0.000000 0.000000 0.000000 0.034455
#
#
# Mechanical properties :
#
#
# Convention : Reuss Voigt Hill
#
# Bulk Modulus (GPa) = 43.65820 65.81461 54.73641
# Shear Modulus (GPa) = 30.95961 37.11286 34.03624
#
# Velocity S-wave (km/s) = 4.02157 4.40311 4.21666
# Velocity P-wave (km/s) = 6.66113 7.76085 7.23192
#
# Compressibility (1/GPa) = 0.02290520
#
# Stress axis : x y z
#
# Youngs Moduli (GPa) = 92.71723 38.00481 94.76157
#
# Poissons Ratio (x) = 0.20877 0.46007
# Poissons Ratio (y) = 0.50933 0.19184
# Poissons Ratio (z) = 0.45014 0.07694
#
# Static dielectric constant tensor:
#      x y z
#    x 3.489210 0.000000 0.000000 
#    y 0.000000 3.433750 0.000000 
#    z 0.000000 0.000000 3.571790 
# 
# 
# High freq. dielectric constant tensor:
#      x y z
#    x 1.744580 0.000000 0.000000 
#    y 0.000000 1.741180 0.000000 
#    z 0.000000 0.000000 1.750940 
# 
# From -- ./inp_files/14276.got.cif
#   From: 2010.03.12/outbox.cif.g09.slc.cpg/sg38_8_cif.got.tgz:14276.got - 2010.04.14 02:38:36.
