data_PCOD8178705
_publ_section_title
;
Structure prediction by ZEFSAII (Michael W. Deem and Ramdas Pophale) SiO2 
 PCOD8178705
Probable space group: A M M 2
;
_chemical_formula_sum "Si O2"
_cell_formula_units_Z 64
_cell_length_a 23.968119
_cell_length_b 8.533595
_cell_length_c 15.471074
_cell_angle_alpha 90.000000
_cell_angle_beta 90.000000
_cell_angle_gamma 90.000000
_cell_volume 3164.364060
_symmetry_space_group_name_H-M "A M M 2"
_symmetry_group_IT_number 38
_symmetry_cell_setting 'orthorhombic'
loop_
_space_group_symop_operation_xyz
x,y,z
-x,-y,z
-x,y,z
x,-y,z
x,1/2+y,1/2+z
-x,1/2-y,1/2+z
-x,1/2+y,1/2+z
x,1/2-y,1/2+z
loop_
_atom_site_type_symbol
_atom_site_label
_atom_site_fract_x
_atom_site_fract_y
_atom_site_fract_z
Si Si1 0.741676 0.317234 0.702310
Si Si2 0.248816 0.680727 0.501329
Si Si3 0.133124 0.817736 0.451870
Si Si4 0.629767 0.816773 0.766821
Si Si5 0.137745 0.185654 0.257980
Si Si6 0.362014 0.816140 0.444438
Si Si7 0.437399 0.313593 0.101352
Si Si8 0.062277 0.315096 0.604171
O O1 0.732615 0.500000 0.724074
O O2 0.739204 0.284718 0.600891
O O3 0.694327 0.215936 0.747692
O O4 0.800119 0.252089 0.738960
O O5 0.233471 0.500000 0.485751
O O6 0.197792 0.785962 0.469773
O O7 0.303146 0.727144 0.447417
O O8 0.118567 0.764469 0.353892
O O9 0.093528 0.722383 0.515443
O O10 0.120992 0.000000 0.464853
O O11 0.610230 0.724506 0.852447
O O12 0.591998 0.752139 0.688412
O O13 0.620419 0.000000 0.781318
O O14 0.095322 0.256569 0.186638
O O15 0.139280 0.000000 0.248218
O O16 0.402834 0.751560 0.519039
O O17 0.351607 0.000000 0.454826
O O18 0.500000 0.245304 0.096880
O O19 0.438457 0.500000 0.100452
O O20 0.059166 0.500000 0.613738
O O21 0.000000 0.242942 0.602632
#
# Coordination Sequence:
#
# PCOD8178705 Si02
#       8
#     8   8   8   8   8   8   8   8
#     4  10  19  35  60  85 116 151 189 237 290 350
#     4  11  21  36  61  89 119 153 192 237 290 351
#     4  11  22  36  60  90 120 150 188 239 293 349
#     4  11  22  37  59  88 118 151 194 239 292 351
#     4   9  19  37  58  83 111 149 191 229 281 342
#     4  11  22  38  60  87 119 155 195 238 292 351
#     4   9  20  39  60  82 114 156 199 245 294 344
#     4  10  21  40  62  81 110 155 201 242 289 344
#
# _framework density 20.225231999999998
#
# number of rings (size 3 to 8) (size 9 to 14) (size 15 to 20)
#    0.000    1.750    2.500    2.250    0.000    2.750 
#    0.000    3.125    0.000    5.250    0.000    0.000 
#    0.000    0.000    0.000    0.000    0.000    0.000 
#
# Total GULP energy -396903.059281 kJ/mol
# GULP energy per Si atom -12403.220603 kJ/mol
# Density = 2.017920 g / cm^3
# Si number density = 20.225232 Si / 1000 Ang^3
#
#
#
# Elastic Constant Matrix: (Units=GPa)
#
#
# Indices 1 2 3 4 5 6 
#
# 1 145.6824 4.6789 63.4894 0.0000 0.0000 0.0000
# 2 4.6789 23.5378 17.3923 0.0000 0.0000 0.0000
# 3 63.4894 17.3923 147.9864 0.0000 0.0000 0.0000
# 4 0.0000 0.0000 0.0000 26.9682 0.0000 0.0000
# 5 0.0000 0.0000 0.0000 0.0000 12.7770 0.0000
# 6 0.0000 0.0000 0.0000 0.0000 0.0000 21.0740
#
#
#
# Elastic Compliance Matrix: (Units=1/GPa)
#
#
# Indices 1 2 3 4 5 6 
#
# 1 0.008469 0.001096 -0.003762 0.000000 0.000000 0.000000
# 2 0.001096 0.046667 -0.005955 0.000000 0.000000 0.000000
# 3 -0.003762 -0.005955 0.009071 0.000000 0.000000 0.000000
# 4 0.000000 0.000000 0.000000 0.037081 0.000000 0.000000
# 5 0.000000 0.000000 0.000000 0.000000 0.078265 0.000000
# 6 0.000000 0.000000 0.000000 0.000000 0.000000 0.047452
#
#
# Mechanical properties :
#
#
# Convention : Reuss Voigt Hill
#
# Bulk Modulus (GPa) = 21.29214 54.25863 37.77538
# Shear Modulus (GPa) = 19.23806 27.60691 23.42248
#
# Velocity S-wave (km/s) = 3.08748 3.69856 3.40675
# Velocity P-wave (km/s) = 4.82291 6.71748 5.84744
#
# Compressibility (1/GPa) = 0.04696569
#
# Stress axis : x y z
#
# Youngs Moduli (GPa) = 118.08372 21.42834 110.23827
#
# Poissons Ratio (x) = -0.02349 0.41472
# Poissons Ratio (y) = -0.12947 0.65647
# Poissons Ratio (z) = 0.44424 0.12761
#
# Static dielectric constant tensor:
#      x y z
#    x 3.788280 0.000000 0.000000 
#    y 0.000000 3.324210 0.000000 
#    z 0.000000 0.000000 3.931630 
# 
# 
# High freq. dielectric constant tensor:
#      x y z
#    x 1.786600 0.000000 0.000000 
#    y 0.000000 1.761360 0.000000 
#    z 0.000000 0.000000 1.808550 
# 
# From -- ./inp_files/15820.got.cif
#   From: 2010.03.12/outbox.cif.g09.slc.cpg/sg38_8_cif.got.tgz:15820.got - 2010.04.14 02:38:36.
