data_PCOD8178470
_publ_section_title
;
Structure prediction by ZEFSAII (Michael W. Deem and Ramdas Pophale) SiO2 
 PCOD8178470
Probable space group: A M M 2
;
_chemical_formula_sum "Si O2"
_cell_formula_units_Z 56
_cell_length_a 8.907263
_cell_length_b 23.377510
_cell_length_c 13.996477
_cell_angle_alpha 90.000000
_cell_angle_beta 90.000000
_cell_angle_gamma 90.000000
_cell_volume 2914.481225
_symmetry_space_group_name_H-M "A M M 2"
_symmetry_group_IT_number 38
_symmetry_cell_setting 'orthorhombic'
loop_
_space_group_symop_operation_xyz
x,y,z
-x,-y,z
-x,y,z
x,-y,z
x,1/2+y,1/2+z
-x,1/2-y,1/2+z
-x,1/2+y,1/2+z
x,1/2-y,1/2+z
loop_
_atom_site_type_symbol
_atom_site_label
_atom_site_fract_x
_atom_site_fract_y
_atom_site_fract_z
Si Si1 0.178747 0.109965 0.267250
Si Si2 0.178264 0.500000 0.434883
Si Si3 0.321861 0.662986 0.936641
Si Si4 0.327877 0.834392 0.651602
Si Si5 0.821768 0.500000 0.652122
Si Si6 0.171700 0.780067 0.156253
Si Si7 0.674353 0.108940 0.840943
Si Si8 0.174628 0.782099 0.932931
O O1 0.256988 0.111725 0.371341
O O2 0.238534 0.165010 0.209648
O O3 0.000000 0.108143 0.279063
O O4 0.237434 0.055186 0.208957
O O5 0.240687 0.500000 0.543561
O O6 0.233825 0.444387 0.379562
O O7 0.000000 0.500000 0.434407
O O8 0.500000 0.667773 0.926282
O O9 0.244755 0.721712 0.900769
O O10 0.271227 0.648641 0.045560
O O11 0.500000 0.816947 0.644856
O O12 0.247143 0.778081 0.692350
O O13 0.302285 0.886464 0.725794
O O14 0.000000 0.500000 0.647330
O O15 0.000000 0.773604 0.183858
O O16 0.196674 0.789994 0.045023
O O17 0.500000 0.100966 0.866683
O O18 0.734122 0.167058 0.885747
O O19 0.000000 0.784089 0.903173
#
# Coordination Sequence:
#
# PCOD8178470 Si02
#       8
#     8   4   8   8   4   8   8   8
#     4  10  19  34  55  78 104 140 179 219 267 319
#     4  11  23  41  62  83 106 138 177 219 264 317
#     4  10  20  35  53  78 110 143 178 221 268 318
#     4   9  20  36  53  74 106 143 176 212 264 319
#     4   9  20  39  60  79 106 140 177 219 266 317
#     4   9  18  31  51  79 110 140 175 217 266 319
#     4  11  22  37  56  80 109 144 181 221 267 316
#     4  10  19  33  54  82 112 144 179 219 266 320
#
# _framework density 19.214396000000001
#
# number of rings (size 3 to 8) (size 9 to 14) (size 15 to 20)
#    0.000    2.143    0.000    3.214    0.000    7.429 
#    0.000    3.929    0.000    2.571    0.000    0.000 
#    0.000    0.000    0.000    0.000    0.000    0.000 
#
# Total GULP energy -347204.169978 kJ/mol
# GULP energy per Si atom -12400.148928 kJ/mol
# Density = 1.917066 g / cm^3
# Si number density = 19.214396 Si / 1000 Ang^3
#
#
#
# Elastic Constant Matrix: (Units=GPa)
#
#
# Indices 1 2 3 4 5 6 
#
# 1 64.2793 37.2914 38.7571 0.0000 0.0000 0.0000
# 2 37.2914 112.1352 86.3083 0.0000 0.0000 0.0000
# 3 38.7571 86.3083 102.7770 0.0000 0.0000 0.0000
# 4 0.0000 0.0000 0.0000 32.6744 0.0000 0.0000
# 5 0.0000 0.0000 0.0000 0.0000 28.3864 0.0000
# 6 0.0000 0.0000 0.0000 0.0000 0.0000 21.5818
#
#
#
# Elastic Compliance Matrix: (Units=1/GPa)
#
#
# Indices 1 2 3 4 5 6 
#
# 1 0.020368 -0.002437 -0.005634 0.000000 0.000000 0.000000
# 2 -0.002437 0.025508 -0.020502 0.000000 0.000000 0.000000
# 3 -0.005634 -0.020502 0.029071 0.000000 0.000000 0.000000
# 4 0.000000 0.000000 0.000000 0.030605 0.000000 0.000000
# 5 0.000000 0.000000 0.000000 0.000000 0.035228 0.000000
# 6 0.000000 0.000000 0.000000 0.000000 0.000000 0.046335
#
#
# Mechanical properties :
#
#
# Convention : Reuss Voigt Hill
#
# Bulk Modulus (GPa) = 56.17589 67.10056 61.63822
# Shear Modulus (GPa) = 19.98439 24.31751 22.15095
#
# Velocity S-wave (km/s) = 3.22852 3.56137 3.39902
# Velocity P-wave (km/s) = 6.57249 7.20479 6.89589
#
# Compressibility (1/GPa) = 0.01780123
#
# Stress axis : x y z
#
# Youngs Moduli (GPa) = 49.09640 39.20345 34.39846
#
# Poissons Ratio (x) = 0.09553 0.19381
# Poissons Ratio (y) = 0.11964 0.70523
# Poissons Ratio (z) = 0.27663 0.80374
#
# Static dielectric constant tensor:
#      x y z
#    x 3.425080 0.000000 0.000000 
#    y 0.000000 3.572570 0.000000 
#    z 0.000000 0.000000 3.874980 
# 
# 
# High freq. dielectric constant tensor:
#      x y z
#    x 1.740630 0.000000 0.000000 
#    y 0.000000 1.729830 0.000000 
#    z 0.000000 0.000000 1.766380 
# 
# From -- ./inp_files/12482.got.cif
#   From: 2010.03.12/outbox.cif.g09.slc.cpg/sg38_7_cif.got.tgz:12482.got - 2010.04.14 02:38:36.
