data_PCOD8178064
_publ_section_title
;
Structure prediction by ZEFSAII (Michael W. Deem and Ramdas Pophale) SiO2 
 PCOD8178064
Probable space group: A M M 2
;
_chemical_formula_sum "Si O2"
_cell_formula_units_Z 52
_cell_length_a 7.787060
_cell_length_b 12.730048
_cell_length_c 32.780426
_cell_angle_alpha 90.000000
_cell_angle_beta 90.000000
_cell_angle_gamma 90.000000
_cell_volume 3249.512077
_symmetry_space_group_name_H-M "A M M 2"
_symmetry_group_IT_number 38
_symmetry_cell_setting 'orthorhombic'
loop_
_space_group_symop_operation_xyz
x,y,z
-x,-y,z
-x,y,z
x,-y,z
x,1/2+y,1/2+z
-x,1/2-y,1/2+z
-x,1/2+y,1/2+z
x,1/2-y,1/2+z
loop_
_atom_site_type_symbol
_atom_site_label
_atom_site_fract_x
_atom_site_fract_y
_atom_site_fract_z
Si Si1 0.000000 0.123734 0.125000
Si Si2 0.809391 0.124940 0.431689
Si Si3 0.000000 0.745350 0.708102
Si Si4 0.696247 0.377481 0.178104
Si Si5 0.000000 0.625511 0.792295
Si Si6 0.795808 0.880172 0.521000
Si Si7 0.308240 0.254476 0.097495
Si Si8 0.686857 0.375553 0.846541
O O1 0.000000 0.164003 0.171078
O O2 0.170259 0.161728 0.101390
O O3 0.000000 0.000000 0.125274
O O4 0.735156 0.159290 0.475894
O O5 0.701805 0.167683 0.393057
O O6 0.000000 0.170647 0.426191
O O7 0.816623 0.000000 0.431637
O O8 0.171788 0.816399 0.707435
O O9 0.000000 0.677046 0.748455
O O10 0.500000 0.352517 0.191499
O O11 0.736741 0.500000 0.181237
O O12 0.729488 0.342931 0.131525
O O13 0.833621 0.667877 0.816726
O O14 0.000000 0.500000 0.787513
O O15 0.702563 0.807264 0.553450
O O16 0.000000 0.870500 0.525150
O O17 0.737644 0.000000 0.528368
O O18 0.500000 0.207590 0.103103
O O19 0.500000 0.341509 0.829579
O O20 0.705582 0.500000 0.848116
#
# Coordination Sequence:
#
# PCOD8178064 Si02
#       8
#     4   8   4   8   4   8   8   8
#     4  10  21  37  50  63  86 117 155 199 238 268
#     4   8  13  23  38  58  88 123 153 180 212 256
#     4  10  20  32  50  70  86 116 152 186 226 276
#     4   9  18  32  49  70  96 121 145 178 220 268
#     4  10  19  31  44  61  88 117 151 195 228 256
#     4   9  16  25  41  67  99 130 155 182 217 260
#     4  10  19  31  48  70  93 122 157 188 221 264
#     4   9  16  26  41  59  82 118 156 184 218 263
#
# _framework density 16.002402
#
# number of rings (size 3 to 8) (size 9 to 14) (size 15 to 20)
#    0.000    2.769    1.538    1.846    0.000    2.462 
#    0.000    1.538    0.000    2.769    0.000    0.000 
#    0.000    4.923    0.000    2.462    0.000    0.000 
#
# Total GULP energy -322240.448694 kJ/mol
# GULP energy per Si atom -12393.863411 kJ/mol
# Density = 1.596598 g / cm^3
# Si number density = 16.002402 Si / 1000 Ang^3
#
#
#
# Elastic Constant Matrix: (Units=GPa)
#
#
# Indices 1 2 3 4 5 6 
#
# 1 116.6024 40.0885 50.7088 0.0000 0.0000 0.0000
# 2 40.0885 63.5462 28.5548 0.0000 0.0000 0.0000
# 3 50.7088 28.5548 100.2199 0.0000 0.0000 0.0000
# 4 0.0000 0.0000 0.0000 18.8585 0.0000 0.0000
# 5 0.0000 0.0000 0.0000 0.0000 15.5135 0.0000
# 6 0.0000 0.0000 0.0000 0.0000 0.0000 10.4456
#
#
#
# Elastic Compliance Matrix: (Units=1/GPa)
#
#
# Indices 1 2 3 4 5 6 
#
# 1 0.012645 -0.005851 -0.004731 0.000000 0.000000 0.000000
# 2 -0.005851 0.020755 -0.002953 0.000000 0.000000 0.000000
# 3 -0.004731 -0.002953 0.013213 0.000000 0.000000 0.000000
# 4 0.000000 0.000000 0.000000 0.053026 0.000000 0.000000
# 5 0.000000 0.000000 0.000000 0.000000 0.064460 0.000000
# 6 0.000000 0.000000 0.000000 0.000000 0.000000 0.095734
#
#
# Mechanical properties :
#
#
# Convention : Reuss Voigt Hill
#
# Bulk Modulus (GPa) = 51.16982 57.67474 54.42228
# Shear Modulus (GPa) = 17.04048 19.69795 18.36922
#
# Velocity S-wave (km/s) = 3.26677 3.51228 3.39175
# Velocity P-wave (km/s) = 6.80256 7.25036 7.03003
#
# Compressibility (1/GPa) = 0.01954277
#
# Stress axis : x y z
#
# Youngs Moduli (GPa) = 79.08021 48.18143 75.68207
#
# Poissons Ratio (x) = 0.28193 0.35805
# Poissons Ratio (y) = 0.46274 0.22347
# Poissons Ratio (z) = 0.37413 0.14227
#
# Static dielectric constant tensor:
#      x y z
#    x 3.265490 0.000000 0.000000 
#    y 0.000000 2.521970 0.000000 
#    z 0.000000 0.000000 3.089450 
# 
# 
# High freq. dielectric constant tensor:
#      x y z
#    x 1.630340 0.000000 0.000000 
#    y 0.000000 1.548760 0.000000 
#    z 0.000000 0.000000 1.614250 
# 
# From -- ./inp_files/24558.got.cif
#   From: 2010.03.12/outbox.cif.g09.slc.cpg/sg38_13_cif.got.tgz:24558.got - 2010.04.14 02:38:36.
