data_PCOD8178597
_publ_section_title
;
Structure prediction by ZEFSAII (Michael W. Deem and Ramdas Pophale) SiO2 
 PCOD8178597
Probable space group: A M M 2
;
_chemical_formula_sum "Si O2"
_cell_formula_units_Z 64
_cell_length_a 8.738949
_cell_length_b 20.508835
_cell_length_c 19.628504
_cell_angle_alpha 90.000000
_cell_angle_beta 90.000000
_cell_angle_gamma 90.000000
_cell_volume 3517.931645
_symmetry_space_group_name_H-M "A M M 2"
_symmetry_group_IT_number 38
_symmetry_cell_setting 'orthorhombic'
loop_
_space_group_symop_operation_xyz
x,y,z
-x,-y,z
-x,y,z
x,-y,z
x,1/2+y,1/2+z
-x,1/2-y,1/2+z
-x,1/2+y,1/2+z
x,1/2-y,1/2+z
loop_
_atom_site_type_symbol
_atom_site_label
_atom_site_fract_x
_atom_site_fract_y
_atom_site_fract_z
Si Si1 0.823963 0.574828 0.978660
Si Si2 0.677903 0.225973 0.116552
Si Si3 0.823191 0.877887 0.751325
Si Si4 0.181730 0.928450 0.894003
Si Si5 0.680252 0.187928 0.396653
Si Si6 0.676471 0.121298 0.612257
Si Si7 0.822679 0.225604 0.257821
Si Si8 0.181474 0.307301 0.479424
O O1 0.799826 0.500000 0.957260
O O2 0.719674 0.618543 0.929776
O O3 0.000000 0.596056 0.970674
O O4 0.776328 0.583444 0.057124
O O5 0.500000 0.209164 0.112569
O O6 0.709691 0.302165 0.105802
O O7 0.742650 0.201426 0.188624
O O8 0.767265 0.187941 0.057552
O O9 0.762099 0.916848 0.816779
O O10 0.725183 0.902315 0.687229
O O11 0.796873 0.802182 0.767868
O O12 0.000000 0.892070 0.735238
O O13 0.246337 0.872816 0.943824
O O14 0.000000 0.924494 0.894511
O O15 0.238867 0.000000 0.917992
O O16 0.500000 0.197184 0.394042
O O17 0.746940 0.188405 0.320793
O O18 0.748853 0.244647 0.443042
O O19 0.500000 0.104582 0.600058
O O20 0.000000 0.207104 0.254475
O O21 0.000000 0.302129 0.473891
#
# Coordination Sequence:
#
# PCOD8178597 Si02
#       8
#     8   8   8   8   8   8   8   8
#     4  11  24  40  58  80 108 146 190 232 275 332
#     4  10  20  34  53  83 115 145 179 227 284 331
#     4   9  17  31  51  77 109 148 189 227 267 319
#     4   9  18  33  53  79 110 144 185 229 272 318
#     4  12  23  36  57  84 113 146 182 230 283 333
#     4  10  20  33  51  78 112 148 182 223 275 329
#     4  10  19  34  56  83 111 144 184 230 276 327
#     4  11  20  34  57  83 109 145 189 232 276 327
#
# _framework density 18.192508
#
# number of rings (size 3 to 8) (size 9 to 14) (size 15 to 20)
#    0.000    1.750    2.500    3.000    0.000    3.000 
#    0.000    1.250    0.000    3.750    0.000    1.750 
#    0.000    0.000    0.000    0.000    0.000    0.000 
#
# Total GULP energy -396897.709492 kJ/mol
# GULP energy per Si atom -12403.053422 kJ/mol
# Density = 1.815110 g / cm^3
# Si number density = 18.192508 Si / 1000 Ang^3
#
#
#
# Elastic Constant Matrix: (Units=GPa)
#
#
# Indices 1 2 3 4 5 6 
#
# 1 134.9898 54.5837 104.0560 0.0000 0.0000 0.0000
# 2 54.5837 91.2536 78.6686 0.0000 0.0000 0.0000
# 3 104.0560 78.6686 207.7292 0.0000 0.0000 0.0000
# 4 0.0000 0.0000 0.0000 24.4544 0.0000 0.0000
# 5 0.0000 0.0000 0.0000 0.0000 29.0162 0.0000
# 6 0.0000 0.0000 0.0000 0.0000 0.0000 13.1580
#
#
#
# Elastic Compliance Matrix: (Units=1/GPa)
#
#
# Indices 1 2 3 4 5 6 
#
# 1 0.012639 -0.003121 -0.005149 0.000000 0.000000 0.000000
# 2 -0.003121 0.017041 -0.004890 0.000000 0.000000 0.000000
# 3 -0.005149 -0.004890 0.009245 0.000000 0.000000 0.000000
# 4 0.000000 0.000000 0.000000 0.040892 0.000000 0.000000
# 5 0.000000 0.000000 0.000000 0.000000 0.034464 0.000000
# 6 0.000000 0.000000 0.000000 0.000000 0.000000 0.075999
#
#
# Mechanical properties :
#
#
# Convention : Reuss Voigt Hill
#
# Bulk Modulus (GPa) = 79.33631 100.95435 90.14533
# Shear Modulus (GPa) = 22.64453 26.43665 24.54059
#
# Velocity S-wave (km/s) = 3.53188 3.81617 3.67678
# Velocity P-wave (km/s) = 7.76764 8.66200 8.22698
#
# Compressibility (1/GPa) = 0.01260457
#
# Stress axis : x y z
#
# Youngs Moduli (GPa) = 79.11813 58.68153 108.16287
#
# Poissons Ratio (x) = 0.18315 0.55697
# Poissons Ratio (y) = 0.24694 0.52894
# Poissons Ratio (z) = 0.40741 0.28696
#
# Static dielectric constant tensor:
#      x y z
#    x 3.329370 0.000000 0.000000 
#    y 0.000000 3.245580 0.000000 
#    z 0.000000 0.000000 3.513950 
# 
# 
# High freq. dielectric constant tensor:
#      x y z
#    x 1.704990 0.000000 0.000000 
#    y 0.000000 1.678220 0.000000 
#    z 0.000000 0.000000 1.712960 
# 
# From -- ./inp_files/17154.got.cif
#   From: 2010.03.12/outbox.cif.g09.slc.cpg/sg38_9_cif.got.tgz:17154.got - 2010.04.14 02:38:36.
