data_PCOD8178327
_publ_section_title
;
Structure prediction by ZEFSAII (Michael W. Deem and Ramdas Pophale) SiO2 
 PCOD8178327
Probable space group: A M M 2
;
_chemical_formula_sum "Si O2"
_cell_formula_units_Z 64
_cell_length_a 9.044855
_cell_length_b 19.693533
_cell_length_c 20.523861
_cell_angle_alpha 90.000000
_cell_angle_beta 90.000000
_cell_angle_gamma 90.000000
_cell_volume 3655.815828
_symmetry_space_group_name_H-M "A M M 2"
_symmetry_group_IT_number 38
_symmetry_cell_setting 'orthorhombic'
loop_
_space_group_symop_operation_xyz
x,y,z
-x,-y,z
-x,y,z
x,-y,z
x,1/2+y,1/2+z
-x,1/2-y,1/2+z
-x,1/2+y,1/2+z
x,1/2-y,1/2+z
loop_
_atom_site_type_symbol
_atom_site_label
_atom_site_fract_x
_atom_site_fract_y
_atom_site_fract_z
Si Si1 0.827403 0.576789 0.673170
Si Si2 0.171370 0.211861 0.969536
Si Si3 0.675359 0.573260 0.135655
Si Si4 0.675059 0.792988 0.212205
Si Si5 0.324818 0.786915 0.583375
Si Si6 0.171372 0.705796 0.322552
Si Si7 0.824844 0.426742 0.524806
Si Si8 0.671693 0.576562 0.284347
O O1 0.794380 0.500000 0.697549
O O2 0.736687 0.630380 0.716650
O O3 0.773134 0.585314 0.598943
O O4 0.000000 0.593451 0.680167
O O5 0.195462 0.234910 0.895298
O O6 0.000000 0.213903 0.989309
O O7 0.257603 0.263079 0.015676
O O8 0.233785 0.135087 0.980504
O O9 0.500000 0.572566 0.134095
O O10 0.735139 0.500000 0.109410
O O11 0.735170 0.636085 0.093310
O O12 0.725031 0.583270 0.209948
O O13 0.500000 0.793754 0.218021
O O14 0.727661 0.758765 0.144441
O O15 0.736378 0.750610 0.272657
O O16 0.500000 0.784873 0.577892
O O17 0.228315 0.628302 0.325040
O O18 0.000000 0.707102 0.302888
O O19 0.761480 0.500000 0.500170
O O20 0.000000 0.430630 0.523340
O O21 0.500000 0.596616 0.291267
O O22 0.699021 0.500000 0.309927
#
# Coordination Sequence:
#
# PCOD8178327 Si02
#       8
#     8   8   8   8   8   8   8   8
#     4   9  17  31  54  81 106 135 171 212 263 316
#     4  10  21  35  51  73 103 140 176 213 260 308
#     4   8  14  28  51  76 101 129 164 206 254 309
#     4  11  21  34  54  79 106 137 176 221 265 310
#     4  10  19  32  53  79 101 130 173 217 262 309
#     4  11  23  35  50  75 107 143 182 221 261 308
#     4   8  14  27  48  72  99 133 170 204 244 300
#     4   9  17  32  53  75 105 143 176 210 258 313
#
# _framework density 17.506352
#
# number of rings (size 3 to 8) (size 9 to 14) (size 15 to 20)
#    0.000    2.500    2.500    2.250    0.000    2.500 
#    0.000    1.250    0.000    1.500    0.000    3.500 
#    0.000    0.000    0.000    0.000    0.000    0.000 
#
# Total GULP energy -396652.129739 kJ/mol
# GULP energy per Si atom -12395.379054 kJ/mol
# Density = 1.746651 g / cm^3
# Si number density = 17.506352 Si / 1000 Ang^3
#
#
#
# Elastic Constant Matrix: (Units=GPa)
#
#
# Indices 1 2 3 4 5 6 
#
# 1 50.5087 40.1847 32.2350 0.0000 0.0000 0.0000
# 2 40.1847 122.1735 46.5079 0.0000 0.0000 0.0000
# 3 32.2350 46.5079 72.4288 0.0000 0.0000 0.0000
# 4 0.0000 0.0000 0.0000 23.6364 0.0000 0.0000
# 5 0.0000 0.0000 0.0000 0.0000 22.9495 0.0000
# 6 0.0000 0.0000 0.0000 0.0000 0.0000 28.1340
#
#
#
# Elastic Compliance Matrix: (Units=1/GPa)
#
#
# Indices 1 2 3 4 5 6 
#
# 1 0.031202 -0.006587 -0.009657 0.000000 0.000000 0.000000
# 2 -0.006587 0.012223 -0.004917 0.000000 0.000000 0.000000
# 3 -0.009657 -0.004917 0.021262 0.000000 0.000000 0.000000
# 4 0.000000 0.000000 0.000000 0.042308 0.000000 0.000000
# 5 0.000000 0.000000 0.000000 0.000000 0.043574 0.000000
# 6 0.000000 0.000000 0.000000 0.000000 0.000000 0.035544
#
#
# Mechanical properties :
#
#
# Convention : Reuss Voigt Hill
#
# Bulk Modulus (GPa) = 44.71257 53.66292 49.18775
# Shear Modulus (GPa) = 21.19614 23.35621 22.27618
#
# Velocity S-wave (km/s) = 3.48338 3.65657 3.57103
# Velocity P-wave (km/s) = 6.46335 6.96759 6.72020
#
# Compressibility (1/GPa) = 0.02236508
#
# Stress axis : x y z
#
# Youngs Moduli (GPa) = 32.04891 81.80993 47.03141
#
# Poissons Ratio (x) = 0.53885 0.45420
# Poissons Ratio (y) = 0.21109 0.23128
# Poissons Ratio (z) = 0.30951 0.40230
#
# Static dielectric constant tensor:
#      x y z
#    x 2.964410 0.000000 0.000000 
#    y 0.000000 3.700870 0.000000 
#    z 0.000000 0.000000 3.002300 
# 
# 
# High freq. dielectric constant tensor:
#      x y z
#    x 1.652590 0.000000 0.000000 
#    y 0.000000 1.687260 0.000000 
#    z 0.000000 0.000000 1.648540 
# 
# From -- ./inp_files/20247.got.cif
#   From: 2010.03.12/outbox.cif.g09.slc.cpg/sg38_11_cif.got.tgz:20247.got - 2010.04.14 02:38:36.
