data_PCOD8178308
_publ_section_title
;
Structure prediction by ZEFSAII (Michael W. Deem and Ramdas Pophale) SiO2 
 PCOD8178308
Probable space group: A M M 2
;
_chemical_formula_sum "Si O2"
_cell_formula_units_Z 64
_cell_length_a 11.341084
_cell_length_b 30.617876
_cell_length_c 10.234845
_cell_angle_alpha 90.000000
_cell_angle_beta 90.000000
_cell_angle_gamma 90.000000
_cell_volume 3553.946591
_symmetry_space_group_name_H-M "A M M 2"
_symmetry_group_IT_number 38
_symmetry_cell_setting 'orthorhombic'
loop_
_space_group_symop_operation_xyz
x,y,z
-x,-y,z
-x,y,z
x,-y,z
x,1/2+y,1/2+z
-x,1/2-y,1/2+z
-x,1/2+y,1/2+z
x,1/2-y,1/2+z
loop_
_atom_site_type_symbol
_atom_site_label
_atom_site_fract_x
_atom_site_fract_y
_atom_site_fract_z
Si Si1 0.236444 0.132531 0.009500
Si Si2 0.865083 0.551335 0.111487
Si Si3 0.637816 0.396814 0.019077
Si Si4 0.366267 0.657129 0.763601
Si Si5 0.743367 0.751305 0.257634
Si Si6 0.136011 0.952176 0.912119
Si Si7 0.130064 0.777583 0.007154
Si Si8 0.369456 0.162233 0.760736
O O1 0.328827 0.136342 0.126307
O O2 0.137815 0.169998 0.026162
O O3 0.186537 0.083507 0.012310
O O4 0.290648 0.139120 0.867633
O O5 0.863335 0.500000 0.086970
O O6 0.749215 0.570135 0.036146
O O7 0.844745 0.562694 0.262996
O O8 0.000000 0.568154 0.070624
O O9 0.500000 0.415302 0.035856
O O10 0.659021 0.357073 0.118547
O O11 0.653384 0.379008 0.873596
O O12 0.500000 0.671346 0.749720
O O13 0.298974 0.701233 0.802038
O O14 0.786860 0.752563 0.108590
O O15 0.843334 0.736545 0.359183
O O16 0.642367 0.714659 0.259362
O O17 0.000000 0.956593 0.943498
O O18 0.195495 0.000000 0.936153
O O19 0.000000 0.762474 0.041370
O O20 0.500000 0.150670 0.803697
#
# Coordination Sequence:
#
# PCOD8178308 Si02
#       8
#     8   8   8   8   8   8   8   8
#     4  10  19  33  53  77 104 136 175 212 265 318
#     4   9  18  35  59  85 110 137 175 221 269 324
#     4  10  20  35  54  81 113 142 178 224 272 319
#     4  10  21  36  53  73 106 145 178 219 269 319
#     4  10  20  34  52  72  99 137 180 217 259 311
#     4   9  17  32  56  82 107 134 170 218 265 315
#     4  10  20  33  49  72 104 137 171 216 263 314
#     4  10  19  32  53  77 101 130 177 229 262 304
#
# _framework density 18.008149
#
# number of rings (size 3 to 8) (size 9 to 14) (size 15 to 20)
#    0.000    2.250    1.250    3.000    0.000    0.250 
#    0.000   10.000    0.000    3.750    0.000    0.000 
#    0.000    0.000    0.000    0.000    0.000    0.000 
#
# Total GULP energy -396471.690961 kJ/mol
# GULP energy per Si atom -12389.740343 kJ/mol
# Density = 1.796716 g / cm^3
# Si number density = 18.008149 Si / 1000 Ang^3
#
#
#
# Elastic Constant Matrix: (Units=GPa)
#
#
# Indices 1 2 3 4 5 6 
#
# 1 90.8302 34.9561 21.0199 0.0000 0.0000 0.0000
# 2 34.9561 87.2491 26.3121 0.0000 0.0000 0.0000
# 3 21.0199 26.3121 71.3509 0.0000 0.0000 0.0000
# 4 0.0000 0.0000 0.0000 21.9892 0.0000 0.0000
# 5 0.0000 0.0000 0.0000 0.0000 20.7418 0.0000
# 6 0.0000 0.0000 0.0000 0.0000 0.0000 18.4942
#
#
#
# Elastic Compliance Matrix: (Units=1/GPa)
#
#
# Indices 1 2 3 4 5 6 
#
# 1 0.013317 -0.004672 -0.002200 0.000000 0.000000 0.000000
# 2 -0.004672 0.014535 -0.003984 0.000000 0.000000 0.000000
# 3 -0.002200 -0.003984 0.016132 0.000000 0.000000 0.000000
# 4 0.000000 0.000000 0.000000 0.045477 0.000000 0.000000
# 5 0.000000 0.000000 0.000000 0.000000 0.048212 0.000000
# 6 0.000000 0.000000 0.000000 0.000000 0.000000 0.054071
#
#
# Mechanical properties :
#
#
# Convention : Reuss Voigt Hill
#
# Bulk Modulus (GPa) = 44.89861 46.00072 45.44966
# Shear Modulus (GPa) = 22.63686 23.38785 23.01235
#
# Velocity S-wave (km/s) = 3.54931 3.60771 3.57863
# Velocity P-wave (km/s) = 6.46400 6.55392 6.50912
#
# Compressibility (1/GPa) = 0.02227241
#
# Stress axis : x y z
#
# Youngs Moduli (GPa) = 75.09390 68.80179 61.98675
#
# Poissons Ratio (x) = 0.32142 0.13639
# Poissons Ratio (y) = 0.35082 0.24693
# Poissons Ratio (z) = 0.16523 0.27408
#
# Static dielectric constant tensor:
#      x y z
#    x 3.377160 0.000000 0.000000 
#    y 0.000000 3.424060 0.000000 
#    z 0.000000 0.000000 3.265650 
# 
# 
# High freq. dielectric constant tensor:
#      x y z
#    x 1.696490 0.000000 0.000000 
#    y 0.000000 1.689170 0.000000 
#    z 0.000000 0.000000 1.692320 
# 
# From -- ./inp_files/4921.got.cif
#   From: 2010.03.12/outbox.cif.g09.slc.cpg/sg38_3_cif.got.tgz:4921.got - 2010.04.14 02:38:36.
