data_PCOD8178782
_publ_section_title
;
Structure prediction by ZEFSAII (Michael W. Deem and Ramdas Pophale) SiO2 
 PCOD8178782
Probable space group: A M M 2
;
_chemical_formula_sum "Si O2"
_cell_formula_units_Z 64
_cell_length_a 15.057804
_cell_length_b 9.577650
_cell_length_c 29.278030
_cell_angle_alpha 90.000000
_cell_angle_beta 90.000000
_cell_angle_gamma 90.000000
_cell_volume 4222.429953
_symmetry_space_group_name_H-M "A M M 2"
_symmetry_group_IT_number 38
_symmetry_cell_setting 'orthorhombic'
loop_
_space_group_symop_operation_xyz
x,y,z
-x,-y,z
-x,y,z
x,-y,z
x,1/2+y,1/2+z
-x,1/2-y,1/2+z
-x,1/2+y,1/2+z
x,1/2-y,1/2+z
loop_
_atom_site_type_symbol
_atom_site_label
_atom_site_fract_x
_atom_site_fract_y
_atom_site_fract_z
Si Si1 0.240258 0.840436 0.383530
Si Si2 0.759742 0.340436 0.992082
Si Si3 0.105491 0.654104 0.648120
Si Si4 0.103653 0.662335 0.329664
Si Si5 0.105493 0.845894 0.727491
Si Si6 0.401511 0.156522 0.992079
Si Si7 0.896346 0.837672 0.045946
Si Si8 0.598489 0.656521 0.383534
O O1 0.235786 0.832597 0.437806
O O2 0.154921 0.760389 0.364662
O O3 0.329306 0.765637 0.364425
O O4 0.240488 0.000000 0.366426
O O5 0.759510 0.500000 0.009186
O O6 0.670694 0.265636 0.011189
O O7 0.845081 0.260392 0.010950
O O8 0.144601 0.500000 0.655828
O O9 0.147447 0.749997 0.687806
O O10 0.131033 0.707029 0.597488
O O11 0.000000 0.649830 0.652224
O O12 0.127056 0.500000 0.338222
O O13 0.131057 0.707005 0.278122
O O14 0.000000 0.688186 0.337991
O O15 0.000000 0.850148 0.723398
O O16 0.144591 0.000000 0.719771
O O17 0.500000 0.199547 0.009565
O O18 0.400532 0.158862 0.937807
O O19 0.378037 0.000000 0.009228
O O20 0.000000 0.811877 0.037607
O O21 0.872913 0.000000 0.037397
O O22 0.500000 0.699546 0.366047
O O23 0.621965 0.500000 0.366385
#
# Coordination Sequence:
#
# PCOD8178782 Si02
#       8
#     8   8   8   8   8   8   8   8
#     4  10  20  30  40  58  84 112 141 174 210 244
#     4  10  20  30  40  58  84 112 141 174 210 244
#     4   8  14  25  41  60  79  99 127 165 208 249
#     4   9  18  31  44  58  79 110 146 177 203 238
#     4   8  14  25  41  60  79  99 127 165 208 249
#     4   8  14  26  44  62  78 100 132 168 206 248
#     4   9  18  31  44  58  79 110 146 177 203 238
#     4   8  14  26  44  62  78 100 132 168 206 248
#
# _framework density 15.157149
#
# number of rings (size 3 to 8) (size 9 to 14) (size 15 to 20)
#    0.000    3.250    0.000    3.000    0.000    4.000 
#    0.000    7.500    0.000    0.000    0.000    0.000 
#    0.000    1.000    0.000    3.250    0.000    4.000 
#
# Total GULP energy -396585.951292 kJ/mol
# GULP energy per Si atom -12393.310978 kJ/mol
# Density = 1.512265 g / cm^3
# Si number density = 15.157149 Si / 1000 Ang^3
#
#
#
# Elastic Constant Matrix: (Units=GPa)
#
#
# Indices 1 2 3 4 5 6 
#
# 1 74.7889 60.1444 25.1494 0.0000 0.0000 0.0000
# 2 60.1444 107.3044 33.5444 0.0000 0.0000 0.0000
# 3 25.1494 33.5444 30.6809 0.0000 0.0000 0.0000
# 4 0.0000 0.0000 0.0000 25.5231 0.0000 0.0000
# 5 0.0000 0.0000 0.0000 0.0000 0.8672 0.0000
# 6 0.0000 0.0000 0.0000 0.0000 0.0000 21.1320
#
#
#
# Elastic Compliance Matrix: (Units=1/GPa)
#
#
# Indices 1 2 3 4 5 6 
#
# 1 0.025587 -0.011827 -0.008043 0.000000 0.000000 0.000000
# 2 -0.011827 0.019625 -0.011762 0.000000 0.000000 0.000000
# 3 -0.008043 -0.011762 0.052046 0.000000 0.000000 0.000000
# 4 0.000000 0.000000 0.000000 0.039180 0.000000 0.000000
# 5 0.000000 0.000000 0.000000 0.000000 1.153086 0.000000
# 6 0.000000 0.000000 0.000000 0.000000 0.000000 0.047321
#
#
# Mechanical properties :
#
#
# Convention : Reuss Voigt Hill
#
# Bulk Modulus (GPa) = 29.41677 50.05007 39.73342
# Shear Modulus (GPa) = 3.54248 15.76688 9.65468
#
# Velocity S-wave (km/s) = 1.53044 3.22875 2.52657
# Velocity P-wave (km/s) = 4.75110 6.85509 5.89768
#
# Compressibility (1/GPa) = 0.03399422
#
# Stress axis : x y z
#
# Youngs Moduli (GPa) = 39.08262 50.95413 19.21371
#
# Poissons Ratio (x) = 0.60265 0.15453
# Poissons Ratio (y) = 0.46224 0.22600
# Poissons Ratio (z) = 0.31433 0.59934
#
# Static dielectric constant tensor:
#      x y z
#    x 2.820810 0.000000 0.000000 
#    y 0.000000 3.161260 0.000000 
#    z 0.000000 0.000000 2.735450 
# 
# 
# High freq. dielectric constant tensor:
#      x y z
#    x 1.555390 0.000000 0.000000 
#    y 0.000000 1.587170 0.000000 
#    z 0.000000 0.000000 1.547220 
# 
# From -- ./inp_files/5983.got.cif
#   From: 2010.03.12/outbox.cif.g09.slc.cpg/sg38_3_cif.got.tgz:5983.got - 2010.04.14 02:38:36.
