data_PCOD8178174
_publ_section_title
;
Structure prediction by ZEFSAII (Michael W. Deem and Ramdas Pophale) SiO2 
 PCOD8178174
Probable space group: A M M 2
;
_chemical_formula_sum "Si O2"
_cell_formula_units_Z 56
_cell_length_a 15.152145
_cell_length_b 8.974048
_cell_length_c 20.229423
_cell_angle_alpha 90.000000
_cell_angle_beta 90.000000
_cell_angle_gamma 90.000000
_cell_volume 2750.717570
_symmetry_space_group_name_H-M "A M M 2"
_symmetry_group_IT_number 38
_symmetry_cell_setting 'orthorhombic'
loop_
_space_group_symop_operation_xyz
x,y,z
-x,-y,z
-x,y,z
x,-y,z
x,1/2+y,1/2+z
-x,1/2-y,1/2+z
-x,1/2+y,1/2+z
x,1/2-y,1/2+z
loop_
_atom_site_type_symbol
_atom_site_label
_atom_site_fract_x
_atom_site_fract_y
_atom_site_fract_z
Si Si1 0.271371 0.675100 0.324550
Si Si2 0.099503 0.674169 0.778814
Si Si3 0.599625 0.170774 0.221438
Si Si4 0.863382 0.669307 0.144885
Si Si5 0.905653 0.331126 0.517716
Si Si6 0.335118 0.330312 0.099973
Si Si7 0.281901 0.671911 0.471469
O O1 0.264406 0.500000 0.311181
O O2 0.172332 0.739575 0.321856
O O3 0.335215 0.743277 0.270064
O O4 0.312764 0.709161 0.396954
O O5 0.120185 0.500000 0.783200
O O6 0.106586 0.724312 0.703274
O O7 0.000000 0.708621 0.804718
O O8 0.500000 0.185007 0.248623
O O9 0.600141 0.238067 0.147395
O O10 0.630392 0.000000 0.218124
O O11 0.890119 0.500000 0.161423
O O12 0.912763 0.721104 0.079459
O O13 0.759523 0.684522 0.133783
O O14 0.893024 0.500000 0.543648
O O15 0.822724 0.288103 0.472225
O O16 0.000000 0.315415 0.479236
O O17 0.367560 0.500000 0.095862
O O18 0.335724 0.267052 0.025162
O O19 0.298538 0.500000 0.488654
#
# Coordination Sequence:
#
# PCOD8178174 Si02
#       7
#     8   8   8   8   8   8   8
#     4  11  23  40  62  90 123 162 205 253 305 358
#     4  11  23  36  53  80 117 164 210 252 301 356
#     4  11  24  42  67  95 122 156 197 245 305 370
#     4  10  19  31  50  79 113 149 192 247 303 350
#     4   9  17  30  49  74 107 150 199 246 293 349
#     4  10  20  36  61  91 119 151 194 244 300 356
#     4   9  20  37  58  83 117 160 201 244 300 359
#
# _framework density 20.358322999999999
#
# number of rings (size 3 to 8) (size 9 to 14) (size 15 to 20)
#    0.000    1.857    1.429    2.571    0.000    7.143 
#    0.000    2.143    0.000    0.857    0.000    0.000 
#    0.000    0.000    0.000    0.000    0.000    0.000 
#
# Total GULP energy -347129.380907 kJ/mol
# GULP energy per Si atom -12397.477890 kJ/mol
# Density = 2.031199 g / cm^3
# Si number density = 20.358323 Si / 1000 Ang^3
#
#
#
# Elastic Constant Matrix: (Units=GPa)
#
#
# Indices 1 2 3 4 5 6 
#
# 1 65.9961 40.0984 30.9377 0.0000 0.0000 0.0000
# 2 40.0984 127.5183 61.0206 0.0000 0.0000 0.0000
# 3 30.9377 61.0206 112.3591 0.0000 0.0000 0.0000
# 4 0.0000 0.0000 0.0000 32.1432 0.0000 0.0000
# 5 0.0000 0.0000 0.0000 0.0000 5.2446 0.0000
# 6 0.0000 0.0000 0.0000 0.0000 0.0000 21.4444
#
#
#
# Elastic Compliance Matrix: (Units=1/GPa)
#
#
# Indices 1 2 3 4 5 6 
#
# 1 0.019332 -0.004772 -0.002731 0.000000 0.000000 0.000000
# 2 -0.004772 0.011774 -0.005080 0.000000 0.000000 0.000000
# 3 -0.002731 -0.005080 0.012411 0.000000 0.000000 0.000000
# 4 0.000000 0.000000 0.000000 0.031111 0.000000 0.000000
# 5 0.000000 0.000000 0.000000 0.000000 0.190672 0.000000
# 6 0.000000 0.000000 0.000000 0.000000 0.000000 0.046632
#
#
# Mechanical properties :
#
#
# Convention : Reuss Voigt Hill
#
# Bulk Modulus (GPa) = 54.49665 63.33188 58.91426
# Shear Modulus (GPa) = 14.56810 23.35423 18.96116
#
# Velocity S-wave (km/s) = 2.67794 3.39065 3.05515
# Velocity P-wave (km/s) = 6.03230 6.81944 6.43791
#
# Compressibility (1/GPa) = 0.01834975
#
# Stress axis : x y z
#
# Youngs Moduli (GPa) = 51.72702 84.93638 80.57335
#
# Poissons Ratio (x) = 0.40532 0.22008
# Poissons Ratio (y) = 0.24684 0.40932
# Poissons Ratio (z) = 0.14129 0.43148
#
# Static dielectric constant tensor:
#      x y z
#    x 3.639220 0.000000 0.000000 
#    y 0.000000 3.755050 0.000000 
#    z 0.000000 0.000000 3.552570 
# 
# 
# High freq. dielectric constant tensor:
#      x y z
#    x 1.785030 0.000000 0.000000 
#    y 0.000000 1.802760 0.000000 
#    z 0.000000 0.000000 1.783490 
# 
# From -- ./inp_files/21024.got.cif
#   From: 2010.03.12/outbox.cif.g09.slc.cpg/sg38_11_cif.got.tgz:21024.got - 2010.04.14 02:38:36.
