data_PCOD8178412
_publ_section_title
;
Structure prediction by ZEFSAII (Michael W. Deem and Ramdas Pophale) SiO2 
 PCOD8178412
Probable space group: A M M 2
;
_chemical_formula_sum "Si O2"
_cell_formula_units_Z 56
_cell_length_a 16.969578
_cell_length_b 18.410930
_cell_length_c 9.683335
_cell_angle_alpha 90.000000
_cell_angle_beta 90.000000
_cell_angle_gamma 90.000000
_cell_volume 3025.322839
_symmetry_space_group_name_H-M "A M M 2"
_symmetry_group_IT_number 38
_symmetry_cell_setting 'orthorhombic'
loop_
_space_group_symop_operation_xyz
x,y,z
-x,-y,z
-x,y,z
x,-y,z
x,1/2+y,1/2+z
-x,1/2-y,1/2+z
-x,1/2+y,1/2+z
x,1/2-y,1/2+z
loop_
_atom_site_type_symbol
_atom_site_label
_atom_site_fract_x
_atom_site_fract_y
_atom_site_fract_z
Si Si1 0.089649 0.233486 0.993550
Si Si2 0.913938 0.917757 0.847147
Si Si3 0.731774 0.917433 0.105013
Si Si4 0.657835 0.712150 0.267411
Si Si5 0.589525 0.181747 0.060205
Si Si6 0.184106 0.295372 0.752983
Si Si7 0.750995 0.420663 0.280342
O O1 0.092870 0.147626 0.957002
O O2 0.121890 0.288861 0.876975
O O3 0.000000 0.256275 0.026804
O O4 0.144739 0.247133 0.125390
O O5 0.842733 0.908756 0.734884
O O6 0.000000 0.912223 0.774047
O O7 0.905377 0.000000 0.914451
O O8 0.645132 0.881858 0.117765
O O9 0.794274 0.877317 0.205824
O O10 0.726375 0.000000 0.155242
O O11 0.757566 0.910052 0.946251
O O12 0.603905 0.745753 0.149103
O O13 0.605437 0.702179 0.402475
O O14 0.735486 0.757902 0.303148
O O15 0.689506 0.634328 0.212024
O O16 0.500000 0.155378 0.076376
O O17 0.719463 0.500000 0.239964
#
# Coordination Sequence:
#
# PCOD8178412 Si02
#       7
#     8   8   8   8   8   8   8
#     4  11  21  32  49  76 106 139 180 224 264 300
#     4   9  16  27  46  73 102 133 171 218 265 298
#     4   9  18  31  51  76 101 130 167 210 258 308
#     4  10  19  33  52  79 103 135 172 207 256 317
#     4  10  20  34  55  79 105 133 165 211 263 317
#     4  11  19  34  52  74 103 139 176 218 260 308
#     4   9  15  29  49  73 102 130 169 217 253 293
#
# _framework density 18.510421000000001
#
# number of rings (size 3 to 8) (size 9 to 14) (size 15 to 20)
#    0.000    2.143    2.857    2.571    0.000    0.286 
#    0.000    0.000    0.000   11.143    0.000    0.000 
#    0.000    0.000    0.000    0.000    0.000    0.000 
#
# Total GULP energy -346915.834176 kJ/mol
# GULP energy per Si atom -12389.851221 kJ/mol
# Density = 1.846829 g / cm^3
# Si number density = 18.510421 Si / 1000 Ang^3
#
#
#
# Elastic Constant Matrix: (Units=GPa)
#
#
# Indices 1 2 3 4 5 6 
#
# 1 117.3362 40.8829 29.8289 0.0000 0.0000 0.0000
# 2 40.8829 97.3867 21.3275 0.0000 0.0000 0.0000
# 3 29.8289 21.3275 43.8297 0.0000 0.0000 0.0000
# 4 0.0000 0.0000 0.0000 16.9212 0.0000 0.0000
# 5 0.0000 0.0000 0.0000 0.0000 25.5129 0.0000
# 6 0.0000 0.0000 0.0000 0.0000 0.0000 21.6868
#
#
#
# Elastic Compliance Matrix: (Units=1/GPa)
#
#
# Indices 1 2 3 4 5 6 
#
# 1 0.011230 -0.003403 -0.005987 0.000000 0.000000 0.000000
# 2 -0.003403 0.012524 -0.003778 0.000000 0.000000 0.000000
# 3 -0.005987 -0.003778 0.028729 0.000000 0.000000 0.000000
# 4 0.000000 0.000000 0.000000 0.059097 0.000000 0.000000
# 5 0.000000 0.000000 0.000000 0.000000 0.039196 0.000000
# 6 0.000000 0.000000 0.000000 0.000000 0.000000 0.046111
#
#
# Mechanical properties :
#
#
# Convention : Reuss Voigt Hill
#
# Bulk Modulus (GPa) = 38.24612 49.18124 43.71368
# Shear Modulus (GPa) = 21.55731 23.92506 22.74119
#
# Velocity S-wave (km/s) = 3.41633 3.59906 3.50889
# Velocity P-wave (km/s) = 6.02234 6.62557 6.33114
#
# Compressibility (1/GPa) = 0.02614644
#
# Stress axis : x y z
#
# Youngs Moduli (GPa) = 89.04479 79.84358 34.80863
#
# Poissons Ratio (x) = 0.27174 0.20839
# Poissons Ratio (y) = 0.30305 0.13151
# Poissons Ratio (z) = 0.53310 0.30166
#
# Static dielectric constant tensor:
#      x y z
#    x 3.581910 0.000000 0.000000 
#    y 0.000000 3.587030 0.000000 
#    z 0.000000 0.000000 3.019150 
# 
# 
# High freq. dielectric constant tensor:
#      x y z
#    x 1.731830 0.000000 0.000000 
#    y 0.000000 1.716960 0.000000 
#    z 0.000000 0.000000 1.668090 
# 
# From -- ./inp_files/6446.got.cif
#   From: 2010.03.12/outbox.cif.g09.slc.cpg/sg38_4_cif.got.tgz:6446.got - 2010.04.14 02:38:36.
