data_PCOD8178790
_publ_section_title
;
Structure prediction by ZEFSAII (Michael W. Deem and Ramdas Pophale) SiO2 
 PCOD8178790
Probable space group: A M M 2
;
_chemical_formula_sum "Si O2"
_cell_formula_units_Z 64
_cell_length_a 15.429361
_cell_length_b 9.278781
_cell_length_c 30.159275
_cell_angle_alpha 90.000000
_cell_angle_beta 90.000000
_cell_angle_gamma 90.000000
_cell_volume 4317.772561
_symmetry_space_group_name_H-M "A M M 2"
_symmetry_group_IT_number 38
_symmetry_cell_setting 'orthorhombic'
loop_
_space_group_symop_operation_xyz
x,y,z
-x,-y,z
-x,y,z
x,-y,z
x,1/2+y,1/2+z
-x,1/2-y,1/2+z
-x,1/2+y,1/2+z
x,1/2-y,1/2+z
loop_
_atom_site_type_symbol
_atom_site_label
_atom_site_fract_x
_atom_site_fract_y
_atom_site_fract_z
Si Si1 0.403928 0.671636 0.994130
Si Si2 0.905062 0.332907 0.567587
Si Si3 0.258646 0.332595 0.059904
Si Si4 0.092492 0.163128 0.656410
Si Si5 0.396887 0.838267 0.813945
Si Si6 0.396998 0.660369 0.896351
Si Si7 0.279243 0.836267 0.663859
Si Si8 0.600843 0.831773 0.227474
O O1 0.500000 0.734295 0.004237
O O2 0.408686 0.500000 0.994803
O O3 0.371731 0.720502 0.945104
O O4 0.338468 0.730641 0.031349
O O5 0.880435 0.500000 0.568043
O O6 0.828603 0.246722 0.542837
O O7 0.910340 0.278402 0.617688
O O8 0.000000 0.308240 0.544985
O O9 0.246019 0.500000 0.050017
O O10 0.277342 0.302675 0.111486
O O11 0.181424 0.188727 0.684125
O O12 0.000000 0.176910 0.683318
O O13 0.099752 0.000000 0.636402
O O14 0.500000 0.839688 0.815807
O O15 0.358885 0.765251 0.858493
O O16 0.365491 0.748276 0.771446
O O17 0.359796 0.000000 0.810386
O O18 0.500000 0.652579 0.892782
O O19 0.358696 0.500000 0.888732
O O20 0.346049 0.726850 0.685707
O O21 0.310456 0.000000 0.672667
O O22 0.500000 0.800223 0.218563
O O23 0.618747 0.000000 0.233569
#
# Coordination Sequence:
#
# PCOD8178790 Si02
#       8
#     8   8   8   8   8   8   8   8
#     4   8  14  25  41  60  81 107 139 169 194 227
#     4   9  16  25  38  56  77 101 129 164 207 246
#     4   9  17  28  42  59  79 107 141 171 197 229
#     4   8  14  26  43  60  77  98 126 161 201 243
#     4   9  16  26  41  59  77  97 125 164 206 243
#     4   8  13  23  40  59  78 100 126 158 197 239
#     4   9  17  27  40  59  81 106 136 169 201 231
#     4  10  20  31  41  54  76 108 142 171 199 233
#
# _framework density 14.822457
#
# number of rings (size 3 to 8) (size 9 to 14) (size 15 to 20)
#    0.000    3.250    0.000    2.625    0.000    5.500 
#    0.000    1.875    0.000    1.125    0.000    0.000 
#    0.000    1.000    0.000    7.250    0.000    4.000 
#
# Total GULP energy -396437.638403 kJ/mol
# GULP energy per Si atom -12388.676200 kJ/mol
# Density = 1.478872 g / cm^3
# Si number density = 14.822457 Si / 1000 Ang^3
#
#
#
# Elastic Constant Matrix: (Units=GPa)
#
#
# Indices 1 2 3 4 5 6 
#
# 1 85.1152 43.8947 45.1381 0.0000 0.0000 0.0000
# 2 43.8947 75.2029 38.7609 0.0000 0.0000 0.0000
# 3 45.1381 38.7609 68.0158 0.0000 0.0000 0.0000
# 4 0.0000 0.0000 0.0000 16.8926 0.0000 0.0000
# 5 0.0000 0.0000 0.0000 0.0000 1.5168 0.0000
# 6 0.0000 0.0000 0.0000 0.0000 0.0000 19.2233
#
#
#
# Elastic Compliance Matrix: (Units=1/GPa)
#
#
# Indices 1 2 3 4 5 6 
#
# 1 0.020432 -0.006990 -0.009576 0.000000 0.000000 0.000000
# 2 -0.006990 0.021219 -0.007453 0.000000 0.000000 0.000000
# 3 -0.009576 -0.007453 0.025305 0.000000 0.000000 0.000000
# 4 0.000000 0.000000 0.000000 0.059198 0.000000 0.000000
# 5 0.000000 0.000000 0.000000 0.000000 0.659264 0.000000
# 6 0.000000 0.000000 0.000000 0.000000 0.000000 0.052020
#
#
# Mechanical properties :
#
#
# Convention : Reuss Voigt Hill
#
# Bulk Modulus (GPa) = 52.86239 53.76903 53.31571
# Shear Modulus (GPa) = 5.60675 14.22923 9.91799
#
# Velocity S-wave (km/s) = 1.94700 3.10171 2.58954
# Velocity P-wave (km/s) = 6.38714 7.01296 6.70735
#
# Compressibility (1/GPa) = 0.01891704
#
# Stress axis : x y z
#
# Youngs Moduli (GPa) = 48.94286 47.12761 39.51800
#
# Poissons Ratio (x) = 0.32943 0.37842
# Poissons Ratio (y) = 0.34212 0.29454
# Poissons Ratio (z) = 0.46867 0.35126
#
# Static dielectric constant tensor:
#      x y z
#    x 3.036740 0.000000 0.000000 
#    y 0.000000 2.878430 0.000000 
#    z 0.000000 0.000000 2.734530 
# 
# 
# High freq. dielectric constant tensor:
#      x y z
#    x 1.547660 0.000000 0.000000 
#    y 0.000000 1.564790 0.000000 
#    z 0.000000 0.000000 1.532170 
# 
# From -- ./inp_files/24014.got.cif
#   From: 2010.03.12/outbox.cif.g09.slc.cpg/sg38_13_cif.got.tgz:24014.got - 2010.04.14 02:38:36.
