data_PCOD8178363
_publ_section_title
;
Structure prediction by ZEFSAII (Michael W. Deem and Ramdas Pophale) SiO2 
 PCOD8178363
Probable space group: A M M 2
;
_chemical_formula_sum "Si O2"
_cell_formula_units_Z 52
_cell_length_a 11.631279
_cell_length_b 19.217922
_cell_length_c 12.405931
_cell_angle_alpha 90.000000
_cell_angle_beta 90.000000
_cell_angle_gamma 90.000000
_cell_volume 2773.085507
_symmetry_space_group_name_H-M "A M M 2"
_symmetry_group_IT_number 38
_symmetry_cell_setting 'orthorhombic'
loop_
_space_group_symop_operation_xyz
x,y,z
-x,-y,z
-x,y,z
x,-y,z
x,1/2+y,1/2+z
-x,1/2-y,1/2+z
-x,1/2+y,1/2+z
x,1/2-y,1/2+z
loop_
_atom_site_type_symbol
_atom_site_label
_atom_site_fract_x
_atom_site_fract_y
_atom_site_fract_z
Si Si1 0.366900 0.176155 0.286070
Si Si2 0.000000 0.209500 0.691158
Si Si3 0.368071 0.801276 0.527487
Si Si4 0.000000 0.758986 0.450709
Si Si5 0.000000 0.859131 0.288392
Si Si6 0.750662 0.819266 0.734222
Si Si7 0.222940 0.825803 0.962620
Si Si8 0.787120 0.418344 0.663734
O O1 0.500000 0.194788 0.263268
O O2 0.348537 0.159868 0.413547
O O3 0.283088 0.237912 0.248422
O O4 0.331003 0.108211 0.217757
O O5 0.115742 0.165563 0.707401
O O6 0.000000 0.245890 0.577414
O O7 0.000000 0.275612 0.769179
O O8 0.500000 0.786663 0.550234
O O9 0.319011 0.846610 0.628770
O O10 0.307574 0.725912 0.525762
O O11 0.113075 0.715676 0.415790
O O12 0.000000 0.843164 0.417662
O O13 0.889341 0.898347 0.244997
O O14 0.719759 0.855484 0.850153
O O15 0.190590 0.887337 0.044589
O O16 0.780356 0.500000 0.649674
#
# Coordination Sequence:
#
# PCOD8178363 Si02
#       8
#     8   4   8   4   4   8   8   8
#     4  10  20  35  54  78 109 144 186 228 280 329
#     4  12  18  29  53  83 109 135 161 215 287 334
#     4  10  19  32  54  81 109 137 172 237 294 327
#     4  12  18  30  56  81 112 131 170 236 277 326
#     4  12  19  35  52  82 111 140 179 221 274 324
#     4  11  19  31  53  83 111 137 174 233 288 330
#     4  11  20  32  51  80 111 144 182 214 277 329
#     4  12  24  37  53  77 116 156 186 215 257 333
#
# _framework density 18.751676
#
# number of rings (size 3 to 8) (size 9 to 14) (size 15 to 20)
#    0.000    0.923    7.692    1.615    0.000    0.923 
#    0.000    0.000    0.000    0.923    0.000    0.000 
#    0.000    0.000    0.000    0.000    0.000    0.000 
#
# Total GULP energy -322127.436175 kJ/mol
# GULP energy per Si atom -12389.516776 kJ/mol
# Density = 1.870900 g / cm^3
# Si number density = 18.751676 Si / 1000 Ang^3
#
#
#
# Elastic Constant Matrix: (Units=GPa)
#
#
# Indices 1 2 3 4 5 6 
#
# 1 117.3052 25.1698 37.6617 0.0000 0.0000 0.0000
# 2 25.1698 72.0565 28.1107 0.0000 0.0000 0.0000
# 3 37.6617 28.1107 118.6785 0.0000 0.0000 0.0000
# 4 0.0000 0.0000 0.0000 18.3615 0.0000 0.0000
# 5 0.0000 0.0000 0.0000 0.0000 28.2423 0.0000
# 6 0.0000 0.0000 0.0000 0.0000 0.0000 11.0054
#
#
#
# Elastic Compliance Matrix: (Units=1/GPa)
#
#
# Indices 1 2 3 4 5 6 
#
# 1 0.009870 -0.002452 -0.002551 0.000000 0.000000 0.000000
# 2 -0.002452 0.015900 -0.002988 0.000000 0.000000 0.000000
# 3 -0.002551 -0.002988 0.009944 0.000000 0.000000 0.000000
# 4 0.000000 0.000000 0.000000 0.054462 0.000000 0.000000
# 5 0.000000 0.000000 0.000000 0.000000 0.035408 0.000000
# 6 0.000000 0.000000 0.000000 0.000000 0.000000 0.090864
#
#
# Mechanical properties :
#
#
# Convention : Reuss Voigt Hill
#
# Bulk Modulus (GPa) = 50.68276 54.43607 52.55942
# Shear Modulus (GPa) = 20.91982 25.99506 23.45744
#
# Velocity S-wave (km/s) = 3.34372 3.72732 3.54072
# Velocity P-wave (km/s) = 6.48030 6.90050 6.69370
#
# Compressibility (1/GPa) = 0.01973057
#
# Stress axis : x y z
#
# Youngs Moduli (GPa) = 101.31625 62.89190 100.56806
#
# Poissons Ratio (x) = 0.15423 0.25658
# Poissons Ratio (y) = 0.24846 0.30050
# Poissons Ratio (z) = 0.25849 0.18792
#
# Static dielectric constant tensor:
#      x y z
#    x 3.688860 0.000000 0.000000 
#    y 0.000000 2.751220 0.000000 
#    z 0.000000 0.000000 3.987930 
# 
# 
# High freq. dielectric constant tensor:
#      x y z
#    x 1.741120 0.000000 0.000000 
#    y 0.000000 1.633610 0.000000 
#    z 0.000000 0.000000 1.770460 
# 
# From -- ./inp_files/13896.got.cif
#   From: 2010.03.12/outbox.cif.g09.slc.cpg/sg38_7_cif.got.tgz:13896.got - 2010.04.14 02:38:36.
