data_PCOD8178425
_publ_section_title
;
Structure prediction by ZEFSAII (Michael W. Deem and Ramdas Pophale) SiO2 
 PCOD8178425
Probable space group: A M M 2
;
_chemical_formula_sum "Si O2"
_cell_formula_units_Z 64
_cell_length_a 18.766955
_cell_length_b 9.141587
_cell_length_c 19.949556
_cell_angle_alpha 90.000000
_cell_angle_beta 90.000000
_cell_angle_gamma 90.000000
_cell_volume 3422.540877
_symmetry_space_group_name_H-M "A M M 2"
_symmetry_group_IT_number 38
_symmetry_cell_setting 'orthorhombic'
loop_
_space_group_symop_operation_xyz
x,y,z
-x,-y,z
-x,y,z
x,-y,z
x,1/2+y,1/2+z
-x,1/2-y,1/2+z
-x,1/2+y,1/2+z
x,1/2-y,1/2+z
loop_
_atom_site_type_symbol
_atom_site_label
_atom_site_fract_x
_atom_site_fract_y
_atom_site_fract_z
Si Si1 0.080372 0.673870 0.795720
Si Si2 0.687770 0.326387 0.457900
Si Si3 0.420605 0.325953 0.714371
Si Si4 0.919800 0.333825 0.046310
Si Si5 0.303299 0.325914 0.611395
Si Si6 0.584041 0.834086 0.364658
Si Si7 0.172262 0.327647 0.920216
Si Si8 0.150794 0.673092 0.660341
O O1 0.075532 0.500000 0.795791
O O2 0.121817 0.730100 0.860932
O O3 0.126670 0.730288 0.732922
O O4 0.000000 0.738916 0.794143
O O5 0.692718 0.500000 0.454859
O O6 0.685879 0.271186 0.535133
O O7 0.617316 0.272417 0.420099
O O8 0.753694 0.257523 0.417862
O O9 0.500000 0.264525 0.698965
O O10 0.422665 0.500000 0.711405
O O11 0.366280 0.262642 0.658693
O O12 0.395876 0.279943 0.789345
O O13 0.904704 0.500000 0.068222
O O14 0.908351 0.229494 0.109096
O O15 0.000000 0.315990 0.019394
O O16 0.866588 0.284712 0.988455
O O17 0.303824 0.500000 0.613729
O O18 0.228700 0.264925 0.640707
O O19 0.500000 0.827229 0.374199
O O20 0.611631 0.000000 0.375700
O O21 0.186771 0.500000 0.913602
O O22 0.151288 0.500000 0.657523
#
# Coordination Sequence:
#
# PCOD8178425 Si02
#       8
#     8   8   8   8   8   8   8   8
#     4   9  18  32  53  80 102 128 177 232 273 311
#     4  11  22  35  52  79 114 145 174 213 259 316
#     4   8  15  30  54  81 105 132 172 218 257 297
#     4  10  20  34  53  76 104 139 175 213 263 321
#     4   9  18  31  49  76 109 139 173 215 257 305
#     4   9  19  36  59  85 109 136 175 218 257 305
#     4  10  20  35  55  76 102 138 178 223 265 309
#     4  10  19  33  53  78 105 134 172 221 268 314
#
# _framework density 18.699558
#
# number of rings (size 3 to 8) (size 9 to 14) (size 15 to 20)
#    0.000    2.500    1.250    1.875    1.750    3.000 
#    0.000    1.875    0.000    3.375    0.000    0.000 
#    0.000    0.000    0.000    0.000    0.000    0.000 
#
# Total GULP energy -396770.374928 kJ/mol
# GULP energy per Si atom -12399.074216 kJ/mol
# Density = 1.865700 g / cm^3
# Si number density = 18.699558 Si / 1000 Ang^3
#
#
#
# Elastic Constant Matrix: (Units=GPa)
#
#
# Indices 1 2 3 4 5 6 
#
# 1 101.7916 23.1714 65.4123 0.0000 0.0000 0.0000
# 2 23.1714 27.3700 29.9673 0.0000 0.0000 0.0000
# 3 65.4123 29.9673 137.1679 0.0000 0.0000 0.0000
# 4 0.0000 0.0000 0.0000 23.5394 0.0000 0.0000
# 5 0.0000 0.0000 0.0000 0.0000 39.8648 0.0000
# 6 0.0000 0.0000 0.0000 0.0000 0.0000 23.6180
#
#
#
# Elastic Compliance Matrix: (Units=1/GPa)
#
#
# Indices 1 2 3 4 5 6 
#
# 1 0.014968 -0.006384 -0.005743 0.000000 0.000000 0.000000
# 2 -0.006384 0.050746 -0.008043 0.000000 0.000000 0.000000
# 3 -0.005743 -0.008043 0.011786 0.000000 0.000000 0.000000
# 4 0.000000 0.000000 0.000000 0.042482 0.000000 0.000000
# 5 0.000000 0.000000 0.000000 0.000000 0.025085 0.000000
# 6 0.000000 0.000000 0.000000 0.000000 0.000000 0.042341
#
#
# Mechanical properties :
#
#
# Convention : Reuss Voigt Hill
#
# Bulk Modulus (GPa) = 26.90922 55.93683 41.42303
# Shear Modulus (GPa) = 20.82176 27.25633 24.03904
#
# Velocity S-wave (km/s) = 3.34052 3.82198 3.58933
# Velocity P-wave (km/s) = 5.41297 7.03243 6.27517
#
# Compressibility (1/GPa) = 0.03716198
#
# Stress axis : x y z
#
# Youngs Moduli (GPa) = 66.81049 19.70582 84.84515
#
# Poissons Ratio (x) = 0.12579 0.48728
# Poissons Ratio (y) = 0.42648 0.68237
# Poissons Ratio (z) = 0.38370 0.15848
#
# Static dielectric constant tensor:
#      x y z
#    x 3.603670 0.000000 0.000000 
#    y 0.000000 2.981510 0.000000 
#    z 0.000000 0.000000 3.619540 
# 
# 
# High freq. dielectric constant tensor:
#      x y z
#    x 1.737210 0.000000 0.000000 
#    y 0.000000 1.676280 0.000000 
#    z 0.000000 0.000000 1.735790 
# 
# From -- ./inp_files/18750.got.cif
#   From: 2010.03.12/outbox.cif.g09.slc.cpg/sg38_10_cif.got.tgz:18750.got - 2010.04.14 02:38:36.
