data_PCOD8178464
_publ_section_title
;
Structure prediction by ZEFSAII (Michael W. Deem and Ramdas Pophale) SiO2 
 PCOD8178464
Probable space group: A M M 2
;
_chemical_formula_sum "Si O2"
_cell_formula_units_Z 56
_cell_length_a 8.539373
_cell_length_b 22.561732
_cell_length_c 14.508836
_cell_angle_alpha 90.000000
_cell_angle_beta 90.000000
_cell_angle_gamma 90.000000
_cell_volume 2795.316524
_symmetry_space_group_name_H-M "A M M 2"
_symmetry_group_IT_number 38
_symmetry_cell_setting 'orthorhombic'
loop_
_space_group_symop_operation_xyz
x,y,z
-x,-y,z
-x,y,z
x,-y,z
x,1/2+y,1/2+z
-x,1/2-y,1/2+z
-x,1/2+y,1/2+z
x,1/2-y,1/2+z
loop_
_atom_site_type_symbol
_atom_site_label
_atom_site_fract_x
_atom_site_fract_y
_atom_site_fract_z
Si Si1 0.814825 0.500000 0.093171
Si Si2 0.317585 0.221836 0.596703
Si Si3 0.814540 0.115433 0.487068
Si Si4 0.183719 0.652415 0.792805
Si Si5 0.816090 0.715061 0.287857
Si Si6 0.315144 0.500000 0.297731
Si Si7 0.683207 0.884975 0.908606
Si Si8 0.183792 0.850361 0.091226
O O1 0.762130 0.500000 0.198044
O O2 0.000000 0.500000 0.088602
O O3 0.750081 0.557788 0.040096
O O4 0.500000 0.237384 0.591079
O O5 0.274780 0.173158 0.521388
O O6 0.273685 0.194038 0.695883
O O7 0.218307 0.280811 0.577132
O O8 0.771842 0.109363 0.377839
O O9 0.000000 0.123772 0.501236
O O10 0.243369 0.719083 0.813910
O O11 0.247041 0.629966 0.693219
O O12 0.000000 0.656540 0.781184
O O13 0.773436 0.672148 0.371206
O O14 0.000000 0.712349 0.268210
O O15 0.500000 0.500000 0.285025
O O16 0.257708 0.557075 0.354549
O O17 0.500000 0.876065 0.895348
O O18 0.725365 0.890440 0.016616
O O19 0.000000 0.861400 0.079083
#
# Coordination Sequence:
#
# PCOD8178464 Si02
#       8
#     4   8   8   8   8   4   8   8
#     4  10  22  36  57  84 108 138 183 232 277 326
#     4  11  21  33  52  82 114 146 182 226 275 329
#     4  10  19  35  55  78 108 144 184 229 276 328
#     4   8  17  33  54  77 106 140 175 214 267 325
#     4  10  19  33  54  81 110 145 183 225 276 333
#     4  10  24  42  57  74 108 148 181 222 275 330
#     4  11  22  37  56  80 108 145 187 230 278 330
#     4  10  20  36  56  81 111 145 180 223 276 333
#
# _framework density 20.033508999999999
#
# number of rings (size 3 to 8) (size 9 to 14) (size 15 to 20)
#    0.000    2.000    0.000    5.143    0.000    5.143 
#    0.000    4.286    0.000    1.714    0.000    0.000 
#    0.000    0.000    0.000    0.000    0.000    0.000 
#
# Total GULP energy -347177.891567 kJ/mol
# GULP energy per Si atom -12399.210413 kJ/mol
# Density = 1.998791 g / cm^3
# Si number density = 20.033509 Si / 1000 Ang^3
#
#
#
# Elastic Constant Matrix: (Units=GPa)
#
#
# Indices 1 2 3 4 5 6 
#
# 1 44.2248 11.5344 15.0961 0.0000 0.0000 0.0000
# 2 11.5344 71.3290 61.4251 0.0000 0.0000 0.0000
# 3 15.0961 61.4251 156.3307 0.0000 0.0000 0.0000
# 4 0.0000 0.0000 0.0000 37.3475 0.0000 0.0000
# 5 0.0000 0.0000 0.0000 0.0000 18.3161 0.0000
# 6 0.0000 0.0000 0.0000 0.0000 0.0000 18.6059
#
#
#
# Elastic Compliance Matrix: (Units=1/GPa)
#
#
# Indices 1 2 3 4 5 6 
#
# 1 0.023752 -0.002820 -0.001186 0.000000 0.000000 0.000000
# 2 -0.002820 0.021524 -0.008185 0.000000 0.000000 0.000000
# 3 -0.001186 -0.008185 0.009727 0.000000 0.000000 0.000000
# 4 0.000000 0.000000 0.000000 0.026776 0.000000 0.000000
# 5 0.000000 0.000000 0.000000 0.000000 0.054597 0.000000
# 6 0.000000 0.000000 0.000000 0.000000 0.000000 0.053746
#
#
# Mechanical properties :
#
#
# Convention : Reuss Voigt Hill
#
# Bulk Modulus (GPa) = 32.65589 49.77731 41.21660
# Shear Modulus (GPa) = 22.25093 27.10916 24.68004
#
# Velocity S-wave (km/s) = 3.33631 3.68256 3.51371
# Velocity P-wave (km/s) = 5.58366 6.55612 6.08933
#
# Compressibility (1/GPa) = 0.03062235
#
# Stress axis : x y z
#
# Youngs Moduli (GPa) = 42.10191 46.45995 102.80501
#
# Poissons Ratio (x) = 0.13101 0.12189
# Poissons Ratio (y) = 0.11872 0.84144
# Poissons Ratio (z) = 0.04992 0.38027
#
# Static dielectric constant tensor:
#      x y z
#    x 3.417140 0.000000 0.000000 
#    y 0.000000 3.518990 0.000000 
#    z 0.000000 0.000000 4.019290 
# 
# 
# High freq. dielectric constant tensor:
#      x y z
#    x 1.765230 0.000000 0.000000 
#    y 0.000000 1.755530 0.000000 
#    z 0.000000 0.000000 1.802000 
# 
# From -- ./inp_files/12483.got.cif
#   From: 2010.03.12/outbox.cif.g09.slc.cpg/sg38_7_cif.got.tgz:12483.got - 2010.04.14 02:38:36.
