data_PCOD8178227
_publ_section_title
;
Structure prediction by ZEFSAII (Michael W. Deem and Ramdas Pophale) SiO2 
 PCOD8178227
Probable space group: A M M 2
;
_chemical_formula_sum "Si O2"
_cell_formula_units_Z 64
_cell_length_a 13.980212
_cell_length_b 19.647968
_cell_length_c 12.855764
_cell_angle_alpha 90.000000
_cell_angle_beta 90.000000
_cell_angle_gamma 90.000000
_cell_volume 3531.256712
_symmetry_space_group_name_H-M "A M M 2"
_symmetry_group_IT_number 38
_symmetry_cell_setting 'orthorhombic'
loop_
_space_group_symop_operation_xyz
x,y,z
-x,-y,z
-x,y,z
x,-y,z
x,1/2+y,1/2+z
-x,1/2-y,1/2+z
-x,1/2+y,1/2+z
x,1/2-y,1/2+z
loop_
_atom_site_type_symbol
_atom_site_label
_atom_site_fract_x
_atom_site_fract_y
_atom_site_fract_z
Si Si1 0.235486 0.080903 0.854230
Si Si2 0.894582 0.081282 0.666888
Si Si3 0.767033 0.081293 0.244440
Si Si4 0.891292 0.919500 0.048050
Si Si5 0.391324 0.320614 0.803492
Si Si6 0.199157 0.074404 0.468043
Si Si7 0.393710 0.379423 0.024433
Si Si8 0.389436 0.829823 0.756817
O O1 0.171780 0.106605 0.758735
O O2 0.336087 0.118579 0.836103
O O3 0.253567 0.000000 0.856806
O O4 0.178806 0.106261 0.956555
O O5 0.859087 0.114367 0.557529
O O6 0.000000 0.108308 0.690285
O O7 0.890572 0.000000 0.661564
O O8 0.841642 0.102807 0.155718
O O9 0.667357 0.122340 0.238024
O O10 0.813115 0.106893 0.353995
O O11 0.745505 0.000000 0.243430
O O12 0.000000 0.889355 0.040287
O O13 0.899354 0.000000 0.040675
O O14 0.500000 0.329394 0.764819
O O15 0.351139 0.246320 0.775245
O O16 0.385352 0.326027 0.929155
O O17 0.310568 0.066022 0.502879
O O18 0.154060 0.000000 0.460143
O O19 0.500000 0.413368 0.024216
O O20 0.373397 0.344868 0.135118
O O21 0.500000 0.836313 0.787863
#
# Coordination Sequence:
#
# PCOD8178227 Si02
#       8
#     8   8   8   8   8   8   8   8
#     4  10  19  32  50  74 102 132 172 217 257 301
#     4   9  16  26  43  69  98 126 157 198 248 297
#     4   9  18  32  52  77 101 131 173 215 256 300
#     4   9  18  33  53  76 102 137 180 220 260 310
#     4   9  19  34  51  75 104 136 172 207 253 312
#     4   9  16  27  44  71 102 126 157 205 253 297
#     4   9  17  30  47  68  97 130 166 203 242 302
#     4  10  20  33  51  75 102 136 174 209 256 314
#
# _framework density 18.123860000000001
#
# number of rings (size 3 to 8) (size 9 to 14) (size 15 to 20)
#    0.000    2.750    1.250    0.375    0.000    3.750 
#    0.000    8.125    0.000    3.750    0.000    0.000 
#    0.000    0.000    0.000    0.000    0.000    0.000 
#
# Total GULP energy -396436.749625 kJ/mol
# GULP energy per Si atom -12388.648426 kJ/mol
# Density = 1.808261 g / cm^3
# Si number density = 18.123860 Si / 1000 Ang^3
#
#
#
# Elastic Constant Matrix: (Units=GPa)
#
#
# Indices 1 2 3 4 5 6 
#
# 1 94.9598 31.3366 51.6226 0.0000 0.0000 0.0000
# 2 31.3366 50.9697 25.4824 0.0000 0.0000 0.0000
# 3 51.6226 25.4824 119.8187 0.0000 0.0000 0.0000
# 4 0.0000 0.0000 0.0000 15.4695 0.0000 0.0000
# 5 0.0000 0.0000 0.0000 0.0000 28.3446 0.0000
# 6 0.0000 0.0000 0.0000 0.0000 0.0000 10.6723
#
#
#
# Elastic Compliance Matrix: (Units=1/GPa)
#
#
# Indices 1 2 3 4 5 6 
#
# 1 0.015718 -0.007025 -0.005278 0.000000 0.000000 0.000000
# 2 -0.007025 0.025093 -0.002310 0.000000 0.000000 0.000000
# 3 -0.005278 -0.002310 0.011111 0.000000 0.000000 0.000000
# 4 0.000000 0.000000 0.000000 0.064643 0.000000 0.000000
# 5 0.000000 0.000000 0.000000 0.000000 0.035280 0.000000
# 6 0.000000 0.000000 0.000000 0.000000 0.000000 0.093700
#
#
# Mechanical properties :
#
#
# Convention : Reuss Voigt Hill
#
# Bulk Modulus (GPa) = 44.05915 53.62570 48.84243
# Shear Modulus (GPa) = 17.70925 21.38439 19.54682
#
# Velocity S-wave (km/s) = 3.12929 3.43870 3.28764
# Velocity P-wave (km/s) = 6.11714 6.73935 6.43577
#
# Compressibility (1/GPa) = 0.02269676
#
# Stress axis : x y z
#
# Youngs Moduli (GPa) = 63.62020 39.85096 89.99909
#
# Poissons Ratio (x) = 0.27995 0.47502
# Poissons Ratio (y) = 0.44693 0.20791
# Poissons Ratio (z) = 0.33579 0.09206
#
# Static dielectric constant tensor:
#      x y z
#    x 3.518620 0.000000 0.000000 
#    y 0.000000 2.897970 0.000000 
#    z 0.000000 0.000000 3.559220 
# 
# 
# High freq. dielectric constant tensor:
#      x y z
#    x 1.704860 0.000000 0.000000 
#    y 0.000000 1.648010 0.000000 
#    z 0.000000 0.000000 1.713630 
# 
# From -- ./inp_files/10256.got.cif
#   From: 2010.03.12/outbox.cif.g09.slc.cpg/sg38_6_cif.got.tgz:10256.got - 2010.04.14 02:38:36.
