data_PCOD8178987
_publ_section_title
;
Structure prediction by ZEFSAII (Michael W. Deem and Ramdas Pophale) SiO2 
 PCOD8178987
Probable space group: A M M 2
;
_chemical_formula_sum "Si O2"
_cell_formula_units_Z 64
_cell_length_a 14.064458
_cell_length_b 8.774500
_cell_length_c 30.907157
_cell_angle_alpha 90.000000
_cell_angle_beta 90.000000
_cell_angle_gamma 90.000000
_cell_volume 3814.208565
_symmetry_space_group_name_H-M "A M M 2"
_symmetry_group_IT_number 38
_symmetry_cell_setting 'orthorhombic'
loop_
_space_group_symop_operation_xyz
x,y,z
-x,-y,z
-x,y,z
x,-y,z
x,1/2+y,1/2+z
-x,1/2-y,1/2+z
-x,1/2+y,1/2+z
x,1/2-y,1/2+z
loop_
_atom_site_type_symbol
_atom_site_label
_atom_site_fract_x
_atom_site_fract_y
_atom_site_fract_z
Si Si1 0.715995 0.677818 0.422280
Si Si2 0.387076 0.828604 0.755564
Si Si3 0.391329 0.179057 0.343208
Si Si4 0.282349 0.821646 0.589190
Si Si5 0.891503 0.822553 0.460177
Si Si6 0.610420 0.823460 0.010491
Si Si7 0.611990 0.824100 0.168017
Si Si8 0.107319 0.676693 0.552308
O O1 0.709847 0.500000 0.411721
O O2 0.671479 0.770753 0.383282
O O3 0.825308 0.728749 0.427405
O O4 0.659055 0.720849 0.465498
O O5 0.500000 0.826566 0.756470
O O6 0.348774 0.755970 0.799980
O O7 0.351229 0.729368 0.714982
O O8 0.347637 0.000000 0.751154
O O9 0.500000 0.231143 0.351379
O O10 0.384682 0.000000 0.336759
O O11 0.345920 0.777727 0.548182
O O12 0.335740 0.776511 0.632626
O O13 0.180500 0.736241 0.588317
O O14 0.263590 0.000000 0.589027
O O15 0.871889 0.768994 0.508807
O O16 0.000000 0.788983 0.446795
O O17 0.866755 0.000000 0.457174
O O18 0.500000 0.784979 0.006265
O O19 0.627787 0.000000 0.022044
O O20 0.500000 0.796333 0.162872
O O21 0.638330 0.000000 0.161455
O O22 0.125724 0.500000 0.542181
O O23 0.000000 0.704503 0.569061
#
# Coordination Sequence:
#
# PCOD8178987 Si02
#       8
#     8   8   8   8   8   8   8   8
#     4  11  21  33  51  73  99 134 173 209 250 298
#     4   9  17  31  51  74 100 129 166 211 255 297
#     4  10  20  33  50  73 103 137 172 209 251 299
#     4  12  23  33  49  73 101 133 169 208 252 299
#     4  10  20  34  52  74  99 127 163 209 257 301
#     4  10  21  35  48  65  96 137 175 207 243 291
#     4  10  20  34  52  73 101 136 172 209 250 297
#     4  10  20  35  54  73  95 127 167 209 253 300
#
# _framework density 16.779364999999999
#
# number of rings (size 3 to 8) (size 9 to 14) (size 15 to 20)
#    0.000    1.750    1.250    4.125    0.000    7.250 
#    0.000    0.000    0.000    0.000    0.000    0.875 
#    0.000    7.000    0.000    0.000    0.000    0.000 
#
# Total GULP energy -396916.406013 kJ/mol
# GULP energy per Si atom -12403.637688 kJ/mol
# Density = 1.674117 g / cm^3
# Si number density = 16.779365 Si / 1000 Ang^3
#
#
#
# Elastic Constant Matrix: (Units=GPa)
#
#
# Indices 1 2 3 4 5 6 
#
# 1 78.8290 28.0936 34.5713 0.0000 0.0000 0.0000
# 2 28.0936 53.5831 22.4391 0.0000 0.0000 0.0000
# 3 34.5713 22.4391 88.4039 0.0000 0.0000 0.0000
# 4 0.0000 0.0000 0.0000 32.7666 0.0000 0.0000
# 5 0.0000 0.0000 0.0000 0.0000 2.4639 0.0000
# 6 0.0000 0.0000 0.0000 0.0000 0.0000 25.2284
#
#
#
# Elastic Compliance Matrix: (Units=1/GPa)
#
#
# Indices 1 2 3 4 5 6 
#
# 1 0.017386 -0.007014 -0.005019 0.000000 0.000000 0.000000
# 2 -0.007014 0.023712 -0.003276 0.000000 0.000000 0.000000
# 3 -0.005019 -0.003276 0.014106 0.000000 0.000000 0.000000
# 4 0.000000 0.000000 0.000000 0.030519 0.000000 0.000000
# 5 0.000000 0.000000 0.000000 0.000000 0.405866 0.000000
# 6 0.000000 0.000000 0.000000 0.000000 0.000000 0.039638
#
#
# Mechanical properties :
#
#
# Convention : Reuss Voigt Hill
#
# Bulk Modulus (GPa) = 40.67191 43.44713 42.05952
# Shear Modulus (GPa) = 8.77132 21.13924 14.95528
#
# Velocity S-wave (km/s) = 2.28884 3.55327 2.98869
# Velocity P-wave (km/s) = 5.59258 6.54092 6.08525
#
# Compressibility (1/GPa) = 0.02458699
#
# Stress axis : x y z
#
# Youngs Moduli (GPa) = 57.51610 42.17303 70.89252
#
# Poissons Ratio (x) = 0.29580 0.35580
# Poissons Ratio (y) = 0.40342 0.23223
# Poissons Ratio (z) = 0.28866 0.13815
#
# Static dielectric constant tensor:
#      x y z
#    x 3.139760 0.000000 0.000000 
#    y 0.000000 3.266720 0.000000 
#    z 0.000000 0.000000 3.128220 
# 
# 
# High freq. dielectric constant tensor:
#      x y z
#    x 1.628190 0.000000 0.000000 
#    y 0.000000 1.664020 0.000000 
#    z 0.000000 0.000000 1.634510 
# 
# From -- ./inp_files/25065.got.cif
#   From: 2010.03.12/outbox.cif.g09.slc.cpg/sg38_13_cif.got.tgz:25065.got - 2010.04.14 02:38:36.
