data_PCOD8178783
_publ_section_title
;
Structure prediction by ZEFSAII (Michael W. Deem and Ramdas Pophale) SiO2 
 PCOD8178783
Probable space group: A M M 2
;
_chemical_formula_sum "Si O2"
_cell_formula_units_Z 56
_cell_length_a 15.083685
_cell_length_b 9.357098
_cell_length_c 24.297567
_cell_angle_alpha 90.000000
_cell_angle_beta 90.000000
_cell_angle_gamma 90.000000
_cell_volume 3429.346913
_symmetry_space_group_name_H-M "A M M 2"
_symmetry_group_IT_number 38
_symmetry_cell_setting 'orthorhombic'
loop_
_space_group_symop_operation_xyz
x,y,z
-x,-y,z
-x,y,z
x,-y,z
x,1/2+y,1/2+z
-x,1/2-y,1/2+z
-x,1/2+y,1/2+z
x,1/2-y,1/2+z
loop_
_atom_site_type_symbol
_atom_site_label
_atom_site_fract_x
_atom_site_fract_y
_atom_site_fract_z
Si Si1 0.104595 0.334508 0.776330
Si Si2 0.105213 0.841710 0.879952
Si Si3 0.762796 0.836691 0.572966
Si Si4 0.897625 0.666474 0.502332
Si Si5 0.235099 0.664286 0.203409
Si Si6 0.597631 0.339812 0.573604
Si Si7 0.401947 0.660652 0.704373
O O1 0.131076 0.500000 0.773800
O O2 0.138080 0.272096 0.834867
O O3 0.151831 0.249619 0.727467
O O4 0.000000 0.311990 0.768773
O O5 0.000000 0.847837 0.881807
O O6 0.141448 0.000000 0.864591
O O7 0.138148 0.797011 0.940859
O O8 0.846260 0.759032 0.546729
O O9 0.770801 0.820442 0.638161
O O10 0.671902 0.766711 0.550299
O O11 0.762366 0.000000 0.554243
O O12 0.883231 0.500000 0.515179
O O13 0.000000 0.708690 0.508088
O O14 0.231190 0.500000 0.222169
O O15 0.326869 0.731609 0.226688
O O16 0.500000 0.291734 0.552537
O O17 0.618738 0.500000 0.552706
O O18 0.598437 0.337080 0.639001
O O19 0.500000 0.708340 0.725428
O O20 0.380895 0.500000 0.725222
#
# Coordination Sequence:
#
# PCOD8178783 Si02
#       7
#     8   8   8   8   8   8   8
#     4  10  20  32  47  67  89 116 151 189 227 265
#     4   8  15  30  50  68  85 108 143 187 230 268
#     4  10  20  30  42  65  95 124 152 184 223 264
#     4   9  18  32  49  67  88 118 153 186 222 265
#     4  10  20  31  43  63  93 126 155 183 219 265
#     4   8  14  26  44  63  84 114 150 185 221 262
#     4   8  14  26  44  64  86 113 146 185 225 262
#
# _framework density 16.329640000000001
#
# number of rings (size 3 to 8) (size 9 to 14) (size 15 to 20)
#    0.000    3.000    0.000    3.000    0.000    4.571 
#    0.000    7.143    0.000    0.000    0.000    1.000 
#    0.000    1.143    0.000    0.000    0.000    0.000 
#
# Total GULP energy -347069.757177 kJ/mol
# GULP energy per Si atom -12395.348471 kJ/mol
# Density = 1.629247 g / cm^3
# Si number density = 16.329640 Si / 1000 Ang^3
#
#
#
# Elastic Constant Matrix: (Units=GPa)
#
#
# Indices 1 2 3 4 5 6 
#
# 1 90.0748 68.8438 31.8669 0.0000 0.0000 0.0000
# 2 68.8438 124.0473 38.5022 0.0000 0.0000 0.0000
# 3 31.8669 38.5022 34.9573 0.0000 0.0000 0.0000
# 4 0.0000 0.0000 0.0000 23.8121 0.0000 0.0000
# 5 0.0000 0.0000 0.0000 0.0000 2.0017 0.0000
# 6 0.0000 0.0000 0.0000 0.0000 0.0000 26.1473
#
#
#
# Elastic Compliance Matrix: (Units=1/GPa)
#
#
# Indices 1 2 3 4 5 6 
#
# 1 0.021242 -0.008780 -0.009693 0.000000 0.000000 0.000000
# 2 -0.008780 0.015878 -0.009484 0.000000 0.000000 0.000000
# 3 -0.009693 -0.009484 0.047889 0.000000 0.000000 0.000000
# 4 0.000000 0.000000 0.000000 0.041996 0.000000 0.000000
# 5 0.000000 0.000000 0.000000 0.000000 0.499586 0.000000
# 6 0.000000 0.000000 0.000000 0.000000 0.000000 0.038245
#
#
# Mechanical properties :
#
#
# Convention : Reuss Voigt Hill
#
# Bulk Modulus (GPa) = 34.37242 58.61170 46.49206
# Shear Modulus (GPa) = 6.84511 17.71664 12.28087
#
# Velocity S-wave (km/s) = 2.04962 3.29741 2.74535
# Velocity P-wave (km/s) = 5.16682 7.10408 6.21144
#
# Compressibility (1/GPa) = 0.02909309
#
# Stress axis : x y z
#
# Youngs Moduli (GPa) = 47.07680 62.98029 20.88166
#
# Poissons Ratio (x) = 0.55298 0.20242
# Poissons Ratio (y) = 0.41334 0.19805
# Poissons Ratio (z) = 0.45634 0.59732
#
# Static dielectric constant tensor:
#      x y z
#    x 3.164700 0.000000 0.000000 
#    y 0.000000 3.247380 0.000000 
#    z 0.000000 0.000000 2.840770 
# 
# 
# High freq. dielectric constant tensor:
#      x y z
#    x 1.620180 0.000000 0.000000 
#    y 0.000000 1.635500 0.000000 
#    z 0.000000 0.000000 1.589030 
# 
# From -- ./inp_files/23053.got.cif
#   From: 2010.03.12/outbox.cif.g09.slc.cpg/sg38_12_cif.got.tgz:23053.got - 2010.04.14 02:38:36.
