data_PCOD8178945
_publ_section_title
;
Structure prediction by ZEFSAII (Michael W. Deem and Ramdas Pophale) SiO2 
 PCOD8178945
Probable space group: A M M 2
;
_chemical_formula_sum "Si O2"
_cell_formula_units_Z 64
_cell_length_a 8.865249
_cell_length_b 20.878185
_cell_length_c 19.973960
_cell_angle_alpha 90.000000
_cell_angle_beta 90.000000
_cell_angle_gamma 90.000000
_cell_volume 3696.986422
_symmetry_space_group_name_H-M "A M M 2"
_symmetry_group_IT_number 38
_symmetry_cell_setting 'orthorhombic'
loop_
_space_group_symop_operation_xyz
x,y,z
-x,-y,z
-x,y,z
x,-y,z
x,1/2+y,1/2+z
-x,1/2-y,1/2+z
-x,1/2+y,1/2+z
x,1/2-y,1/2+z
loop_
_atom_site_type_symbol
_atom_site_label
_atom_site_fract_x
_atom_site_fract_y
_atom_site_fract_z
Si Si1 0.680032 0.187282 0.941060
Si Si2 0.325236 0.072115 0.849860
Si Si3 0.327598 0.273448 0.581199
Si Si4 0.321608 0.812599 0.365316
Si Si5 0.673054 0.623699 0.089239
Si Si6 0.321170 0.234429 0.225902
Si Si7 0.822391 0.370606 0.225892
Si Si8 0.679626 0.929380 0.450090
O O1 0.500000 0.190940 0.943611
O O2 0.734617 0.121563 0.906414
O O3 0.743471 0.248293 0.899761
O O4 0.747236 0.190662 0.017248
O O5 0.500000 0.086156 0.833887
O O6 0.231228 0.079398 0.781834
O O7 0.302012 0.000000 0.877128
O O8 0.500000 0.294516 0.582682
O O9 0.309294 0.197910 0.570351
O O10 0.257572 0.292158 0.654308
O O11 0.500000 0.812695 0.374615
O O12 0.279161 0.813596 0.286283
O O13 0.251938 0.876336 0.399326
O O14 0.500000 0.607068 0.105653
O O15 0.771592 0.604069 0.153221
O O16 0.733978 0.584099 0.025739
O O17 0.500000 0.245739 0.220261
O O18 0.251123 0.302711 0.243090
O O19 0.000000 0.363894 0.227253
O O20 0.500000 0.925571 0.448255
O O21 0.736412 0.000000 0.428361
#
# Coordination Sequence:
#
# PCOD8178945 Si02
#       8
#     8   8   8   8   8   8   8   8
#     4   9  14  24  44  67  87 111 151 197 230 261
#     4  10  20  33  49  67  88 120 160 195 224 266
#     4   8  13  22  41  67  89 112 147 190 229 260
#     4   9  14  23  43  68  91 119 153 191 229 264
#     4   9  16  28  45  65  91 125 160 188 216 266
#     4   9  16  28  48  70  92 122 159 191 222 271
#     4  11  21  31  45  67  96 125 150 187 236 277
#     4   9  16  25  41  69  99 123 152 191 229 265
#
# _framework density 17.311396999999999
#
# number of rings (size 3 to 8) (size 9 to 14) (size 15 to 20)
#    0.000    2.750    2.500    1.875    0.000    0.750 
#    0.000    1.250    0.000    7.500    0.000    5.250 
#    0.000    0.000    0.000    0.375    0.000    2.000 
#
# Total GULP energy -396550.231941 kJ/mol
# GULP energy per Si atom -12392.194748 kJ/mol
# Density = 1.727200 g / cm^3
# Si number density = 17.311397 Si / 1000 Ang^3
#
#
#
# Elastic Constant Matrix: (Units=GPa)
#
#
# Indices 1 2 3 4 5 6 
#
# 1 27.3408 11.9440 19.1646 0.0000 0.0000 0.0000
# 2 11.9440 107.7263 78.5167 0.0000 0.0000 0.0000
# 3 19.1646 78.5167 149.6024 0.0000 0.0000 0.0000
# 4 0.0000 0.0000 0.0000 25.7475 0.0000 0.0000
# 5 0.0000 0.0000 0.0000 0.0000 2.6884 0.0000
# 6 0.0000 0.0000 0.0000 0.0000 0.0000 3.2658
#
#
#
# Elastic Compliance Matrix: (Units=1/GPa)
#
#
# Indices 1 2 3 4 5 6 
#
# 1 0.040270 -0.001142 -0.004560 0.000000 0.000000 0.000000
# 2 -0.001142 0.015066 -0.007761 0.000000 0.000000 0.000000
# 3 -0.004560 -0.007761 0.011342 0.000000 0.000000 0.000000
# 4 0.000000 0.000000 0.000000 0.038839 0.000000 0.000000
# 5 0.000000 0.000000 0.000000 0.000000 0.371972 0.000000
# 6 0.000000 0.000000 0.000000 0.000000 0.000000 0.306204
#
#
# Mechanical properties :
#
#
# Convention : Reuss Voigt Hill
#
# Bulk Modulus (GPa) = 25.15499 55.99111 40.57305
# Shear Modulus (GPa) = 6.06894 18.00996 12.03945
#
# Velocity S-wave (km/s) = 1.87440 3.22895 2.64003
# Velocity P-wave (km/s) = 4.38713 6.80553 5.72547
#
# Compressibility (1/GPa) = 0.03975354
#
# Stress axis : x y z
#
# Youngs Moduli (GPa) = 24.83231 66.37507 88.17048
#
# Poissons Ratio (x) = 0.07578 0.40202
# Poissons Ratio (y) = 0.02835 0.68428
# Poissons Ratio (z) = 0.11322 0.51513
#
# Static dielectric constant tensor:
#      x y z
#    x 2.663330 0.000000 0.000000 
#    y 0.000000 3.161130 0.000000 
#    z 0.000000 0.000000 3.631430 
# 
# 
# High freq. dielectric constant tensor:
#      x y z
#    x 1.606680 0.000000 0.000000 
#    y 0.000000 1.642930 0.000000 
#    z 0.000000 0.000000 1.683040 
# 
# From -- ./inp_files/20242.got.cif
#   From: 2010.03.12/outbox.cif.g09.slc.cpg/sg38_11_cif.got.tgz:20242.got - 2010.04.14 02:38:36.
