data_PCOD8178780
_publ_section_title
;
Structure prediction by ZEFSAII (Michael W. Deem and Ramdas Pophale) SiO2 
 PCOD8178780
Probable space group: A M M 2
;
_chemical_formula_sum "Si O2"
_cell_formula_units_Z 56
_cell_length_a 10.422835
_cell_length_b 20.647408
_cell_length_c 13.799619
_cell_angle_alpha 90.000000
_cell_angle_beta 90.000000
_cell_angle_gamma 90.000000
_cell_volume 2969.740476
_symmetry_space_group_name_H-M "A M M 2"
_symmetry_group_IT_number 38
_symmetry_cell_setting 'orthorhombic'
loop_
_space_group_symop_operation_xyz
x,y,z
-x,-y,z
-x,y,z
x,-y,z
x,1/2+y,1/2+z
-x,1/2-y,1/2+z
-x,1/2+y,1/2+z
x,1/2-y,1/2+z
loop_
_atom_site_type_symbol
_atom_site_label
_atom_site_fract_x
_atom_site_fract_y
_atom_site_fract_z
Si Si1 0.853583 0.155636 0.784040
Si Si2 0.643148 0.924701 0.885821
Si Si3 0.358009 0.500000 0.789322
Si Si4 0.144292 0.000000 0.130712
Si Si5 0.141991 0.784613 0.386706
Si Si6 0.361227 0.135820 0.292910
Si Si7 0.275398 0.623945 0.582817
Si Si8 0.147516 0.262482 0.099847
O O1 0.752420 0.099527 0.810530
O O2 0.852053 0.207388 0.871581
O O3 0.804238 0.190803 0.685822
O O4 0.000000 0.128310 0.771841
O O5 0.500000 0.915980 0.840478
O O6 0.670032 0.000000 0.908570
O O7 0.641974 0.882827 0.985057
O O8 0.500000 0.500000 0.738809
O O9 0.236625 0.500000 0.720833
O O10 0.347972 0.567152 0.851431
O O11 0.168670 0.933213 0.071451
O O12 0.000000 0.000000 0.168404
O O13 0.246222 0.816967 0.318032
O O14 0.168600 0.800529 0.498851
O O15 0.000000 0.809879 0.356360
O O16 0.500000 0.168524 0.315814
O O17 0.359852 0.114435 0.179659
O O18 0.220328 0.695351 0.594810
O O19 0.000000 0.245707 0.118692
#
# Coordination Sequence:
#
# PCOD8178780 Si02
#       8
#     8   8   4   4   8   8   8   8
#     4  10  21  39  61  85 114 152 192 238 290 347
#     4  11  24  41  60  86 120 156 194 243 297 351
#     4   8  18  34  50  68 105 148 179 218 279 336
#     4  10  20  28  48  82 113 146 189 228 267 336
#     4  10  20  35  57  83 113 147 183 232 290 343
#     4  10  20  34  53  79 111 149 188 225 273 342
#     4  11  19  34  52  84 120 157 184 228 288 347
#     4  10  20  36  57  82 116 151 188 236 292 341
#
# _framework density 18.856866
#
# number of rings (size 3 to 8) (size 9 to 14) (size 15 to 20)
#    0.000    1.857    3.571    0.857    0.000    4.286 
#    0.000    0.714    1.571    0.000    0.000    0.000 
#    0.000    0.000    0.000    0.000    0.000    0.000 
#
# Total GULP energy -346876.304263 kJ/mol
# GULP energy per Si atom -12388.439438 kJ/mol
# Density = 1.881395 g / cm^3
# Si number density = 18.856866 Si / 1000 Ang^3
#
#
#
# Elastic Constant Matrix: (Units=GPa)
#
#
# Indices 1 2 3 4 5 6 
#
# 1 130.2219 51.8911 28.1085 0.0000 0.0000 0.0000
# 2 51.8911 77.1506 23.4161 0.0000 0.0000 0.0000
# 3 28.1085 23.4161 80.2623 0.0000 0.0000 0.0000
# 4 0.0000 0.0000 0.0000 24.7211 0.0000 0.0000
# 5 0.0000 0.0000 0.0000 0.0000 21.2100 0.0000
# 6 0.0000 0.0000 0.0000 0.0000 0.0000 30.1365
#
#
#
# Elastic Compliance Matrix: (Units=1/GPa)
#
#
# Indices 1 2 3 4 5 6 
#
# 1 0.010726 -0.006664 -0.001812 0.000000 0.000000 0.000000
# 2 -0.006664 0.018361 -0.003023 0.000000 0.000000 0.000000
# 3 -0.001812 -0.003023 0.013976 0.000000 0.000000 0.000000
# 4 0.000000 0.000000 0.000000 0.040451 0.000000 0.000000
# 5 0.000000 0.000000 0.000000 0.000000 0.047148 0.000000
# 6 0.000000 0.000000 0.000000 0.000000 0.000000 0.033182
#
#
# Mechanical properties :
#
#
# Convention : Reuss Voigt Hill
#
# Bulk Modulus (GPa) = 49.83912 54.94067 52.38990
# Shear Modulus (GPa) = 25.83565 27.49480 26.66522
#
# Velocity S-wave (km/s) = 3.70549 3.82262 3.76451
# Velocity P-wave (km/s) = 6.69292 6.97726 6.83657
#
# Compressibility (1/GPa) = 0.02006456
#
# Stress axis : x y z
#
# Youngs Moduli (GPa) = 93.23230 54.46185 71.55284
#
# Poissons Ratio (x) = 0.36294 0.12966
# Poissons Ratio (y) = 0.62132 0.21630
# Poissons Ratio (z) = 0.16894 0.16464
#
# Static dielectric constant tensor:
#      x y z
#    x 3.472600 0.000000 0.000000 
#    y 0.000000 3.472890 0.000000 
#    z 0.000000 0.000000 3.300860 
# 
# 
# High freq. dielectric constant tensor:
#      x y z
#    x 1.736410 0.000000 0.000000 
#    y 0.000000 1.724890 0.000000 
#    z 0.000000 0.000000 1.701820 
# 
# From -- ./inp_files/12521.got.cif
#   From: 2010.03.12/outbox.cif.g09.slc.cpg/sg38_7_cif.got.tgz:12521.got - 2010.04.14 02:38:36.
