data_PCOD8178610
_publ_section_title
;
Structure prediction by ZEFSAII (Michael W. Deem and Ramdas Pophale) SiO2 
 PCOD8178610
Probable space group: A M M 2
;
_chemical_formula_sum "Si O2"
_cell_formula_units_Z 48
_cell_length_a 19.089450
_cell_length_b 7.916801
_cell_length_c 14.879758
_cell_angle_alpha 90.000000
_cell_angle_beta 90.000000
_cell_angle_gamma 90.000000
_cell_volume 2248.738795
_symmetry_space_group_name_H-M "A M M 2"
_symmetry_group_IT_number 38
_symmetry_cell_setting 'orthorhombic'
loop_
_space_group_symop_operation_xyz
x,y,z
-x,-y,z
-x,y,z
x,-y,z
x,1/2+y,1/2+z
-x,1/2-y,1/2+z
-x,1/2+y,1/2+z
x,1/2-y,1/2+z
loop_
_atom_site_type_symbol
_atom_site_label
_atom_site_fract_x
_atom_site_fract_y
_atom_site_fract_z
Si Si1 0.816671 0.199434 0.362210
Si Si2 0.816512 0.805509 0.564059
Si Si3 0.421068 0.500000 0.862057
Si Si4 0.420353 0.000000 0.577153
Si Si5 0.331241 0.313698 0.575258
Si Si6 0.921081 0.300074 0.710581
Si Si7 0.333053 0.313554 0.361718
O O1 0.833773 0.259340 0.463483
O O2 0.880267 0.260696 0.299535
O O3 0.745628 0.285591 0.325928
O O4 0.805760 0.000000 0.357238
O O5 0.749444 0.709309 0.606373
O O6 0.885234 0.776887 0.622717
O O7 0.795083 0.000000 0.560038
O O8 0.500000 0.500000 0.826197
O O9 0.383705 0.668145 0.822665
O O10 0.418669 0.500000 0.969627
O O11 0.381517 0.832085 0.615576
O O12 0.500000 0.000000 0.612518
O O13 0.357230 0.500000 0.606607
O O14 0.332548 0.298490 0.468497
O O15 0.920319 0.500000 0.702581
O O16 0.000000 0.229898 0.716279
O O17 0.359364 0.500000 0.331300
#
# Coordination Sequence:
#
# PCOD8178610 Si02
#       7
#     8   8   4   4   8   8   8
#     4   9  18  35  57  77 108 151 191 233 283 339
#     4  10  19  34  57  81 109 147 192 238 283 337
#     4   9  16  26  42  70 111 147 180 231 287 333
#     4   9  16  26  42  72 111 145 184 235 285 333
#     4   9  16  28  47  72 105 145 188 232 278 335
#     4  10  22  38  55  81 115 146 186 236 286 347
#     4   9  16  27  47  73 103 142 189 233 274 332
#
# _framework density 21.345299000000001
#
# number of rings (size 3 to 8) (size 9 to 14) (size 15 to 20)
#    0.000    2.667    1.667    0.500    0.000    3.000 
#    0.000    5.000    0.000    0.000    0.000    1.167 
#    0.000    0.000    0.000    0.000    0.000    0.000 
#
# Total GULP energy -297562.439708 kJ/mol
# GULP energy per Si atom -12398.434988 kJ/mol
# Density = 2.129672 g / cm^3
# Si number density = 21.345299 Si / 1000 Ang^3
#
#
#
# Elastic Constant Matrix: (Units=GPa)
#
#
# Indices 1 2 3 4 5 6 
#
# 1 177.4281 82.0841 42.5335 0.0000 0.0000 0.0000
# 2 82.0841 127.5670 22.8194 0.0000 0.0000 0.0000
# 3 42.5335 22.8194 53.3325 0.0000 0.0000 0.0000
# 4 0.0000 0.0000 0.0000 16.4561 0.0000 0.0000
# 5 0.0000 0.0000 0.0000 0.0000 -4.5684 0.0000
# 6 0.0000 0.0000 0.0000 0.0000 0.0000 27.1974
#
#
#
# Elastic Compliance Matrix: (Units=1/GPa)
#
#
# Indices 1 2 3 4 5 6 
#
# 1 0.009186 -0.004982 -0.005194 0.000000 0.000000 0.000000
# 2 -0.004982 0.011190 -0.000815 0.000000 0.000000 0.000000
# 3 -0.005194 -0.000815 0.023242 0.000000 0.000000 0.000000
# 4 0.000000 0.000000 0.000000 0.060768 0.000000 0.000000
# 5 0.000000 0.000000 0.000000 0.000000 -0.218893 0.000000
# 6 0.000000 0.000000 0.000000 0.000000 0.000000 0.036768
#
#
# Mechanical properties :
#
#
# Convention : Reuss Voigt Hill
#
# Bulk Modulus (GPa) = 46.22001 72.57796 59.39898
# Shear Modulus (GPa) = -102.99804 21.87639 -40.56083
#
# Velocity S-wave (km/s) = -6.95399 3.20485 -4.36388
# Velocity P-wave (km/s) = 6.54040 6.91161 1.58012
#
# Compressibility (1/GPa) = 0.02163565
#
# Stress axis : x y z
#
# Youngs Moduli (GPa) = 108.86162 89.36327 43.02608
#
# Poissons Ratio (x) = 0.44517 0.22350
# Poissons Ratio (y) = 0.54231 0.03507
# Poissons Ratio (z) = 0.56548 0.07284
#
# Static dielectric constant tensor:
#      x y z
#    x 3.894210 0.000000 0.000000 
#    y 0.000000 3.945200 0.000000 
#    z 0.000000 0.000000 3.472190 
# 
# 
# High freq. dielectric constant tensor:
#      x y z
#    x 1.825770 0.000000 0.000000 
#    y 0.000000 1.841680 0.000000 
#    z 0.000000 0.000000 1.807460 
# 
# From -- ./inp_files/15032.got.cif
#   From: 2010.03.12/outbox.cif.g09.slc.cpg/sg38_8_cif.got.tgz:15032.got - 2010.04.14 02:38:36.
