data_PCOD8178870
_publ_section_title
;
Structure prediction by ZEFSAII (Michael W. Deem and Ramdas Pophale) SiO2 
 PCOD8178870
Probable space group: A M M 2
;
_chemical_formula_sum "Si O2"
_cell_formula_units_Z 64
_cell_length_a 9.331969
_cell_length_b 15.793247
_cell_length_c 23.369786
_cell_angle_alpha 90.000000
_cell_angle_beta 90.000000
_cell_angle_gamma 90.000000
_cell_volume 3444.287937
_symmetry_space_group_name_H-M "A M M 2"
_symmetry_group_IT_number 38
_symmetry_cell_setting 'orthorhombic'
loop_
_space_group_symop_operation_xyz
x,y,z
-x,-y,z
-x,y,z
x,-y,z
x,1/2+y,1/2+z
-x,1/2-y,1/2+z
-x,1/2+y,1/2+z
x,1/2-y,1/2+z
loop_
_atom_site_type_symbol
_atom_site_label
_atom_site_fract_x
_atom_site_fract_y
_atom_site_fract_z
Si Si1 0.836280 0.819716 0.471120
Si Si2 0.165822 0.358607 0.412580
Si Si3 0.331869 0.598100 0.297276
Si Si4 0.661320 0.908413 0.017575
Si Si5 0.670297 0.905122 0.258618
Si Si6 0.654322 0.402980 0.883541
Si Si7 0.332421 0.238807 0.576114
Si Si8 0.670095 0.735004 0.204016
O O1 0.814541 0.738104 0.431348
O O2 0.768543 0.894077 0.433937
O O3 0.754819 0.817201 0.531284
O O4 0.000000 0.839256 0.484801
O O5 0.245970 0.376097 0.353637
O O6 0.234962 0.413446 0.463019
O O7 0.000000 0.383812 0.405661
O O8 0.500000 0.611676 0.309115
O O9 0.300569 0.500000 0.280896
O O10 0.277443 0.659506 0.245918
O O11 0.500000 0.890884 0.995112
O O12 0.704027 0.837530 0.063819
O O13 0.670869 0.000000 0.048518
O O14 0.500000 0.910362 0.253692
O O15 0.714325 0.872381 0.322148
O O16 0.731527 0.829024 0.219054
O O17 0.733045 0.000000 0.243823
O O18 0.500000 0.358250 0.898084
O O19 0.621887 0.500000 0.874548
O O20 0.500000 0.219490 0.568645
O O21 0.278555 0.214741 0.639511
O O22 0.500000 0.739669 0.206055
#
# Coordination Sequence:
#
# PCOD8178870 Si02
#       8
#     8   8   8   8   8   8   8   8
#     4  10  20  33  49  70  97 129 162 198 243 290
#     4  10  20  32  48  72  99 127 160 197 241 294
#     4  10  20  33  50  72  97 127 163 202 246 294
#     4   9  17  29  46  70  98 125 154 192 240 292
#     4   8  14  25  45  75 104 125 150 190 241 294
#     4   9  17  30  50  76 102 127 157 194 239 292
#     4   9  18  32  49  68  92 125 164 202 239 283
#     4   9  17  30  48  69  95 128 163 200 241 284
#
# _framework density 18.581489000000001
#
# number of rings (size 3 to 8) (size 9 to 14) (size 15 to 20)
#    0.000    2.750    0.000    2.625    0.000    5.250 
#    0.000    3.750    0.000    3.000    0.000    0.000 
#    0.000    0.000    0.000    0.000    0.000    0.000 
#
# Total GULP energy -396526.745082 kJ/mol
# GULP energy per Si atom -12391.460784 kJ/mol
# Density = 1.853920 g / cm^3
# Si number density = 18.581489 Si / 1000 Ang^3
#
#
#
# Elastic Constant Matrix: (Units=GPa)
#
#
# Indices 1 2 3 4 5 6 
#
# 1 59.9725 17.1002 43.4356 0.0000 0.0000 0.0000
# 2 17.1002 51.3984 40.8192 0.0000 0.0000 0.0000
# 3 43.4356 40.8192 123.7774 0.0000 0.0000 0.0000
# 4 0.0000 0.0000 0.0000 19.3010 0.0000 0.0000
# 5 0.0000 0.0000 0.0000 0.0000 4.9172 0.0000
# 6 0.0000 0.0000 0.0000 0.0000 0.0000 14.0128
#
#
#
# Elastic Compliance Matrix: (Units=1/GPa)
#
#
# Indices 1 2 3 4 5 6 
#
# 1 0.022458 -0.001643 -0.007339 0.000000 0.000000 0.000000
# 2 -0.001643 0.026480 -0.008156 0.000000 0.000000 0.000000
# 3 -0.007339 -0.008156 0.013344 0.000000 0.000000 0.000000
# 4 0.000000 0.000000 0.000000 0.051811 0.000000 0.000000
# 5 0.000000 0.000000 0.000000 0.000000 0.203366 0.000000
# 6 0.000000 0.000000 0.000000 0.000000 0.000000 0.071363
#
#
# Mechanical properties :
#
#
# Convention : Reuss Voigt Hill
#
# Bulk Modulus (GPa) = 35.70712 48.65093 42.17902
# Shear Modulus (GPa) = 11.56246 16.56575 14.06410
#
# Velocity S-wave (km/s) = 2.49721 2.98907 2.75414
# Velocity P-wave (km/s) = 5.25100 6.17673 5.73258
#
# Compressibility (1/GPa) = 0.02800562
#
# Stress axis : x y z
#
# Youngs Moduli (GPa) = 44.52709 37.76478 74.93987
#
# Poissons Ratio (x) = 0.06206 0.54999
# Poissons Ratio (y) = 0.07317 0.61119
# Poissons Ratio (z) = 0.32679 0.30800
#
# Static dielectric constant tensor:
#      x y z
#    x 3.124480 0.000000 0.000000 
#    y 0.000000 3.494420 0.000000 
#    z 0.000000 0.000000 3.432240 
# 
# 
# High freq. dielectric constant tensor:
#      x y z
#    x 1.686060 0.000000 0.000000 
#    y 0.000000 1.718760 0.000000 
#    z 0.000000 0.000000 1.714200 
# 
# From -- ./inp_files/20059.got.cif
#   From: 2010.03.12/outbox.cif.g09.slc.cpg/sg38_11_cif.got.tgz:20059.got - 2010.04.14 02:38:36.
