data_PCOD8178090
_publ_section_title
;
Structure prediction by ZEFSAII (Michael W. Deem and Ramdas Pophale) SiO2 
 PCOD8178090
Probable space group: A M M 2
;
_chemical_formula_sum "Si O2"
_cell_formula_units_Z 64
_cell_length_a 8.803851
_cell_length_b 23.525020
_cell_length_c 19.303234
_cell_angle_alpha 90.000000
_cell_angle_beta 90.000000
_cell_angle_gamma 90.000000
_cell_volume 3997.907674
_symmetry_space_group_name_H-M "A M M 2"
_symmetry_group_IT_number 38
_symmetry_cell_setting 'orthorhombic'
loop_
_space_group_symop_operation_xyz
x,y,z
-x,-y,z
-x,y,z
x,-y,z
x,1/2+y,1/2+z
-x,1/2-y,1/2+z
-x,1/2+y,1/2+z
x,1/2-y,1/2+z
loop_
_atom_site_type_symbol
_atom_site_label
_atom_site_fract_x
_atom_site_fract_y
_atom_site_fract_z
Si Si1 0.180791 0.116699 0.600890
Si Si2 0.178939 0.934512 0.745249
Si Si3 0.825468 0.836472 0.368811
Si Si4 0.181631 0.063395 0.459127
Si Si5 0.819630 0.266067 0.745354
Si Si6 0.820295 0.255761 0.094772
Si Si7 0.321186 0.163054 0.824357
Si Si8 0.824767 0.221076 0.948621
O O1 0.239193 0.085890 0.670221
O O2 0.241801 0.081759 0.534716
O O3 0.247743 0.180614 0.597450
O O4 0.000000 0.117944 0.600646
O O5 0.263524 0.899773 0.805576
O O6 0.000000 0.924197 0.751912
O O7 0.222098 0.000000 0.755329
O O8 0.749862 0.893369 0.400980
O O9 0.756110 0.817400 0.294038
O O10 0.804090 0.785443 0.422749
O O11 0.000000 0.850605 0.356816
O O12 0.000000 0.066146 0.459155
O O13 0.239984 0.000000 0.442123
O O14 0.774633 0.277434 0.665421
O O15 0.751690 0.206438 0.769694
O O16 0.000000 0.260032 0.754875
O O17 0.000000 0.261353 0.087871
O O18 0.762052 0.220542 0.027874
O O19 0.500000 0.166663 0.818640
O O20 0.272287 0.177454 0.902972
O O21 0.000000 0.202280 0.943896
#
# Coordination Sequence:
#
# PCOD8178090 Si02
#       8
#     8   8   8   8   8   8   8   8
#     4   9  14  22  37  63  91 113 146 182 211 249
#     4  10  19  31  48  67  89 121 158 192 223 262
#     4   8  13  21  34  55  80 109 140 172 210 256
#     4   9  14  19  30  54  89 120 142 170 209 250
#     4   9  16  28  46  64  86 114 149 187 223 269
#     4   9  14  23  44  67  84 109 146 187 227 262
#     4  11  21  31  43  63  91 121 150 186 230 271
#     4   9  16  28  46  63  82 110 147 189 231 272
#
# _framework density 16.008374
#
# number of rings (size 3 to 8) (size 9 to 14) (size 15 to 20)
#    0.000    2.750    2.500    2.250    0.000    1.750 
#    0.000    0.625    0.000    0.000    0.000    0.875 
#    0.000   13.000    0.000    0.000    0.000    0.000 
#
# Total GULP energy -396571.829900 kJ/mol
# GULP energy per Si atom -12392.869684 kJ/mol
# Density = 1.597194 g / cm^3
# Si number density = 16.008374 Si / 1000 Ang^3
#
#
#
# Elastic Constant Matrix: (Units=GPa)
#
#
# Indices 1 2 3 4 5 6 
#
# 1 25.9798 17.9285 22.7626 0.0000 0.0000 0.0000
# 2 17.9285 97.0128 66.5907 0.0000 0.0000 0.0000
# 3 22.7626 66.5907 141.0516 0.0000 0.0000 0.0000
# 4 0.0000 0.0000 0.0000 26.9416 0.0000 0.0000
# 5 0.0000 0.0000 0.0000 0.0000 4.7952 0.0000
# 6 0.0000 0.0000 0.0000 0.0000 0.0000 4.3243
#
#
#
# Elastic Compliance Matrix: (Units=1/GPa)
#
#
# Indices 1 2 3 4 5 6 
#
# 1 0.046469 -0.005090 -0.005096 0.000000 0.000000 0.000000
# 2 -0.005090 0.015807 -0.006641 0.000000 0.000000 0.000000
# 3 -0.005096 -0.006641 0.011047 0.000000 0.000000 0.000000
# 4 0.000000 0.000000 0.000000 0.037117 0.000000 0.000000
# 5 0.000000 0.000000 0.000000 0.000000 0.208541 0.000000
# 6 0.000000 0.000000 0.000000 0.000000 0.000000 0.231252
#
#
# Mechanical properties :
#
#
# Convention : Reuss Voigt Hill
#
# Bulk Modulus (GPa) = 25.20844 53.17864 39.19354
# Shear Modulus (GPa) = 8.37366 17.66305 13.01836
#
# Velocity S-wave (km/s) = 2.28957 3.32530 2.85480
# Velocity P-wave (km/s) = 4.77187 6.93072 5.95002
#
# Compressibility (1/GPa) = 0.03966925
#
# Stress axis : x y z
#
# Youngs Moduli (GPa) = 21.51979 63.26263 90.51933
#
# Poissons Ratio (x) = 0.32198 0.46131
# Poissons Ratio (y) = 0.10953 0.60116
# Poissons Ratio (z) = 0.10967 0.42014
#
# Static dielectric constant tensor:
#      x y z
#    x 2.529720 0.000000 0.000000 
#    y 0.000000 3.026590 0.000000 
#    z 0.000000 0.000000 3.342140 
# 
# 
# High freq. dielectric constant tensor:
#      x y z
#    x 1.562530 0.000000 0.000000 
#    y 0.000000 1.591270 0.000000 
#    z 0.000000 0.000000 1.619400 
# 
# From -- ./inp_files/20291.got.cif
#   From: 2010.03.12/outbox.cif.g09.slc.cpg/sg38_11_cif.got.tgz:20291.got - 2010.04.14 02:38:36.
