data_PCOD8178865
_publ_section_title
;
Structure prediction by ZEFSAII (Michael W. Deem and Ramdas Pophale) SiO2 
 PCOD8178865
Probable space group: A M M 2
;
_chemical_formula_sum "Si O2"
_cell_formula_units_Z 64
_cell_length_a 18.713917
_cell_length_b 25.424324
_cell_length_c 7.484261
_cell_angle_alpha 90.000000
_cell_angle_beta 90.000000
_cell_angle_gamma 90.000000
_cell_volume 3560.926730
_symmetry_space_group_name_H-M "A M M 2"
_symmetry_group_IT_number 38
_symmetry_cell_setting 'orthorhombic'
loop_
_space_group_symop_operation_xyz
x,y,z
-x,-y,z
-x,y,z
x,-y,z
x,1/2+y,1/2+z
-x,1/2-y,1/2+z
-x,1/2+y,1/2+z
x,1/2-y,1/2+z
loop_
_atom_site_type_symbol
_atom_site_label
_atom_site_fract_x
_atom_site_fract_y
_atom_site_fract_z
Si Si1 0.920889 0.235693 0.813750
Si Si2 0.582404 0.368143 0.848672
Si Si3 0.779008 0.127338 0.054409
Si Si4 0.078006 0.663206 0.653044
Si Si5 0.648249 0.939360 0.056185
Si Si6 0.582513 0.440433 0.179680
Si Si7 0.225163 0.193913 0.720170
Si Si8 0.287350 0.201023 0.341210
O O1 0.912533 0.300170 0.829959
O O2 0.855986 0.213454 0.694698
O O3 0.000000 0.222646 0.731377
O O4 0.914736 0.210003 0.007568
O O5 0.500000 0.351220 0.852147
O O6 0.596355 0.404934 0.678395
O O7 0.628861 0.314805 0.839771
O O8 0.604855 0.400949 0.023469
O O9 0.861684 0.118711 0.118191
O O10 0.731637 0.075495 0.088603
O O11 0.751032 0.175225 0.172788
O O12 0.774100 0.142357 0.845641
O O13 0.000000 0.635254 0.647123
O O14 0.636568 0.000000 0.104605
O O15 0.629350 0.926728 0.852087
O O16 0.500000 0.433622 0.232176
O O17 0.597668 0.500000 0.114820
O O18 0.254200 0.179521 0.525460
O O19 0.276773 0.236740 0.817734
#
# Coordination Sequence:
#
# PCOD8178865 Si02
#       8
#     8   8   8   8   8   8   8   8
#     4   9  16  25  41  66  93 124 158 197 237 274
#     4  10  21  35  50  73  99 124 158 200 242 292
#     4  10  20  32  48  71  98 128 162 200 240 290
#     4   9  16  26  41  64  95 127 158 195 237 278
#     4  10  20  34  54  76  96 121 158 204 250 294
#     4   9  17  31  52  75  96 118 146 190 251 300
#     4  11  18  32  49  68 100 135 164 196 234 283
#     4  11  20  31  50  68  93 134 168 190 236 286
#
# _framework density 17.972850000000001
#
# number of rings (size 3 to 8) (size 9 to 14) (size 15 to 20)
#    0.000    2.125    2.500    2.250    0.000    1.250 
#    0.000    0.625    0.000    0.375    0.000    0.000 
#    0.000    0.000    0.000    7.750    0.000    0.000 
#
# Total GULP energy -396567.416997 kJ/mol
# GULP energy per Si atom -12392.731781 kJ/mol
# Density = 1.793194 g / cm^3
# Si number density = 17.972850 Si / 1000 Ang^3
#
#
#
# Elastic Constant Matrix: (Units=GPa)
#
#
# Indices 1 2 3 4 5 6 
#
# 1 115.4216 23.9250 18.9076 0.0000 0.0000 0.0000
# 2 23.9250 28.4444 2.6537 0.0000 0.0000 0.0000
# 3 18.9076 2.6537 56.5322 0.0000 0.0000 0.0000
# 4 0.0000 0.0000 0.0000 15.6963 0.0000 0.0000
# 5 0.0000 0.0000 0.0000 0.0000 22.4831 0.0000
# 6 0.0000 0.0000 0.0000 0.0000 0.0000 15.5813
#
#
#
# Elastic Compliance Matrix: (Units=1/GPa)
#
#
# Indices 1 2 3 4 5 6 
#
# 1 0.011067 -0.009003 -0.003279 0.000000 0.000000 0.000000
# 2 -0.009003 0.042634 0.001010 0.000000 0.000000 0.000000
# 3 -0.003279 0.001010 0.018738 0.000000 0.000000 0.000000
# 4 0.000000 0.000000 0.000000 0.063709 0.000000 0.000000
# 5 0.000000 0.000000 0.000000 0.000000 0.044478 0.000000
# 6 0.000000 0.000000 0.000000 0.000000 0.000000 0.064180
#
#
# Mechanical properties :
#
#
# Convention : Reuss Voigt Hill
#
# Bulk Modulus (GPa) = 20.04173 32.37455 26.20814
# Shear Modulus (GPa) = 17.60672 21.07960 19.34316
#
# Velocity S-wave (km/s) = 3.13330 3.42842 3.28417
# Velocity P-wave (km/s) = 4.92599 5.80725 5.38468
#
# Compressibility (1/GPa) = 0.04989590
#
# Stress axis : x y z
#
# Youngs Moduli (GPa) = 90.35759 23.45522 53.36668
#
# Poissons Ratio (x) = 0.21116 0.17498
# Poissons Ratio (y) = 0.81347 -0.05388
# Poissons Ratio (z) = 0.29627 -0.02368
#
# Static dielectric constant tensor:
#      x y z
#    x 3.587030 0.000000 0.000000 
#    y 0.000000 2.904030 0.000000 
#    z 0.000000 0.000000 3.403690 
# 
# 
# High freq. dielectric constant tensor:
#      x y z
#    x 1.706460 0.000000 0.000000 
#    y 0.000000 1.639010 0.000000 
#    z 0.000000 0.000000 1.706430 
# 
# From -- ./inp_files/6573.got.cif
#   From: 2010.03.12/outbox.cif.g09.slc.cpg/sg38_4_cif.got.tgz:6573.got - 2010.04.14 02:38:36.
