data_PCOD8178298
_publ_section_title
;
Structure prediction by ZEFSAII (Michael W. Deem and Ramdas Pophale) SiO2 
 PCOD8178298
Probable space group: A M M 2
;
_chemical_formula_sum "Si O2"
_cell_formula_units_Z 56
_cell_length_a 16.622614
_cell_length_b 18.188338
_cell_length_c 9.688928
_cell_angle_alpha 90.000000
_cell_angle_beta 90.000000
_cell_angle_gamma 90.000000
_cell_volume 2929.328419
_symmetry_space_group_name_H-M "A M M 2"
_symmetry_group_IT_number 38
_symmetry_cell_setting 'orthorhombic'
loop_
_space_group_symop_operation_xyz
x,y,z
-x,-y,z
-x,y,z
x,-y,z
x,1/2+y,1/2+z
-x,1/2-y,1/2+z
-x,1/2+y,1/2+z
x,1/2-y,1/2+z
loop_
_atom_site_type_symbol
_atom_site_label
_atom_site_fract_x
_atom_site_fract_y
_atom_site_fract_z
Si Si1 0.692884 0.335662 0.839080
Si Si2 0.852257 0.412891 0.401275
Si Si3 0.000000 0.587340 0.216476
Si Si4 0.000000 0.912663 0.399793
Si Si5 0.151083 0.087338 0.218960
Si Si6 0.589824 0.840342 0.584753
Si Si7 0.693933 0.665112 0.346949
Si Si8 0.412524 0.830326 0.087107
O O1 0.767884 0.381040 0.783853
O O2 0.719246 0.250658 0.853159
O O3 0.615780 0.342410 0.741536
O O4 0.657294 0.371552 0.979169
O O5 0.848624 0.500000 0.400435
O O6 0.924125 0.383874 0.304355
O O7 0.861361 0.385103 0.560441
O O8 0.773903 0.381557 0.325748
O O9 0.000000 0.500000 0.209782
O O10 0.000000 0.618225 0.058143
O O11 0.922136 0.884508 0.315097
O O12 0.000000 0.000000 0.404187
O O13 0.156610 0.000000 0.221464
O O14 0.500000 0.876766 0.575844
O O15 0.626566 0.852942 0.734497
O O16 0.580190 0.755042 0.548792
O O17 0.654087 0.635049 0.487361
O O18 0.500000 0.867731 0.068993
#
# Coordination Sequence:
#
# PCOD8178298 Si02
#       8
#     8   8   4   4   8   8   8   8
#     4  10  19  32  52  79 108 138 174 217 262 306
#     4  10  20  36  57  79 105 137 174 213 257 310
#     4   9  19  35  56  81 104 133 173 213 254 309
#     4   9  19  35  56  81 104 133 173 213 254 309
#     4  10  20  36  57  79 105 137 174 213 257 310
#     4   9  18  30  49  76 103 138 180 221 259 297
#     4  10  19  32  52  79 108 138 174 217 262 306
#     4   9  16  30  51  74 103 138 180 219 251 301
#
# _framework density 19.117007999999998
#
# number of rings (size 3 to 8) (size 9 to 14) (size 15 to 20)
#    0.000    2.429    1.429    1.286    2.000    5.143 
#    0.000    0.714    0.000    5.143    0.000    0.000 
#    0.000    0.000    0.000    0.000    0.000    0.000 
#
# Total GULP energy -347023.326896 kJ/mol
# GULP energy per Si atom -12393.690246 kJ/mol
# Density = 1.907350 g / cm^3
# Si number density = 19.117008 Si / 1000 Ang^3
#
#
#
# Elastic Constant Matrix: (Units=GPa)
#
#
# Indices 1 2 3 4 5 6 
#
# 1 144.3291 19.4533 44.6631 0.0000 0.0000 0.0000
# 2 19.4533 10.9497 13.7039 0.0000 0.0000 0.0000
# 3 44.6631 13.7039 105.6143 0.0000 0.0000 0.0000
# 4 0.0000 0.0000 0.0000 15.6743 0.0000 0.0000
# 5 0.0000 0.0000 0.0000 0.0000 20.8365 0.0000
# 6 0.0000 0.0000 0.0000 0.0000 0.0000 27.1875
#
#
#
# Elastic Compliance Matrix: (Units=1/GPa)
#
#
# Indices 1 2 3 4 5 6 
#
# 1 0.009515 -0.014169 -0.002185 0.000000 0.000000 0.000000
# 2 -0.014169 0.130132 -0.010893 0.000000 0.000000 0.000000
# 3 -0.002185 -0.010893 0.011806 0.000000 0.000000 0.000000
# 4 0.000000 0.000000 0.000000 0.063799 0.000000 0.000000
# 5 0.000000 0.000000 0.000000 0.000000 0.047993 0.000000
# 6 0.000000 0.000000 0.000000 0.000000 0.000000 0.036782
#
#
# Mechanical properties :
#
#
# Convention : Reuss Voigt Hill
#
# Bulk Modulus (GPa) = 10.31373 46.28152 28.29762
# Shear Modulus (GPa) = 12.92524 24.94451 18.93488
#
# Velocity S-wave (km/s) = 2.60304 3.61617 3.15059
# Velocity P-wave (km/s) = 3.80015 6.45738 5.29806
#
# Compressibility (1/GPa) = 0.09695815
#
# Stress axis : x y z
#
# Youngs Moduli (GPa) = 105.10226 7.68448 84.70301
#
# Poissons Ratio (x) = 0.10888 0.18509
# Poissons Ratio (y) = 1.48918 0.92271
# Poissons Ratio (z) = 0.22966 0.08371
#
# Static dielectric constant tensor:
#      x y z
#    x 3.624440 0.000000 0.000000 
#    y 0.000000 2.944990 0.000000 
#    z 0.000000 0.000000 3.763230 
# 
# 
# High freq. dielectric constant tensor:
#      x y z
#    x 1.759920 0.000000 0.000000 
#    y 0.000000 1.678220 0.000000 
#    z 0.000000 0.000000 1.762030 
# 
# From -- ./inp_files/5756.got.cif
#   From: 2010.03.12/outbox.cif.g09.slc.cpg/sg38_3_cif.got.tgz:5756.got - 2010.04.14 02:38:36.
