data_PCOD8178386
_publ_section_title
;
Structure prediction by ZEFSAII (Michael W. Deem and Ramdas Pophale) SiO2 
 PCOD8178386
Probable space group: A M M 2
;
_chemical_formula_sum "Si O2"
_cell_formula_units_Z 52
_cell_length_a 7.800837
_cell_length_b 21.417804
_cell_length_c 15.050303
_cell_angle_alpha 90.000000
_cell_angle_beta 90.000000
_cell_angle_gamma 90.000000
_cell_volume 2514.556433
_symmetry_space_group_name_H-M "A M M 2"
_symmetry_group_IT_number 38
_symmetry_cell_setting 'orthorhombic'
loop_
_space_group_symop_operation_xyz
x,y,z
-x,-y,z
-x,y,z
x,-y,z
x,1/2+y,1/2+z
-x,1/2-y,1/2+z
-x,1/2+y,1/2+z
x,1/2-y,1/2+z
loop_
_atom_site_type_symbol
_atom_site_label
_atom_site_fract_x
_atom_site_fract_y
_atom_site_fract_z
Si Si1 0.500000 0.071761 0.131081
Si Si2 0.201386 0.930099 0.823254
Si Si3 0.694210 0.808603 0.908403
Si Si4 0.500000 0.382912 0.824496
Si Si5 0.808184 0.796478 0.286106
Si Si6 0.812666 0.573721 0.121969
Si Si7 0.500000 0.928793 0.514852
Si Si8 0.805385 0.162178 0.094027
O O1 0.500000 0.074144 0.237855
O O2 0.671031 0.104956 0.093978
O O3 0.500000 0.000000 0.100262
O O4 0.297591 0.882311 0.887827
O O5 0.244370 0.911395 0.722265
O O6 0.000000 0.926128 0.840986
O O7 0.268300 0.000000 0.844020
O O8 0.500000 0.785074 0.910782
O O9 0.793963 0.771512 0.831016
O O10 0.777055 0.796605 0.005401
O O11 0.671151 0.341749 0.831103
O O12 0.500000 0.427231 0.909257
O O13 0.772689 0.793289 0.179760
O O14 0.000000 0.822566 0.302832
O O15 0.829012 0.500000 0.109068
O O16 0.671062 0.603258 0.055692
O O17 0.000000 0.603718 0.101462
O O18 0.500000 0.000000 0.547255
O O19 0.000000 0.135598 0.095452
#
# Coordination Sequence:
#
# PCOD8178386 Si02
#       8
#     4   8   8   4   8   8   4   8
#     4  10  21  39  63  91 124 159 201 253 306 367
#     4   9  19  36  56  81 118 158 195 241 296 356
#     4  12  23  38  63  91 121 157 198 248 302 359
#     4  10  21  39  58  87 118 154 201 255 300 353
#     4  10  22  43  65  84 116 159 199 249 302 348
#     4   8  16  32  51  75 113 155 190 231 283 341
#     4  10  19  32  55  84 115 155 196 242 298 350
#     4  10  22  42  65  88 123 164 202 251 305 358
#
# _framework density 20.679593000000001
#
# number of rings (size 3 to 8) (size 9 to 14) (size 15 to 20)
#    0.000    2.154    1.538    2.538    1.077    1.846 
#    2.769    0.000    0.000    2.769    0.000    0.000 
#    0.000    0.000    0.000    0.000    0.000    0.000 
#
# Total GULP energy -322335.404484 kJ/mol
# GULP energy per Si atom -12397.515557 kJ/mol
# Density = 2.063252 g / cm^3
# Si number density = 20.679593 Si / 1000 Ang^3
#
#
#
# Elastic Constant Matrix: (Units=GPa)
#
#
# Indices 1 2 3 4 5 6 
#
# 1 139.4460 28.8296 49.5546 0.0000 0.0000 0.0000
# 2 28.8296 65.3580 36.1705 0.0000 0.0000 0.0000
# 3 49.5546 36.1705 122.9473 0.0000 0.0000 0.0000
# 4 0.0000 0.0000 0.0000 27.4274 0.0000 0.0000
# 5 0.0000 0.0000 0.0000 0.0000 27.7058 0.0000
# 6 0.0000 0.0000 0.0000 0.0000 0.0000 18.5366
#
#
#
# Elastic Compliance Matrix: (Units=1/GPa)
#
#
# Indices 1 2 3 4 5 6 
#
# 1 0.008638 -0.002250 -0.002820 0.000000 0.000000 0.000000
# 2 -0.002250 0.018862 -0.004642 0.000000 0.000000 0.000000
# 3 -0.002820 -0.004642 0.010636 0.000000 0.000000 0.000000
# 4 0.000000 0.000000 0.000000 0.036460 0.000000 0.000000
# 5 0.000000 0.000000 0.000000 0.000000 0.036094 0.000000
# 6 0.000000 0.000000 0.000000 0.000000 0.000000 0.053947
#
#
# Mechanical properties :
#
#
# Convention : Reuss Voigt Hill
#
# Bulk Modulus (GPa) = 53.44101 61.87339 57.65720
# Shear Modulus (GPa) = 26.27452 28.94707 27.61080
#
# Velocity S-wave (km/s) = 3.56835 3.74543 3.65796
# Velocity P-wave (km/s) = 6.54798 6.97778 6.76629
#
# Compressibility (1/GPa) = 0.01871222
#
# Stress axis : x y z
#
# Youngs Moduli (GPa) = 115.76117 53.01696 94.02153
#
# Poissons Ratio (x) = 0.11928 0.26513
# Poissons Ratio (y) = 0.26045 0.43647
# Poissons Ratio (z) = 0.32643 0.24612
#
# Static dielectric constant tensor:
#      x y z
#    x 4.174520 0.000000 0.000000 
#    y 0.000000 3.293220 0.000000 
#    z 0.000000 0.000000 3.773330 
# 
# 
# High freq. dielectric constant tensor:
#      x y z
#    x 1.825520 0.000000 0.000000 
#    y 0.000000 1.764600 0.000000 
#    z 0.000000 0.000000 1.813750 
# 
# From -- ./inp_files/12330.got.cif
#   From: 2010.03.12/outbox.cif.g09.slc.cpg/sg38_7_cif.got.tgz:12330.got - 2010.04.14 02:38:36.
