data_PCOD8178530
_publ_section_title
;
Structure prediction by ZEFSAII (Michael W. Deem and Ramdas Pophale) SiO2 
 PCOD8178530
Probable space group: A M M 2
;
_chemical_formula_sum "Si O2"
_cell_formula_units_Z 48
_cell_length_a 8.716419
_cell_length_b 18.295294
_cell_length_c 14.910921
_cell_angle_alpha 90.000000
_cell_angle_beta 90.000000
_cell_angle_gamma 90.000000
_cell_volume 2377.836345
_symmetry_space_group_name_H-M "A M M 2"
_symmetry_group_IT_number 38
_symmetry_cell_setting 'orthorhombic'
loop_
_space_group_symop_operation_xyz
x,y,z
-x,-y,z
-x,y,z
x,-y,z
x,1/2+y,1/2+z
-x,1/2-y,1/2+z
-x,1/2+y,1/2+z
x,1/2-y,1/2+z
loop_
_atom_site_type_symbol
_atom_site_label
_atom_site_fract_x
_atom_site_fract_y
_atom_site_fract_z
Si Si1 0.318490 0.348806 0.847420
Si Si2 0.317153 0.232841 0.998899
Si Si3 0.679688 0.078659 0.933594
Si Si4 0.173160 0.607397 0.252560
Si Si5 0.820645 0.000000 0.604393
Si Si6 0.817128 0.500000 0.906649
Si Si7 0.174635 0.233672 0.189932
O O1 0.500000 0.355779 0.850749
O O2 0.260553 0.291446 0.924040
O O3 0.243166 0.427551 0.858974
O O4 0.268994 0.325056 0.747343
O O5 0.500000 0.232380 0.001389
O O6 0.248683 0.151346 0.978495
O O7 0.251521 0.253202 0.095380
O O8 0.500000 0.082633 0.947148
O O9 0.714777 0.078602 0.828547
O O10 0.739542 0.000000 0.973735
O O11 0.229368 0.572318 0.158810
O O12 0.180598 0.693858 0.248960
O O13 0.000000 0.580740 0.273606
O O14 0.743905 0.000000 0.506728
O O15 0.000000 0.000000 0.586400
O O16 0.000000 0.500000 0.903566
O O17 0.000000 0.207152 0.175221
#
# Coordination Sequence:
#
# PCOD8178530 Si02
#       7
#     8   8   8   8   4   4   8
#     4  11  23  42  65  89 123 164 207 255 312 373
#     4  10  22  40  62  88 122 162 205 252 304 368
#     4  10  20  36  58  86 119 155 195 241 295 353
#     4  10  19  33  56  85 118 152 190 237 299 362
#     4   9  18  33  55  86 121 154 187 239 306 366
#     4  11  23  41  63  88 123 160 203 257 310 366
#     4  11  23  38  61  91 120 159 208 256 308 364
#
# _framework density 20.186419000000001
#
# number of rings (size 3 to 8) (size 9 to 14) (size 15 to 20)
#    0.000    1.667    2.500    2.250    0.000    4.000 
#    1.500    1.667    0.000    0.000    0.000    0.000 
#    0.000    0.000    0.000    0.000    0.000    0.000 
#
# Total GULP energy -297492.824927 kJ/mol
# GULP energy per Si atom -12395.534372 kJ/mol
# Density = 2.014047 g / cm^3
# Si number density = 20.186419 Si / 1000 Ang^3
#
#
#
# Elastic Constant Matrix: (Units=GPa)
#
#
# Indices 1 2 3 4 5 6 
#
# 1 34.8326 34.4069 18.3115 0.0000 0.0000 0.0000
# 2 34.4069 137.3719 23.8696 0.0000 0.0000 0.0000
# 3 18.3115 23.8696 75.9900 0.0000 0.0000 0.0000
# 4 0.0000 0.0000 0.0000 26.4266 0.0000 0.0000
# 5 0.0000 0.0000 0.0000 0.0000 28.0062 0.0000
# 6 0.0000 0.0000 0.0000 0.0000 0.0000 18.6511
#
#
#
# Elastic Compliance Matrix: (Units=1/GPa)
#
#
# Indices 1 2 3 4 5 6 
#
# 1 0.041498 -0.009156 -0.007124 0.000000 0.000000 0.000000
# 2 -0.009156 0.009720 -0.000847 0.000000 0.000000 0.000000
# 3 -0.007124 -0.000847 0.015142 0.000000 0.000000 0.000000
# 4 0.000000 0.000000 0.000000 0.037841 0.000000 0.000000
# 5 0.000000 0.000000 0.000000 0.000000 0.035706 0.000000
# 6 0.000000 0.000000 0.000000 0.000000 0.000000 0.053616
#
#
# Mechanical properties :
#
#
# Convention : Reuss Voigt Hill
#
# Bulk Modulus (GPa) = 31.14609 44.59671 37.87140
# Shear Modulus (GPa) = 20.96626 26.05722 23.51174
#
# Velocity S-wave (km/s) = 3.22628 3.59671 3.41652
# Velocity P-wave (km/s) = 5.41675 6.27605 5.86217
#
# Compressibility (1/GPa) = 0.03210676
#
# Stress axis : x y z
#
# Youngs Moduli (GPa) = 24.09772 102.88181 66.04029
#
# Poissons Ratio (x) = 0.94198 0.47046
# Poissons Ratio (y) = 0.22064 0.05593
# Poissons Ratio (z) = 0.17167 0.08712
#
# Static dielectric constant tensor:
#      x y z
#    x 3.482110 0.000000 0.000000 
#    y 0.000000 4.111500 0.000000 
#    z 0.000000 0.000000 3.570490 
# 
# 
# High freq. dielectric constant tensor:
#      x y z
#    x 1.771170 0.000000 0.000000 
#    y 0.000000 1.805040 0.000000 
#    z 0.000000 0.000000 1.778610 
# 
# From -- ./inp_files/12061.got.cif
#   From: 2010.03.12/outbox.cif.g09.slc.cpg/sg38_7_cif.got.tgz:12061.got - 2010.04.14 02:38:36.
