data_PCOD8178579
_publ_section_title
;
Structure prediction by ZEFSAII (Michael W. Deem and Ramdas Pophale) SiO2 
 PCOD8178579
Probable space group: A M M 2
;
_chemical_formula_sum "Si O2"
_cell_formula_units_Z 56
_cell_length_a 23.774563
_cell_length_b 8.807994
_cell_length_c 14.527412
_cell_angle_alpha 90.000000
_cell_angle_beta 90.000000
_cell_angle_gamma 90.000000
_cell_volume 3042.130263
_symmetry_space_group_name_H-M "A M M 2"
_symmetry_group_IT_number 38
_symmetry_cell_setting 'orthorhombic'
loop_
_space_group_symop_operation_xyz
x,y,z
-x,-y,z
-x,y,z
x,-y,z
x,1/2+y,1/2+z
-x,1/2-y,1/2+z
-x,1/2+y,1/2+z
x,1/2-y,1/2+z
loop_
_atom_site_type_symbol
_atom_site_label
_atom_site_fract_x
_atom_site_fract_y
_atom_site_fract_z
Si Si1 0.148506 0.178540 0.355540
Si Si2 0.563202 0.828007 0.863391
Si Si3 0.766703 0.678998 0.701825
Si Si4 0.561959 0.178174 0.549832
Si Si5 0.850885 0.819181 0.563550
Si Si6 0.064371 0.320612 0.701361
Si Si7 0.353212 0.176890 0.699185
O O1 0.202992 0.231249 0.296712
O O2 0.148723 0.247277 0.458733
O O3 0.093391 0.229652 0.297615
O O4 0.148866 0.000000 0.366885
O O5 0.500000 0.799223 0.824867
O O6 0.577886 0.714911 0.945614
O O7 0.608498 0.793125 0.786782
O O8 0.568475 0.000000 0.899449
O O9 0.773121 0.500000 0.687921
O O10 0.795072 0.759158 0.614053
O O11 0.702328 0.724878 0.708684
O O12 0.500000 0.247479 0.573147
O O13 0.611006 0.243798 0.614077
O O14 0.559398 0.000000 0.565842
O O15 0.906621 0.760682 0.614826
O O16 0.850355 0.000000 0.564641
O O17 0.070946 0.500000 0.686969
O O18 0.000000 0.268349 0.705506
O O19 0.337598 0.000000 0.687257
#
# Coordination Sequence:
#
# PCOD8178579 Si02
#       7
#     8   8   8   8   8   8   8
#     4   8  17  34  54  73  97 135 173 203 243 296
#     4   9  18  33  52  74 101 131 164 206 254 301
#     4  10  21  37  53  72 100 132 169 210 254 303
#     4   9  18  33  52  73  99 132 167 202 245 303
#     4  10  19  34  56  78 101 132 172 213 251 292
#     4   9  18  34  54  78 110 142 170 203 246 296
#     4  10  20  34  52  74 100 131 167 206 253 303
#
# _framework density 18.408152000000001
#
# number of rings (size 3 to 8) (size 9 to 14) (size 15 to 20)
#    0.000    2.714    0.000    2.143    0.000    4.857 
#    0.000   12.857    0.000    4.286    0.000    0.000 
#    0.000    0.000    0.000    0.000    0.000    0.000 
#
# Total GULP energy -347110.277471 kJ/mol
# GULP energy per Si atom -12396.795624 kJ/mol
# Density = 1.836625 g / cm^3
# Si number density = 18.408152 Si / 1000 Ang^3
#
#
#
# Elastic Constant Matrix: (Units=GPa)
#
#
# Indices 1 2 3 4 5 6 
#
# 1 153.6844 31.8298 76.9248 0.0000 0.0000 0.0000
# 2 31.8298 36.6283 29.6316 0.0000 0.0000 0.0000
# 3 76.9248 29.6316 146.3474 0.0000 0.0000 0.0000
# 4 0.0000 0.0000 0.0000 27.0666 0.0000 0.0000
# 5 0.0000 0.0000 0.0000 0.0000 22.0922 0.0000
# 6 0.0000 0.0000 0.0000 0.0000 0.0000 30.5640
#
#
#
# Elastic Compliance Matrix: (Units=1/GPa)
#
#
# Indices 1 2 3 4 5 6 
#
# 1 0.009558 -0.005072 -0.003997 0.000000 0.000000 0.000000
# 2 -0.005072 0.035341 -0.004489 0.000000 0.000000 0.000000
# 3 -0.003997 -0.004489 0.009843 0.000000 0.000000 0.000000
# 4 0.000000 0.000000 0.000000 0.036946 0.000000 0.000000
# 5 0.000000 0.000000 0.000000 0.000000 0.045265 0.000000
# 6 0.000000 0.000000 0.000000 0.000000 0.000000 0.032718
#
#
# Mechanical properties :
#
#
# Convention : Reuss Voigt Hill
#
# Bulk Modulus (GPa) = 36.19980 68.15915 52.17948
# Shear Modulus (GPa) = 24.27221 29.16282 26.71752
#
# Velocity S-wave (km/s) = 3.63513 3.98456 3.81385
# Velocity P-wave (km/s) = 6.10956 7.63387 6.91385
#
# Compressibility (1/GPa) = 0.02762446
#
# Stress axis : x y z
#
# Youngs Moduli (GPa) = 104.62407 28.29569 101.59515
#
# Poissons Ratio (x) = 0.14353 0.40607
# Poissons Ratio (y) = 0.53069 0.45611
# Poissons Ratio (z) = 0.41818 0.12703
#
# Static dielectric constant tensor:
#      x y z
#    x 3.447170 0.000000 0.000000 
#    y 0.000000 3.199740 0.000000 
#    z 0.000000 0.000000 3.571010 
# 
# 
# High freq. dielectric constant tensor:
#      x y z
#    x 1.718470 0.000000 0.000000 
#    y 0.000000 1.694470 0.000000 
#    z 0.000000 0.000000 1.718210 
# 
# From -- ./inp_files/15482.got.cif
#   From: 2010.03.12/outbox.cif.g09.slc.cpg/sg38_8_cif.got.tgz:15482.got - 2010.04.14 02:38:36.
