data_PCOD8178937
_publ_section_title
;
Structure prediction by ZEFSAII (Michael W. Deem and Ramdas Pophale) SiO2 
 PCOD8178937
Probable space group: A M M 2
;
_chemical_formula_sum "Si O2"
_cell_formula_units_Z 40
_cell_length_a 8.934996
_cell_length_b 13.597863
_cell_length_c 18.811892
_cell_angle_alpha 90.000000
_cell_angle_beta 90.000000
_cell_angle_gamma 90.000000
_cell_volume 2285.585649
_symmetry_space_group_name_H-M "A M M 2"
_symmetry_group_IT_number 38
_symmetry_cell_setting 'orthorhombic'
loop_
_space_group_symop_operation_xyz
x,y,z
-x,-y,z
-x,y,z
x,-y,z
x,1/2+y,1/2+z
-x,1/2-y,1/2+z
-x,1/2+y,1/2+z
x,1/2-y,1/2+z
loop_
_atom_site_type_symbol
_atom_site_label
_atom_site_fract_x
_atom_site_fract_y
_atom_site_fract_z
Si Si1 0.822835 0.217001 0.639950
Si Si2 0.178111 0.889087 0.780993
Si Si3 0.822150 0.302262 0.428967
Si Si4 0.176586 0.607466 0.999188
Si Si5 0.327329 0.387529 0.564309
O O1 0.762322 0.172402 0.713742
O O2 0.774775 0.142075 0.577676
O O3 0.746293 0.322065 0.626350
O O4 0.000000 0.233255 0.641257
O O5 0.237010 0.836229 0.852253
O O6 0.000000 0.891885 0.779874
O O7 0.241721 0.000000 0.777902
O O8 0.771117 0.188802 0.441589
O O9 0.752026 0.371660 0.488702
O O10 0.000000 0.312769 0.435392
O O11 0.248750 0.500000 0.982945
O O12 0.000000 0.597634 0.996563
O O13 0.500000 0.358727 0.556094
O O14 0.306358 0.500000 0.587590
#
# Coordination Sequence:
#
# PCOD8178937 Si02
#       5
#     8   8   8   8   8
#     4   9  17  29  47  69  90 118 157 195 232 275
#     4   9  16  27  46  73 101 123 147 187 236 278
#     4   9  17  29  48  73  97 123 155 189 227 273
#     4   8  13  23  41  64  89 118 152 187 221 260
#     4  10  20  33  48  66  91 124 158 193 234 275
#
# _framework density 17.500986000000001
#
# number of rings (size 3 to 8) (size 9 to 14) (size 15 to 20)
#    0.000    3.000    0.000    3.000    0.000    4.800 
#    0.000    2.000    0.000   19.800    0.000    0.000 
#    0.000    0.000    0.000    0.000    0.000    0.000 
#
# Total GULP energy -247919.231154 kJ/mol
# GULP energy per Si atom -12395.961558 kJ/mol
# Density = 1.746115 g / cm^3
# Si number density = 17.500986 Si / 1000 Ang^3
#
#
#
# Elastic Constant Matrix: (Units=GPa)
#
#
# Indices 1 2 3 4 5 6 
#
# 1 31.5860 31.3188 23.5824 0.0000 0.0000 0.0000
# 2 31.3188 154.1150 85.0825 0.0000 0.0000 0.0000
# 3 23.5824 85.0825 151.1667 0.0000 0.0000 0.0000
# 4 0.0000 0.0000 0.0000 24.4232 0.0000 0.0000
# 5 0.0000 0.0000 0.0000 0.0000 6.5467 0.0000
# 6 0.0000 0.0000 0.0000 0.0000 0.0000 14.3175
#
#
#
# Elastic Compliance Matrix: (Units=1/GPa)
#
#
# Indices 1 2 3 4 5 6 
#
# 1 0.040255 -0.006838 -0.002431 0.000000 0.000000 0.000000
# 2 -0.006838 0.010575 -0.004885 0.000000 0.000000 0.000000
# 3 -0.002431 -0.004885 0.009744 0.000000 0.000000 0.000000
# 4 0.000000 0.000000 0.000000 0.040945 0.000000 0.000000
# 5 0.000000 0.000000 0.000000 0.000000 0.152749 0.000000
# 6 0.000000 0.000000 0.000000 0.000000 0.000000 0.069845
#
#
# Mechanical properties :
#
#
# Convention : Reuss Voigt Hill
#
# Bulk Modulus (GPa) = 30.99325 68.53724 49.76524
# Shear Modulus (GPa) = 13.76734 22.18306 17.97520
#
# Velocity S-wave (km/s) = 2.80779 3.56410 3.20831
# Velocity P-wave (km/s) = 5.31596 7.49560 6.49783
#
# Compressibility (1/GPa) = 0.03226509
#
# Stress axis : x y z
#
# Youngs Moduli (GPa) = 24.84146 94.55820 102.62528
#
# Poissons Ratio (x) = 0.64664 0.24948
# Poissons Ratio (y) = 0.16988 0.50137
# Poissons Ratio (z) = 0.06039 0.46196
#
# Static dielectric constant tensor:
#      x y z
#    x 2.843900 0.000000 0.000000 
#    y 0.000000 3.583840 0.000000 
#    z 0.000000 0.000000 3.326410 
# 
# 
# High freq. dielectric constant tensor:
#      x y z
#    x 1.631920 0.000000 0.000000 
#    y 0.000000 1.687860 0.000000 
#    z 0.000000 0.000000 1.666800 
# 
# From -- ./inp_files/16467.got.cif
#   From: 2010.03.12/outbox.cif.g09.slc.cpg/sg38_9_cif.got.tgz:16467.got - 2010.04.14 02:38:36.
