data_PCOD8178570
_publ_section_title
;
Structure prediction by ZEFSAII (Michael W. Deem and Ramdas Pophale) SiO2 
 PCOD8178570
Probable space group: A M M 2
;
_chemical_formula_sum "Si O2"
_cell_formula_units_Z 64
_cell_length_a 9.023313
_cell_length_b 28.123206
_cell_length_c 12.798223
_cell_angle_alpha 90.000000
_cell_angle_beta 90.000000
_cell_angle_gamma 90.000000
_cell_volume 3247.734536
_symmetry_space_group_name_H-M "A M M 2"
_symmetry_group_IT_number 38
_symmetry_cell_setting 'orthorhombic'
loop_
_space_group_symop_operation_xyz
x,y,z
-x,-y,z
-x,y,z
x,-y,z
x,1/2+y,1/2+z
-x,1/2-y,1/2+z
-x,1/2+y,1/2+z
x,1/2-y,1/2+z
loop_
_atom_site_type_symbol
_atom_site_label
_atom_site_fract_x
_atom_site_fract_y
_atom_site_fract_z
Si Si1 0.827385 0.947996 0.606490
Si Si2 0.835711 0.684925 0.961898
Si Si3 0.836488 0.078477 0.388703
Si Si4 0.324681 0.555751 0.473453
Si Si5 0.329427 0.203443 0.264232
Si Si6 0.177539 0.383783 0.291540
Si Si7 0.672548 0.695572 0.177622
Si Si8 0.326126 0.899421 0.191558
O O1 0.756984 0.945004 0.490343
O O2 0.761933 0.911026 0.688592
O O3 0.000000 0.936117 0.591810
O O4 0.800167 0.000000 0.654351
O O5 0.743372 0.681481 0.067727
O O6 0.000000 0.705623 0.985362
O O7 0.848572 0.633727 0.911454
O O8 0.755124 0.715592 0.872357
O O9 0.740378 0.069124 0.285631
O O10 0.000000 0.056706 0.369134
O O11 0.500000 0.561749 0.457591
O O12 0.279488 0.500000 0.465111
O O13 0.239596 0.587925 0.389983
O O14 0.271097 0.577366 0.583797
O O15 0.500000 0.197047 0.295514
O O16 0.303861 0.248014 0.188713
O O17 0.275159 0.155938 0.202495
O O18 0.246871 0.331329 0.275128
O O19 0.000000 0.381403 0.299562
O O20 0.500000 0.681886 0.178596
O O21 0.500000 0.904023 0.199404
#
# Coordination Sequence:
#
# PCOD8178570 Si02
#       8
#     8   8   8   8   8   8   8   8
#     4   9  17  31  52  78 109 142 175 221 282 341
#     4  10  19  34  55  80 112 146 182 234 293 344
#     4   9  17  32  53  79 109 141 179 227 282 339
#     4  10  22  40  60  84 119 161 201 245 301 361
#     4   9  20  37  56  81 110 150 199 241 291 356
#     4  11  22  38  58  83 114 150 199 248 296 353
#     4  11  22  36  57  83 114 154 199 244 297 359
#     4   9  19  37  58  79 110 151 192 237 288 345
#
# _framework density 19.706043999999999
#
# number of rings (size 3 to 8) (size 9 to 14) (size 15 to 20)
#    0.000    2.250    1.250    1.500    0.000    4.250 
#    0.000    2.500    0.000    1.500    0.000    0.000 
#    0.000    0.000    0.000    0.000    0.000    0.000 
#
# Total GULP energy -396621.135969 kJ/mol
# GULP energy per Si atom -12394.410499 kJ/mol
# Density = 1.966119 g / cm^3
# Si number density = 19.706044 Si / 1000 Ang^3
#
#
#
# Elastic Constant Matrix: (Units=GPa)
#
#
# Indices 1 2 3 4 5 6 
#
# 1 65.2872 25.1684 46.5210 0.0000 0.0000 0.0000
# 2 25.1684 64.3693 35.9088 0.0000 0.0000 0.0000
# 3 46.5210 35.9088 132.4997 0.0000 0.0000 0.0000
# 4 0.0000 0.0000 0.0000 25.3882 0.0000 0.0000
# 5 0.0000 0.0000 0.0000 0.0000 33.0023 0.0000
# 6 0.0000 0.0000 0.0000 0.0000 0.0000 15.8634
#
#
#
# Elastic Compliance Matrix: (Units=1/GPa)
#
#
# Indices 1 2 3 4 5 6 
#
# 1 0.021708 -0.004990 -0.006269 0.000000 0.000000 0.000000
# 2 -0.004990 0.019450 -0.003519 0.000000 0.000000 0.000000
# 3 -0.006269 -0.003519 0.010702 0.000000 0.000000 0.000000
# 4 0.000000 0.000000 0.000000 0.039388 0.000000 0.000000
# 5 0.000000 0.000000 0.000000 0.000000 0.030301 0.000000
# 6 0.000000 0.000000 0.000000 0.000000 0.000000 0.063038
#
#
# Mechanical properties :
#
#
# Convention : Reuss Voigt Hill
#
# Bulk Modulus (GPa) = 44.83826 53.03920 48.93873
# Shear Modulus (GPa) = 22.56536 25.15464 23.86000
#
# Velocity S-wave (km/s) = 3.38760 3.57668 3.48342
# Velocity P-wave (km/s) = 6.17285 6.63555 6.40838
#
# Compressibility (1/GPa) = 0.02230238
#
# Stress axis : x y z
#
# Youngs Moduli (GPa) = 46.06593 51.41470 93.44039
#
# Poissons Ratio (x) = 0.25658 0.58580
# Poissons Ratio (y) = 0.22989 0.32881
# Poissons Ratio (z) = 0.28880 0.18092
#
# Static dielectric constant tensor:
#      x y z
#    x 3.636910 0.000000 0.000000 
#    y 0.000000 3.624070 0.000000 
#    z 0.000000 0.000000 3.714040 
# 
# 
# High freq. dielectric constant tensor:
#      x y z
#    x 1.752300 0.000000 0.000000 
#    y 0.000000 1.765210 0.000000 
#    z 0.000000 0.000000 1.771710 
# 
# From -- ./inp_files/8659.got.cif
#   From: 2010.03.12/outbox.cif.g09.slc.cpg/sg38_5_cif.got.tgz:8659.got - 2010.04.14 02:38:36.
