data_PCOD8178079
_publ_section_title
;
Structure prediction by ZEFSAII (Michael W. Deem and Ramdas Pophale) SiO2 
 PCOD8178079
Probable space group: A M M 2
;
_chemical_formula_sum "Si O2"
_cell_formula_units_Z 64
_cell_length_a 10.939389
_cell_length_b 25.523065
_cell_length_c 12.296114
_cell_angle_alpha 90.000000
_cell_angle_beta 90.000000
_cell_angle_gamma 90.000000
_cell_volume 3433.157862
_symmetry_space_group_name_H-M "A M M 2"
_symmetry_group_IT_number 38
_symmetry_cell_setting 'orthorhombic'
loop_
_space_group_symop_operation_xyz
x,y,z
-x,-y,z
-x,y,z
x,-y,z
x,1/2+y,1/2+z
-x,1/2-y,1/2+z
-x,1/2+y,1/2+z
x,1/2-y,1/2+z
loop_
_atom_site_type_symbol
_atom_site_label
_atom_site_fract_x
_atom_site_fract_y
_atom_site_fract_z
Si Si1 0.869049 0.631119 0.649610
Si Si2 0.790017 0.197026 0.961304
Si Si3 0.645444 0.057430 0.644418
Si Si4 0.359867 0.609773 0.362951
Si Si5 0.640003 0.061182 0.094964
Si Si6 0.636802 0.247665 0.639473
Si Si7 0.789829 0.791870 0.325896
Si Si8 0.639239 0.350537 0.001302
O O1 0.880303 0.662459 0.535184
O O2 0.746795 0.594793 0.656747
O O3 0.874528 0.673602 0.747799
O O4 0.000000 0.600096 0.658226
O O5 0.723711 0.161023 0.872337
O O6 0.855753 0.247205 0.901920
O O7 0.685554 0.216472 0.042804
O O8 0.500000 0.055948 0.647844
O O9 0.692592 0.077828 0.760635
O O10 0.688838 0.093717 0.544365
O O11 0.700935 0.000000 0.623462
O O12 0.500000 0.627436 0.344648
O O13 0.348221 0.572077 0.467334
O O14 0.500000 0.075815 0.133758
O O15 0.664731 0.000000 0.117708
O O16 0.500000 0.265901 0.656312
O O17 0.699654 0.257099 0.754070
O O18 0.649422 0.187175 0.606100
O O19 0.720136 0.833135 0.400932
O O20 0.500000 0.353778 0.960193
#
# Coordination Sequence:
#
# PCOD8178079 Si02
#       8
#     8   8   8   8   8   8   8   8
#     4  10  22  37  53  76 104 135 173 214 256 306
#     4   9  18  30  46  69  97 129 167 209 253 299
#     4   9  16  25  38  60  93 130 163 195 235 288
#     4   9  15  25  45  73 103 132 162 200 251 307
#     4   9  18  34  56  81 107 134 167 211 262 310
#     4   9  16  26  42  67  97 126 160 206 256 301
#     4  10  19  31  47  66  93 132 173 208 247 296
#     4   9  17  27  41  64  93 125 162 204 250 298
#
# _framework density 18.641729000000002
#
# number of rings (size 3 to 8) (size 9 to 14) (size 15 to 20)
#    0.000    2.750    0.000    1.875    0.000    8.250 
#    0.000    0.625    0.000    1.500    0.000    0.875 
#    0.000    4.000    0.000    0.000    0.000    0.000 
#
# Total GULP energy -396446.890123 kJ/mol
# GULP energy per Si atom -12388.965316 kJ/mol
# Density = 1.859930 g / cm^3
# Si number density = 18.641729 Si / 1000 Ang^3
#
#
#
# Elastic Constant Matrix: (Units=GPa)
#
#
# Indices 1 2 3 4 5 6 
#
# 1 83.2071 33.8680 18.4285 0.0000 0.0000 0.0000
# 2 33.8680 106.9929 35.9541 0.0000 0.0000 0.0000
# 3 18.4285 35.9541 73.7875 0.0000 0.0000 0.0000
# 4 0.0000 0.0000 0.0000 26.0594 0.0000 0.0000
# 5 0.0000 0.0000 0.0000 0.0000 -7.4822 0.0000
# 6 0.0000 0.0000 0.0000 0.0000 0.0000 8.1697
#
#
#
# Elastic Compliance Matrix: (Units=1/GPa)
#
#
# Indices 1 2 3 4 5 6 
#
# 1 0.013951 -0.003881 -0.001593 0.000000 0.000000 0.000000
# 2 -0.003881 0.012256 -0.005003 0.000000 0.000000 0.000000
# 3 -0.001593 -0.005003 0.016388 0.000000 0.000000 0.000000
# 4 0.000000 0.000000 0.000000 0.038374 0.000000 0.000000
# 5 0.000000 0.000000 0.000000 0.000000 -0.133650 0.000000
# 6 0.000000 0.000000 0.000000 0.000000 0.000000 0.122403
#
#
# Mechanical properties :
#
#
# Convention : Reuss Voigt Hill
#
# Bulk Modulus (GPa) = 46.20784 48.94319 47.57552
# Shear Modulus (GPa) = 51.07861 17.06517 34.07189
#
# Velocity S-wave (km/s) = 5.24019 3.02889 4.27982
# Velocity P-wave (km/s) = 7.83926 6.20837 7.07099
#
# Compressibility (1/GPa) = 0.02164135
#
# Stress axis : x y z
#
# Youngs Moduli (GPa) = 71.68149 81.59335 61.02021
#
# Poissons Ratio (x) = 0.31663 0.09722
# Poissons Ratio (y) = 0.27816 0.30527
# Poissons Ratio (z) = 0.11421 0.40819
#
# Static dielectric constant tensor:
#      x y z
#    x 3.038610 0.000000 0.000000 
#    y 0.000000 3.690640 0.000000 
#    z 0.000000 0.000000 3.365310 
# 
# 
# High freq. dielectric constant tensor:
#      x y z
#    x 1.678030 0.000000 0.000000 
#    y 0.000000 1.723860 0.000000 
#    z 0.000000 0.000000 1.722240 
# 
# From -- ./inp_files/9554.got.cif
#   From: 2010.03.12/outbox.cif.g09.slc.cpg/sg38_5_cif.got.tgz:9554.got - 2010.04.14 02:38:36.
