data_PCOD8178881
_publ_section_title
;
Structure prediction by ZEFSAII (Michael W. Deem and Ramdas Pophale) SiO2 
 PCOD8178881
Probable space group: A M M 2
;
_chemical_formula_sum "Si O2"
_cell_formula_units_Z 56
_cell_length_a 8.755068
_cell_length_b 16.192477
_cell_length_c 22.976042
_cell_angle_alpha 90.000000
_cell_angle_beta 90.000000
_cell_angle_gamma 90.000000
_cell_volume 3257.227021
_symmetry_space_group_name_H-M "A M M 2"
_symmetry_group_IT_number 38
_symmetry_cell_setting 'orthorhombic'
loop_
_space_group_symop_operation_xyz
x,y,z
-x,-y,z
-x,y,z
x,-y,z
x,1/2+y,1/2+z
-x,1/2-y,1/2+z
-x,1/2+y,1/2+z
x,1/2-y,1/2+z
loop_
_atom_site_type_symbol
_atom_site_label
_atom_site_fract_x
_atom_site_fract_y
_atom_site_fract_z
Si Si1 0.181027 0.500000 0.402010
Si Si2 0.818102 0.500000 0.270968
Si Si3 0.819552 0.656477 0.472234
Si Si4 0.322076 0.756956 0.376360
Si Si5 0.824656 0.594238 0.820703
Si Si6 0.681072 0.671429 0.257128
Si Si7 0.319360 0.094610 0.086394
Si Si8 0.822766 0.675479 0.698963
O O1 0.244721 0.500000 0.336880
O O2 0.244039 0.420768 0.435542
O O3 0.000000 0.500000 0.400853
O O4 0.751706 0.582338 0.241118
O O5 0.000000 0.500000 0.266390
O O6 0.767776 0.736126 0.435645
O O7 0.743973 0.653226 0.535442
O O8 0.000000 0.655969 0.480016
O O9 0.500000 0.746653 0.387944
O O10 0.283700 0.851517 0.361702
O O11 0.267818 0.699297 0.322242
O O12 0.778405 0.500000 0.831161
O O13 0.796911 0.615755 0.753561
O O14 0.000000 0.611464 0.837598
O O15 0.500000 0.668587 0.251559
O O16 0.746497 0.735639 0.210205
O O17 0.500000 0.098626 0.086613
O O18 0.257956 0.130316 0.146159
O O19 0.261989 0.000000 0.078241
O O20 0.000000 0.689154 0.684914
#
# Coordination Sequence:
#
# PCOD8178881 Si02
#       8
#     4   4   8   8   8   8   8   8
#     4   9  18  29  47  73 103 135 171 210 245 288
#     4  11  19  31  51  77 105 137 175 212 253 304
#     4  11  20  34  52  74 103 138 176 211 248 297
#     4  10  20  32  48  74 106 137 168 207 259 309
#     4   9  18  33  53  76 101 132 172 214 255 300
#     4  10  20  33  49  74 106 138 170 210 261 310
#     4  11  23  36  51  75 106 139 172 210 256 305
#     4  10  20  35  54  75 101 136 176 216 254 300
#
# _framework density 17.192539
#
# number of rings (size 3 to 8) (size 9 to 14) (size 15 to 20)
#    0.000    1.857    2.143    2.786    0.000    3.429 
#    0.000    0.000    0.000    0.000    1.857    0.000 
#    0.000    0.000    0.000    0.000    0.000    0.000 
#
# Total GULP energy -347280.328073 kJ/mol
# GULP energy per Si atom -12402.868860 kJ/mol
# Density = 1.715341 g / cm^3
# Si number density = 17.192539 Si / 1000 Ang^3
#
#
#
# Elastic Constant Matrix: (Units=GPa)
#
#
# Indices 1 2 3 4 5 6 
#
# 1 79.9221 41.3278 38.3485 0.0000 0.0000 0.0000
# 2 41.3278 106.1376 39.9180 0.0000 0.0000 0.0000
# 3 38.3485 39.9180 84.5454 0.0000 0.0000 0.0000
# 4 0.0000 0.0000 0.0000 -114.0219 0.0000 0.0000
# 5 0.0000 0.0000 0.0000 0.0000 29.0701 0.0000
# 6 0.0000 0.0000 0.0000 0.0000 0.0000 30.0348
#
#
#
# Elastic Compliance Matrix: (Units=1/GPa)
#
#
# Indices 1 2 3 4 5 6 
#
# 1 0.017746 -0.004721 -0.005820 0.000000 0.000000 0.000000
# 2 -0.004721 0.012712 -0.003861 0.000000 0.000000 0.000000
# 3 -0.005820 -0.003861 0.016291 0.000000 0.000000 0.000000
# 4 0.000000 0.000000 0.000000 -0.008770 0.000000 0.000000
# 5 0.000000 0.000000 0.000000 0.000000 0.034400 0.000000
# 6 0.000000 0.000000 0.000000 0.000000 0.000000 0.033295
#
#
# Mechanical properties :
#
#
# Convention : Reuss Voigt Hill
#
# Bulk Modulus (GPa) = 55.72576 56.64373 56.18475
# Shear Modulus (GPa) = 35.59774 -0.91600 17.34087
#
# Velocity S-wave (km/s) = 4.55525 -0.73072 3.17934
# Velocity P-wave (km/s) = 7.75565 5.68386 6.79913
#
# Compressibility (1/GPa) = 0.01794502
#
# Stress axis : x y z
#
# Youngs Moduli (GPa) = 56.35020 78.66636 61.38448
#
# Poissons Ratio (x) = 0.37138 0.35728
# Poissons Ratio (y) = 0.26603 0.23698
# Poissons Ratio (z) = 0.32798 0.30370
#
# Static dielectric constant tensor:
#      x y z
#    x 3.169750 0.000000 0.000000 
#    y 0.000000 3.395130 0.000000 
#    z 0.000000 0.000000 3.029200 
# 
# 
# High freq. dielectric constant tensor:
#      x y z
#    x 1.672290 0.000000 0.000000 
#    y 0.000000 1.659030 0.000000 
#    z 0.000000 0.000000 1.639640 
# 
# From -- ./inp_files/19863.got.cif
#   From: 2010.03.12/outbox.cif.g09.slc.cpg/sg38_10_cif.got.tgz:19863.got - 2010.04.14 02:38:36.
