data_PCOD8178194
_publ_section_title
;
Structure prediction by ZEFSAII (Michael W. Deem and Ramdas Pophale) SiO2 
 PCOD8178194
Probable space group: A M M 2
;
_chemical_formula_sum "Si O2"
_cell_formula_units_Z 40
_cell_length_a 7.820556
_cell_length_b 8.848539
_cell_length_c 29.098342
_cell_angle_alpha 90.000000
_cell_angle_beta 90.000000
_cell_angle_gamma 90.000000
_cell_volume 2013.619663
_symmetry_space_group_name_H-M "A M M 2"
_symmetry_group_IT_number 38
_symmetry_cell_setting 'orthorhombic'
loop_
_space_group_symop_operation_xyz
x,y,z
-x,-y,z
-x,y,z
x,-y,z
x,1/2+y,1/2+z
-x,1/2-y,1/2+z
-x,1/2+y,1/2+z
x,1/2-y,1/2+z
loop_
_atom_site_type_symbol
_atom_site_label
_atom_site_fract_x
_atom_site_fract_y
_atom_site_fract_z
Si Si1 0.301558 0.171368 0.156530
Si Si2 0.687557 0.679459 0.341637
Si Si3 0.194147 0.832429 0.745484
Si Si4 0.302706 0.322132 0.062072
Si Si5 0.000000 0.179360 0.005441
Si Si6 0.000000 0.319982 0.400853
O O1 0.500000 0.186122 0.167498
O O2 0.203616 0.225260 0.201558
O O3 0.249643 0.274137 0.113405
O O4 0.248137 0.000000 0.145116
O O5 0.500000 0.727945 0.359968
O O6 0.707550 0.500000 0.340026
O O7 0.706995 0.738706 0.289195
O O8 0.831201 0.746615 0.375670
O O9 0.000000 0.845330 0.761711
O O10 0.265626 0.000000 0.732874
O O11 0.500000 0.273710 0.051707
O O12 0.279200 0.500000 0.057343
O O13 0.174554 0.241007 0.027363
O O14 0.000000 0.236333 0.953067
O O15 0.000000 0.000000 0.009826
O O16 0.000000 0.500000 0.399298
#
# Coordination Sequence:
#
# PCOD8178194 Si02
#       6
#     8   8   8   8   4   4
#     4  10  21  36  54  79 113 149 187 232 281 336
#     4   9  16  29  51  77 109 147 184 227 275 324
#     4  10  19  31  51  80 114 149 188 230 270 327
#     4  10  22  41  63  85 113 152 198 242 284 341
#     4  11  23  37  60  89 120 151 184 239 302 355
#     4   9  18  33  50  79 114 141 180 229 282 343
#
# _framework density 19.864725
#
# number of rings (size 3 to 8) (size 9 to 14) (size 15 to 20)
#    0.000    2.200    1.000    2.100    1.400    4.400 
#    0.000    2.000    0.000    2.400    0.000    2.800 
#    0.000    0.000    0.000    0.000    0.000    0.000 
#
# Total GULP energy -247976.254737 kJ/mol
# GULP energy per Si atom -12398.812737 kJ/mol
# Density = 1.981951 g / cm^3
# Si number density = 19.864725 Si / 1000 Ang^3
#
#
#
# Elastic Constant Matrix: (Units=GPa)
#
#
# Indices 1 2 3 4 5 6 
#
# 1 134.0987 30.6164 80.3850 0.0000 0.0000 0.0000
# 2 30.6164 60.7612 33.4668 0.0000 0.0000 0.0000
# 3 80.3850 33.4668 152.2250 0.0000 0.0000 0.0000
# 4 0.0000 0.0000 0.0000 22.3653 0.0000 0.0000
# 5 0.0000 0.0000 0.0000 0.0000 27.9389 0.0000
# 6 0.0000 0.0000 0.0000 0.0000 0.0000 23.3380
#
#
#
# Elastic Compliance Matrix: (Units=1/GPa)
#
#
# Indices 1 2 3 4 5 6 
#
# 1 0.011298 -0.002738 -0.005364 0.000000 0.000000 0.000000
# 2 -0.002738 0.019389 -0.002817 0.000000 0.000000 0.000000
# 3 -0.005364 -0.002817 0.010021 0.000000 0.000000 0.000000
# 4 0.000000 0.000000 0.000000 0.044712 0.000000 0.000000
# 5 0.000000 0.000000 0.000000 0.000000 0.035792 0.000000
# 6 0.000000 0.000000 0.000000 0.000000 0.000000 0.042849
#
#
# Mechanical properties :
#
#
# Convention : Reuss Voigt Hill
#
# Bulk Modulus (GPa) = 52.99437 70.66905 61.83171
# Shear Modulus (GPa) = 26.01606 28.23621 27.12614
#
# Velocity S-wave (km/s) = 3.62285 3.77427 3.69933
# Velocity P-wave (km/s) = 6.65098 7.39228 7.03141
#
# Compressibility (1/GPa) = 0.01886993
#
# Stress axis : x y z
#
# Youngs Moduli (GPa) = 88.51287 51.57541 99.79035
#
# Poissons Ratio (x) = 0.14123 0.53527
# Poissons Ratio (y) = 0.24238 0.28108
# Poissons Ratio (z) = 0.47478 0.14527
#
# Static dielectric constant tensor:
#      x y z
#    x 3.754940 0.000000 0.000000 
#    y 0.000000 3.295510 0.000000 
#    z 0.000000 0.000000 3.591670 
# 
# 
# High freq. dielectric constant tensor:
#      x y z
#    x 1.786870 0.000000 0.000000 
#    y 0.000000 1.739180 0.000000 
#    z 0.000000 0.000000 1.773110 
# 
# From -- ./inp_files/23194.got.cif
#   From: 2010.03.12/outbox.cif.g09.slc.cpg/sg38_12_cif.got.tgz:23194.got - 2010.04.14 02:38:36.
