data_PCOD8178998
_publ_section_title
;
Structure prediction by ZEFSAII (Michael W. Deem and Ramdas Pophale) SiO2 
 PCOD8178998
Probable space group: A M M 2
;
_chemical_formula_sum "Si O2"
_cell_formula_units_Z 48
_cell_length_a 9.084021
_cell_length_b 9.084739
_cell_length_c 31.149838
_cell_angle_alpha 90.000000
_cell_angle_beta 90.000000
_cell_angle_gamma 90.000000
_cell_volume 2570.670280
_symmetry_space_group_name_H-M "A M M 2"
_symmetry_group_IT_number 38
_symmetry_cell_setting 'orthorhombic'
loop_
_space_group_symop_operation_xyz
x,y,z
-x,-y,z
-x,y,z
x,-y,z
x,1/2+y,1/2+z
-x,1/2-y,1/2+z
-x,1/2+y,1/2+z
x,1/2-y,1/2+z
loop_
_atom_site_type_symbol
_atom_site_label
_atom_site_fract_x
_atom_site_fract_y
_atom_site_fract_z
Si Si1 0.666072 0.824585 0.640310
Si Si2 0.825057 0.665808 0.809424
Si Si3 0.829944 0.326888 0.394611
Si Si4 0.165782 0.324945 0.057247
Si Si5 0.171629 0.171399 0.725165
Si Si6 0.673000 0.170043 0.471578
O O1 0.500000 0.764355 0.638989
O O2 0.752889 0.760736 0.599223
O O3 0.743678 0.767784 0.683561
O O4 0.668780 0.000000 0.639161
O O5 0.763780 0.500000 0.811559
O O6 0.769219 0.753444 0.851062
O O7 0.764973 0.743242 0.766459
O O8 0.000000 0.668900 0.808348
O O9 0.809604 0.500000 0.390024
O O10 0.731837 0.268403 0.433147
O O11 0.000000 0.284273 0.402956
O O12 0.164799 0.500000 0.059415
O O13 0.000000 0.262507 0.055854
O O14 0.251665 0.271836 0.015050
O O15 0.000000 0.202393 0.717760
O O16 0.202096 0.000000 0.732891
O O17 0.500000 0.192068 0.476617
O O18 0.713660 0.000000 0.462708
#
# Coordination Sequence:
#
# PCOD8178998 Si02
#       6
#     8   8   8   8   8   8
#     4   9  16  26  42  67  99 131 162 199 244 292
#     4   9  17  30  50  74  98 126 163 207 251 294
#     4  10  20  34  53  76 101 131 169 211 254 302
#     4   9  16  27  46  72 100 130 165 205 247 291
#     4   9  16  27  45  69  96 126 162 203 245 290
#     4  10  20  33  50  74 104 136 169 207 253 303
#
# _framework density 18.672173000000001
#
# number of rings (size 3 to 8) (size 9 to 14) (size 15 to 20)
#    0.000    2.667    0.000    2.500    0.000    8.000 
#    0.000    0.833    0.000    4.500    0.000    2.333 
#    0.000    0.000    0.000    0.000    0.000    0.000 
#
# Total GULP energy -297620.481973 kJ/mol
# GULP energy per Si atom -12400.853416 kJ/mol
# Density = 1.862967 g / cm^3
# Si number density = 18.672173 Si / 1000 Ang^3
#
#
#
# Elastic Constant Matrix: (Units=GPa)
#
#
# Indices 1 2 3 4 5 6 
#
# 1 96.6544 32.0155 73.1574 0.0000 0.0000 0.0000
# 2 32.0155 58.3430 53.7782 0.0000 0.0000 0.0000
# 3 73.1574 53.7782 196.2021 0.0000 0.0000 0.0000
# 4 0.0000 0.0000 0.0000 26.1248 0.0000 0.0000
# 5 0.0000 0.0000 0.0000 0.0000 9.6219 0.0000
# 6 0.0000 0.0000 0.0000 0.0000 0.0000 14.8132
#
#
#
# Elastic Compliance Matrix: (Units=1/GPa)
#
#
# Indices 1 2 3 4 5 6 
#
# 1 0.015130 -0.004151 -0.004504 0.000000 0.000000 0.000000
# 2 -0.004151 0.024073 -0.005051 0.000000 0.000000 0.000000
# 3 -0.004504 -0.005051 0.008160 0.000000 0.000000 0.000000
# 4 0.000000 0.000000 0.000000 0.038278 0.000000 0.000000
# 5 0.000000 0.000000 0.000000 0.000000 0.103929 0.000000
# 6 0.000000 0.000000 0.000000 0.000000 0.000000 0.067507
#
#
# Mechanical properties :
#
#
# Convention : Reuss Voigt Hill
#
# Bulk Modulus (GPa) = 50.11809 74.34462 62.23135
# Shear Modulus (GPa) = 17.17387 22.92855 20.05121
#
# Velocity S-wave (km/s) = 3.03604 3.50802 3.28053
# Velocity P-wave (km/s) = 6.26014 7.50403 6.91013
#
# Compressibility (1/GPa) = 0.01995288
#
# Stress axis : x y z
#
# Youngs Moduli (GPa) = 66.09395 41.53961 122.54331
#
# Poissons Ratio (x) = 0.17244 0.55189
# Poissons Ratio (y) = 0.27437 0.61891
# Poissons Ratio (z) = 0.29766 0.20980
#
# Static dielectric constant tensor:
#      x y z
#    x 3.329070 0.000000 0.000000 
#    y 0.000000 3.090790 0.000000 
#    z 0.000000 0.000000 3.674260 
# 
# 
# High freq. dielectric constant tensor:
#      x y z
#    x 1.709930 0.000000 0.000000 
#    y 0.000000 1.684160 0.000000 
#    z 0.000000 0.000000 1.744480 
# 
# From -- ./inp_files/24272.got.cif
#   From: 2010.03.12/outbox.cif.g09.slc.cpg/sg38_13_cif.got.tgz:24272.got - 2010.04.14 02:38:36.
