data_PCOD8178659
_publ_section_title
;
Structure prediction by ZEFSAII (Michael W. Deem and Ramdas Pophale) SiO2 
 PCOD8178659
Probable space group: A M M 2
;
_chemical_formula_sum "Si O2"
_cell_formula_units_Z 48
_cell_length_a 8.803468
_cell_length_b 14.459862
_cell_length_c 20.261695
_cell_angle_alpha 90.000000
_cell_angle_beta 90.000000
_cell_angle_gamma 90.000000
_cell_volume 2579.251619
_symmetry_space_group_name_H-M "A M M 2"
_symmetry_group_IT_number 38
_symmetry_cell_setting 'orthorhombic'
loop_
_space_group_symop_operation_xyz
x,y,z
-x,-y,z
-x,y,z
x,-y,z
x,1/2+y,1/2+z
-x,1/2-y,1/2+z
-x,1/2+y,1/2+z
x,1/2-y,1/2+z
loop_
_atom_site_type_symbol
_atom_site_label
_atom_site_fract_x
_atom_site_fract_y
_atom_site_fract_z
Si Si1 0.177379 0.306675 0.392200
Si Si2 0.323863 0.679955 0.526569
Si Si3 0.676897 0.199104 0.651223
Si Si4 0.178342 0.314089 0.766843
Si Si5 0.320594 0.000000 0.227566
Si Si6 0.821143 0.500000 0.583273
Si Si7 0.176414 0.000000 0.830743
Si Si8 0.321849 0.000000 0.689054
O O1 0.273708 0.278826 0.456278
O O2 0.224897 0.238624 0.333352
O O3 0.222195 0.410855 0.372862
O O4 0.000000 0.298385 0.408328
O O5 0.500000 0.652004 0.526192
O O6 0.290511 0.760079 0.579321
O O7 0.225132 0.589821 0.542155
O O8 0.500000 0.208878 0.670527
O O9 0.775319 0.253989 0.704095
O O10 0.732145 0.092252 0.650683
O O11 0.265137 0.410959 0.767419
O O12 0.000000 0.332648 0.762983
O O13 0.258813 0.000000 0.153637
O O14 0.500000 0.000000 0.222990
O O15 0.000000 0.500000 0.594362
O O16 0.263778 0.000000 0.762851
O O17 0.000000 0.000000 0.812686
O O18 0.500000 0.000000 0.693372
#
# Coordination Sequence:
#
# PCOD8178659 Si02
#       8
#     8   8   8   8   4   4   4   4
#     4  10  22  38  58  86 122 158 195 241 296 355
#     4  11  23  38  58  86 120 159 201 244 296 356
#     4  10  21  37  58  85 119 154 195 248 293 346
#     4  11  22  38  62  88 116 156 200 244 296 354
#     4  12  24  39  60  89 122 153 196 249 300 355
#     4  12  23  37  60  88 121 157 196 246 303 357
#     4  10  19  35  56  84 117 149 186 236 291 348
#     4  10  20  35  58  87 116 151 190 237 296 346
#
# _framework density 18.610050999999999
#
# number of rings (size 3 to 8) (size 9 to 14) (size 15 to 20)
#    0.000    1.333    3.333    3.000    0.000    3.333 
#    0.000    0.833    0.000    1.000    0.000    0.000 
#    0.000    0.000    0.000    0.000    0.000    0.000 
#
# Total GULP energy -297710.359627 kJ/mol
# GULP energy per Si atom -12404.598318 kJ/mol
# Density = 1.856769 g / cm^3
# Si number density = 18.610051 Si / 1000 Ang^3
#
#
#
# Elastic Constant Matrix: (Units=GPa)
#
#
# Indices 1 2 3 4 5 6 
#
# 1 104.2164 50.5901 73.1748 0.0000 0.0000 0.0000
# 2 50.5901 140.1248 65.3854 0.0000 0.0000 0.0000
# 3 73.1748 65.3854 161.3174 0.0000 0.0000 0.0000
# 4 0.0000 0.0000 0.0000 24.8192 0.0000 0.0000
# 5 0.0000 0.0000 0.0000 0.0000 34.3038 0.0000
# 6 0.0000 0.0000 0.0000 0.0000 0.0000 18.5485
#
#
#
# Elastic Compliance Matrix: (Units=1/GPa)
#
#
# Indices 1 2 3 4 5 6 
#
# 1 0.014888 -0.002743 -0.005642 0.000000 0.000000 0.000000
# 2 -0.002743 0.009306 -0.002528 0.000000 0.000000 0.000000
# 3 -0.005642 -0.002528 0.009783 0.000000 0.000000 0.000000
# 4 0.000000 0.000000 0.000000 0.040291 0.000000 0.000000
# 5 0.000000 0.000000 0.000000 0.000000 0.029151 0.000000
# 6 0.000000 0.000000 0.000000 0.000000 0.000000 0.053913
#
#
# Mechanical properties :
#
#
# Convention : Reuss Voigt Hill
#
# Bulk Modulus (GPa) = 82.28743 87.10658 84.69700
# Shear Modulus (GPa) = 27.29139 29.96817 28.62978
#
# Velocity S-wave (km/s) = 3.83363 4.01723 3.92650
# Velocity P-wave (km/s) = 7.99426 8.27196 8.13430
#
# Compressibility (1/GPa) = 0.01215252
#
# Stress axis : x y z
#
# Youngs Moduli (GPa) = 67.16797 107.45439 102.22093
#
# Poissons Ratio (x) = 0.29470 0.57670
# Poissons Ratio (y) = 0.18421 0.25841
# Poissons Ratio (z) = 0.37894 0.27164
#
# Static dielectric constant tensor:
#      x y z
#    x 3.450220 0.000000 0.000000 
#    y 0.000000 3.813570 0.000000 
#    z 0.000000 0.000000 3.388240 
# 
# 
# High freq. dielectric constant tensor:
#      x y z
#    x 1.726850 0.000000 0.000000 
#    y 0.000000 1.728210 0.000000 
#    z 0.000000 0.000000 1.720650 
# 
# From -- ./inp_files/16770.got.cif
#   From: 2010.03.12/outbox.cif.g09.slc.cpg/sg38_9_cif.got.tgz:16770.got - 2010.04.14 02:38:36.
