data_PCOD8178048
_publ_section_title
;
Structure prediction by ZEFSAII (Michael W. Deem and Ramdas Pophale) SiO2 
 PCOD8178048
Probable space group: A M M 2
;
_chemical_formula_sum "Si O2"
_cell_formula_units_Z 56
_cell_length_a 9.453308
_cell_length_b 20.811308
_cell_length_c 14.288861
_cell_angle_alpha 90.000000
_cell_angle_beta 90.000000
_cell_angle_gamma 90.000000
_cell_volume 2811.129134
_symmetry_space_group_name_H-M "A M M 2"
_symmetry_group_IT_number 38
_symmetry_cell_setting 'orthorhombic'
loop_
_space_group_symop_operation_xyz
x,y,z
-x,-y,z
-x,y,z
x,-y,z
x,1/2+y,1/2+z
-x,1/2-y,1/2+z
-x,1/2+y,1/2+z
x,1/2-y,1/2+z
loop_
_atom_site_type_symbol
_atom_site_label
_atom_site_fract_x
_atom_site_fract_y
_atom_site_fract_z
Si Si1 0.660481 0.245333 0.454350
Si Si2 0.163051 0.573701 0.255601
Si Si3 0.152130 0.427557 0.957688
Si Si4 0.334711 0.860762 0.603545
Si Si5 0.340214 0.131202 0.316385
Si Si6 0.836780 0.872708 0.958011
Si Si7 0.659109 0.073054 0.122832
O O1 0.500000 0.271010 0.455015
O O2 0.690455 0.207881 0.552523
O O3 0.685620 0.201416 0.361950
O O4 0.766736 0.303554 0.446402
O O5 0.210170 0.500000 0.233724
O O6 0.256736 0.628014 0.202640
O O7 0.183494 0.585474 0.365223
O O8 0.000000 0.583456 0.225579
O O9 0.111410 0.500000 0.967805
O O10 0.223282 0.416094 0.857616
O O11 0.000000 0.389907 0.967167
O O12 0.266706 0.412944 0.036148
O O13 0.500000 0.873997 0.617541
O O14 0.500000 0.109106 0.342732
O O15 0.319132 0.126276 0.204784
O O16 0.000000 0.861572 0.981677
O O17 0.768479 0.912878 0.041297
O O18 0.500000 0.080315 0.083306
O O19 0.682914 0.000000 0.159872
#
# Coordination Sequence:
#
# PCOD8178048 Si02
#       7
#     8   8   8   8   8   8   8
#     4   9  20  39  59  83 116 150 186 230 283 339
#     4  10  22  40  59  82 115 151 187 234 290 339
#     4  10  19  30  48  78 115 151 184 224 278 337
#     4  10  21  36  57  84 112 146 188 234 282 336
#     4   9  19  36  58  83 112 147 186 232 283 335
#     4  11  24  40  59  82 113 154 196 239 283 334
#     4  10  21  38  61  88 117 150 189 235 287 339
#
# _framework density 19.920822000000001
#
# number of rings (size 3 to 8) (size 9 to 14) (size 15 to 20)
#    0.000    2.143    0.000    3.429    0.000   10.286 
#    0.000    4.286    0.000    0.000    0.000    0.000 
#    0.000    0.000    0.000    0.000    0.000    0.000 
#
# Total GULP energy -347000.394895 kJ/mol
# GULP energy per Si atom -12392.871246 kJ/mol
# Density = 1.987548 g / cm^3
# Si number density = 19.920822 Si / 1000 Ang^3
#
#
#
# Elastic Constant Matrix: (Units=GPa)
#
#
# Indices 1 2 3 4 5 6 
#
# 1 116.5027 42.6894 51.5705 0.0000 0.0000 0.0000
# 2 42.6894 76.1129 28.0653 0.0000 0.0000 0.0000
# 3 51.5705 28.0653 95.4087 0.0000 0.0000 0.0000
# 4 0.0000 0.0000 0.0000 6.5116 0.0000 0.0000
# 5 0.0000 0.0000 0.0000 0.0000 44.0721 0.0000
# 6 0.0000 0.0000 0.0000 0.0000 0.0000 28.9615
#
#
#
# Elastic Compliance Matrix: (Units=1/GPa)
#
#
# Indices 1 2 3 4 5 6 
#
# 1 0.012909 -0.005235 -0.005437 0.000000 0.000000 0.000000
# 2 -0.005235 0.016860 -0.002130 0.000000 0.000000 0.000000
# 3 -0.005437 -0.002130 0.014047 0.000000 0.000000 0.000000
# 4 0.000000 0.000000 0.000000 0.153573 0.000000 0.000000
# 5 0.000000 0.000000 0.000000 0.000000 0.022690 0.000000
# 6 0.000000 0.000000 0.000000 0.000000 0.000000 0.034529
#
#
# Mechanical properties :
#
#
# Convention : Reuss Voigt Hill
#
# Bulk Modulus (GPa) = 54.91298 59.18608 57.04953
# Shear Modulus (GPa) = 17.46527 26.95562 22.21045
#
# Velocity S-wave (km/s) = 2.96418 3.68249 3.34269
# Velocity P-wave (km/s) = 6.27221 6.91782 6.60291
#
# Compressibility (1/GPa) = 0.01821063
#
# Stress axis : x y z
#
# Youngs Moduli (GPa) = 77.46712 59.31225 71.19062
#
# Poissons Ratio (x) = 0.31051 0.38710
# Poissons Ratio (y) = 0.40555 0.15162
# Poissons Ratio (z) = 0.42123 0.12632
#
# Static dielectric constant tensor:
#      x y z
#    x 3.914900 0.000000 0.000000 
#    y 0.000000 3.529540 0.000000 
#    z 0.000000 0.000000 3.699470 
# 
# 
# High freq. dielectric constant tensor:
#      x y z
#    x 1.788590 0.000000 0.000000 
#    y 0.000000 1.762460 0.000000 
#    z 0.000000 0.000000 1.775700 
# 
# From -- ./inp_files/12389.got.cif
#   From: 2010.03.12/outbox.cif.g09.slc.cpg/sg38_7_cif.got.tgz:12389.got - 2010.04.14 02:38:36.
