data_PCOD8178000
_publ_section_title
;
Structure prediction by ZEFSAII (Michael W. Deem and Ramdas Pophale) SiO2 
 PCOD8178000
Probable space group: A M M 2
;
_chemical_formula_sum "Si O2"
_cell_formula_units_Z 64
_cell_length_a 9.047549
_cell_length_b 23.111086
_cell_length_c 19.065587
_cell_angle_alpha 90.000000
_cell_angle_beta 90.000000
_cell_angle_gamma 90.000000
_cell_volume 3986.589133
_symmetry_space_group_name_H-M "A M M 2"
_symmetry_group_IT_number 38
_symmetry_cell_setting 'orthorhombic'
loop_
_space_group_symop_operation_xyz
x,y,z
-x,-y,z
-x,y,z
x,-y,z
x,1/2+y,1/2+z
-x,1/2-y,1/2+z
-x,1/2+y,1/2+z
x,1/2-y,1/2+z
loop_
_atom_site_type_symbol
_atom_site_label
_atom_site_fract_x
_atom_site_fract_y
_atom_site_fract_z
Si Si1 0.172345 0.432561 0.644900
Si Si2 0.328772 0.747569 0.276458
Si Si3 0.829519 0.065727 0.413832
Si Si4 0.826573 0.735363 0.139182
Si Si5 0.674731 0.839552 0.062285
Si Si6 0.326806 0.382643 0.780994
Si Si7 0.328312 0.270117 0.429858
Si Si8 0.169191 0.669892 0.004930
O O1 0.201332 0.500000 0.634441
O O2 0.250321 0.400775 0.579232
O O3 0.241966 0.411968 0.717296
O O4 0.000000 0.417411 0.645559
O O5 0.500000 0.738794 0.257729
O O6 0.230702 0.717760 0.216088
O O7 0.288990 0.814995 0.284026
O O8 0.286557 0.715290 0.349433
O O9 0.725433 0.086957 0.351813
O O10 0.798623 0.103424 0.484163
O O11 0.000000 0.071977 0.389822
O O12 0.790517 0.000000 0.433453
O O13 0.739371 0.792609 0.116036
O O14 0.000000 0.748999 0.141355
O O15 0.787607 0.682769 0.085892
O O16 0.500000 0.843401 0.074457
O O17 0.716065 0.822436 0.982112
O O18 0.500000 0.393579 0.771241
O O19 0.500000 0.257033 0.435701
O O20 0.254833 0.210411 0.451497
O O21 0.000000 0.686299 0.993800
#
# Coordination Sequence:
#
# PCOD8178000 Si02
#       8
#     8   8   8   8   8   8   8   8
#     4  11  23  36  49  66  93 129 163 195 231 271
#     4  10  19  31  47  70  97 126 155 187 231 282
#     4  10  20  33  48  66  93 129 164 197 233 273
#     4  10  19  30  47  69  94 122 154 195 236 279
#     4  10  19  32  50  70  91 120 155 195 236 278
#     4  11  21  32  47  68  96 129 163 196 226 267
#     4   9  18  32  49  68  93 120 151 189 235 282
#     4   9  18  31  46  67  92 120 157 195 233 274
#
# _framework density 16.053825
#
# number of rings (size 3 to 8) (size 9 to 14) (size 15 to 20)
#    0.000    2.000    2.500    1.875    0.000    4.750 
#    0.000    0.000    0.000    0.000    0.000    0.875 
#    0.000    3.000    0.000    0.000    0.000    0.000 
#
# Total GULP energy -396764.289391 kJ/mol
# GULP energy per Si atom -12398.884043 kJ/mol
# Density = 1.601729 g / cm^3
# Si number density = 16.053825 Si / 1000 Ang^3
#
#
#
# Elastic Constant Matrix: (Units=GPa)
#
#
# Indices 1 2 3 4 5 6 
#
# 1 66.4927 38.4254 50.8121 0.0000 0.0000 0.0000
# 2 38.4254 76.1938 60.0811 0.0000 0.0000 0.0000
# 3 50.8121 60.0811 124.9272 0.0000 0.0000 0.0000
# 4 0.0000 0.0000 0.0000 21.9227 0.0000 0.0000
# 5 0.0000 0.0000 0.0000 0.0000 25.6905 0.0000
# 6 0.0000 0.0000 0.0000 0.0000 0.0000 17.1882
#
#
#
# Elastic Compliance Matrix: (Units=1/GPa)
#
#
# Indices 1 2 3 4 5 6 
#
# 1 0.023987 -0.007094 -0.006345 0.000000 0.000000 0.000000
# 2 -0.007094 0.023240 -0.008291 0.000000 0.000000 0.000000
# 3 -0.006345 -0.008291 0.014573 0.000000 0.000000 0.000000
# 4 0.000000 0.000000 0.000000 0.045615 0.000000 0.000000
# 5 0.000000 0.000000 0.000000 0.000000 0.038925 0.000000
# 6 0.000000 0.000000 0.000000 0.000000 0.000000 0.058179
#
#
# Mechanical properties :
#
#
# Convention : Reuss Voigt Hill
#
# Bulk Modulus (GPa) = 54.52610 62.91677 58.72144
# Shear Modulus (GPa) = 19.67782 20.84661 20.26221
#
# Velocity S-wave (km/s) = 3.50486 3.60744 3.55652
# Velocity P-wave (km/s) = 7.10049 7.52514 7.31590
#
# Compressibility (1/GPa) = 0.01833984
#
# Stress axis : x y z
#
# Youngs Moduli (GPa) = 41.68870 43.02908 68.62065
#
# Poissons Ratio (x) = 0.30525 0.43538
# Poissons Ratio (y) = 0.29574 0.56896
# Poissons Ratio (z) = 0.26450 0.35677
#
# Static dielectric constant tensor:
#      x y z
#    x 3.139860 0.000000 0.000000 
#    y 0.000000 2.989580 0.000000 
#    z 0.000000 0.000000 3.294560 
# 
# 
# High freq. dielectric constant tensor:
#      x y z
#    x 1.628490 0.000000 0.000000 
#    y 0.000000 1.586910 0.000000 
#    z 0.000000 0.000000 1.616680 
# 
# From -- ./inp_files/17271.got.cif
#   From: 2010.03.12/outbox.cif.g09.slc.cpg/sg38_9_cif.got.tgz:17271.got - 2010.04.14 02:38:36.
