data_PCOD8178812
_publ_section_title
;
Structure prediction by ZEFSAII (Michael W. Deem and Ramdas Pophale) SiO2 
 PCOD8178812
Probable space group: A M M 2
;
_chemical_formula_sum "Si O2"
_cell_formula_units_Z 64
_cell_length_a 14.249239
_cell_length_b 14.523084
_cell_length_c 17.403251
_cell_angle_alpha 90.000000
_cell_angle_beta 90.000000
_cell_angle_gamma 90.000000
_cell_volume 3601.479143
_symmetry_space_group_name_H-M "A M M 2"
_symmetry_group_IT_number 38
_symmetry_cell_setting 'orthorhombic'
loop_
_space_group_symop_operation_xyz
x,y,z
-x,-y,z
-x,y,z
x,-y,z
x,1/2+y,1/2+z
-x,1/2-y,1/2+z
-x,1/2+y,1/2+z
x,1/2-y,1/2+z
loop_
_atom_site_type_symbol
_atom_site_label
_atom_site_fract_x
_atom_site_fract_y
_atom_site_fract_z
Si Si1 0.396393 0.109168 0.719010
Si Si2 0.105283 0.607806 0.584360
Si Si3 0.241081 0.781874 0.982918
Si Si4 0.610729 0.606591 0.391061
Si Si5 0.112090 0.726650 0.340270
Si Si6 0.107465 0.402139 0.760328
Si Si7 0.104380 0.894549 0.700866
Si Si8 0.740409 0.607737 0.082922
O O1 0.500000 0.149539 0.703045
O O2 0.362159 0.140001 0.804291
O O3 0.331119 0.142013 0.649212
O O4 0.399682 0.000000 0.720391
O O5 0.119127 0.500000 0.567925
O O6 0.193695 0.662900 0.551882
O O7 0.113436 0.631751 0.673526
O O8 0.000000 0.636936 0.555369
O O9 0.336085 0.829447 0.952807
O O10 0.160920 0.793473 0.919644
O O11 0.265083 0.676699 0.009746
O O12 0.500000 0.619115 0.404389
O O13 0.639559 0.500000 0.403652
O O14 0.150989 0.826827 0.316385
O O15 0.147783 0.657596 0.273974
O O16 0.000000 0.719970 0.350046
O O17 0.160221 0.500000 0.772148
O O18 0.000000 0.414784 0.783356
O O19 0.157773 0.880418 0.620831
O O20 0.000000 0.858091 0.684248
O O21 0.106919 0.000000 0.726138
O O22 0.722898 0.500000 0.058321
#
# Coordination Sequence:
#
# PCOD8178812 Si02
#       8
#     8   8   8   8   8   8   8   8
#     4   8  15  32  57  76  90 116 157 204 248 288
#     4   9  18  32  49  70  96 126 162 203 243 284
#     4  12  22  30  47  74 105 134 157 189 245 303
#     4   9  19  36  56  77  99 122 153 197 248 299
#     4  10  20  31  45  69  98 128 164 203 241 285
#     4   8  15  30  49  64  85 126 175 210 229 257
#     4   9  18  33  51  68  91 129 173 213 249 282
#     4  10  21  34  48  71 102 134 169 204 237 282
#
# _framework density 17.770475000000001
#
# number of rings (size 3 to 8) (size 9 to 14) (size 15 to 20)
#    0.000    2.625    0.000    3.750    0.000    5.000 
#    0.000    1.250    0.000    0.000    0.000    0.000 
#    0.000    2.000    0.000    0.000    0.000    0.000 
#
# Total GULP energy -396491.645001 kJ/mol
# GULP energy per Si atom -12390.363906 kJ/mol
# Density = 1.773003 g / cm^3
# Si number density = 17.770475 Si / 1000 Ang^3
#
#
#
# Elastic Constant Matrix: (Units=GPa)
#
#
# Indices 1 2 3 4 5 6 
#
# 1 60.8406 24.5033 15.6684 0.0000 0.0000 0.0000
# 2 24.5033 64.5973 30.1973 0.0000 0.0000 0.0000
# 3 15.6684 30.1973 34.5749 0.0000 0.0000 0.0000
# 4 0.0000 0.0000 0.0000 22.8767 0.0000 0.0000
# 5 0.0000 0.0000 0.0000 0.0000 16.4386 0.0000
# 6 0.0000 0.0000 0.0000 0.0000 0.0000 19.0928
#
#
#
# Elastic Compliance Matrix: (Units=1/GPa)
#
#
# Indices 1 2 3 4 5 6 
#
# 1 0.019732 -0.005585 -0.004064 0.000000 0.000000 0.000000
# 2 -0.005585 0.027743 -0.021699 0.000000 0.000000 0.000000
# 3 -0.004064 -0.021699 0.049716 0.000000 0.000000 0.000000
# 4 0.000000 0.000000 0.000000 0.043713 0.000000 0.000000
# 5 0.000000 0.000000 0.000000 0.000000 0.060832 0.000000
# 6 0.000000 0.000000 0.000000 0.000000 0.000000 0.052376
#
#
# Mechanical properties :
#
#
# Convention : Reuss Voigt Hill
#
# Bulk Modulus (GPa) = 28.99010 33.41674 31.20342
# Shear Modulus (GPa) = 15.22961 17.65788 16.44375
#
# Velocity S-wave (km/s) = 2.93066 3.15566 3.04524
# Velocity P-wave (km/s) = 5.27264 5.66772 5.47375
#
# Compressibility (1/GPa) = 0.03449453
#
# Stress axis : x y z
#
# Youngs Moduli (GPa) = 50.67799 36.04530 20.11406
#
# Poissons Ratio (x) = 0.20132 0.08175
# Poissons Ratio (y) = 0.28304 0.43646
# Poissons Ratio (z) = 0.20597 0.78216
#
# Static dielectric constant tensor:
#      x y z
#    x 3.325730 0.000000 0.000000 
#    y 0.000000 4.032710 0.000000 
#    z 0.000000 0.000000 3.185470 
# 
# 
# High freq. dielectric constant tensor:
#      x y z
#    x 1.669880 0.000000 0.000000 
#    y 0.000000 1.680510 0.000000 
#    z 0.000000 0.000000 1.676800 
# 
# From -- ./inp_files/18532.got.cif
#   From: 2010.03.12/outbox.cif.g09.slc.cpg/sg38_10_cif.got.tgz:18532.got - 2010.04.14 02:38:36.
