data_PCOD8178266
_publ_section_title
;
Structure prediction by ZEFSAII (Michael W. Deem and Ramdas Pophale) SiO2 
 PCOD8178266
Probable space group: A M M 2
;
_chemical_formula_sum "Si O2"
_cell_formula_units_Z 64
_cell_length_a 9.338858
_cell_length_b 24.712533
_cell_length_c 15.191283
_cell_angle_alpha 90.000000
_cell_angle_beta 90.000000
_cell_angle_gamma 90.000000
_cell_volume 3505.948146
_symmetry_space_group_name_H-M "A M M 2"
_symmetry_group_IT_number 38
_symmetry_cell_setting 'orthorhombic'
loop_
_space_group_symop_operation_xyz
x,y,z
-x,-y,z
-x,y,z
x,-y,z
x,1/2+y,1/2+z
-x,1/2-y,1/2+z
-x,1/2+y,1/2+z
x,1/2-y,1/2+z
loop_
_atom_site_type_symbol
_atom_site_label
_atom_site_fract_x
_atom_site_fract_y
_atom_site_fract_z
Si Si1 0.334061 0.853760 0.516720
Si Si2 0.834282 0.725403 0.356457
Si Si3 0.832153 0.437762 0.504117
Si Si4 0.663396 0.732895 0.529128
Si Si5 0.332799 0.438273 0.155171
Si Si6 0.331559 0.329337 0.824306
Si Si7 0.663115 0.630921 0.640273
Si Si8 0.835043 0.105771 0.817109
O O1 0.500000 0.867359 0.512335
O O2 0.303213 0.794603 0.558448
O O3 0.264398 0.899729 0.579016
O O4 0.275069 0.855537 0.416037
O O5 0.770419 0.714800 0.452880
O O6 0.750125 0.772976 0.306881
O O7 0.816562 0.669942 0.301666
O O8 0.000000 0.741395 0.366158
O O9 0.786567 0.500000 0.502196
O O10 0.761490 0.410617 0.588965
O O11 0.778076 0.410017 0.414232
O O12 0.000000 0.429849 0.515193
O O13 0.500000 0.729764 0.493623
O O14 0.687685 0.693016 0.610629
O O15 0.500000 0.426089 0.169477
O O16 0.306230 0.500000 0.126255
O O17 0.255716 0.427174 0.246901
O O18 0.500000 0.315829 0.829808
O O19 0.298951 0.370398 0.744282
O O20 0.500000 0.613196 0.623873
O O21 0.000000 0.087915 0.807781
#
# Coordination Sequence:
#
# PCOD8178266 Si02
#       8
#     8   8   8   8   8   8   8   8
#     4   8  16  33  53  74 105 139 173 213 263 317
#     4  10  19  32  51  78 108 139 176 214 258 313
#     4  10  21  38  57  75 105 149 183 215 269 326
#     4   9  17  31  51  75 104 140 173 209 263 319
#     4  10  21  35  54  79 103 135 182 227 264 307
#     4   9  19  35  55  78 109 146 178 214 269 325
#     4  10  20  33  54  83 109 139 181 223 267 315
#     4  10  21  36  53  76 107 143 176 211 266 325
#
# _framework density 18.254691000000001
#
# number of rings (size 3 to 8) (size 9 to 14) (size 15 to 20)
#    0.000    2.500    1.250    1.500    1.750    3.000 
#    0.000    3.125    0.000    2.250    0.000    0.000 
#    0.000    0.000    0.000    0.000    0.000    0.000 
#
# Total GULP energy -396729.845787 kJ/mol
# GULP energy per Si atom -12397.807681 kJ/mol
# Density = 1.821314 g / cm^3
# Si number density = 18.254691 Si / 1000 Ang^3
#
#
#
# Elastic Constant Matrix: (Units=GPa)
#
#
# Indices 1 2 3 4 5 6 
#
# 1 52.5996 39.4417 34.0748 0.0000 0.0000 0.0000
# 2 39.4417 102.0664 53.2308 0.0000 0.0000 0.0000
# 3 34.0748 53.2308 97.5306 0.0000 0.0000 0.0000
# 4 0.0000 0.0000 0.0000 30.2137 0.0000 0.0000
# 5 0.0000 0.0000 0.0000 0.0000 16.4879 0.0000
# 6 0.0000 0.0000 0.0000 0.0000 0.0000 25.3521
#
#
#
# Elastic Compliance Matrix: (Units=1/GPa)
#
#
# Indices 1 2 3 4 5 6 
#
# 1 0.028782 -0.008217 -0.005571 0.000000 0.000000 0.000000
# 2 -0.008217 0.016042 -0.005885 0.000000 0.000000 0.000000
# 3 -0.005571 -0.005885 0.015411 0.000000 0.000000 0.000000
# 4 0.000000 0.000000 0.000000 0.033098 0.000000 0.000000
# 5 0.000000 0.000000 0.000000 0.000000 0.060651 0.000000
# 6 0.000000 0.000000 0.000000 0.000000 0.000000 0.039444
#
#
# Mechanical properties :
#
#
# Convention : Reuss Voigt Hill
#
# Bulk Modulus (GPa) = 47.86966 56.18791 52.02879
# Shear Modulus (GPa) = 20.85628 22.77404 21.81516
#
# Velocity S-wave (km/s) = 3.38378 3.53593 3.46069
# Velocity P-wave (km/s) = 6.44568 6.89327 6.67323
#
# Compressibility (1/GPa) = 0.02089006
#
# Stress axis : x y z
#
# Youngs Moduli (GPa) = 34.74400 62.33717 64.88725
#
# Poissons Ratio (x) = 0.51221 0.36149
# Poissons Ratio (y) = 0.28548 0.38184
# Poissons Ratio (z) = 0.19356 0.36683
#
# Static dielectric constant tensor:
#      x y z
#    x 3.187110 0.000000 0.000000 
#    y 0.000000 3.386440 0.000000 
#    z 0.000000 0.000000 3.391840 
# 
# 
# High freq. dielectric constant tensor:
#      x y z
#    x 1.688690 0.000000 0.000000 
#    y 0.000000 1.702320 0.000000 
#    z 0.000000 0.000000 1.703290 
# 
# From -- ./inp_files/12810.got.cif
#   From: 2010.03.12/outbox.cif.g09.slc.cpg/sg38_7_cif.got.tgz:12810.got - 2010.04.14 02:38:36.
