data_PCOD8178591
_publ_section_title
;
Structure prediction by ZEFSAII (Michael W. Deem and Ramdas Pophale) SiO2 
 PCOD8178591
Probable space group: A M M 2
;
_chemical_formula_sum "Si O2"
_cell_formula_units_Z 48
_cell_length_a 8.268632
_cell_length_b 31.666519
_cell_length_c 9.079735
_cell_angle_alpha 90.000000
_cell_angle_beta 90.000000
_cell_angle_gamma 90.000000
_cell_volume 2377.426847
_symmetry_space_group_name_H-M "A M M 2"
_symmetry_group_IT_number 38
_symmetry_cell_setting 'orthorhombic'
loop_
_space_group_symop_operation_xyz
x,y,z
-x,-y,z
-x,y,z
x,-y,z
x,1/2+y,1/2+z
-x,1/2-y,1/2+z
-x,1/2+y,1/2+z
x,1/2-y,1/2+z
loop_
_atom_site_type_symbol
_atom_site_label
_atom_site_fract_x
_atom_site_fract_y
_atom_site_fract_z
Si Si1 0.686849 0.212709 0.289180
Si Si2 0.313152 0.544591 0.619520
Si Si3 0.692864 0.134772 0.099112
Si Si4 0.812860 0.545690 0.299093
Si Si5 0.815711 0.287532 0.109197
Si Si6 0.309476 0.868210 0.761985
O O1 0.500000 0.205081 0.329395
O O2 0.759024 0.173647 0.194613
O O3 0.700332 0.255289 0.195109
O O4 0.789681 0.217162 0.435858
O O5 0.500000 0.543132 0.661945
O O6 0.232906 0.500000 0.680187
O O7 0.241742 0.590177 0.671825
O O8 0.296481 0.544925 0.444114
O O9 0.500000 0.134489 0.098587
O O10 0.751291 0.139417 0.929976
O O11 0.791217 0.500000 0.217028
O O12 0.747507 0.585354 0.204225
O O13 0.000000 0.552520 0.341372
O O14 0.776247 0.334950 0.156525
O O15 0.000000 0.276355 0.146337
O O16 0.500000 0.863334 0.745500
#
# Coordination Sequence:
#
# PCOD8178591 Si02
#       6
#     8   8   8   8   8   8
#     4  11  22  39  60  80 106 143 183 222 271 332
#     4   8  13  24  44  71 103 138 177 221 265 310
#     4   8  16  30  52  80 106 135 176 222 264 311
#     4   9  16  26  43  72 109 144 177 218 268 317
#     4  12  25  40  57  81 110 139 177 227 280 329
#     4  10  19  34  56  81 108 142 184 226 270 323
#
# _framework density 20.189896999999998
#
# number of rings (size 3 to 8) (size 9 to 14) (size 15 to 20)
#    0.000    2.333    0.000    5.000    0.000    2.333 
#    0.000    7.500    0.000    1.000    0.000    2.333 
#    0.000    0.000    0.000    0.000    0.000    0.000 
#
# Total GULP energy -297339.450358 kJ/mol
# GULP energy per Si atom -12389.143765 kJ/mol
# Density = 2.014394 g / cm^3
# Si number density = 20.189897 Si / 1000 Ang^3
#
#
#
# Elastic Constant Matrix: (Units=GPa)
#
#
# Indices 1 2 3 4 5 6 
#
# 1 47.4246 11.0290 8.9308 0.0000 0.0000 0.0000
# 2 11.0290 173.5043 43.8748 0.0000 0.0000 0.0000
# 3 8.9308 43.8748 67.5044 0.0000 0.0000 0.0000
# 4 0.0000 0.0000 0.0000 26.2540 0.0000 0.0000
# 5 0.0000 0.0000 0.0000 0.0000 18.1622 0.0000
# 6 0.0000 0.0000 0.0000 0.0000 0.0000 23.9455
#
#
#
# Elastic Compliance Matrix: (Units=1/GPa)
#
#
# Indices 1 2 3 4 5 6 
#
# 1 0.021713 -0.000782 -0.002364 0.000000 0.000000 0.000000
# 2 -0.000782 0.006925 -0.004398 0.000000 0.000000 0.000000
# 3 -0.002364 -0.004398 0.017985 0.000000 0.000000 0.000000
# 4 0.000000 0.000000 0.000000 0.038089 0.000000 0.000000
# 5 0.000000 0.000000 0.000000 0.000000 0.055060 0.000000
# 6 0.000000 0.000000 0.000000 0.000000 0.000000 0.041762
#
#
# Mechanical properties :
#
#
# Convention : Reuss Voigt Hill
#
# Bulk Modulus (GPa) = 31.71068 46.23362 38.97215
# Shear Modulus (GPa) = 24.13896 28.64558 26.39227
#
# Velocity S-wave (km/s) = 3.46149 3.77079 3.61945
# Velocity P-wave (km/s) = 5.63171 6.47361 6.06728
#
# Compressibility (1/GPa) = 0.03153512
#
# Stress axis : x y z
#
# Youngs Moduli (GPa) = 46.05484 144.39744 55.60223
#
# Poissons Ratio (x) = 0.11298 0.13145
# Poissons Ratio (y) = 0.03603 0.24452
# Poissons Ratio (z) = 0.10888 0.63501
#
# Static dielectric constant tensor:
#      x y z
#    x 3.402680 0.000000 0.000000 
#    y 0.000000 4.499600 0.000000 
#    z 0.000000 0.000000 3.186540 
# 
# 
# High freq. dielectric constant tensor:
#      x y z
#    x 1.771120 0.000000 0.000000 
#    y 0.000000 1.825440 0.000000 
#    z 0.000000 0.000000 1.726160 
# 
# From -- ./inp_files/3753.got.cif
#   From: 2010.03.12/outbox.cif.g09.slc.cpg/sg38_2_cif.got.tgz:3753.got - 2010.04.14 02:38:36.
