data_PCOD8178413
_publ_section_title
;
Structure prediction by ZEFSAII (Michael W. Deem and Ramdas Pophale) SiO2 
 PCOD8178413
Probable space group: A M M 2
;
_chemical_formula_sum "Si O2"
_cell_formula_units_Z 64
_cell_length_a 8.817884
_cell_length_b 20.752588
_cell_length_c 19.786223
_cell_angle_alpha 90.000000
_cell_angle_beta 90.000000
_cell_angle_gamma 90.000000
_cell_volume 3620.758384
_symmetry_space_group_name_H-M "A M M 2"
_symmetry_group_IT_number 38
_symmetry_cell_setting 'orthorhombic'
loop_
_space_group_symop_operation_xyz
x,y,z
-x,-y,z
-x,y,z
x,-y,z
x,1/2+y,1/2+z
-x,1/2-y,1/2+z
-x,1/2+y,1/2+z
x,1/2-y,1/2+z
loop_
_atom_site_type_symbol
_atom_site_label
_atom_site_fract_x
_atom_site_fract_y
_atom_site_fract_z
Si Si1 0.319874 0.071175 0.829950
Si Si2 0.319418 0.807956 0.915009
Si Si3 0.178071 0.273316 0.552582
Si Si4 0.823501 0.123288 0.553948
Si Si5 0.676486 0.376730 0.190065
Si Si6 0.180568 0.307917 0.829075
Si Si7 0.180126 0.071174 0.414063
Si Si8 0.678047 0.226681 0.191515
O O1 0.500000 0.073826 0.826287
O O2 0.263224 0.124599 0.882787
O O3 0.255619 0.086599 0.755074
O O4 0.263210 0.000000 0.852196
O O5 0.500000 0.801015 0.914070
O O6 0.250212 0.750001 0.871999
O O7 0.257928 0.809689 0.990951
O O8 0.214853 0.198204 0.544453
O O9 0.250212 0.299844 0.622007
O O10 0.000000 0.287644 0.552011
O O11 0.750018 0.095313 0.622008
O O12 0.755650 0.086601 0.488942
O O13 0.000000 0.111257 0.560819
O O14 0.500000 0.388808 0.183188
O O15 0.714747 0.301806 0.199554
O O16 0.236765 0.375391 0.861233
O O17 0.241616 0.309641 0.753059
O O18 0.000000 0.300889 0.830247
O O19 0.000000 0.073800 0.417698
O O20 0.236834 0.000000 0.391827
O O21 0.500000 0.212291 0.192354
#
# Coordination Sequence:
#
# PCOD8178413 Si02
#       8
#     8   8   8   8   8   8   8   8
#     4   9  18  33  51  72 102 139 176 212 256 308
#     4  11  20  33  54  79 104 137 176 218 262 306
#     4  10  19  33  52  79 107 135 170 215 264 310
#     4   9  17  30  47  71 101 135 171 205 246 297
#     4   9  17  30  47  71 101 135 171 205 246 297
#     4  11  20  33  54  79 104 137 176 218 262 306
#     4   9  18  33  51  72 102 139 176 212 256 308
#     4  10  19  33  52  79 107 135 170 215 264 310
#
# _framework density 17.675854000000001
#
# number of rings (size 3 to 8) (size 9 to 14) (size 15 to 20)
#    0.000    2.250    2.500    1.500    0.000    1.500 
#    0.000    0.000    0.000    6.750    0.000    0.000 
#    0.000    0.000    0.000    0.000    0.000    0.000 
#
# Total GULP energy -396758.968942 kJ/mol
# GULP energy per Si atom -12398.717779 kJ/mol
# Density = 1.763562 g / cm^3
# Si number density = 17.675854 Si / 1000 Ang^3
#
#
#
# Elastic Constant Matrix: (Units=GPa)
#
#
# Indices 1 2 3 4 5 6 
#
# 1 48.2452 39.1281 44.2561 0.0000 0.0000 0.0000
# 2 39.1281 115.1509 79.4519 0.0000 0.0000 0.0000
# 3 44.2561 79.4519 164.0190 0.0000 0.0000 0.0000
# 4 0.0000 0.0000 0.0000 25.4561 0.0000 0.0000
# 5 0.0000 0.0000 0.0000 0.0000 34.7365 0.0000
# 6 0.0000 0.0000 0.0000 0.0000 0.0000 14.7596
#
#
#
# Elastic Compliance Matrix: (Units=1/GPa)
#
#
# Indices 1 2 3 4 5 6 
#
# 1 0.031035 -0.007161 -0.004905 0.000000 0.000000 0.000000
# 2 -0.007161 0.014696 -0.005187 0.000000 0.000000 0.000000
# 3 -0.004905 -0.005187 0.009933 0.000000 0.000000 0.000000
# 4 0.000000 0.000000 0.000000 0.039283 0.000000 0.000000
# 5 0.000000 0.000000 0.000000 0.000000 0.028788 0.000000
# 6 0.000000 0.000000 0.000000 0.000000 0.000000 0.067753
#
#
# Mechanical properties :
#
#
# Convention : Reuss Voigt Hill
#
# Bulk Modulus (GPa) = 47.26323 72.56527 59.91425
# Shear Modulus (GPa) = 21.45493 25.96238 23.70866
#
# Velocity S-wave (km/s) = 3.48774 3.83666 3.66635
# Velocity P-wave (km/s) = 6.55866 7.79545 7.20365
#
# Compressibility (1/GPa) = 0.02115810
#
# Stress axis : x y z
#
# Youngs Moduli (GPa) = 32.22190 68.04379 100.67629
#
# Poissons Ratio (x) = 0.48728 0.49381
# Poissons Ratio (y) = 0.23075 0.52219
# Poissons Ratio (z) = 0.15805 0.35293
#
# Static dielectric constant tensor:
#      x y z
#    x 3.126430 0.000000 0.000000 
#    y 0.000000 3.274870 0.000000 
#    z 0.000000 0.000000 3.576720 
# 
# 
# High freq. dielectric constant tensor:
#      x y z
#    x 1.667820 0.000000 0.000000 
#    y 0.000000 1.658810 0.000000 
#    z 0.000000 0.000000 1.694500 
# 
# From -- ./inp_files/20066.got.cif
#   From: 2010.03.12/outbox.cif.g09.slc.cpg/sg38_11_cif.got.tgz:20066.got - 2010.04.14 02:38:36.
