data_PCOD8178540
_publ_section_title
;
Structure prediction by ZEFSAII (Michael W. Deem and Ramdas Pophale) SiO2 
 PCOD8178540
Probable space group: A M M 2
;
_chemical_formula_sum "Si O2"
_cell_formula_units_Z 38
_cell_length_a 11.821636
_cell_length_b 12.163527
_cell_length_c 14.484656
_cell_angle_alpha 90.000000
_cell_angle_beta 90.000000
_cell_angle_gamma 90.000000
_cell_volume 2082.789079
_symmetry_space_group_name_H-M "A M M 2"
_symmetry_group_IT_number 38
_symmetry_cell_setting 'orthorhombic'
loop_
_space_group_symop_operation_xyz
x,y,z
-x,-y,z
-x,y,z
x,-y,z
x,1/2+y,1/2+z
-x,1/2-y,1/2+z
-x,1/2+y,1/2+z
x,1/2-y,1/2+z
loop_
_atom_site_type_symbol
_atom_site_label
_atom_site_fract_x
_atom_site_fract_y
_atom_site_fract_z
Si Si1 0.868845 0.127560 0.940630
Si Si2 0.740224 0.872235 0.755730
Si Si3 0.500000 0.787995 0.495001
Si Si4 0.500000 0.627784 0.332557
Si Si5 0.281906 0.719692 0.597759
Si Si6 0.500000 0.000000 0.364697
Si Si7 0.375338 0.500000 0.683929
O O1 0.819654 0.158362 0.841101
O O2 0.000000 0.157911 0.942111
O O3 0.846964 0.000000 0.962246
O O4 0.805692 0.199688 0.016067
O O5 0.610719 0.836805 0.776272
O O6 0.780849 0.800903 0.669044
O O7 0.749315 0.000000 0.730655
O O8 0.500000 0.679652 0.433224
O O9 0.390585 0.784818 0.559850
O O10 0.500000 0.894428 0.430038
O O11 0.500000 0.500000 0.354011
O O12 0.309802 0.607306 0.650573
O O13 0.389586 0.000000 0.296495
O O14 0.500000 0.500000 0.637323
#
# Coordination Sequence:
#
# PCOD8178540 Si02
#       7
#     8   8   4   4   8   2   4
#     4  10  22  40  61  85 110 149 201 246 287 331
#     4  10  22  38  58  86 118 150 186 237 286 347
#     4  12  22  33  60  88 122 154 184 229 284 349
#     4  10  19  33  59  85 115 147 190 228 279 338
#     4  12  22  36  62  87 118 149 195 235 288 342
#     4  10  24  38  52  84 136 160 178 220 294 356
#     4  10  22  36  53  86 121 152 188 231 281 350
#
# _framework density 18.244765999999998
#
# number of rings (size 3 to 8) (size 9 to 14) (size 15 to 20)
#    0.316    1.053    4.211    1.895    2.947    0.842 
#    0.000    0.000    0.000    0.000    0.000    0.000 
#    0.000    0.000    0.000    0.000    0.000    0.000 
#
# Total GULP energy -235642.379702 kJ/mol
# GULP energy per Si atom -12402.230511 kJ/mol
# Density = 1.820324 g / cm^3
# Si number density = 18.244766 Si / 1000 Ang^3
#
#
#
# Elastic Constant Matrix: (Units=GPa)
#
#
# Indices 1 2 3 4 5 6 
#
# 1 110.0978 39.4548 62.0495 0.0000 0.0000 0.0000
# 2 39.4548 76.2432 71.3763 0.0000 0.0000 0.0000
# 3 62.0495 71.3763 138.2629 0.0000 0.0000 0.0000
# 4 0.0000 0.0000 0.0000 37.8302 0.0000 0.0000
# 5 0.0000 0.0000 0.0000 0.0000 -13.2027 0.0000
# 6 0.0000 0.0000 0.0000 0.0000 0.0000 3.5418
#
#
#
# Elastic Compliance Matrix: (Units=1/GPa)
#
#
# Indices 1 2 3 4 5 6 
#
# 1 0.012368 -0.002330 -0.004348 0.000000 0.000000 0.000000
# 2 -0.002330 0.025822 -0.012285 0.000000 0.000000 0.000000
# 3 -0.004348 -0.012285 0.015525 0.000000 0.000000 0.000000
# 4 0.000000 0.000000 0.000000 0.026434 0.000000 0.000000
# 5 0.000000 0.000000 0.000000 0.000000 -0.075742 0.000000
# 6 0.000000 0.000000 0.000000 0.000000 0.000000 0.282343
#
#
# Mechanical properties :
#
#
# Convention : Reuss Voigt Hill
#
# Bulk Modulus (GPa) = 63.32754 74.48503 68.90629
# Shear Modulus (GPa) = 15.15429 15.74873 15.45151
#
# Velocity S-wave (km/s) = 2.88516 2.94120 2.91331
# Velocity P-wave (km/s) = 6.77379 7.24212 7.01186
#
# Compressibility (1/GPa) = 0.01579092
#
# Stress axis : x y z
#
# Youngs Moduli (GPa) = 80.85274 38.72629 64.41027
#
# Poissons Ratio (x) = 0.09024 0.28003
# Poissons Ratio (y) = 0.18841 0.79125
# Poissons Ratio (z) = 0.35152 0.47574
#
# Static dielectric constant tensor:
#      x y z
#    x 3.263670 0.000000 0.000000 
#    y 0.000000 3.295120 0.000000 
#    z 0.000000 0.000000 3.412400 
# 
# 
# High freq. dielectric constant tensor:
#      x y z
#    x 1.686830 0.000000 0.000000 
#    y 0.000000 1.704000 0.000000 
#    z 0.000000 0.000000 1.718930 
# 
# From -- ./inp_files/9114.got.cif
#   From: 2010.03.12/outbox.cif.g09.slc.cpg/sg38_5_cif.got.tgz:9114.got - 2010.04.14 02:38:36.
