data_PCOD8178403
_publ_section_title
;
Structure prediction by ZEFSAII (Michael W. Deem and Ramdas Pophale) SiO2 
 PCOD8178403
Probable space group: A M M 2
;
_chemical_formula_sum "Si O2"
_cell_formula_units_Z 40
_cell_length_a 16.753192
_cell_length_b 8.806488
_cell_length_c 14.813808
_cell_angle_alpha 90.000000
_cell_angle_beta 90.000000
_cell_angle_gamma 90.000000
_cell_volume 2185.581596
_symmetry_space_group_name_H-M "A M M 2"
_symmetry_group_IT_number 38
_symmetry_cell_setting 'orthorhombic'
loop_
_space_group_symop_operation_xyz
x,y,z
-x,-y,z
-x,y,z
x,-y,z
x,1/2+y,1/2+z
-x,1/2-y,1/2+z
-x,1/2+y,1/2+z
x,1/2-y,1/2+z
loop_
_atom_site_type_symbol
_atom_site_label
_atom_site_fract_x
_atom_site_fract_y
_atom_site_fract_z
Si Si1 0.000000 0.178366 0.815780
Si Si2 0.881434 0.319258 0.469771
Si Si3 0.588532 0.179513 0.809648
Si Si4 0.409103 0.676052 0.623691
Si Si5 0.000000 0.318626 0.108973
Si Si6 0.701331 0.680348 0.462772
O O1 0.076993 0.229417 0.875026
O O2 0.000000 0.244869 0.713239
O O3 0.000000 0.000000 0.804465
O O4 0.887010 0.500000 0.482742
O O5 0.791218 0.257056 0.465779
O O6 0.922161 0.242715 0.556852
O O7 0.500000 0.243911 0.832837
O O8 0.613599 0.226558 0.710158
O O9 0.654620 0.248343 0.876736
O O10 0.587012 0.000000 0.817827
O O11 0.500000 0.705377 0.591238
O O12 0.396265 0.500000 0.646077
O O13 0.347967 0.735404 0.549073
O O14 0.000000 0.500000 0.107224
O O15 0.703282 0.500000 0.457562
#
# Coordination Sequence:
#
# PCOD8178403 Si02
#       6
#     4   8   8   8   4   8
#     4   8  16  31  50  67  88 119 149 182 230 284
#     4   9  18  34  52  71  94 123 160 193 227 281
#     4   9  17  30  48  70  95 126 165 201 231 271
#     4   9  17  30  47  68  96 129 162 196 236 278
#     4  10  19  33  52  73  96 121 149 188 240 286
#     4   9  17  30  50  71  93 125 162 197 232 275
#
# _framework density 18.301765
#
# number of rings (size 3 to 8) (size 9 to 14) (size 15 to 20)
#    0.000    3.000    0.000    1.500    0.000    4.000 
#    0.000    9.000    0.000    4.800    0.000    0.000 
#    0.000    0.000    0.000    0.000    0.000    0.000 
#
# Total GULP energy -247891.029350 kJ/mol
# GULP energy per Si atom -12394.551467 kJ/mol
# Density = 1.826011 g / cm^3
# Si number density = 18.301765 Si / 1000 Ang^3
#
#
#
# Elastic Constant Matrix: (Units=GPa)
#
#
# Indices 1 2 3 4 5 6 
#
# 1 176.1314 17.9438 102.2642 0.0000 0.0000 0.0000
# 2 17.9438 15.3616 14.6228 0.0000 0.0000 0.0000
# 3 102.2642 14.6228 152.2692 0.0000 0.0000 0.0000
# 4 0.0000 0.0000 0.0000 27.5095 0.0000 0.0000
# 5 0.0000 0.0000 0.0000 0.0000 2.2304 0.0000
# 6 0.0000 0.0000 0.0000 0.0000 0.0000 17.5890
#
#
#
# Elastic Compliance Matrix: (Units=1/GPa)
#
#
# Indices 1 2 3 4 5 6 
#
# 1 0.009735 -0.005666 -0.005994 0.000000 0.000000 0.000000
# 2 -0.005666 0.074944 -0.003392 0.000000 0.000000 0.000000
# 3 -0.005994 -0.003392 0.010919 0.000000 0.000000 0.000000
# 4 0.000000 0.000000 0.000000 0.036351 0.000000 0.000000
# 5 0.000000 0.000000 0.000000 0.000000 0.448348 0.000000
# 6 0.000000 0.000000 0.000000 0.000000 0.000000 0.056854
#
#
# Mechanical properties :
#
#
# Convention : Reuss Voigt Hill
#
# Bulk Modulus (GPa) = 15.26843 68.15819 41.71331
# Shear Modulus (GPa) = 7.25600 23.39454 15.32527
#
# Velocity S-wave (km/s) = 1.99330 3.57916 2.89687
# Velocity P-wave (km/s) = 3.69572 7.37582 5.83357
#
# Compressibility (1/GPa) = 0.06549463
#
# Stress axis : x y z
#
# Youngs Moduli (GPa) = 102.72314 13.34324 91.58710
#
# Poissons Ratio (x) = 0.07560 0.54896
# Poissons Ratio (y) = 0.58199 0.31067
# Poissons Ratio (z) = 0.61571 0.04526
#
# Static dielectric constant tensor:
#      x y z
#    x 3.665640 0.000000 0.000000 
#    y 0.000000 2.972210 0.000000 
#    z 0.000000 0.000000 3.533560 
# 
# 
# High freq. dielectric constant tensor:
#      x y z
#    x 1.714400 0.000000 0.000000 
#    y 0.000000 1.669490 0.000000 
#    z 0.000000 0.000000 1.716360 
# 
# From -- ./inp_files/14301.got.cif
#   From: 2010.03.12/outbox.cif.g09.slc.cpg/sg38_8_cif.got.tgz:14301.got - 2010.04.14 02:38:36.
