data_PCOD8178460
_publ_section_title
;
Structure prediction by ZEFSAII (Michael W. Deem and Ramdas Pophale) SiO2 
 PCOD8178460
Probable space group: A M M 2
;
_chemical_formula_sum "Si O2"
_cell_formula_units_Z 64
_cell_length_a 9.420634
_cell_length_b 24.724196
_cell_length_c 15.043472
_cell_angle_alpha 90.000000
_cell_angle_beta 90.000000
_cell_angle_gamma 90.000000
_cell_volume 3503.889416
_symmetry_space_group_name_H-M "A M M 2"
_symmetry_group_IT_number 38
_symmetry_cell_setting 'orthorhombic'
loop_
_space_group_symop_operation_xyz
x,y,z
-x,-y,z
-x,y,z
x,-y,z
x,1/2+y,1/2+z
-x,1/2-y,1/2+z
-x,1/2+y,1/2+z
x,1/2-y,1/2+z
loop_
_atom_site_type_symbol
_atom_site_label
_atom_site_fract_x
_atom_site_fract_y
_atom_site_fract_z
Si Si1 0.666219 0.886595 0.772680
Si Si2 0.162761 0.234800 0.006604
Si Si3 0.165260 0.856220 0.470573
Si Si4 0.668810 0.145221 0.102304
Si Si5 0.668407 0.439440 0.453741
Si Si6 0.835342 0.662840 0.769379
Si Si7 0.839374 0.714764 0.301856
Si Si8 0.665034 0.438383 0.088448
O O1 0.500000 0.876398 0.782266
O O2 0.727834 0.914855 0.861535
O O3 0.737287 0.828559 0.756297
O O4 0.704193 0.924549 0.689887
O O5 0.201668 0.298059 0.013258
O O6 0.269087 0.202303 0.069428
O O7 0.000000 0.225063 0.036866
O O8 0.185437 0.214602 0.906902
O O9 0.207716 0.857584 0.366970
O O10 0.251216 0.902232 0.519378
O O11 0.000000 0.868316 0.481423
O O12 0.500000 0.149571 0.109679
O O13 0.736410 0.131952 0.198357
O O14 0.717529 0.097565 0.035941
O O15 0.500000 0.441596 0.448459
O O16 0.729787 0.500000 0.466965
O O17 0.805409 0.726772 0.761333
O O18 0.000000 0.650289 0.750076
O O19 0.000000 0.698349 0.279357
O O20 0.500000 0.428391 0.071359
O O21 0.708605 0.500000 0.071119
#
# Coordination Sequence:
#
# PCOD8178460 Si02
#       8
#     8   8   8   8   8   8   8   8
#     4  10  19  33  54  80 110 145 180 219 267 323
#     4   9  18  34  54  77 109 145 177 218 273 327
#     4   9  20  39  60  79 103 144 191 229 275 330
#     4  11  21  32  53  85 112 142 185 227 269 320
#     4   9  18  34  54  76 108 148 184 218 263 322
#     4   9  20  38  56  76 109 149 182 221 276 332
#     4   9  18  33  53  77 107 145 181 214 263 322
#     4  10  22  38  56  81 112 145 183 230 283 328
#
# _framework density 18.265415999999998
#
# number of rings (size 3 to 8) (size 9 to 14) (size 15 to 20)
#    0.000    2.500    1.250    2.250    1.750    3.750 
#    0.000    3.125    0.000    6.375    0.000    0.000 
#    0.000    0.000    0.000    0.000    0.000    0.000 
#
# Total GULP energy -396821.475906 kJ/mol
# GULP energy per Si atom -12400.671122 kJ/mol
# Density = 1.822384 g / cm^3
# Si number density = 18.265416 Si / 1000 Ang^3
#
#
#
# Elastic Constant Matrix: (Units=GPa)
#
#
# Indices 1 2 3 4 5 6 
#
# 1 62.4718 54.7973 56.8366 0.0000 0.0000 0.0000
# 2 54.7973 124.2335 68.5220 0.0000 0.0000 0.0000
# 3 56.8366 68.5220 111.6883 0.0000 0.0000 0.0000
# 4 0.0000 0.0000 0.0000 28.9243 0.0000 0.0000
# 5 0.0000 0.0000 0.0000 0.0000 33.4015 0.0000
# 6 0.0000 0.0000 0.0000 0.0000 0.0000 14.6558
#
#
#
# Elastic Compliance Matrix: (Units=1/GPa)
#
#
# Indices 1 2 3 4 5 6 
#
# 1 0.034822 -0.008442 -0.012541 0.000000 0.000000 0.000000
# 2 -0.008442 0.014213 -0.004424 0.000000 0.000000 0.000000
# 3 -0.012541 -0.004424 0.018049 0.000000 0.000000 0.000000
# 4 0.000000 0.000000 0.000000 0.034573 0.000000 0.000000
# 5 0.000000 0.000000 0.000000 0.000000 0.029939 0.000000
# 6 0.000000 0.000000 0.000000 0.000000 0.000000 0.068232
#
#
# Mechanical properties :
#
#
# Convention : Reuss Voigt Hill
#
# Bulk Modulus (GPa) = 61.46077 73.18949 67.32513
# Shear Modulus (GPa) = 19.52617 23.27884 21.40250
#
# Velocity S-wave (km/s) = 3.27314 3.57385 3.42680
# Velocity P-wave (km/s) = 6.92866 7.56220 7.25235
#
# Compressibility (1/GPa) = 0.01627054
#
# Stress axis : x y z
#
# Youngs Moduli (GPa) = 28.71727 70.35787 55.40348
#
# Poissons Ratio (x) = 0.59399 0.69482
# Poissons Ratio (y) = 0.24244 0.24509
# Poissons Ratio (z) = 0.36014 0.31124
#
# Static dielectric constant tensor:
#      x y z
#    x 3.158560 0.000000 0.000000 
#    y 0.000000 3.373340 0.000000 
#    z 0.000000 0.000000 3.435400 
# 
# 
# High freq. dielectric constant tensor:
#      x y z
#    x 1.689840 0.000000 0.000000 
#    y 0.000000 1.699540 0.000000 
#    z 0.000000 0.000000 1.715850 
# 
# From -- ./inp_files/12735.got.cif
#   From: 2010.03.12/outbox.cif.g09.slc.cpg/sg38_7_cif.got.tgz:12735.got - 2010.04.14 02:38:36.
