data_PCOD8178999
_publ_section_title
;
Structure prediction by ZEFSAII (Michael W. Deem and Ramdas Pophale) SiO2 
 PCOD8178999
Probable space group: A M M 2
;
_chemical_formula_sum "Si O2"
_cell_formula_units_Z 64
_cell_length_a 9.342300
_cell_length_b 19.502695
_cell_length_c 20.633018
_cell_angle_alpha 90.000000
_cell_angle_beta 90.000000
_cell_angle_gamma 90.000000
_cell_volume 3759.336447
_symmetry_space_group_name_H-M "A M M 2"
_symmetry_group_IT_number 38
_symmetry_cell_setting 'orthorhombic'
loop_
_space_group_symop_operation_xyz
x,y,z
-x,-y,z
-x,y,z
x,-y,z
x,1/2+y,1/2+z
-x,1/2-y,1/2+z
-x,1/2+y,1/2+z
x,1/2-y,1/2+z
loop_
_atom_site_type_symbol
_atom_site_label
_atom_site_fract_x
_atom_site_fract_y
_atom_site_fract_z
Si Si1 0.830226 0.205491 0.649210
Si Si2 0.834228 0.785026 0.279891
Si Si3 0.330616 0.926077 0.838877
Si Si4 0.835400 0.424169 0.719787
Si Si5 0.336388 0.424771 0.591946
Si Si6 0.666323 0.921918 0.690705
Si Si7 0.668374 0.714328 0.392278
Si Si8 0.665057 0.217149 0.037875
O O1 0.785577 0.245208 0.714870
O O2 0.762914 0.129460 0.648579
O O3 0.768805 0.245034 0.587278
O O4 0.000000 0.200600 0.641743
O O5 0.802440 0.866206 0.272861
O O6 0.743865 0.763959 0.341856
O O7 0.000000 0.770117 0.293772
O O8 0.500000 0.930308 0.842557
O O9 0.284366 0.913273 0.764878
O O10 0.272920 0.863500 0.882362
O O11 0.267938 0.000000 0.862666
O O12 0.794995 0.500000 0.747027
O O13 0.751017 0.406028 0.655419
O O14 0.000000 0.420739 0.699304
O O15 0.500000 0.426058 0.613999
O O16 0.292258 0.500000 0.563680
O O17 0.309935 0.365253 0.539542
O O18 0.500000 0.902392 0.682055
O O19 0.693331 0.000000 0.667261
O O20 0.500000 0.716468 0.378290
O O21 0.703576 0.739672 0.464748
O O22 0.500000 0.234803 0.054594
#
# Coordination Sequence:
#
# PCOD8178999 Si02
#       8
#     8   8   8   8   8   8   8   8
#     4  11  21  33  52  77 103 135 173 213 255 300
#     4  10  20  33  50  75 101 129 168 211 256 300
#     4   8  14  26  46  72 100 130 165 201 240 292
#     4   9  17  31  51  73  98 128 164 205 248 299
#     4   9  17  29  46  71 102 133 165 204 249 293
#     4   9  17  31  53  79 104 132 167 209 257 303
#     4  10  20  33  51  74 100 135 173 208 251 299
#     4  10  21  34  49  73 104 137 173 211 253 305
#
# _framework density 17.024280999999998
#
# number of rings (size 3 to 8) (size 9 to 14) (size 15 to 20)
#    0.000    2.500    2.500    1.125    0.000    2.250 
#    0.000    2.500    0.000    1.125    0.000    5.250 
#    0.000    0.000    0.000    0.000    0.000    0.000 
#
# Total GULP energy -396638.491311 kJ/mol
# GULP energy per Si atom -12394.952853 kJ/mol
# Density = 1.698553 g / cm^3
# Si number density = 17.024281 Si / 1000 Ang^3
#
#
#
# Elastic Constant Matrix: (Units=GPa)
#
#
# Indices 1 2 3 4 5 6 
#
# 1 56.3141 43.7991 46.1385 0.0000 0.0000 0.0000
# 2 43.7991 102.2417 53.1220 0.0000 0.0000 0.0000
# 3 46.1385 53.1220 96.2634 0.0000 0.0000 0.0000
# 4 0.0000 0.0000 0.0000 21.0296 0.0000 0.0000
# 5 0.0000 0.0000 0.0000 0.0000 41.9454 0.0000
# 6 0.0000 0.0000 0.0000 0.0000 0.0000 23.0273
#
#
#
# Elastic Compliance Matrix: (Units=1/GPa)
#
#
# Indices 1 2 3 4 5 6 
#
# 1 0.033796 -0.008498 -0.011509 0.000000 0.000000 0.000000
# 2 -0.008498 0.015849 -0.004673 0.000000 0.000000 0.000000
# 3 -0.011509 -0.004673 0.018483 0.000000 0.000000 0.000000
# 4 0.000000 0.000000 0.000000 0.047552 0.000000 0.000000
# 5 0.000000 0.000000 0.000000 0.000000 0.023841 0.000000
# 6 0.000000 0.000000 0.000000 0.000000 0.000000 0.043427
#
#
# Mechanical properties :
#
#
# Convention : Reuss Voigt Hill
#
# Bulk Modulus (GPa) = 53.28080 60.10425 56.69252
# Shear Modulus (GPa) = 20.95870 24.65110 22.80490
#
# Velocity S-wave (km/s) = 3.51252 3.80938 3.66396
# Velocity P-wave (km/s) = 6.91486 7.39799 7.16050
#
# Compressibility (1/GPa) = 0.01876849
#
# Stress axis : x y z
#
# Youngs Moduli (GPa) = 29.58897 63.09402 54.10376
#
# Poissons Ratio (x) = 0.53620 0.62266
# Poissons Ratio (y) = 0.25146 0.25283
# Poissons Ratio (z) = 0.34053 0.29484
#
# Static dielectric constant tensor:
#      x y z
#    x 3.023520 0.000000 0.000000 
#    y 0.000000 3.605750 0.000000 
#    z 0.000000 0.000000 2.928830 
# 
# 
# High freq. dielectric constant tensor:
#      x y z
#    x 1.642020 0.000000 0.000000 
#    y 0.000000 1.666990 0.000000 
#    z 0.000000 0.000000 1.626410 
# 
# From -- ./inp_files/17160.got.cif
#   From: 2010.03.12/outbox.cif.g09.slc.cpg/sg38_9_cif.got.tgz:17160.got - 2010.04.14 02:38:36.
