data_PCOD8178919
_publ_section_title
;
Structure prediction by ZEFSAII (Michael W. Deem and Ramdas Pophale) SiO2 
 PCOD8178919
Probable space group: A M M 2
;
_chemical_formula_sum "Si O2"
_cell_formula_units_Z 40
_cell_length_a 7.637282
_cell_length_b 7.696773
_cell_length_c 33.056850
_cell_angle_alpha 90.000000
_cell_angle_beta 90.000000
_cell_angle_gamma 90.000000
_cell_volume 1943.161835
_symmetry_space_group_name_H-M "A M M 2"
_symmetry_group_IT_number 38
_symmetry_cell_setting 'orthorhombic'
loop_
_space_group_symop_operation_xyz
x,y,z
-x,-y,z
-x,y,z
x,-y,z
x,1/2+y,1/2+z
-x,1/2-y,1/2+z
-x,1/2+y,1/2+z
x,1/2-y,1/2+z
loop_
_atom_site_type_symbol
_atom_site_label
_atom_site_fract_x
_atom_site_fract_y
_atom_site_fract_z
Si Si1 0.294450 0.500000 0.828240
Si Si2 0.702827 0.800027 0.768394
Si Si3 0.307786 0.294150 0.563567
Si Si4 0.000000 0.697196 0.616081
Si Si5 0.708064 0.692165 0.473633
Si Si6 0.000000 0.699732 0.205816
Si Si7 0.290369 0.500000 0.918313
O O1 0.500000 0.500000 0.833105
O O2 0.236671 0.325304 0.804774
O O3 0.210964 0.500000 0.872936
O O4 0.500000 0.767165 0.756306
O O5 0.824354 0.752317 0.730362
O O6 0.732735 0.000000 0.781960
O O7 0.500000 0.210791 0.571187
O O8 0.325156 0.500000 0.567265
O O9 0.174328 0.215187 0.596998
O O10 0.236900 0.247205 0.518705
O O11 0.000000 0.696234 0.664340
O O12 0.000000 0.500000 0.600832
O O13 0.500000 0.684887 0.471846
O O14 0.784196 0.500000 0.463685
O O15 0.782002 0.828974 0.441065
O O16 0.000000 0.500000 0.193900
O O17 0.500000 0.500000 0.918142
#
# Coordination Sequence:
#
# PCOD8178919 Si02
#       7
#     4   8   8   4   8   4   4
#     4   9  18  31  51  81 110 139 179 222 263 315
#     4   9  19  36  56  77 105 141 175 213 265 320
#     4   8  15  30  49  71 102 137 174 211 255 312
#     4  10  20  32  52  78  99 129 172 220 269 311
#     4   8  14  26  45  68 100 142 175 208 256 302
#     4  10  22  38  54  76 105 135 172 217 268 326
#     4   9  16  26  45  79 109 130 177 223 248 307
#
# _framework density 20.585007000000001
#
# number of rings (size 3 to 8) (size 9 to 14) (size 15 to 20)
#    0.000    3.200    0.000    1.200    1.400    1.600 
#    1.800    4.000    0.000    2.400    0.000    4.200 
#    0.000    0.000    0.000    0.000    0.000    0.000 
#
# Total GULP energy -247865.228444 kJ/mol
# GULP energy per Si atom -12393.261422 kJ/mol
# Density = 2.053815 g / cm^3
# Si number density = 20.585007 Si / 1000 Ang^3
#
#
#
# Elastic Constant Matrix: (Units=GPa)
#
#
# Indices 1 2 3 4 5 6 
#
# 1 86.9312 28.2823 61.6267 0.0000 0.0000 0.0000
# 2 28.2823 93.2844 68.6091 0.0000 0.0000 0.0000
# 3 61.6267 68.6091 179.3592 0.0000 0.0000 0.0000
# 4 0.0000 0.0000 0.0000 23.2943 0.0000 0.0000
# 5 0.0000 0.0000 0.0000 0.0000 8.0238 0.0000
# 6 0.0000 0.0000 0.0000 0.0000 0.0000 7.1974
#
#
#
# Elastic Compliance Matrix: (Units=1/GPa)
#
#
# Indices 1 2 3 4 5 6 
#
# 1 0.015284 -0.001074 -0.004841 0.000000 0.000000 0.000000
# 2 -0.001074 0.014992 -0.005366 0.000000 0.000000 0.000000
# 3 -0.004841 -0.005366 0.009291 0.000000 0.000000 0.000000
# 4 0.000000 0.000000 0.000000 0.042929 0.000000 0.000000
# 5 0.000000 0.000000 0.000000 0.000000 0.124630 0.000000
# 6 0.000000 0.000000 0.000000 0.000000 0.000000 0.138940
#
#
# Mechanical properties :
#
#
# Convention : Reuss Voigt Hill
#
# Bulk Modulus (GPa) = 58.79987 75.17900 66.98944
# Shear Modulus (GPa) = 13.35841 21.10686 17.23264
#
# Velocity S-wave (km/s) = 2.55019 3.20558 2.89648
# Velocity P-wave (km/s) = 6.10719 7.09236 6.61813
#
# Compressibility (1/GPa) = 0.01700684
#
# Stress axis : x y z
#
# Youngs Moduli (GPa) = 65.42599 66.70264 107.62746
#
# Poissons Ratio (x) = 0.07161 0.52102
# Poissons Ratio (y) = 0.07024 0.57752
# Poissons Ratio (z) = 0.31673 0.35792
#
# Static dielectric constant tensor:
#      x y z
#    x 3.761930 0.000000 0.000000 
#    y 0.000000 3.768970 0.000000 
#    z 0.000000 0.000000 3.716710 
# 
# 
# High freq. dielectric constant tensor:
#      x y z
#    x 1.790360 0.000000 0.000000 
#    y 0.000000 1.794390 0.000000 
#    z 0.000000 0.000000 1.791000 
# 
# From -- ./inp_files/23305.got.cif
#   From: 2010.03.12/outbox.cif.g09.slc.cpg/sg38_12_cif.got.tgz:23305.got - 2010.04.14 02:38:36.
