data_PCOD8178077
_publ_section_title
;
Structure prediction by ZEFSAII (Michael W. Deem and Ramdas Pophale) SiO2 
 PCOD8178077
Probable space group: A M M 2
;
_chemical_formula_sum "Si O2"
_cell_formula_units_Z 56
_cell_length_a 8.900097
_cell_length_b 13.702752
_cell_length_c 29.111566
_cell_angle_alpha 90.000000
_cell_angle_beta 90.000000
_cell_angle_gamma 90.000000
_cell_volume 3550.324960
_symmetry_space_group_name_H-M "A M M 2"
_symmetry_group_IT_number 38
_symmetry_cell_setting 'orthorhombic'
loop_
_space_group_symop_operation_xyz
x,y,z
-x,-y,z
-x,y,z
x,-y,z
x,1/2+y,1/2+z
-x,1/2-y,1/2+z
-x,1/2+y,1/2+z
x,1/2-y,1/2+z
loop_
_atom_site_type_symbol
_atom_site_label
_atom_site_fract_x
_atom_site_fract_y
_atom_site_fract_z
Si Si1 0.675842 0.795522 0.554450
Si Si2 0.822417 0.710802 0.417370
Si Si3 0.322414 0.389200 0.961234
Si Si4 0.168856 0.115858 0.738792
Si Si5 0.675424 0.885886 0.646988
Si Si6 0.325140 0.390311 0.501679
Si Si7 0.674729 0.114491 0.831221
O O1 0.500000 0.813178 0.558933
O O2 0.735523 0.861829 0.512383
O O3 0.745913 0.829293 0.602900
O O4 0.715401 0.682256 0.543740
O O5 0.758011 0.819461 0.424649
O O6 0.766949 0.636562 0.456437
O O7 0.768197 0.673202 0.368493
O O8 0.000000 0.714672 0.418240
O O9 0.500000 0.372041 0.957709
O O10 0.277414 0.500000 0.950094
O O11 0.240400 0.155950 0.691689
O O12 0.268757 0.151190 0.781590
O O13 0.000000 0.156579 0.743988
O O14 0.169387 0.000000 0.736901
O O15 0.500000 0.864711 0.653922
O O16 0.705665 0.000000 0.639357
O O17 0.500000 0.379366 0.488658
O O18 0.285179 0.500000 0.517255
O O19 0.500000 0.139191 0.836103
O O20 0.705833 0.000000 0.837847
#
# Coordination Sequence:
#
# PCOD8178077 Si02
#       7
#     8   8   8   8   8   8   8
#     4   8  14  25  43  66  87 111 147 184 217 252
#     4  11  21  30  43  65  92 119 146 178 220 267
#     4   9  17  31  49  66  87 117 152 187 218 251
#     4   9  17  28  41  60  87 114 139 172 217 265
#     4   9  15  24  40  61  85 113 143 174 211 259
#     4   9  17  30  46  63  86 117 153 190 222 255
#     4  10  19  31  47  65  86 114 148 183 218 260
#
# _framework density 15.773203000000001
#
# number of rings (size 3 to 8) (size 9 to 14) (size 15 to 20)
#    0.000    2.714    0.000    3.857    0.000    6.571 
#    0.000    2.857    0.000    3.429    0.000    1.000 
#    0.000    5.714    0.000    0.000    0.000    0.000 
#
# Total GULP energy -347137.434311 kJ/mol
# GULP energy per Si atom -12397.765511 kJ/mol
# Density = 1.573730 g / cm^3
# Si number density = 15.773203 Si / 1000 Ang^3
#
#
#
# Elastic Constant Matrix: (Units=GPa)
#
#
# Indices 1 2 3 4 5 6 
#
# 1 68.4324 38.6700 39.2065 0.0000 0.0000 0.0000
# 2 38.6700 91.1562 48.2185 0.0000 0.0000 0.0000
# 3 39.2065 48.2185 114.6679 0.0000 0.0000 0.0000
# 4 0.0000 0.0000 0.0000 22.7711 0.0000 0.0000
# 5 0.0000 0.0000 0.0000 0.0000 7.9801 0.0000
# 6 0.0000 0.0000 0.0000 0.0000 0.0000 12.5436
#
#
#
# Elastic Compliance Matrix: (Units=1/GPa)
#
#
# Indices 1 2 3 4 5 6 
#
# 1 0.020797 -0.006509 -0.004374 0.000000 0.000000 0.000000
# 2 -0.006509 0.016145 -0.004564 0.000000 0.000000 0.000000
# 3 -0.004374 -0.004564 0.012135 0.000000 0.000000 0.000000
# 4 0.000000 0.000000 0.000000 0.043915 0.000000 0.000000
# 5 0.000000 0.000000 0.000000 0.000000 0.125311 0.000000
# 6 0.000000 0.000000 0.000000 0.000000 0.000000 0.079722
#
#
# Mechanical properties :
#
#
# Convention : Reuss Voigt Hill
#
# Bulk Modulus (GPa) = 54.99052 58.49406 56.74229
# Shear Modulus (GPa) = 14.92625 18.53640 16.73133
#
# Velocity S-wave (km/s) = 3.07954 3.43181 3.26044
# Velocity P-wave (km/s) = 6.89810 7.27104 7.08702
#
# Compressibility (1/GPa) = 0.01818495
#
# Stress axis : x y z
#
# Youngs Moduli (GPa) = 48.08438 61.93713 82.40374
#
# Poissons Ratio (x) = 0.40314 0.36041
# Poissons Ratio (y) = 0.31297 0.37607
# Poissons Ratio (z) = 0.21031 0.28267
#
# Static dielectric constant tensor:
#      x y z
#    x 2.925150 0.000000 0.000000 
#    y 0.000000 2.920590 0.000000 
#    z 0.000000 0.000000 3.119360 
# 
# 
# High freq. dielectric constant tensor:
#      x y z
#    x 1.597170 0.000000 0.000000 
#    y 0.000000 1.576720 0.000000 
#    z 0.000000 0.000000 1.603540 
# 
# From -- ./inp_files/24635.got.cif
#   From: 2010.03.12/outbox.cif.g09.slc.cpg/sg38_13_cif.got.tgz:24635.got - 2010.04.14 02:38:36.
