data_PCOD8178978
_publ_section_title
;
Structure prediction by ZEFSAII (Michael W. Deem and Ramdas Pophale) SiO2 
 PCOD8178978
Probable space group: A M M 2
;
_chemical_formula_sum "Si O2"
_cell_formula_units_Z 64
_cell_length_a 8.682937
_cell_length_b 30.467703
_cell_length_c 14.244808
_cell_angle_alpha 90.000000
_cell_angle_beta 90.000000
_cell_angle_gamma 90.000000
_cell_volume 3768.451787
_symmetry_space_group_name_H-M "A M M 2"
_symmetry_group_IT_number 38
_symmetry_cell_setting 'orthorhombic'
loop_
_space_group_symop_operation_xyz
x,y,z
-x,-y,z
-x,y,z
x,-y,z
x,1/2+y,1/2+z
-x,1/2-y,1/2+z
-x,1/2+y,1/2+z
x,1/2-y,1/2+z
loop_
_atom_site_type_symbol
_atom_site_label
_atom_site_fract_x
_atom_site_fract_y
_atom_site_fract_z
Si Si1 0.680293 0.300092 0.150130
Si Si2 0.673833 0.132444 0.147472
Si Si3 0.683298 0.714750 0.530219
Si Si4 0.179789 0.365183 0.013503
Si Si5 0.182797 0.048198 0.418530
Si Si6 0.674714 0.322321 0.841435
Si Si7 0.180976 0.268474 0.330802
Si Si8 0.181340 0.451394 0.707447
O O1 0.500000 0.298221 0.171806
O O2 0.732279 0.258768 0.085841
O O3 0.774282 0.301724 0.247496
O O4 0.722434 0.345612 0.098874
O O5 0.500000 0.125633 0.114830
O O6 0.745319 0.171770 0.085545
O O7 0.685790 0.144147 0.256511
O O8 0.757975 0.085646 0.135395
O O9 0.500000 0.713886 0.517687
O O10 0.766137 0.712686 0.430443
O O11 0.242314 0.414332 0.990103
O O12 0.206623 0.335642 0.921835
O O13 0.000000 0.364551 0.039073
O O14 0.247272 0.055881 0.313132
O O15 0.000000 0.050933 0.413644
O O16 0.235443 0.000000 0.455022
O O17 0.500000 0.320100 0.881377
O O18 0.724187 0.274975 0.804464
O O19 0.000000 0.259509 0.332119
O O20 0.231756 0.500000 0.672028
O O21 0.000000 0.447791 0.709944
#
# Coordination Sequence:
#
# PCOD8178978 Si02
#       8
#     8   8   8   8   8   8   8   8
#     4  11  22  37  54  71 102 141 170 204 254 309
#     4  10  20  33  50  72  99 135 177 209 244 298
#     4  10  21  37  53  71  99 137 173 206 252 307
#     4  11  20  31  50  77 102 133 178 217 247 293
#     4   8  15  28  46  70 102 136 166 203 253 300
#     4  11  20  32  48  70 104 141 172 205 254 303
#     4  12  24  36  52  75 101 130 174 222 252 290
#     4   9  17  30  48  72 103 136 167 203 252 302
#
# _framework density 16.983101000000001
#
# number of rings (size 3 to 8) (size 9 to 14) (size 15 to 20)
#    0.000    1.750    3.750    3.000    0.000    1.750 
#    0.000    0.000    0.000    1.500    0.000    0.875 
#    0.000    5.000    0.000    0.000    0.000    0.000 
#
# Total GULP energy -396721.141207 kJ/mol
# GULP energy per Si atom -12397.535663 kJ/mol
# Density = 1.694445 g / cm^3
# Si number density = 16.983101 Si / 1000 Ang^3
#
#
#
# Elastic Constant Matrix: (Units=GPa)
#
#
# Indices 1 2 3 4 5 6 
#
# 1 45.9846 27.9654 24.1367 0.0000 0.0000 0.0000
# 2 27.9654 120.7668 34.1256 0.0000 0.0000 0.0000
# 3 24.1367 34.1256 73.7652 0.0000 0.0000 0.0000
# 4 0.0000 0.0000 0.0000 25.6739 0.0000 0.0000
# 5 0.0000 0.0000 0.0000 0.0000 22.8777 0.0000
# 6 0.0000 0.0000 0.0000 0.0000 0.0000 24.2290
#
#
#
# Elastic Compliance Matrix: (Units=1/GPa)
#
#
# Indices 1 2 3 4 5 6 
#
# 1 0.028250 -0.004521 -0.007152 0.000000 0.000000 0.000000
# 2 -0.004521 0.010249 -0.003262 0.000000 0.000000 0.000000
# 3 -0.007152 -0.003262 0.017406 0.000000 0.000000 0.000000
# 4 0.000000 0.000000 0.000000 0.038950 0.000000 0.000000
# 5 0.000000 0.000000 0.000000 0.000000 0.043711 0.000000
# 6 0.000000 0.000000 0.000000 0.000000 0.000000 0.041273
#
#
# Mechanical properties :
#
#
# Convention : Reuss Voigt Hill
#
# Bulk Modulus (GPa) = 38.41047 45.88576 42.14811
# Shear Modulus (GPa) = 22.89515 24.84205 23.86860
#
# Velocity S-wave (km/s) = 3.67565 3.82874 3.75298
# Velocity P-wave (km/s) = 6.37808 6.82809 6.60692
#
# Compressibility (1/GPa) = 0.02603457
#
# Stress axis : x y z
#
# Youngs Moduli (GPa) = 35.39856 97.56979 57.45138
#
# Poissons Ratio (x) = 0.44108 0.41091
# Poissons Ratio (y) = 0.16002 0.18742
# Poissons Ratio (z) = 0.25318 0.31830
#
# Static dielectric constant tensor:
#      x y z
#    x 3.029860 0.000000 0.000000 
#    y 0.000000 3.419870 0.000000 
#    z 0.000000 0.000000 2.998440 
# 
# 
# High freq. dielectric constant tensor:
#      x y z
#    x 1.647560 0.000000 0.000000 
#    y 0.000000 1.651980 0.000000 
#    z 0.000000 0.000000 1.624560 
# 
# From -- ./inp_files/13102.got.cif
#   From: 2010.03.12/outbox.cif.g09.slc.cpg/sg38_7_cif.got.tgz:13102.got - 2010.04.14 02:38:36.
