data_PCOD8178330
_publ_section_title
;
Structure prediction by ZEFSAII (Michael W. Deem and Ramdas Pophale) SiO2 
 PCOD8178330
Probable space group: A M M 2
;
_chemical_formula_sum "Si O2"
_cell_formula_units_Z 64
_cell_length_a 21.870293
_cell_length_b 9.384854
_cell_length_c 16.126876
_cell_angle_alpha 90.000000
_cell_angle_beta 90.000000
_cell_angle_gamma 90.000000
_cell_volume 3310.033344
_symmetry_space_group_name_H-M "A M M 2"
_symmetry_group_IT_number 38
_symmetry_cell_setting 'orthorhombic'
loop_
_space_group_symop_operation_xyz
x,y,z
-x,-y,z
-x,y,z
x,-y,z
x,1/2+y,1/2+z
-x,1/2-y,1/2+z
-x,1/2+y,1/2+z
x,1/2-y,1/2+z
loop_
_atom_site_type_symbol
_atom_site_label
_atom_site_fract_x
_atom_site_fract_y
_atom_site_fract_z
Si Si1 0.931240 0.330996 0.895680
Si Si2 0.282955 0.166885 0.565842
Si Si3 0.431496 0.160940 0.793784
Si Si4 0.859427 0.332655 0.059661
Si Si5 0.249239 0.152429 0.311030
Si Si6 0.871865 0.165256 0.223411
Si Si7 0.647224 0.345683 0.692418
Si Si8 0.678272 0.837441 0.918635
O O1 0.929602 0.500000 0.894425
O O2 0.906114 0.276451 0.806376
O O3 0.000000 0.272982 0.906908
O O4 0.891319 0.277367 0.974530
O O5 0.212055 0.203814 0.551303
O O6 0.306690 0.237411 0.649053
O O7 0.327432 0.237559 0.498156
O O8 0.294753 0.000000 0.568967
O O9 0.500000 0.195897 0.825126
O O10 0.415587 0.266321 0.717242
O O11 0.384790 0.180100 0.869346
O O12 0.427233 0.000000 0.759618
O O13 0.870807 0.500000 0.073220
O O14 0.888554 0.253363 0.140241
O O15 0.200014 0.189257 0.240537
O O16 0.316012 0.120794 0.275577
O O17 0.259268 0.284159 0.372968
O O18 0.228787 0.000000 0.355201
O O19 0.888054 0.000000 0.206611
O O20 0.633831 0.500000 0.648022
O O21 0.689818 0.000000 0.944294
#
# Coordination Sequence:
#
# PCOD8178330 Si02
#       8
#     8   8   8   8   8   8   8   8
#     4   9  19  36  56  79 111 153 196 235 282 346
#     4  11  21  34  52  77 111 144 178 223 283 343
#     4   9  19  37  57  77 105 142 181 221 268 326
#     4  10  21  36  57  83 113 149 191 236 288 347
#     4   9  17  31  50  74 105 136 169 214 274 336
#     4  10  19  34  57  82 110 145 187 234 287 344
#     4  10  19  32  53  79 107 138 174 222 271 321
#     4  10  20  32  52  79 106 138 178 224 272 325
#
# _framework density 19.335152000000001
#
# number of rings (size 3 to 8) (size 9 to 14) (size 15 to 20)
#    0.000    2.250    1.250    1.875    0.000    4.750 
#    0.000    1.250    0.000    3.000    0.000    0.000 
#    0.000    0.000    0.000    0.000    0.000    0.000 
#
# Total GULP energy -396432.597656 kJ/mol
# GULP energy per Si atom -12388.518677 kJ/mol
# Density = 1.929114 g / cm^3
# Si number density = 19.335152 Si / 1000 Ang^3
#
#
#
# Elastic Constant Matrix: (Units=GPa)
#
#
# Indices 1 2 3 4 5 6 
#
# 1 97.4078 46.5795 46.6382 0.0000 0.0000 0.0000
# 2 46.5795 105.5557 55.0554 0.0000 0.0000 0.0000
# 3 46.6382 55.0554 105.8539 0.0000 0.0000 0.0000
# 4 0.0000 0.0000 0.0000 36.3154 0.0000 0.0000
# 5 0.0000 0.0000 0.0000 0.0000 18.8474 0.0000
# 6 0.0000 0.0000 0.0000 0.0000 0.0000 15.7973
#
#
#
# Elastic Compliance Matrix: (Units=1/GPa)
#
#
# Indices 1 2 3 4 5 6 
#
# 1 0.014208 -0.004123 -0.004115 0.000000 0.000000 0.000000
# 2 -0.004123 0.014197 -0.005567 0.000000 0.000000 0.000000
# 3 -0.004115 -0.005567 0.014156 0.000000 0.000000 0.000000
# 4 0.000000 0.000000 0.000000 0.027537 0.000000 0.000000
# 5 0.000000 0.000000 0.000000 0.000000 0.053058 0.000000
# 6 0.000000 0.000000 0.000000 0.000000 0.000000 0.063302
#
#
# Mechanical properties :
#
#
# Convention : Reuss Voigt Hill
#
# Bulk Modulus (GPa) = 66.89415 67.26260 67.07838
# Shear Modulus (GPa) = 22.82559 24.89497 23.86028
#
# Velocity S-wave (km/s) = 3.43960 3.59214 3.51670
# Velocity P-wave (km/s) = 7.10259 7.21581 7.15942
#
# Compressibility (1/GPa) = 0.01494899
#
# Stress axis : x y z
#
# Youngs Moduli (GPa) = 70.38137 70.43774 70.64248
#
# Poissons Ratio (x) = 0.29043 0.29073
# Poissons Ratio (y) = 0.29020 0.39328
# Poissons Ratio (z) = 0.28965 0.39214
#
# Static dielectric constant tensor:
#      x y z
#    x 3.460800 0.000000 0.000000 
#    y 0.000000 3.725480 0.000000 
#    z 0.000000 0.000000 3.514390 
# 
# 
# High freq. dielectric constant tensor:
#      x y z
#    x 1.736920 0.000000 0.000000 
#    y 0.000000 1.745200 0.000000 
#    z 0.000000 0.000000 1.744700 
# 
# From -- ./inp_files/18978.got.cif
#   From: 2010.03.12/outbox.cif.g09.slc.cpg/sg38_10_cif.got.tgz:18978.got - 2010.04.14 02:38:36.
