data_PCOD8178110
_publ_section_title
;
Structure prediction by ZEFSAII (Michael W. Deem and Ramdas Pophale) SiO2 
 PCOD8178110
Probable space group: A M M 2
;
_chemical_formula_sum "Si O2"
_cell_formula_units_Z 64
_cell_length_a 13.077427
_cell_length_b 9.636141
_cell_length_c 28.719151
_cell_angle_alpha 90.000000
_cell_angle_beta 90.000000
_cell_angle_gamma 90.000000
_cell_volume 3619.070536
_symmetry_space_group_name_H-M "A M M 2"
_symmetry_group_IT_number 38
_symmetry_cell_setting 'orthorhombic'
loop_
_space_group_symop_operation_xyz
x,y,z
-x,-y,z
-x,y,z
x,-y,z
x,1/2+y,1/2+z
-x,1/2-y,1/2+z
-x,1/2+y,1/2+z
x,1/2-y,1/2+z
loop_
_atom_site_type_symbol
_atom_site_label
_atom_site_fract_x
_atom_site_fract_y
_atom_site_fract_z
Si Si1 0.883579 0.660141 0.424500
Si Si2 0.747664 0.158877 0.767704
Si Si3 0.380163 0.350759 0.353773
Si Si4 0.707628 0.842100 0.995550
Si Si5 0.383410 0.337017 0.180374
Si Si6 0.383038 0.850848 0.427986
Si Si7 0.879840 0.839547 0.333903
Si Si8 0.382930 0.342309 0.591905
O O1 0.871661 0.500000 0.408987
O O2 0.816737 0.692544 0.471090
O O3 0.849927 0.755583 0.380820
O O4 0.000000 0.693534 0.438848
O O5 0.648837 0.168174 0.800584
O O6 0.701666 0.207892 0.718350
O O7 0.832193 0.263686 0.788300
O O8 0.790244 0.000000 0.765387
O O9 0.500000 0.342395 0.358153
O O10 0.340702 0.500000 0.372605
O O11 0.328262 0.233273 0.385943
O O12 0.623814 0.738663 0.974580
O O13 0.675274 0.000000 0.984909
O O14 0.700505 0.815846 0.050906
O O15 0.500000 0.296726 0.195259
O O16 0.376607 0.500000 0.171021
O O17 0.351787 0.258902 0.133464
O O18 0.500000 0.875630 0.415737
O O19 0.327779 0.000000 0.433343
O O20 0.000000 0.834708 0.325978
O O21 0.842062 0.000000 0.337357
O O22 0.500000 0.313552 0.575042
O O23 0.373683 0.500000 0.609791
#
# Coordination Sequence:
#
# PCOD8178110 Si02
#       8
#     8   8   8   8   8   8   8   8
#     4   9  18  33  52  73  97 126 162 202 242 286
#     4  10  19  31  50  73  94 122 161 200 238 282
#     4   9  17  29  44  63  91 125 156 186 225 278
#     4  10  19  31  49  70  92 123 162 200 238 283
#     4   9  18  33  52  74 100 128 160 199 241 286
#     4  10  20  30  40  61  94 126 155 189 230 278
#     4  10  21  35  50  71 100 131 162 199 244 290
#     4   9  18  32  49  70  96 126 162 202 242 286
#
# _framework density 17.684099
#
# number of rings (size 3 to 8) (size 9 to 14) (size 15 to 20)
#    0.000    2.500    0.000    2.250    0.000    8.500 
#    0.000    1.250    0.000    4.500    0.000    1.750 
#    0.000    0.000    0.000    0.000    0.000    0.000 
#
# Total GULP energy -396508.038838 kJ/mol
# GULP energy per Si atom -12390.876214 kJ/mol
# Density = 1.764385 g / cm^3
# Si number density = 17.684099 Si / 1000 Ang^3
#
#
#
# Elastic Constant Matrix: (Units=GPa)
#
#
# Indices 1 2 3 4 5 6 
#
# 1 63.9695 39.4269 47.4734 0.0000 0.0000 0.0000
# 2 39.4269 115.3082 65.0832 0.0000 0.0000 0.0000
# 3 47.4734 65.0832 118.2750 0.0000 0.0000 0.0000
# 4 0.0000 0.0000 0.0000 27.4646 0.0000 0.0000
# 5 0.0000 0.0000 0.0000 0.0000 30.3140 0.0000
# 6 0.0000 0.0000 0.0000 0.0000 0.0000 15.9236
#
#
#
# Elastic Compliance Matrix: (Units=1/GPa)
#
#
# Indices 1 2 3 4 5 6 
#
# 1 0.023426 -0.003920 -0.007245 0.000000 0.000000 0.000000
# 2 -0.003920 0.013236 -0.005710 0.000000 0.000000 0.000000
# 3 -0.007245 -0.005710 0.014505 0.000000 0.000000 0.000000
# 4 0.000000 0.000000 0.000000 0.036411 0.000000 0.000000
# 5 0.000000 0.000000 0.000000 0.000000 0.032988 0.000000
# 6 0.000000 0.000000 0.000000 0.000000 0.000000 0.062800
#
#
# Mechanical properties :
#
#
# Convention : Reuss Voigt Hill
#
# Bulk Modulus (GPa) = 57.42026 66.83552 62.12789
# Shear Modulus (GPa) = 22.42957 24.44507 23.43732
#
# Velocity S-wave (km/s) = 3.56525 3.72199 3.64446
# Velocity P-wave (km/s) = 7.03481 7.50647 7.27446
#
# Compressibility (1/GPa) = 0.01741546
#
# Stress axis : x y z
#
# Youngs Moduli (GPa) = 42.68813 75.55429 68.94261
#
# Poissons Ratio (x) = 0.29620 0.49952
# Poissons Ratio (y) = 0.16735 0.39363
# Poissons Ratio (z) = 0.30929 0.43138
#
# Static dielectric constant tensor:
#      x y z
#    x 3.196740 0.000000 0.000000 
#    y 0.000000 3.638660 0.000000 
#    z 0.000000 0.000000 3.154900 
# 
# 
# High freq. dielectric constant tensor:
#      x y z
#    x 1.670300 0.000000 0.000000 
#    y 0.000000 1.691450 0.000000 
#    z 0.000000 0.000000 1.664120 
# 
# From -- ./inp_files/22944.got.cif
#   From: 2010.03.12/outbox.cif.g09.slc.cpg/sg38_12_cif.got.tgz:22944.got - 2010.04.14 02:38:36.
