data_PCOD8178133
_publ_section_title
;
Structure prediction by ZEFSAII (Michael W. Deem and Ramdas Pophale) SiO2 
 PCOD8178133
Probable space group: A M M 2
;
_chemical_formula_sum "Si O2"
_cell_formula_units_Z 64
_cell_length_a 8.824570
_cell_length_b 22.351738
_cell_length_c 15.293814
_cell_angle_alpha 90.000000
_cell_angle_beta 90.000000
_cell_angle_gamma 90.000000
_cell_volume 3016.620338
_symmetry_space_group_name_H-M "A M M 2"
_symmetry_group_IT_number 38
_symmetry_cell_setting 'orthorhombic'
loop_
_space_group_symop_operation_xyz
x,y,z
-x,-y,z
-x,y,z
x,-y,z
x,1/2+y,1/2+z
-x,1/2-y,1/2+z
-x,1/2+y,1/2+z
x,1/2-y,1/2+z
loop_
_atom_site_type_symbol
_atom_site_label
_atom_site_fract_x
_atom_site_fract_y
_atom_site_fract_z
Si Si1 0.826329 0.933892 0.181740
Si Si2 0.668956 0.570411 0.183646
Si Si3 0.823870 0.690052 0.601521
Si Si4 0.821851 0.068153 0.863606
Si Si5 0.321833 0.319136 0.425727
Si Si6 0.178567 0.733526 0.790033
Si Si7 0.831669 0.069989 0.514633
Si Si8 0.677026 0.613493 0.845495
O O1 0.786037 0.880616 0.115080
O O2 0.719526 0.930373 0.266220
O O3 0.000000 0.925446 0.213208
O O4 0.803819 0.000000 0.138511
O O5 0.500000 0.598084 0.194634
O O6 0.653834 0.500000 0.170844
O O7 0.771800 0.585862 0.266377
O O8 0.753037 0.599240 0.099989
O O9 0.733710 0.712513 0.515734
O O10 0.773052 0.727778 0.687516
O O11 0.000000 0.699812 0.582890
O O12 0.735435 0.112229 0.929730
O O13 0.000000 0.077790 0.873308
O O14 0.775698 0.000000 0.886198
O O15 0.500000 0.315607 0.421465
O O16 0.256016 0.289377 0.337720
O O17 0.229548 0.674480 0.840487
O O18 0.000000 0.740759 0.797932
O O19 0.721143 0.081077 0.434255
O O20 0.000000 0.097998 0.501103
O O21 0.849249 0.000000 0.529622
O O22 0.500000 0.627983 0.843966
#
# Coordination Sequence:
#
# PCOD8178133 Si02
#       8
#     8   8   8   8   8   8   8   8
#     4   9  18  34  57  85 119 161 206 248 296 358
#     4   9  17  31  51  77 112 149 188 242 302 352
#     4   9  20  40  65  91 121 160 206 255 302 356
#     4  10  21  39  63  89 120 160 204 246 293 358
#     4  12  25  41  65  96 128 160 197 249 310 368
#     4  10  22  44  68  87 115 157 206 254 302 361
#     4  10  19  31  49  75 111 157 206 250 298 363
#     4  11  21  33  52  81 117 154 198 253 311 362
#
# _framework density 21.215793999999999
#
# number of rings (size 3 to 8) (size 9 to 14) (size 15 to 20)
#    0.000    2.000    0.000    4.875    0.000    7.750 
#    2.250    1.250    0.000    0.000    0.000    0.000 
#    0.000    0.000    0.000    0.000    0.000    0.000 
#
# Total GULP energy -396766.364753 kJ/mol
# GULP energy per Si atom -12398.948899 kJ/mol
# Density = 2.116751 g / cm^3
# Si number density = 21.215794 Si / 1000 Ang^3
#
#
#
# Elastic Constant Matrix: (Units=GPa)
#
#
# Indices 1 2 3 4 5 6 
#
# 1 120.4113 33.2215 56.6661 0.0000 0.0000 0.0000
# 2 33.2215 68.5914 31.0578 0.0000 0.0000 0.0000
# 3 56.6661 31.0578 111.7294 0.0000 0.0000 0.0000
# 4 0.0000 0.0000 0.0000 20.8370 0.0000 0.0000
# 5 0.0000 0.0000 0.0000 0.0000 19.9060 0.0000
# 6 0.0000 0.0000 0.0000 0.0000 0.0000 25.6582
#
#
#
# Elastic Compliance Matrix: (Units=1/GPa)
#
#
# Indices 1 2 3 4 5 6 
#
# 1 0.011550 -0.003365 -0.004922 0.000000 0.000000 0.000000
# 2 -0.003365 0.017659 -0.003202 0.000000 0.000000 0.000000
# 3 -0.004922 -0.003202 0.012337 0.000000 0.000000 0.000000
# 4 0.000000 0.000000 0.000000 0.047991 0.000000 0.000000
# 5 0.000000 0.000000 0.000000 0.000000 0.050236 0.000000
# 6 0.000000 0.000000 0.000000 0.000000 0.000000 0.038974
#
#
# Mechanical properties :
#
#
# Convention : Reuss Voigt Hill
#
# Bulk Modulus (GPa) = 53.86075 60.29143 57.07609
# Shear Modulus (GPa) = 24.04836 25.26604 24.65720
#
# Velocity S-wave (km/s) = 3.37042 3.45470 3.41282
# Velocity P-wave (km/s) = 6.37091 6.66282 6.51850
#
# Compressibility (1/GPa) = 0.01856640
#
# Stress axis : x y z
#
# Youngs Moduli (GPa) = 86.58167 56.62897 81.05898
#
# Poissons Ratio (x) = 0.19057 0.39900
# Poissons Ratio (y) = 0.29137 0.25955
# Poissons Ratio (z) = 0.42618 0.18132
#
# Static dielectric constant tensor:
#      x y z
#    x 3.860090 0.000000 0.000000 
#    y 0.000000 3.704350 0.000000 
#    z 0.000000 0.000000 3.825960 
# 
# 
# High freq. dielectric constant tensor:
#      x y z
#    x 1.833880 0.000000 0.000000 
#    y 0.000000 1.810660 0.000000 
#    z 0.000000 0.000000 1.832180 
# 
# From -- ./inp_files/12742.got.cif
#   From: 2010.03.12/outbox.cif.g09.slc.cpg/sg38_7_cif.got.tgz:12742.got - 2010.04.14 02:38:36.
