data_PCOD8178838
_publ_section_title
;
Structure prediction by ZEFSAII (Michael W. Deem and Ramdas Pophale) SiO2 
 PCOD8178838
Probable space group: A M M 2
;
_chemical_formula_sum "Si O2"
_cell_formula_units_Z 40
_cell_length_a 9.240170
_cell_length_b 9.318432
_cell_length_c 25.816701
_cell_angle_alpha 90.000000
_cell_angle_beta 90.000000
_cell_angle_gamma 90.000000
_cell_volume 2222.918533
_symmetry_space_group_name_H-M "A M M 2"
_symmetry_group_IT_number 38
_symmetry_cell_setting 'orthorhombic'
loop_
_space_group_symop_operation_xyz
x,y,z
-x,-y,z
-x,y,z
x,-y,z
x,1/2+y,1/2+z
-x,1/2-y,1/2+z
-x,1/2+y,1/2+z
x,1/2-y,1/2+z
loop_
_atom_site_type_symbol
_atom_site_label
_atom_site_fract_x
_atom_site_fract_y
_atom_site_fract_z
Si Si1 0.660246 0.329655 0.945190
Si Si2 0.336491 0.329145 0.749650
Si Si3 0.162575 0.828657 0.348609
Si Si4 0.167322 0.331249 0.648919
Si Si5 0.667799 0.167416 0.561316
O O1 0.500000 0.268206 0.933587
O O2 0.653823 0.500000 0.941918
O O3 0.770061 0.268530 0.902170
O O4 0.709670 0.285231 0.002863
O O5 0.500000 0.269202 0.748716
O O6 0.336478 0.500000 0.750687
O O7 0.255903 0.269340 0.800535
O O8 0.252562 0.272974 0.699072
O O9 0.000000 0.769180 0.343676
O O10 0.162770 0.000000 0.348436
O O11 0.189527 0.500000 0.642360
O O12 0.229291 0.256619 0.598293
O O13 0.000000 0.290873 0.655870
O O14 0.500000 0.203016 0.572471
O O15 0.697987 0.000000 0.569872
#
# Coordination Sequence:
#
# PCOD8178838 Si02
#       5
#     8   8   8   8   8
#     4   8  14  25  40  59  85 115 146 181 221 266
#     4   9  16  26  41  60  84 116 151 186 226 271
#     4   9  15  22  35  58  87 115 143 179 224 271
#     4  10  20  32  46  67  95 124 155 192 232 274
#     4   9  18  32  49  69  93 122 157 194 229 269
#
# _framework density 17.99436
#
# number of rings (size 3 to 8) (size 9 to 14) (size 15 to 20)
#    0.000    3.000    0.000    3.000    0.000    7.200 
#    0.000    2.000    0.000    0.000    0.000    1.400 
#    0.000    4.800    0.000    0.000    0.000    0.000 
#
# Total GULP energy -247941.526970 kJ/mol
# GULP energy per Si atom -12397.076349 kJ/mol
# Density = 1.795340 g / cm^3
# Si number density = 17.994360 Si / 1000 Ang^3
#
#
#
# Elastic Constant Matrix: (Units=GPa)
#
#
# Indices 1 2 3 4 5 6 
#
# 1 166.6550 25.4638 108.7282 0.0000 0.0000 0.0000
# 2 25.4638 12.3224 24.0927 0.0000 0.0000 0.0000
# 3 108.7282 24.0927 173.8333 0.0000 0.0000 0.0000
# 4 0.0000 0.0000 0.0000 20.2076 0.0000 0.0000
# 5 0.0000 0.0000 0.0000 0.0000 33.2644 0.0000
# 6 0.0000 0.0000 0.0000 0.0000 0.0000 16.7975
#
#
#
# Elastic Compliance Matrix: (Units=1/GPa)
#
#
# Indices 1 2 3 4 5 6 
#
# 1 0.011545 -0.013358 -0.005369 0.000000 0.000000 0.000000
# 2 -0.013358 0.126775 -0.009215 0.000000 0.000000 0.000000
# 3 -0.005369 -0.009215 0.010388 0.000000 0.000000 0.000000
# 4 0.000000 0.000000 0.000000 0.049486 0.000000 0.000000
# 5 0.000000 0.000000 0.000000 0.000000 0.030062 0.000000
# 6 0.000000 0.000000 0.000000 0.000000 0.000000 0.059533
#
#
# Mechanical properties :
#
#
# Convention : Reuss Voigt Hill
#
# Bulk Modulus (GPa) = 10.77331 74.37554 42.57443
# Shear Modulus (GPa) = 13.34701 27.02229 20.18465
#
# Velocity S-wave (km/s) = 2.72643 3.87939 3.35284
# Velocity P-wave (km/s) = 3.98890 7.84147 6.22093
#
# Compressibility (1/GPa) = 0.09282198
#
# Stress axis : x y z
#
# Youngs Moduli (GPa) = 86.62098 7.88799 96.26226
#
# Poissons Ratio (x) = 0.10537 0.51687
# Poissons Ratio (y) = 1.15710 0.88709
# Poissons Ratio (z) = 0.46510 0.07269
#
# Static dielectric constant tensor:
#      x y z
#    x 3.546360 0.000000 0.000000 
#    y 0.000000 2.623610 0.000000 
#    z 0.000000 0.000000 3.583750 
# 
# 
# High freq. dielectric constant tensor:
#      x y z
#    x 1.707280 0.000000 0.000000 
#    y 0.000000 1.617690 0.000000 
#    z 0.000000 0.000000 1.715520 
# 
# From -- ./inp_files/19456.got.cif
#   From: 2010.03.12/outbox.cif.g09.slc.cpg/sg38_10_cif.got.tgz:19456.got - 2010.04.14 02:38:36.
