data_PCOD8178614
_publ_section_title
;
Structure prediction by ZEFSAII (Michael W. Deem and Ramdas Pophale) SiO2 
 PCOD8178614
Probable space group: A M M 2
;
_chemical_formula_sum "Si O2"
_cell_formula_units_Z 64
_cell_length_a 9.063409
_cell_length_b 32.006697
_cell_length_c 11.706695
_cell_angle_alpha 90.000000
_cell_angle_beta 90.000000
_cell_angle_gamma 90.000000
_cell_volume 3395.992643
_symmetry_space_group_name_H-M "A M M 2"
_symmetry_group_IT_number 38
_symmetry_cell_setting 'orthorhombic'
loop_
_space_group_symop_operation_xyz
x,y,z
-x,-y,z
-x,y,z
x,-y,z
x,1/2+y,1/2+z
-x,1/2-y,1/2+z
-x,1/2+y,1/2+z
x,1/2-y,1/2+z
loop_
_atom_site_type_symbol
_atom_site_label
_atom_site_fract_x
_atom_site_fract_y
_atom_site_fract_z
Si Si1 0.825697 0.548217 0.005050
Si Si2 0.826052 0.138778 0.873153
Si Si3 0.675833 0.878184 0.633772
Si Si4 0.828235 0.722114 0.509874
Si Si5 0.333454 0.403746 0.569551
Si Si6 0.672124 0.807500 0.457962
Si Si7 0.335235 0.681417 0.702674
Si Si8 0.838394 0.951082 0.250518
O O1 0.780989 0.500000 0.028507
O O2 0.738244 0.577191 0.093818
O O3 0.000000 0.554132 0.022741
O O4 0.779999 0.562348 0.876279
O O5 0.741908 0.134197 0.755067
O O6 0.787017 0.184275 0.924534
O O7 0.000000 0.132782 0.856084
O O8 0.766871 0.102687 0.957778
O O9 0.500000 0.881150 0.641530
O O10 0.728754 0.841836 0.547619
O O11 0.752252 0.763705 0.468049
O O12 0.774656 0.712593 0.638192
O O13 0.000000 0.730047 0.514469
O O14 0.500000 0.414325 0.530906
O O15 0.326964 0.363650 0.648423
O O16 0.272412 0.440755 0.648167
O O17 0.500000 0.799500 0.474937
O O18 0.712410 0.824518 0.333030
O O19 0.500000 0.700274 0.693079
O O20 0.000000 0.930504 0.227466
O O21 0.858726 0.000000 0.254457
#
# Coordination Sequence:
#
# PCOD8178614 Si02
#       8
#     8   8   8   8   8   8   8   8
#     4   9  19  37  60  86 118 155 191 231 285 343
#     4  10  22  40  58  78 110 151 191 234 285 341
#     4  11  23  38  58  86 115 149 193 239 287 342
#     4  10  22  37  55  80 108 140 184 234 281 328
#     4  10  19  34  57  82 109 141 182 230 276 329
#     4  10  22  37  55  80 111 146 183 225 277 337
#     4   9  19  36  55  76 104 140 178 217 270 330
#     4   9  18  33  55  84 117 150 183 223 277 339
#
# _framework density 18.845742000000001
#
# number of rings (size 3 to 8) (size 9 to 14) (size 15 to 20)
#    0.000    2.250    0.000    3.000    1.750    5.500 
#    0.000    1.875    0.000    3.750    0.000    0.000 
#    0.000    0.000    0.000    0.000    0.000    0.000 
#
# Total GULP energy -396794.466283 kJ/mol
# GULP energy per Si atom -12399.827071 kJ/mol
# Density = 1.880285 g / cm^3
# Si number density = 18.845742 Si / 1000 Ang^3
#
#
#
# Elastic Constant Matrix: (Units=GPa)
#
#
# Indices 1 2 3 4 5 6 
#
# 1 73.5723 38.6619 53.6261 0.0000 0.0000 0.0000
# 2 38.6619 60.3513 43.3866 0.0000 0.0000 0.0000
# 3 53.6261 43.3866 140.7026 0.0000 0.0000 0.0000
# 4 0.0000 0.0000 0.0000 20.7769 0.0000 0.0000
# 5 0.0000 0.0000 0.0000 0.0000 9.0989 0.0000
# 6 0.0000 0.0000 0.0000 0.0000 0.0000 32.6579
#
#
#
# Elastic Compliance Matrix: (Units=1/GPa)
#
#
# Indices 1 2 3 4 5 6 
#
# 1 0.023413 -0.011028 -0.005523 0.000000 0.000000 0.000000
# 2 -0.011028 0.026484 -0.003963 0.000000 0.000000 0.000000
# 3 -0.005523 -0.003963 0.010434 0.000000 0.000000 0.000000
# 4 0.000000 0.000000 0.000000 0.048130 0.000000 0.000000
# 5 0.000000 0.000000 0.000000 0.000000 0.109903 0.000000
# 6 0.000000 0.000000 0.000000 0.000000 0.000000 0.030620
#
#
# Mechanical properties :
#
#
# Convention : Reuss Voigt Hill
#
# Bulk Modulus (GPa) = 51.80744 60.66393 56.23568
# Shear Modulus (GPa) = 16.86642 21.77020 19.31831
#
# Velocity S-wave (km/s) = 2.99485 3.40248 3.20515
# Velocity P-wave (km/s) = 6.28560 6.90619 6.60319
#
# Compressibility (1/GPa) = 0.01930225
#
# Stress axis : x y z
#
# Youngs Moduli (GPa) = 42.71162 37.75913 95.83920
#
# Poissons Ratio (x) = 0.41642 0.52929
# Poissons Ratio (y) = 0.47104 0.37983
# Poissons Ratio (z) = 0.23588 0.14965
#
# Static dielectric constant tensor:
#      x y z
#    x 3.566230 0.000000 0.000000 
#    y 0.000000 3.440990 0.000000 
#    z 0.000000 0.000000 3.623750 
# 
# 
# High freq. dielectric constant tensor:
#      x y z
#    x 1.735850 0.000000 0.000000 
#    y 0.000000 1.723190 0.000000 
#    z 0.000000 0.000000 1.736690 
# 
# From -- ./inp_files/8548.got.cif
#   From: 2010.03.12/outbox.cif.g09.slc.cpg/sg38_5_cif.got.tgz:8548.got - 2010.04.14 02:38:36.
