data_PCOD8178908
_publ_section_title
;
Structure prediction by ZEFSAII (Michael W. Deem and Ramdas Pophale) SiO2 
 PCOD8178908
Probable space group: A M M 2
;
_chemical_formula_sum "Si O2"
_cell_formula_units_Z 48
_cell_length_a 8.818939
_cell_length_b 31.494238
_cell_length_c 9.051267
_cell_angle_alpha 90.000000
_cell_angle_beta 90.000000
_cell_angle_gamma 90.000000
_cell_volume 2513.951066
_symmetry_space_group_name_H-M "A M M 2"
_symmetry_group_IT_number 38
_symmetry_cell_setting 'orthorhombic'
loop_
_space_group_symop_operation_xyz
x,y,z
-x,-y,z
-x,y,z
x,-y,z
x,1/2+y,1/2+z
-x,1/2-y,1/2+z
-x,1/2+y,1/2+z
x,1/2-y,1/2+z
loop_
_atom_site_type_symbol
_atom_site_label
_atom_site_fract_x
_atom_site_fract_y
_atom_site_fract_z
Si Si1 0.830494 0.953795 0.961520
Si Si2 0.324611 0.789213 0.785375
Si Si3 0.830223 0.044881 0.312596
Si Si4 0.821282 0.783241 0.473041
Si Si5 0.180294 0.364701 0.790578
Si Si6 0.326460 0.870072 0.978976
O O1 0.000000 0.946616 0.899376
O O2 0.769137 0.000000 0.905700
O O3 0.834838 0.953848 0.136978
O O4 0.725769 0.915006 0.908275
O O5 0.500000 0.781600 0.742800
O O6 0.217219 0.785433 0.644587
O O7 0.273572 0.754873 0.904658
O O8 0.299468 0.835515 0.853088
O O9 0.753978 0.090168 0.358051
O O10 0.000000 0.043128 0.376729
O O11 0.748163 0.000000 0.362699
O O12 0.766849 0.826777 0.395781
O O13 0.000000 0.775464 0.451740
O O14 0.236206 0.356148 0.624892
O O15 0.000000 0.368131 0.782502
O O16 0.500000 0.873629 0.026144
#
# Coordination Sequence:
#
# PCOD8178908 Si02
#       6
#     8   8   8   8   8   8
#     4   8  14  26  46  72 102 136 172 212 257 300
#     4  11  24  40  56  76 106 141 174 213 268 327
#     4   7  10  20  41  68  97 128 160 196 243 297
#     4  11  23  38  58  81 103 133 177 225 267 311
#     4   9  18  32  51  77 106 134 169 216 264 306
#     4  10  20  32  50  77 106 139 176 212 255 310
#
# _framework density 19.093451999999999
#
# number of rings (size 3 to 8) (size 9 to 14) (size 15 to 20)
#    0.000    2.667    0.000    4.500    0.000    7.000 
#    0.000    0.000    0.000    1.000    0.000    2.333 
#    0.000    0.000    0.000    0.000    0.000    0.000 
#
# Total GULP energy -297345.996861 kJ/mol
# GULP energy per Si atom -12389.416536 kJ/mol
# Density = 1.904999 g / cm^3
# Si number density = 19.093452 Si / 1000 Ang^3
#
#
#
# Elastic Constant Matrix: (Units=GPa)
#
#
# Indices 1 2 3 4 5 6 
#
# 1 37.3529 40.2578 12.9889 0.0000 0.0000 0.0000
# 2 40.2578 156.3138 31.0486 0.0000 0.0000 0.0000
# 3 12.9889 31.0486 53.3694 0.0000 0.0000 0.0000
# 4 0.0000 0.0000 0.0000 21.0521 0.0000 0.0000
# 5 0.0000 0.0000 0.0000 0.0000 21.7411 0.0000
# 6 0.0000 0.0000 0.0000 0.0000 0.0000 26.0364
#
#
#
# Elastic Compliance Matrix: (Units=1/GPa)
#
#
# Indices 1 2 3 4 5 6 
#
# 1 0.037798 -0.008941 -0.003998 0.000000 0.000000 0.000000
# 2 -0.008941 0.009348 -0.003262 0.000000 0.000000 0.000000
# 3 -0.003998 -0.003262 0.021608 0.000000 0.000000 0.000000
# 4 0.000000 0.000000 0.000000 0.047501 0.000000 0.000000
# 5 0.000000 0.000000 0.000000 0.000000 0.045996 0.000000
# 6 0.000000 0.000000 0.000000 0.000000 0.000000 0.038408
#
#
# Mechanical properties :
#
#
# Convention : Reuss Voigt Hill
#
# Bulk Modulus (GPa) = 27.50845 46.18074 36.84459
# Shear Modulus (GPa) = 20.39337 24.61531 22.50434
#
# Velocity S-wave (km/s) = 3.27170 3.59444 3.43686
# Velocity P-wave (km/s) = 5.35822 6.43940 5.92353
#
# Compressibility (1/GPa) = 0.03635246
#
# Stress axis : x y z
#
# Youngs Moduli (GPa) = 26.45666 106.97496 46.27860
#
# Poissons Ratio (x) = 0.95641 0.18501
# Poissons Ratio (y) = 0.23654 0.15098
# Poissons Ratio (z) = 0.10577 0.34900
#
# Static dielectric constant tensor:
#      x y z
#    x 3.353570 0.000000 0.000000 
#    y 0.000000 4.451320 0.000000 
#    z 0.000000 0.000000 3.015490 
# 
# 
# High freq. dielectric constant tensor:
#      x y z
#    x 1.719080 0.000000 0.000000 
#    y 0.000000 1.776980 0.000000 
#    z 0.000000 0.000000 1.694350 
# 
# From -- ./inp_files/3798.got.cif
#   From: 2010.03.12/outbox.cif.g09.slc.cpg/sg38_2_cif.got.tgz:3798.got - 2010.04.14 02:38:36.
