data_PCOD8178102
_publ_section_title
;
Structure prediction by ZEFSAII (Michael W. Deem and Ramdas Pophale) SiO2 
 PCOD8178102
Probable space group: A M M 2
;
_chemical_formula_sum "Si O2"
_cell_formula_units_Z 48
_cell_length_a 19.924560
_cell_length_b 25.517916
_cell_length_c 5.139531
_cell_angle_alpha 90.000000
_cell_angle_beta 90.000000
_cell_angle_gamma 90.000000
_cell_volume 2613.108442
_symmetry_space_group_name_H-M "A M M 2"
_symmetry_group_IT_number 38
_symmetry_cell_setting 'orthorhombic'
loop_
_space_group_symop_operation_xyz
x,y,z
-x,-y,z
-x,y,z
x,-y,z
x,1/2+y,1/2+z
-x,1/2-y,1/2+z
-x,1/2+y,1/2+z
x,1/2-y,1/2+z
loop_
_atom_site_type_symbol
_atom_site_label
_atom_site_fract_x
_atom_site_fract_y
_atom_site_fract_z
Si Si1 0.397349 0.441390 0.086850
Si Si2 0.000000 0.217215 0.161205
Si Si3 0.761017 0.621296 0.579692
Si Si4 0.500000 0.714223 0.563972
Si Si5 0.857115 0.215725 0.058293
Si Si6 0.602153 0.622882 0.584045
Si Si7 0.761402 0.441780 0.082413
O O1 0.428297 0.500000 0.085154
O O2 0.423570 0.409612 0.335689
O O3 0.318006 0.445840 0.098106
O O4 0.421086 0.410385 0.832758
O O5 0.930125 0.186932 0.097285
O O6 0.000000 0.232495 0.465589
O O7 0.796934 0.676447 0.612065
O O8 0.681741 0.632313 0.579280
O O9 0.787383 0.593760 0.318350
O O10 0.783652 0.583791 0.812966
O O11 0.500000 0.741887 0.285091
O O12 0.566813 0.679189 0.589463
O O13 0.850890 0.262788 0.265681
O O14 0.792710 0.500000 0.101756
#
# Coordination Sequence:
#
# PCOD8178102 Si02
#       7
#     8   4   8   4   8   8   8
#     4   9  17  33  56  78 101 123 147 196 257 299
#     4   8  16  30  46  66  95 128 157 192 242 294
#     4  10  19  31  51  76  98 125 162 202 239 277
#     4  12  26  42  55  66  93 138 174 200 236 280
#     4  10  19  31  48  72 101 128 158 198 243 289
#     4  10  21  36  52  74  99 125 166 202 232 289
#     4   9  17  30  49  74 102 129 158 194 239 289
#
# _framework density 18.368928
#
# number of rings (size 3 to 8) (size 9 to 14) (size 15 to 20)
#    0.000    2.333    0.000    3.000    0.000    5.333 
#    0.000    2.500    0.000    0.000    0.000    3.500 
#    0.000    0.000    0.000    0.000    0.000    0.000 
#
# Total GULP energy -297538.512756 kJ/mol
# GULP energy per Si atom -12397.438031 kJ/mol
# Density = 1.832712 g / cm^3
# Si number density = 18.368928 Si / 1000 Ang^3
#
#
#
# Elastic Constant Matrix: (Units=GPa)
#
#
# Indices 1 2 3 4 5 6 
#
# 1 71.4813 41.6105 23.9021 0.0000 0.0000 0.0000
# 2 41.6105 95.5479 29.7707 0.0000 0.0000 0.0000
# 3 23.9021 29.7707 114.4902 0.0000 0.0000 0.0000
# 4 0.0000 0.0000 0.0000 27.2151 0.0000 0.0000
# 5 0.0000 0.0000 0.0000 0.0000 -2.8724 0.0000
# 6 0.0000 0.0000 0.0000 0.0000 0.0000 -0.8105
#
#
#
# Elastic Compliance Matrix: (Units=1/GPa)
#
#
# Indices 1 2 3 4 5 6 
#
# 1 0.019149 -0.007719 -0.001991 0.000000 0.000000 0.000000
# 2 -0.007719 0.014500 -0.002159 0.000000 0.000000 0.000000
# 3 -0.001991 -0.002159 0.009711 0.000000 0.000000 0.000000
# 4 0.000000 0.000000 0.000000 0.036744 0.000000 0.000000
# 5 0.000000 0.000000 0.000000 0.000000 -0.348139 0.000000
# 6 0.000000 0.000000 0.000000 0.000000 0.000000 -1.233821
#
#
# Mechanical properties :
#
#
# Convention : Reuss Voigt Hill
#
# Bulk Modulus (GPa) = 50.95983 52.45402 51.70693
# Shear Modulus (GPa) = -3.39771 17.12217 6.86223
#
# Velocity S-wave (km/s) = -1.36151 3.05639 1.93491
# Velocity P-wave (km/s) = 5.03299 6.40884 5.76213
#
# Compressibility (1/GPa) = 0.01962330
#
# Stress axis : x y z
#
# Youngs Moduli (GPa) = 52.22323 68.96466 102.97255
#
# Poissons Ratio (x) = 0.53233 0.20497
# Poissons Ratio (y) = 0.40311 0.22232
# Poissons Ratio (z) = 0.10395 0.14889
#
# Static dielectric constant tensor:
#      x y z
#    x 3.288680 0.000000 0.000000 
#    y 0.000000 3.271370 0.000000 
#    z 0.000000 0.000000 3.682770 
# 
# 
# High freq. dielectric constant tensor:
#      x y z
#    x 1.688390 0.000000 0.000000 
#    y 0.000000 1.693660 0.000000 
#    z 0.000000 0.000000 1.737510 
# 
# From -- ./inp_files/1885.got.cif
#   From: 2010.03.12/outbox.cif.g09.slc.cpg/sg38_1_cif.got.tgz:1885.got - 2010.04.14 02:38:36.
