data_PCOD8178898
_publ_section_title
;
Structure prediction by ZEFSAII (Michael W. Deem and Ramdas Pophale) SiO2 
 PCOD8178898
Probable space group: A M M 2
;
_chemical_formula_sum "Si O2"
_cell_formula_units_Z 64
_cell_length_a 9.165131
_cell_length_b 13.655927
_cell_length_c 28.844321
_cell_angle_alpha 90.000000
_cell_angle_beta 90.000000
_cell_angle_gamma 90.000000
_cell_volume 3610.107908
_symmetry_space_group_name_H-M "A M M 2"
_symmetry_group_IT_number 38
_symmetry_cell_setting 'orthorhombic'
loop_
_space_group_symop_operation_xyz
x,y,z
-x,-y,z
-x,y,z
x,-y,z
x,1/2+y,1/2+z
-x,1/2-y,1/2+z
-x,1/2+y,1/2+z
x,1/2-y,1/2+z
loop_
_atom_site_type_symbol
_atom_site_label
_atom_site_fract_x
_atom_site_fract_y
_atom_site_fract_z
Si Si1 0.167314 0.110533 0.681400
Si Si2 0.166675 0.303952 0.913654
Si Si3 0.669863 0.731625 0.827249
Si Si4 0.169000 0.889977 0.143963
Si Si5 0.669353 0.786384 0.222501
Si Si6 0.165929 0.609606 0.371266
Si Si7 0.166765 0.707675 0.085288
Si Si8 0.670835 0.386762 0.001792
O O1 0.268074 0.179176 0.712267
O O2 0.187916 0.131510 0.626969
O O3 0.000000 0.129223 0.695486
O O4 0.215762 0.000000 0.691250
O O5 0.244027 0.335703 0.864931
O O6 0.174538 0.183809 0.915823
O O7 0.000000 0.341037 0.914049
O O8 0.251263 0.352646 0.955375
O O9 0.500000 0.732721 0.839775
O O10 0.697497 0.688257 0.776254
O O11 0.732170 0.843707 0.830853
O O12 0.255460 0.868968 0.191230
O O13 0.213889 0.815904 0.102913
O O14 0.000000 0.873576 0.156015
O O15 0.202331 0.000000 0.127144
O O16 0.500000 0.785232 0.210418
O O17 0.219095 0.500000 0.384714
O O18 0.000000 0.606403 0.352628
O O19 0.272652 0.678422 0.043998
O O20 0.000000 0.707238 0.067237
O O21 0.500000 0.369160 0.996007
O O22 0.707983 0.500000 0.011260
#
# Coordination Sequence:
#
# PCOD8178898 Si02
#       8
#     8   8   8   8   8   8   8   8
#     4   9  18  32  50  74 105 142 182 221 260 306
#     4   9  19  35  55  76 101 136 178 222 264 310
#     4   9  18  32  49  72 106 142 176 215 261 308
#     4   9  19  37  59  80 104 138 180 222 263 310
#     4  10  20  32  49  76 110 144 177 218 265 315
#     4   8  16  31  51  75 101 133 174 216 259 306
#     4   9  18  34  56  79 104 134 171 215 262 311
#     4  11  23  37  55  80 108 138 171 211 263 319
#
# _framework density 17.728003000000001
#
# number of rings (size 3 to 8) (size 9 to 14) (size 15 to 20)
#    0.750    2.000    0.000    2.250    0.000    6.750 
#    0.000    3.750    0.000    4.500    0.000    0.000 
#    0.000    0.000    0.000    0.000    0.000    0.000 
#
# Total GULP energy -396577.184486 kJ/mol
# GULP energy per Si atom -12393.037015 kJ/mol
# Density = 1.768765 g / cm^3
# Si number density = 17.728003 Si / 1000 Ang^3
#
#
#
# Elastic Constant Matrix: (Units=GPa)
#
#
# Indices 1 2 3 4 5 6 
#
# 1 105.1760 46.0450 68.8786 0.0000 0.0000 0.0000
# 2 46.0450 90.2201 44.0499 0.0000 0.0000 0.0000
# 3 68.8786 44.0499 108.2544 0.0000 0.0000 0.0000
# 4 0.0000 0.0000 0.0000 17.6639 0.0000 0.0000
# 5 0.0000 0.0000 0.0000 0.0000 33.6951 0.0000
# 6 0.0000 0.0000 0.0000 0.0000 0.0000 20.3971
#
#
#
# Elastic Compliance Matrix: (Units=1/GPa)
#
#
# Indices 1 2 3 4 5 6 
#
# 1 0.017587 -0.004383 -0.009406 0.000000 0.000000 0.000000
# 2 -0.004383 0.014924 -0.003284 0.000000 0.000000 0.000000
# 3 -0.009406 -0.003284 0.016559 0.000000 0.000000 0.000000
# 4 0.000000 0.000000 0.000000 0.056613 0.000000 0.000000
# 5 0.000000 0.000000 0.000000 0.000000 0.029678 0.000000
# 6 0.000000 0.000000 0.000000 0.000000 0.000000 0.049027
#
#
# Mechanical properties :
#
#
# Convention : Reuss Voigt Hill
#
# Bulk Modulus (GPa) = 67.01086 69.06640 68.03863
# Shear Modulus (GPa) = 22.37049 23.99635 23.18342
#
# Velocity S-wave (km/s) = 3.55614 3.68310 3.62018
# Velocity P-wave (km/s) = 7.39885 7.55847 7.47909
#
# Compressibility (1/GPa) = 0.01492295
#
# Stress axis : x y z
#
# Youngs Moduli (GPa) = 56.86051 67.00435 60.39066
#
# Poissons Ratio (x) = 0.29368 0.56806
# Poissons Ratio (y) = 0.24922 0.19833
# Poissons Ratio (z) = 0.53486 0.22005
#
# Static dielectric constant tensor:
#      x y z
#    x 3.360310 0.000000 0.000000 
#    y 0.000000 3.300110 0.000000 
#    z 0.000000 0.000000 3.072510 
# 
# 
# High freq. dielectric constant tensor:
#      x y z
#    x 1.691850 0.000000 0.000000 
#    y 0.000000 1.675150 0.000000 
#    z 0.000000 0.000000 1.668720 
# 
# From -- ./inp_files/24811.got.cif
#   From: 2010.03.12/outbox.cif.g09.slc.cpg/sg38_13_cif.got.tgz:24811.got - 2010.04.14 02:38:36.
