data_PCOD8178617
_publ_section_title
;
Structure prediction by ZEFSAII (Michael W. Deem and Ramdas Pophale) SiO2 
 PCOD8178617
Probable space group: A M M 2
;
_chemical_formula_sum "Si O2"
_cell_formula_units_Z 56
_cell_length_a 9.123553
_cell_length_b 20.356432
_cell_length_c 15.696391
_cell_angle_alpha 90.000000
_cell_angle_beta 90.000000
_cell_angle_gamma 90.000000
_cell_volume 2915.180610
_symmetry_space_group_name_H-M "A M M 2"
_symmetry_group_IT_number 38
_symmetry_cell_setting 'orthorhombic'
loop_
_space_group_symop_operation_xyz
x,y,z
-x,-y,z
-x,y,z
x,-y,z
x,1/2+y,1/2+z
-x,1/2-y,1/2+z
-x,1/2+y,1/2+z
x,1/2-y,1/2+z
loop_
_atom_site_type_symbol
_atom_site_label
_atom_site_fract_x
_atom_site_fract_y
_atom_site_fract_z
Si Si1 0.170617 0.575105 0.522460
Si Si2 0.172038 0.207148 0.108438
Si Si3 0.158724 0.427878 0.200248
Si Si4 0.168655 0.756387 0.791915
Si Si5 0.831990 0.188662 0.467255
Si Si6 0.329440 0.923596 0.541666
Si Si7 0.674010 0.113828 0.851078
O O1 0.202857 0.500000 0.554083
O O2 0.213311 0.630047 0.593081
O O3 0.270437 0.592819 0.442808
O O4 0.000000 0.582013 0.496379
O O5 0.230387 0.227539 0.202204
O O6 0.230917 0.253978 0.030956
O O7 0.000000 0.213977 0.107920
O O8 0.127060 0.500000 0.165711
O O9 0.252315 0.393158 0.126386
O O10 0.254504 0.436534 0.284978
O O11 0.000000 0.392177 0.214426
O O12 0.270316 0.816407 0.818076
O O13 0.000000 0.778967 0.782344
O O14 0.182573 0.705355 0.868173
O O15 0.736215 0.122232 0.468490
O O16 0.000000 0.173418 0.491619
O O17 0.500000 0.911725 0.552530
O O18 0.295878 0.000000 0.522507
O O19 0.500000 0.110497 0.849768
#
# Coordination Sequence:
#
# PCOD8178617 Si02
#       7
#     8   8   8   8   8   8   8
#     4  10  20  37  60  83 114 157 199 242 299 361
#     4   9  18  35  58  86 115 146 190 244 293 341
#     4  10  20  34  53  77 107 145 186 227 278 341
#     4  10  20  36  59  83 111 148 194 243 292 346
#     4  10  19  34  57  83 113 148 189 237 288 347
#     4  10  21  36  54  79 113 149 186 233 289 349
#     4  12  23  34  52  82 116 149 189 240 296 352
#
# _framework density 19.209786999999999
#
# number of rings (size 3 to 8) (size 9 to 14) (size 15 to 20)
#    0.000    1.857    1.429    3.429    0.000    5.429 
#    0.000    1.429    0.000    2.571    0.000    0.000 
#    0.000    0.000    0.000    0.000    0.000    0.000 
#
# Total GULP energy -346901.549519 kJ/mol
# GULP energy per Si atom -12389.341054 kJ/mol
# Density = 1.916606 g / cm^3
# Si number density = 19.209787 Si / 1000 Ang^3
#
#
#
# Elastic Constant Matrix: (Units=GPa)
#
#
# Indices 1 2 3 4 5 6 
#
# 1 100.1780 47.3150 30.5026 0.0000 0.0000 0.0000
# 2 47.3150 117.2714 41.7161 0.0000 0.0000 0.0000
# 3 30.5026 41.7161 83.7653 0.0000 0.0000 0.0000
# 4 0.0000 0.0000 0.0000 31.9901 0.0000 0.0000
# 5 0.0000 0.0000 0.0000 0.0000 15.4300 0.0000
# 6 0.0000 0.0000 0.0000 0.0000 0.0000 19.0476
#
#
#
# Elastic Compliance Matrix: (Units=1/GPa)
#
#
# Indices 1 2 3 4 5 6 
#
# 1 0.012759 -0.004248 -0.002531 0.000000 0.000000 0.000000
# 2 -0.004248 0.011777 -0.004318 0.000000 0.000000 0.000000
# 3 -0.002531 -0.004318 0.015010 0.000000 0.000000 0.000000
# 4 0.000000 0.000000 0.000000 0.031260 0.000000 0.000000
# 5 0.000000 0.000000 0.000000 0.000000 0.064809 0.000000
# 6 0.000000 0.000000 0.000000 0.000000 0.000000 0.052500
#
#
# Mechanical properties :
#
#
# Convention : Reuss Voigt Hill
#
# Bulk Modulus (GPa) = 57.62723 60.03136 58.82929
# Shear Modulus (GPa) = 23.13825 25.40563 24.27194
#
# Velocity S-wave (km/s) = 3.47436 3.64061 3.55846
# Velocity P-wave (km/s) = 6.79404 6.99931 6.89744
#
# Compressibility (1/GPa) = 0.01735291
#
# Stress axis : x y z
#
# Youngs Moduli (GPa) = 78.37623 84.91030 66.62088
#
# Poissons Ratio (x) = 0.36066 0.16860
# Poissons Ratio (y) = 0.33291 0.28770
# Poissons Ratio (z) = 0.19835 0.36668
#
# Static dielectric constant tensor:
#      x y z
#    x 3.411200 0.000000 0.000000 
#    y 0.000000 3.647960 0.000000 
#    z 0.000000 0.000000 3.711680 
# 
# 
# High freq. dielectric constant tensor:
#      x y z
#    x 1.728600 0.000000 0.000000 
#    y 0.000000 1.752780 0.000000 
#    z 0.000000 0.000000 1.735870 
# 
# From -- ./inp_files/12352.got.cif
#   From: 2010.03.12/outbox.cif.g09.slc.cpg/sg38_7_cif.got.tgz:12352.got - 2010.04.14 02:38:36.
