data_PCOD8178815
_publ_section_title
;
Structure prediction by ZEFSAII (Michael W. Deem and Ramdas Pophale) SiO2 
 PCOD8178815
Probable space group: A M M 2
;
_chemical_formula_sum "Si O2"
_cell_formula_units_Z 48
_cell_length_a 15.136835
_cell_length_b 9.388945
_cell_length_c 19.118383
_cell_angle_alpha 90.000000
_cell_angle_beta 90.000000
_cell_angle_gamma 90.000000
_cell_volume 2717.083778
_symmetry_space_group_name_H-M "A M M 2"
_symmetry_group_IT_number 38
_symmetry_cell_setting 'orthorhombic'
loop_
_space_group_symop_operation_xyz
x,y,z
-x,-y,z
-x,y,z
x,-y,z
x,1/2+y,1/2+z
-x,1/2-y,1/2+z
-x,1/2+y,1/2+z
x,1/2-y,1/2+z
loop_
_atom_site_type_symbol
_atom_site_label
_atom_site_fract_x
_atom_site_fract_y
_atom_site_fract_z
Si Si1 0.243509 0.831873 0.334370
Si Si2 0.902619 0.330520 0.579164
Si Si3 0.399576 0.834588 0.435696
Si Si4 0.897206 0.835498 0.921540
Si Si5 0.251026 0.330942 0.676944
Si Si6 0.399428 0.665930 0.573083
O O1 0.334834 0.791393 0.372747
O O2 0.159556 0.759256 0.369423
O O3 0.251434 0.771551 0.255581
O O4 0.227142 0.000000 0.335387
O O5 0.903747 0.500000 0.581124
O O6 0.877093 0.283303 0.500592
O O7 0.832666 0.267691 0.634438
O O8 0.000000 0.272008 0.598981
O O9 0.500000 0.795901 0.413474
O O10 0.369822 0.748012 0.503728
O O11 0.391106 0.000000 0.454315
O O12 0.000000 0.812903 0.903737
O O13 0.870544 0.000000 0.912185
O O14 0.245510 0.500000 0.678490
O O15 0.340286 0.281894 0.637981
O O16 0.500000 0.700858 0.593320
O O17 0.384807 0.500000 0.557458
#
# Coordination Sequence:
#
# PCOD8178815 Si02
#       6
#     8   8   8   8   8   8
#     4  10  20  31  46  71  99 127 157 190 234 285
#     4   8  14  26  45  66  86 113 150 187 223 266
#     4   9  18  32  48  67  95 129 160 192 234 283
#     4   9  18  33  52  71  92 122 158 195 237 282
#     4   9  17  28  43  67  96 120 146 186 233 275
#     4   9  17  30  50  72  90 115 157 203 237 269
#
# _framework density 17.665998999999999
#
# number of rings (size 3 to 8) (size 9 to 14) (size 15 to 20)
#    0.000    3.000    0.000    2.000    0.000    3.667 
#    0.000    5.833    0.000    1.000    0.000    4.667 
#    0.000    0.000    0.000    0.000    0.000    0.000 
#
# Total GULP energy -297553.006833 kJ/mol
# GULP energy per Si atom -12398.041951 kJ/mol
# Density = 1.762579 g / cm^3
# Si number density = 17.665999 Si / 1000 Ang^3
#
#
#
# Elastic Constant Matrix: (Units=GPa)
#
#
# Indices 1 2 3 4 5 6 
#
# 1 124.3144 32.1432 99.7113 0.0000 0.0000 0.0000
# 2 32.1432 26.3828 37.0388 0.0000 0.0000 0.0000
# 3 99.7113 37.0388 171.7180 0.0000 0.0000 0.0000
# 4 0.0000 0.0000 0.0000 21.6200 0.0000 0.0000
# 5 0.0000 0.0000 0.0000 0.0000 22.6423 0.0000
# 6 0.0000 0.0000 0.0000 0.0000 0.0000 22.7285
#
#
#
# Elastic Compliance Matrix: (Units=1/GPa)
#
#
# Indices 1 2 3 4 5 6 
#
# 1 0.016593 -0.009595 -0.007566 0.000000 0.000000 0.000000
# 2 -0.009595 0.059915 -0.007352 0.000000 0.000000 0.000000
# 3 -0.007566 -0.007352 0.011802 0.000000 0.000000 0.000000
# 4 0.000000 0.000000 0.000000 0.046253 0.000000 0.000000
# 5 0.000000 0.000000 0.000000 0.000000 0.044165 0.000000
# 6 0.000000 0.000000 0.000000 0.000000 0.000000 0.043998
#
#
# Mechanical properties :
#
#
# Convention : Reuss Voigt Hill
#
# Bulk Modulus (GPa) = 25.45463 73.35576 49.40519
# Shear Modulus (GPa) = 17.55330 23.63296 20.59313
#
# Velocity S-wave (km/s) = 3.15559 3.66152 3.41793
# Velocity P-wave (km/s) = 5.26471 7.71294 6.60328
#
# Compressibility (1/GPa) = 0.03928558
#
# Stress axis : x y z
#
# Youngs Moduli (GPa) = 60.26512 16.69040 84.72839
#
# Poissons Ratio (x) = 0.16014 0.64103
# Poissons Ratio (y) = 0.57824 0.62291
# Poissons Ratio (z) = 0.45595 0.12271
#
# Static dielectric constant tensor:
#      x y z
#    x 3.503920 0.000000 0.000000 
#    y 0.000000 2.899940 0.000000 
#    z 0.000000 0.000000 3.441470 
# 
# 
# High freq. dielectric constant tensor:
#      x y z
#    x 1.697990 0.000000 0.000000 
#    y 0.000000 1.640310 0.000000 
#    z 0.000000 0.000000 1.681390 
# 
# From -- ./inp_files/14482.got.cif
#   From: 2010.03.12/outbox.cif.g09.slc.cpg/sg38_8_cif.got.tgz:14482.got - 2010.04.14 02:38:36.
