data_PCOD8178343
_publ_section_title
;
Structure prediction by ZEFSAII (Michael W. Deem and Ramdas Pophale) SiO2 
 PCOD8178343
Probable space group: A M M 2
;
_chemical_formula_sum "Si O2"
_cell_formula_units_Z 64
_cell_length_a 19.720672
_cell_length_b 8.963483
_cell_length_c 20.038939
_cell_angle_alpha 90.000000
_cell_angle_beta 90.000000
_cell_angle_gamma 90.000000
_cell_volume 3542.201252
_symmetry_space_group_name_H-M "A M M 2"
_symmetry_group_IT_number 38
_symmetry_cell_setting 'orthorhombic'
loop_
_space_group_symop_operation_xyz
x,y,z
-x,-y,z
-x,y,z
x,-y,z
x,1/2+y,1/2+z
-x,1/2-y,1/2+z
-x,1/2+y,1/2+z
x,1/2-y,1/2+z
loop_
_atom_site_type_symbol
_atom_site_label
_atom_site_fract_x
_atom_site_fract_y
_atom_site_fract_z
Si Si1 0.829582 0.674385 0.500000
Si Si2 0.577779 0.828883 0.730429
Si Si3 0.344526 0.328185 0.100580
Si Si4 0.673802 0.824401 0.333366
Si Si5 0.320950 0.823268 0.969080
Si Si6 0.823187 0.173257 0.288329
Si Si7 0.790291 0.673182 0.640955
Si Si8 0.076214 0.177505 0.885821
O O1 0.830358 0.500000 0.487692
O O2 0.756379 0.734695 0.476825
O O3 0.840116 0.712368 0.578483
O O4 0.888577 0.742951 0.453406
O O5 0.500000 0.785683 0.742292
O O6 0.594127 0.805181 0.652290
O O7 0.623510 0.721166 0.774688
O O8 0.592350 0.000000 0.750841
O O9 0.334402 0.500000 0.081244
O O10 0.276959 0.270888 0.137113
O O11 0.362063 0.237358 0.033169
O O12 0.649424 0.744648 0.401141
O O13 0.749921 0.773284 0.314583
O O14 0.669888 0.000000 0.343211
O O15 0.327489 0.000000 0.966900
O O16 0.829325 0.206229 0.209372
O O17 0.882463 0.267548 0.321885
O O18 0.834452 0.000000 0.304117
O O19 0.767625 0.500000 0.636835
O O20 0.000000 0.241398 0.883103
O O21 0.075301 0.000000 0.885169
#
# Coordination Sequence:
#
# PCOD8178343 Si02
#       8
#     8   8   8   8   8   8   8   8
#     4   8  15  29  50  74  99 130 172 217 263 314
#     4  10  22  39  57  79 111 150 185 219 271 338
#     4  10  19  32  53  81 109 138 177 227 273 322
#     4  11  21  34  55  84 113 142 182 233 280 325
#     4  10  19  33  55  79 108 143 180 227 276 325
#     4  10  20  33  52  79 111 140 176 226 276 328
#     4   9  17  32  52  76 105 137 174 221 272 323
#     4  10  20  34  52  75 105 142 185 228 273 330
#
# _framework density 18.067861000000001
#
# number of rings (size 3 to 8) (size 9 to 14) (size 15 to 20)
#    0.000    2.250    2.500    1.875    0.000    2.000 
#    0.000    1.250    0.000    4.500    0.000    0.000 
#    0.000    0.000    0.000    0.000    0.000    0.000 
#
# Total GULP energy -396760.883726 kJ/mol
# GULP energy per Si atom -12398.777616 kJ/mol
# Density = 1.802674 g / cm^3
# Si number density = 18.067861 Si / 1000 Ang^3
#
#
#
# Elastic Constant Matrix: (Units=GPa)
#
#
# Indices 1 2 3 4 5 6 
#
# 1 72.3883 28.5859 36.2536 0.0000 0.0000 0.0000
# 2 28.5859 63.9798 41.7069 0.0000 0.0000 0.0000
# 3 36.2536 41.7069 129.6889 0.0000 0.0000 0.0000
# 4 0.0000 0.0000 0.0000 30.8977 0.0000 0.0000
# 5 0.0000 0.0000 0.0000 0.0000 25.0296 0.0000
# 6 0.0000 0.0000 0.0000 0.0000 0.0000 19.4294
#
#
#
# Elastic Compliance Matrix: (Units=1/GPa)
#
#
# Indices 1 2 3 4 5 6 
#
# 1 0.017672 -0.005916 -0.003038 0.000000 0.000000 0.000000
# 2 -0.005916 0.021756 -0.005343 0.000000 0.000000 0.000000
# 3 -0.003038 -0.005343 0.010278 0.000000 0.000000 0.000000
# 4 0.000000 0.000000 0.000000 0.032365 0.000000 0.000000
# 5 0.000000 0.000000 0.000000 0.000000 0.039953 0.000000
# 6 0.000000 0.000000 0.000000 0.000000 0.000000 0.051468
#
#
# Mechanical properties :
#
#
# Convention : Reuss Voigt Hill
#
# Bulk Modulus (GPa) = 47.36261 53.23887 50.30074
# Shear Modulus (GPa) = 23.90956 25.70540 24.80748
#
# Velocity S-wave (km/s) = 3.64169 3.77598 3.70944
# Velocity P-wave (km/s) = 6.62972 6.96712 6.80051
#
# Compressibility (1/GPa) = 0.02111370
#
# Stress axis : x y z
#
# Youngs Moduli (GPa) = 56.58767 45.96464 97.29403
#
# Poissons Ratio (x) = 0.27190 0.29554
# Poissons Ratio (y) = 0.33474 0.51983
# Poissons Ratio (z) = 0.17189 0.24558
#
# Static dielectric constant tensor:
#      x y z
#    x 3.191310 0.000000 0.000000 
#    y 0.000000 3.198820 0.000000 
#    z 0.000000 0.000000 3.592670 
# 
# 
# High freq. dielectric constant tensor:
#      x y z
#    x 1.666350 0.000000 0.000000 
#    y 0.000000 1.690150 0.000000 
#    z 0.000000 0.000000 1.717120 
# 
# From -- ./inp_files/21441.got.cif
#   From: 2010.03.12/outbox.cif.g09.slc.cpg/sg38_11_cif.got.tgz:21441.got - 2010.04.14 02:38:36.
