data_PCOD8178474
_publ_section_title
;
Structure prediction by ZEFSAII (Michael W. Deem and Ramdas Pophale) SiO2 
 PCOD8178474
Probable space group: A M M 2
;
_chemical_formula_sum "Si O2"
_cell_formula_units_Z 64
_cell_length_a 18.545443
_cell_length_b 8.889905
_cell_length_c 20.847436
_cell_angle_alpha 90.000000
_cell_angle_beta 90.000000
_cell_angle_gamma 90.000000
_cell_volume 3437.058952
_symmetry_space_group_name_H-M "A M M 2"
_symmetry_group_IT_number 38
_symmetry_cell_setting 'orthorhombic'
loop_
_space_group_symop_operation_xyz
x,y,z
-x,-y,z
-x,y,z
x,-y,z
x,1/2+y,1/2+z
-x,1/2-y,1/2+z
-x,1/2+y,1/2+z
x,1/2-y,1/2+z
loop_
_atom_site_type_symbol
_atom_site_label
_atom_site_fract_x
_atom_site_fract_y
_atom_site_fract_z
Si Si1 0.322190 0.676726 0.059670
Si Si2 0.915881 0.826534 0.946650
Si Si3 0.165045 0.827441 0.333214
Si Si4 0.331885 0.823704 0.324643
Si Si5 0.581229 0.179865 0.446003
Si Si6 0.171962 0.825585 0.191217
Si Si7 0.158208 0.178460 0.565731
Si Si8 0.675941 0.174625 0.699235
O O1 0.317978 0.500000 0.048710
O O2 0.240159 0.736845 0.053635
O O3 0.357631 0.713560 0.129309
O O4 0.373810 0.748059 0.005744
O O5 0.878370 0.778999 0.880571
O O6 0.000000 0.798348 0.937686
O O7 0.898012 0.000000 0.960799
O O8 0.889392 0.725855 0.005546
O O9 0.248804 0.777527 0.335192
O O10 0.132863 0.809702 0.260668
O O11 0.157792 0.000000 0.356331
O O12 0.380555 0.758989 0.381879
O O13 0.363259 0.759280 0.257663
O O14 0.339361 0.000000 0.320096
O O15 0.500000 0.242561 0.448973
O O16 0.581311 0.000000 0.447536
O O17 0.126982 0.760257 0.130462
O O18 0.241685 0.722528 0.195135
O O19 0.192258 0.000000 0.179701
O O20 0.153815 0.000000 0.575217
O O21 0.671203 0.000000 0.714174
#
# Coordination Sequence:
#
# PCOD8178474 Si02
#       8
#     8   8   8   8   8   8   8   8
#     4   8  15  28  46  70  96 121 158 204 241 280
#     4  11  24  38  51  72 103 134 166 208 252 296
#     4   9  18  33  54  76  99 130 165 204 250 299
#     4   9  17  30  49  74 100 125 160 207 252 295
#     4   9  16  27  45  68  95 129 167 204 243 291
#     4   9  17  31  52  79 107 130 159 206 256 298
#     4  10  19  33  55  78 101 132 169 209 251 300
#     4   9  16  27  46  72  99 128 162 202 249 298
#
# _framework density 18.620570000000001
#
# number of rings (size 3 to 8) (size 9 to 14) (size 15 to 20)
#    0.000    2.750    0.000    3.750    0.000    5.500 
#    0.000    1.250    0.000    3.375    0.000    0.000 
#    0.000    0.000    0.000    0.000    0.000    0.000 
#
# Total GULP energy -396580.185469 kJ/mol
# GULP energy per Si atom -12393.130796 kJ/mol
# Density = 1.857819 g / cm^3
# Si number density = 18.620570 Si / 1000 Ang^3
#
#
#
# Elastic Constant Matrix: (Units=GPa)
#
#
# Indices 1 2 3 4 5 6 
#
# 1 61.8831 29.9757 46.1773 0.0000 0.0000 0.0000
# 2 29.9757 30.4080 43.8889 0.0000 0.0000 0.0000
# 3 46.1773 43.8889 155.4322 0.0000 0.0000 0.0000
# 4 0.0000 0.0000 0.0000 34.9048 0.0000 0.0000
# 5 0.0000 0.0000 0.0000 0.0000 3.5642 0.0000
# 6 0.0000 0.0000 0.0000 0.0000 0.0000 13.1768
#
#
#
# Elastic Compliance Matrix: (Units=1/GPa)
#
#
# Indices 1 2 3 4 5 6 
#
# 1 0.031016 -0.029159 -0.000981 0.000000 0.000000 0.000000
# 2 -0.029159 0.082922 -0.014752 0.000000 0.000000 0.000000
# 3 -0.000981 -0.014752 0.010890 0.000000 0.000000 0.000000
# 4 0.000000 0.000000 0.000000 0.028649 0.000000 0.000000
# 5 0.000000 0.000000 0.000000 0.000000 0.280570 0.000000
# 6 0.000000 0.000000 0.000000 0.000000 0.000000 0.075891
#
#
# Mechanical properties :
#
#
# Convention : Reuss Voigt Hill
#
# Bulk Modulus (GPa) = 28.53464 54.20078 41.36771
# Shear Modulus (GPa) = 8.17791 18.84126 13.50959
#
# Velocity S-wave (km/s) = 2.09795 3.18441 2.69647
# Velocity P-wave (km/s) = 4.60718 6.53390 5.65323
#
# Compressibility (1/GPa) = 0.03504512
#
# Stress axis : x y z
#
# Youngs Moduli (GPa) = 32.24160 12.05957 91.82360
#
# Poissons Ratio (x) = 0.35164 0.09008
# Poissons Ratio (y) = 0.94013 1.35454
# Poissons Ratio (z) = 0.03163 0.17790
#
# Static dielectric constant tensor:
#      x y z
#    x 3.202330 0.000000 0.000000 
#    y 0.000000 3.241890 0.000000 
#    z 0.000000 0.000000 4.044470 
# 
# 
# High freq. dielectric constant tensor:
#      x y z
#    x 1.678720 0.000000 0.000000 
#    y 0.000000 1.702270 0.000000 
#    z 0.000000 0.000000 1.749070 
# 
# From -- ./inp_files/21360.got.cif
#   From: 2010.03.12/outbox.cif.g09.slc.cpg/sg38_11_cif.got.tgz:21360.got - 2010.04.14 02:38:36.
