data_PCOD8178377
_publ_section_title
;
Structure prediction by ZEFSAII (Michael W. Deem and Ramdas Pophale) SiO2 
 PCOD8178377
Probable space group: A M M 2
;
_chemical_formula_sum "Si O2"
_cell_formula_units_Z 40
_cell_length_a 11.546937
_cell_length_b 7.529858
_cell_length_c 23.296691
_cell_angle_alpha 90.000000
_cell_angle_beta 90.000000
_cell_angle_gamma 90.000000
_cell_volume 2025.572639
_symmetry_space_group_name_H-M "A M M 2"
_symmetry_group_IT_number 38
_symmetry_cell_setting 'orthorhombic'
loop_
_space_group_symop_operation_xyz
x,y,z
-x,-y,z
-x,y,z
x,-y,z
x,1/2+y,1/2+z
-x,1/2-y,1/2+z
-x,1/2+y,1/2+z
x,1/2-y,1/2+z
loop_
_atom_site_type_symbol
_atom_site_label
_atom_site_fract_x
_atom_site_fract_y
_atom_site_fract_z
Si Si1 0.368362 0.794278 0.114380
Si Si2 0.366268 0.000000 0.938713
Si Si3 0.760873 0.199416 0.506316
Si Si4 0.000000 0.797721 0.554087
Si Si5 0.755806 0.793208 0.232147
Si Si6 0.000000 0.706665 0.685847
Si Si7 0.366804 0.500000 0.303008
O O1 0.500000 0.739442 0.123301
O O2 0.315763 0.680047 0.063346
O O3 0.304688 0.746440 0.172701
O O4 0.353357 0.000000 0.097841
O O5 0.360473 0.000000 0.870899
O O6 0.500000 0.000000 0.960459
O O7 0.301465 0.823901 0.960246
O O8 0.884561 0.285953 0.525417
O O9 0.773037 0.000000 0.480421
O O10 0.000000 0.791935 0.623015
O O11 0.000000 0.000000 0.535698
O O12 0.698017 0.676766 0.281664
O O13 0.889783 0.738501 0.224085
O O14 0.740931 0.000000 0.248708
O O15 0.000000 0.500000 0.672565
O O16 0.500000 0.500000 0.281940
#
# Coordination Sequence:
#
# PCOD8178377 Si02
#       7
#     8   4   8   4   8   4   4
#     4  10  19  32  54  88 128 159 195 252 313 376
#     4  11  26  47  65  89 123 166 224 271 310 377
#     4  11  23  39  61  92 127 165 206 260 320 375
#     4  10  22  36  58  95 131 166 208 248 310 393
#     4  10  22  39  60  93 129 163 206 260 317 378
#     4  10  20  34  60  95 131 170 202 244 320 387
#     4  11  26  45  67  89 119 172 224 265 314 375
#
# _framework density 19.747502999999998
#
# number of rings (size 3 to 8) (size 9 to 14) (size 15 to 20)
#    0.000    1.600    3.000    1.200    4.200    3.600 
#    0.000    4.000    0.000    3.600    0.000    0.000 
#    0.000    0.000    0.000    0.000    0.000    0.000 
#
# Total GULP energy -248002.607987 kJ/mol
# GULP energy per Si atom -12400.130399 kJ/mol
# Density = 1.970256 g / cm^3
# Si number density = 19.747503 Si / 1000 Ang^3
#
#
#
# Elastic Constant Matrix: (Units=GPa)
#
#
# Indices 1 2 3 4 5 6 
#
# 1 161.5976 46.5498 52.9125 0.0000 0.0000 0.0000
# 2 46.5498 92.7043 41.4691 0.0000 0.0000 0.0000
# 3 52.9125 41.4691 80.5176 0.0000 0.0000 0.0000
# 4 0.0000 0.0000 0.0000 26.1062 0.0000 0.0000
# 5 0.0000 0.0000 0.0000 0.0000 -135.2276 0.0000
# 6 0.0000 0.0000 0.0000 0.0000 0.0000 25.0567
#
#
#
# Elastic Compliance Matrix: (Units=1/GPa)
#
#
# Indices 1 2 3 4 5 6 
#
# 1 0.008223 -0.002224 -0.004258 0.000000 0.000000 0.000000
# 2 -0.002224 0.014618 -0.006067 0.000000 0.000000 0.000000
# 3 -0.004258 -0.006067 0.018343 0.000000 0.000000 0.000000
# 4 0.000000 0.000000 0.000000 0.038305 0.000000 0.000000
# 5 0.000000 0.000000 0.000000 0.000000 -0.007395 0.000000
# 6 0.000000 0.000000 0.000000 0.000000 0.000000 0.039909
#
#
# Mechanical properties :
#
#
# Convention : Reuss Voigt Hill
#
# Bulk Modulus (GPa) = 62.17132 68.52027 65.34579
# Shear Modulus (GPa) = 35.09655 -3.88708 15.60473
#
# Velocity S-wave (km/s) = 4.22034 -1.40452 2.81412
# Velocity P-wave (km/s) = 7.43638 5.66951 6.61223
#
# Compressibility (1/GPa) = 0.01608459
#
# Stress axis : x y z
#
# Youngs Moduli (GPa) = 121.60610 68.40988 54.51754
#
# Poissons Ratio (x) = 0.15216 0.23216
# Poissons Ratio (y) = 0.27049 0.33075
# Poissons Ratio (z) = 0.51785 0.41504
#
# Static dielectric constant tensor:
#      x y z
#    x 4.880700 0.000000 0.000000 
#    y 0.000000 3.274980 0.000000 
#    z 0.000000 0.000000 3.245640 
# 
# 
# High freq. dielectric constant tensor:
#      x y z
#    x 1.792960 0.000000 0.000000 
#    y 0.000000 1.773400 0.000000 
#    z 0.000000 0.000000 1.738480 
# 
# From -- ./inp_files/20518.got.cif
#   From: 2010.03.12/outbox.cif.g09.slc.cpg/sg38_11_cif.got.tgz:20518.got - 2010.04.14 02:38:36.
