data_PCOD8178267
_publ_section_title
;
Structure prediction by ZEFSAII (Michael W. Deem and Ramdas Pophale) SiO2 
 PCOD8178267
Probable space group: A M M 2
;
_chemical_formula_sum "Si O2"
_cell_formula_units_Z 56
_cell_length_a 8.871046
_cell_length_b 23.226970
_cell_length_c 14.101410
_cell_angle_alpha 90.000000
_cell_angle_beta 90.000000
_cell_angle_gamma 90.000000
_cell_volume 2905.560549
_symmetry_space_group_name_H-M "A M M 2"
_symmetry_group_IT_number 38
_symmetry_cell_setting 'orthorhombic'
loop_
_space_group_symop_operation_xyz
x,y,z
-x,-y,z
-x,y,z
x,-y,z
x,1/2+y,1/2+z
-x,1/2-y,1/2+z
-x,1/2+y,1/2+z
x,1/2-y,1/2+z
loop_
_atom_site_type_symbol
_atom_site_label
_atom_site_fract_x
_atom_site_fract_y
_atom_site_fract_z
Si Si1 0.672184 0.164832 0.084740
Si Si2 0.173943 0.780723 0.590724
Si Si3 0.175178 0.222259 0.372228
Si Si4 0.678560 0.500000 0.876728
Si Si5 0.321550 0.841810 0.873003
Si Si6 0.320594 0.500000 0.094427
Si Si7 0.820827 0.392701 0.200118
Si Si8 0.325442 0.615060 0.777250
O O1 0.500000 0.182112 0.070303
O O2 0.750598 0.221930 0.125697
O O3 0.692141 0.113964 0.162265
O O4 0.734249 0.145993 0.981330
O O5 0.207836 0.792158 0.481138
O O6 0.236875 0.835009 0.648210
O O7 0.000000 0.773178 0.612840
O O8 0.268963 0.278262 0.340761
O O9 0.226930 0.167311 0.314369
O O10 0.000000 0.235065 0.352729
O O11 0.500000 0.500000 0.871952
O O12 0.739867 0.443808 0.821478
O O13 0.735358 0.500000 0.985099
O O14 0.500000 0.847916 0.860928
O O15 0.239039 0.889481 0.808105
O O16 0.500000 0.500000 0.100152
O O17 0.255892 0.555227 0.146174
O O18 0.000000 0.400577 0.197913
O O19 0.500000 0.624183 0.805966
#
# Coordination Sequence:
#
# PCOD8178267 Si02
#       8
#     8   8   8   4   8   4   8   8
#     4   9  19  33  52  78 108 139 175 217 264 313
#     4   9  19  33  51  76 108 141 174 213 266 323
#     4  10  19  32  51  79 110 141 175 217 268 322
#     4   9  20  37  58  81 106 136 177 223 266 313
#     4  10  20  35  53  78 109 141 177 219 264 318
#     4  11  23  39  58  81 106 138 177 219 264 317
#     4  11  22  37  56  79 107 143 181 222 269 316
#     4  10  19  34  54  77 105 141 180 221 267 317
#
# _framework density 19.273389000000002
#
# number of rings (size 3 to 8) (size 9 to 14) (size 15 to 20)
#    0.000    2.143    0.000    3.214    0.000    5.143 
#    0.000    1.786    0.000    2.571    0.000    0.000 
#    0.000    0.000    0.000    0.000    0.000    0.000 
#
# Total GULP energy -347204.430442 kJ/mol
# GULP energy per Si atom -12400.158230 kJ/mol
# Density = 1.922952 g / cm^3
# Si number density = 19.273389 Si / 1000 Ang^3
#
#
#
# Elastic Constant Matrix: (Units=GPa)
#
#
# Indices 1 2 3 4 5 6 
#
# 1 58.0837 32.4061 37.6464 0.0000 0.0000 0.0000
# 2 32.4061 105.0594 87.3933 0.0000 0.0000 0.0000
# 3 37.6464 87.3933 125.5335 0.0000 0.0000 0.0000
# 4 0.0000 0.0000 0.0000 35.0300 0.0000 0.0000
# 5 0.0000 0.0000 0.0000 0.0000 23.5230 0.0000
# 6 0.0000 0.0000 0.0000 0.0000 0.0000 19.6813
#
#
#
# Elastic Compliance Matrix: (Units=1/GPa)
#
#
# Indices 1 2 3 4 5 6 
#
# 1 0.021775 -0.003052 -0.004405 0.000000 0.000000 0.000000
# 2 -0.003052 0.023043 -0.015127 0.000000 0.000000 0.000000
# 3 -0.004405 -0.015127 0.019818 0.000000 0.000000 0.000000
# 4 0.000000 0.000000 0.000000 0.028547 0.000000 0.000000
# 5 0.000000 0.000000 0.000000 0.000000 0.042512 0.000000
# 6 0.000000 0.000000 0.000000 0.000000 0.000000 0.050810
#
#
# Mechanical properties :
#
#
# Convention : Reuss Voigt Hill
#
# Bulk Modulus (GPa) = 51.36752 67.06313 59.21533
# Shear Modulus (GPa) = 20.99426 24.39557 22.69491
#
# Velocity S-wave (km/s) = 3.30402 3.56162 3.43523
# Velocity P-wave (km/s) = 6.42380 7.19616 6.82092
#
# Compressibility (1/GPa) = 0.01946756
#
# Stress axis : x y z
#
# Youngs Moduli (GPa) = 45.92524 43.39748 50.45948
#
# Poissons Ratio (x) = 0.13245 0.22229
# Poissons Ratio (y) = 0.14016 0.76328
# Poissons Ratio (z) = 0.20231 0.65646
#
# Static dielectric constant tensor:
#      x y z
#    x 3.417190 0.000000 0.000000 
#    y 0.000000 3.554170 0.000000 
#    z 0.000000 0.000000 3.871220 
# 
# 
# High freq. dielectric constant tensor:
#      x y z
#    x 1.742890 0.000000 0.000000 
#    y 0.000000 1.729420 0.000000 
#    z 0.000000 0.000000 1.768930 
# 
# From -- ./inp_files/12455.got.cif
#   From: 2010.03.12/outbox.cif.g09.slc.cpg/sg38_7_cif.got.tgz:12455.got - 2010.04.14 02:38:36.
