data_PCOD8178863
_publ_section_title
;
Structure prediction by ZEFSAII (Michael W. Deem and Ramdas Pophale) SiO2 
 PCOD8178863
Probable space group: A M M 2
;
_chemical_formula_sum "Si O2"
_cell_formula_units_Z 56
_cell_length_a 14.561738
_cell_length_b 21.146314
_cell_length_c 9.626847
_cell_angle_alpha 90.000000
_cell_angle_beta 90.000000
_cell_angle_gamma 90.000000
_cell_volume 2964.366926
_symmetry_space_group_name_H-M "A M M 2"
_symmetry_group_IT_number 38
_symmetry_cell_setting 'orthorhombic'
loop_
_space_group_symop_operation_xyz
x,y,z
-x,-y,z
-x,y,z
x,-y,z
x,1/2+y,1/2+z
-x,1/2-y,1/2+z
-x,1/2+y,1/2+z
x,1/2-y,1/2+z
loop_
_atom_site_type_symbol
_atom_site_label
_atom_site_fract_x
_atom_site_fract_y
_atom_site_fract_z
Si Si1 0.295205 0.739908 0.474540
Si Si2 0.397510 0.699020 0.217667
Si Si3 0.897477 0.928296 0.194347
Si Si4 0.393844 0.573948 0.683260
Si Si5 0.697533 0.572149 0.178426
Si Si6 0.249583 0.624610 0.893886
Si Si7 0.759979 0.105643 0.971362
O O1 0.378347 0.716196 0.376849
O O2 0.332920 0.756281 0.626049
O O3 0.243595 0.800541 0.415012
O O4 0.224643 0.681369 0.483429
O O5 0.500000 0.716236 0.178052
O O6 0.383483 0.624115 0.187986
O O7 0.841282 0.890172 0.308502
O O8 0.000000 0.899896 0.179637
O O9 0.902262 0.000000 0.245147
O O10 0.845624 0.926572 0.046911
O O11 0.500000 0.597382 0.670187
O O12 0.391107 0.500000 0.715232
O O13 0.343742 0.608341 0.811973
O O14 0.338412 0.587847 0.541346
O O15 0.659324 0.500000 0.175142
O O16 0.762432 0.581584 0.312910
O O17 0.754568 0.586073 0.038290
#
# Coordination Sequence:
#
# PCOD8178863 Si02
#       7
#     8   8   8   8   8   8   8
#     4  10  21  34  51  72 100 140 178 210 258 306
#     4  10  20  32  48  71 100 136 179 222 253 291
#     4  10  20  37  63  87 102 126 169 217 264 312
#     4  10  20  34  54  78 104 142 189 230 267 304
#     4  10  20  33  50  73 104 141 169 203 265 318
#     4  10  20  36  55  77 107 139 172 217 259 307
#     4  10  20  36  55  77 107 139 172 217 259 307
#
# _framework density 18.891048000000001
#
# number of rings (size 3 to 8) (size 9 to 14) (size 15 to 20)
#    0.000    2.000    0.000    5.571    0.000    7.143 
#    0.000    1.429    0.000    2.571    0.000    0.000 
#    0.000    0.000    0.000    0.000    0.000    0.000 
#
# Total GULP energy -347137.718031 kJ/mol
# GULP energy per Si atom -12397.775644 kJ/mol
# Density = 1.884805 g / cm^3
# Si number density = 18.891048 Si / 1000 Ang^3
#
#
#
# Elastic Constant Matrix: (Units=GPa)
#
#
# Indices 1 2 3 4 5 6 
#
# 1 116.0585 12.1707 33.9125 0.0000 0.0000 0.0000
# 2 12.1707 104.0395 6.0868 0.0000 0.0000 0.0000
# 3 33.9125 6.0868 102.8128 0.0000 0.0000 0.0000
# 4 0.0000 0.0000 0.0000 30.6259 0.0000 0.0000
# 5 0.0000 0.0000 0.0000 0.0000 8.9980 0.0000
# 6 0.0000 0.0000 0.0000 0.0000 0.0000 16.3165
#
#
#
# Elastic Compliance Matrix: (Units=1/GPa)
#
#
# Indices 1 2 3 4 5 6 
#
# 1 0.009627 -0.000944 -0.003120 0.000000 0.000000 0.000000
# 2 -0.000944 0.009738 -0.000265 0.000000 0.000000 0.000000
# 3 -0.003120 -0.000265 0.010771 0.000000 0.000000 0.000000
# 4 0.000000 0.000000 0.000000 0.032652 0.000000 0.000000
# 5 0.000000 0.000000 0.000000 0.000000 0.111136 0.000000
# 6 0.000000 0.000000 0.000000 0.000000 0.000000 0.061288
#
#
# Mechanical properties :
#
#
# Convention : Reuss Voigt Hill
#
# Bulk Modulus (GPa) = 46.55766 47.47232 47.01499
# Shear Modulus (GPa) = 19.91813 29.23746 24.57780
#
# Velocity S-wave (km/s) = 3.25063 3.93834 3.61089
# Velocity P-wave (km/s) = 6.22797 6.77235 6.50586
#
# Compressibility (1/GPa) = 0.02147874
#
# Stress axis : x y z
#
# Youngs Moduli (GPa) = 103.87629 102.69423 92.84120
#
# Poissons Ratio (x) = 0.09691 0.28962
# Poissons Ratio (y) = 0.09802 0.02462
# Poissons Ratio (z) = 0.32404 0.02724
#
# Static dielectric constant tensor:
#      x y z
#    x 3.144030 0.000000 0.000000 
#    y 0.000000 3.669010 0.000000 
#    z 0.000000 0.000000 3.626440 
# 
# 
# High freq. dielectric constant tensor:
#      x y z
#    x 1.685160 0.000000 0.000000 
#    y 0.000000 1.753520 0.000000 
#    z 0.000000 0.000000 1.747850 
# 
# From -- ./inp_files/5683.got.cif
#   From: 2010.03.12/outbox.cif.g09.slc.cpg/sg38_3_cif.got.tgz:5683.got - 2010.04.14 02:38:36.
