data_PCOD8178689
_publ_section_title
;
Structure prediction by ZEFSAII (Michael W. Deem and Ramdas Pophale) SiO2 
 PCOD8178689
Probable space group: A M M 2
;
_chemical_formula_sum "Si O2"
_cell_formula_units_Z 56
_cell_length_a 16.344216
_cell_length_b 9.227286
_cell_length_c 20.022360
_cell_angle_alpha 90.000000
_cell_angle_beta 90.000000
_cell_angle_gamma 90.000000
_cell_volume 3019.627283
_symmetry_space_group_name_H-M "A M M 2"
_symmetry_group_IT_number 38
_symmetry_cell_setting 'orthorhombic'
loop_
_space_group_symop_operation_xyz
x,y,z
-x,-y,z
-x,y,z
x,-y,z
x,1/2+y,1/2+z
-x,1/2-y,1/2+z
-x,1/2+y,1/2+z
x,1/2-y,1/2+z
loop_
_atom_site_type_symbol
_atom_site_label
_atom_site_fract_x
_atom_site_fract_y
_atom_site_fract_z
Si Si1 0.344369 0.832083 0.836390
Si Si2 0.231232 0.832939 0.715508
Si Si3 0.907240 0.665075 0.778737
Si Si4 0.907447 0.170653 0.430632
Si Si5 0.752608 0.668638 0.470529
Si Si6 0.500000 0.672866 0.798703
Si Si7 0.668273 0.832065 0.586432
Si Si8 0.500000 0.669713 0.157056
O O1 0.298000 0.783819 0.769452
O O2 0.285002 0.802210 0.898090
O O3 0.422711 0.728771 0.841096
O O4 0.371919 0.000000 0.833382
O O5 0.146584 0.750949 0.725808
O O6 0.264644 0.797252 0.642548
O O7 0.211687 0.000000 0.725344
O O8 0.878725 0.500000 0.777079
O O9 0.897297 0.723701 0.854202
O O10 0.000000 0.682378 0.754690
O O11 0.841520 0.255266 0.475722
O O12 0.000000 0.206529 0.455032
O O13 0.891064 0.000000 0.436822
O O14 0.764323 0.500000 0.485588
O O15 0.689073 0.734418 0.523154
O O16 0.500000 0.500000 0.794857
O O17 0.500000 0.738629 0.724557
O O18 0.578795 0.789745 0.613205
O O19 0.670700 0.000000 0.565621
O O20 0.500000 0.500000 0.177097
#
# Coordination Sequence:
#
# PCOD8178689 Si02
#       8
#     8   8   8   8   8   4   8   4
#     4  10  21  39  59  81 115 151 185 230 287 341
#     4  10  19  35  59  84 110 147 191 230 275 336
#     4   9  18  32  53  84 119 150 183 234 291 331
#     4   9  18  34  57  84 115 151 189 231 283 344
#     4  11  23  38  58  86 118 151 188 238 289 335
#     4  12  24  35  58  93 117 143 191 245 286 328
#     4  10  22  39  61  83 112 155 193 230 282 344
#     4  10  20  41  64  81 111 155 193 231 284 346
#
# _framework density 18.545335000000001
#
# number of rings (size 3 to 8) (size 9 to 14) (size 15 to 20)
#    0.000    2.000    2.857    1.929    0.000    4.000 
#    0.000    3.571    0.000    0.857    0.000    0.000 
#    0.000    0.000    0.000    0.000    0.000    0.000 
#
# Total GULP energy -347264.524626 kJ/mol
# GULP energy per Si atom -12402.304451 kJ/mol
# Density = 1.850313 g / cm^3
# Si number density = 18.545335 Si / 1000 Ang^3
#
#
#
# Elastic Constant Matrix: (Units=GPa)
#
#
# Indices 1 2 3 4 5 6 
#
# 1 108.4881 55.2123 22.7238 0.0000 0.0000 0.0000
# 2 55.2123 78.8889 33.1864 0.0000 0.0000 0.0000
# 3 22.7238 33.1864 41.8156 0.0000 0.0000 0.0000
# 4 0.0000 0.0000 0.0000 31.0698 0.0000 0.0000
# 5 0.0000 0.0000 0.0000 0.0000 25.5123 0.0000
# 6 0.0000 0.0000 0.0000 0.0000 0.0000 32.3541
#
#
#
# Elastic Compliance Matrix: (Units=1/GPa)
#
#
# Indices 1 2 3 4 5 6 
#
# 1 0.014319 -0.010130 0.000258 0.000000 0.000000 0.000000
# 2 -0.010130 0.026196 -0.015285 0.000000 0.000000 0.000000
# 3 0.000258 -0.015285 0.035905 0.000000 0.000000 0.000000
# 4 0.000000 0.000000 0.000000 0.032186 0.000000 0.000000
# 5 0.000000 0.000000 0.000000 0.000000 0.039197 0.000000
# 6 0.000000 0.000000 0.000000 0.000000 0.000000 0.030908
#
#
# Mechanical properties :
#
#
# Convention : Reuss Voigt Hill
#
# Bulk Modulus (GPa) = 38.30525 50.15973 44.23249
# Shear Modulus (GPa) = 21.03265 25.65858 23.34562
#
# Velocity S-wave (km/s) = 3.37132 3.72366 3.55186
# Velocity P-wave (km/s) = 5.98784 6.75228 6.38152
#
# Compressibility (1/GPa) = 0.02610609
#
# Stress axis : x y z
#
# Youngs Moduli (GPa) = 69.83740 38.17404 27.85136
#
# Poissons Ratio (x) = 0.38671 -0.00719
# Poissons Ratio (y) = 0.70746 0.42571
# Poissons Ratio (z) = -0.01804 0.58349
#
# Static dielectric constant tensor:
#      x y z
#    x 3.486650 0.000000 0.000000 
#    y 0.000000 3.306410 0.000000 
#    z 0.000000 0.000000 3.237850 
# 
# 
# High freq. dielectric constant tensor:
#      x y z
#    x 1.731300 0.000000 0.000000 
#    y 0.000000 1.712590 0.000000 
#    z 0.000000 0.000000 1.702280 
# 
# From -- ./inp_files/21134.got.cif
#   From: 2010.03.12/outbox.cif.g09.slc.cpg/sg38_11_cif.got.tgz:21134.got - 2010.04.14 02:38:36.
