data_PCOD8178517
_publ_section_title
;
Structure prediction by ZEFSAII (Michael W. Deem and Ramdas Pophale) SiO2 
 PCOD8178517
Probable space group: A M M 2
;
_chemical_formula_sum "Si O2"
_cell_formula_units_Z 64
_cell_length_a 23.763211
_cell_length_b 9.079338
_cell_length_c 15.546438
_cell_angle_alpha 90.000000
_cell_angle_beta 90.000000
_cell_angle_gamma 90.000000
_cell_volume 3354.209677
_symmetry_space_group_name_H-M "A M M 2"
_symmetry_group_IT_number 38
_symmetry_cell_setting 'orthorhombic'
loop_
_space_group_symop_operation_xyz
x,y,z
-x,-y,z
-x,y,z
x,-y,z
x,1/2+y,1/2+z
-x,1/2-y,1/2+z
-x,1/2+y,1/2+z
x,1/2-y,1/2+z
loop_
_atom_site_type_symbol
_atom_site_label
_atom_site_fract_x
_atom_site_fract_y
_atom_site_fract_z
Si Si1 0.133638 0.324708 0.847710
Si Si2 0.062465 0.174887 0.188060
Si Si3 0.324357 0.329437 0.022475
Si Si4 0.260571 0.325194 0.853238
Si Si5 0.436069 0.170936 0.760524
Si Si6 0.562612 0.166635 0.435388
Si Si7 0.667642 0.674449 0.691753
Si Si8 0.065915 0.170192 0.995510
O O1 0.132426 0.500000 0.849236
O O2 0.104787 0.263234 0.760399
O O3 0.197179 0.263705 0.849475
O O4 0.100986 0.269142 0.930837
O O5 0.000000 0.238324 0.206890
O O6 0.059858 0.000000 0.191709
O O7 0.082260 0.221489 0.092380
O O8 0.310655 0.500000 0.039561
O O9 0.391211 0.304063 0.008493
O O10 0.304629 0.235255 0.104287
O O11 0.290287 0.269043 0.940120
O O12 0.260912 0.500000 0.851172
O O13 0.295065 0.266208 0.771148
O O14 0.500000 0.201105 0.730870
O O15 0.395345 0.262390 0.698668
O O16 0.420560 0.000000 0.753610
O O17 0.427316 0.220880 0.858380
O O18 0.500000 0.186874 0.475174
O O19 0.570416 0.000000 0.399080
O O20 0.665563 0.500000 0.688339
O O21 0.000000 0.196332 0.979557
O O22 0.081575 0.000000 0.981063
#
# Coordination Sequence:
#
# PCOD8178517 Si02
#       8
#     8   8   8   8   8   8   8   8
#     4  10  19  33  56  80 103 140 187 227 260 310
#     4   8  15  29  50  76 106 140 176 212 257 315
#     4  10  20  37  56  77 108 145 180 224 279 329
#     4   9  20  38  55  75 109 145 179 223 275 319
#     4  10  20  34  55  83 112 140 174 220 274 330
#     4   9  17  32  56  80 105 142 180 216 268 331
#     4  11  22  38  58  81 107 142 185 227 271 326
#     4   9  18  33  52  77 111 144 173 217 276 326
#
# _framework density 19.080501000000002
#
# number of rings (size 3 to 8) (size 9 to 14) (size 15 to 20)
#    0.000    2.500    1.250    1.875    0.000    3.500 
#    0.000    5.000    0.000    0.750    0.000    0.000 
#    0.000    0.000    0.000    0.000    0.000    0.000 
#
# Total GULP energy -396769.385959 kJ/mol
# GULP energy per Si atom -12399.043311 kJ/mol
# Density = 1.903707 g / cm^3
# Si number density = 19.080501 Si / 1000 Ang^3
#
#
#
# Elastic Constant Matrix: (Units=GPa)
#
#
# Indices 1 2 3 4 5 6 
#
# 1 113.8400 32.3918 74.5974 0.0000 0.0000 0.0000
# 2 32.3918 47.8018 40.4821 0.0000 0.0000 0.0000
# 3 74.5974 40.4821 154.9201 0.0000 0.0000 0.0000
# 4 0.0000 0.0000 0.0000 32.7653 0.0000 0.0000
# 5 0.0000 0.0000 0.0000 0.0000 14.3549 0.0000
# 6 0.0000 0.0000 0.0000 0.0000 0.0000 19.3137
#
#
#
# Elastic Compliance Matrix: (Units=1/GPa)
#
#
# Indices 1 2 3 4 5 6 
#
# 1 0.013615 -0.004718 -0.005323 0.000000 0.000000 0.000000
# 2 -0.004718 0.028500 -0.005175 0.000000 0.000000 0.000000
# 3 -0.005323 -0.005175 0.010370 0.000000 0.000000 0.000000
# 4 0.000000 0.000000 0.000000 0.030520 0.000000 0.000000
# 5 0.000000 0.000000 0.000000 0.000000 0.069663 0.000000
# 6 0.000000 0.000000 0.000000 0.000000 0.000000 0.051777
#
#
# Mechanical properties :
#
#
# Convention : Reuss Voigt Hill
#
# Bulk Modulus (GPa) = 45.34687 67.94494 56.64590
# Shear Modulus (GPa) = 20.64175 24.55948 22.60062
#
# Velocity S-wave (km/s) = 3.29268 3.59158 3.44537
# Velocity P-wave (km/s) = 6.18654 7.27229 6.75128
#
# Compressibility (1/GPa) = 0.02205224
#
# Stress axis : x y z
#
# Youngs Moduli (GPa) = 73.44993 35.08820 96.42769
#
# Poissons Ratio (x) = 0.16554 0.51328
# Poissons Ratio (y) = 0.34652 0.49906
# Poissons Ratio (z) = 0.39097 0.18160
#
# Static dielectric constant tensor:
#      x y z
#    x 3.756880 0.000000 0.000000 
#    y 0.000000 3.178240 0.000000 
#    z 0.000000 0.000000 3.535200 
# 
# 
# High freq. dielectric constant tensor:
#      x y z
#    x 1.742140 0.000000 0.000000 
#    y 0.000000 1.710110 0.000000 
#    z 0.000000 0.000000 1.745010 
# 
# From -- ./inp_files/15849.got.cif
#   From: 2010.03.12/outbox.cif.g09.slc.cpg/sg38_8_cif.got.tgz:15849.got - 2010.04.14 02:38:36.
