data_PCOD8178076
_publ_section_title
;
Structure prediction by ZEFSAII (Michael W. Deem and Ramdas Pophale) SiO2 
 PCOD8178076
Probable space group: A M M 2
;
_chemical_formula_sum "Si O2"
_cell_formula_units_Z 48
_cell_length_a 21.499576
_cell_length_b 8.959335
_cell_length_c 14.269388
_cell_angle_alpha 90.000000
_cell_angle_beta 90.000000
_cell_angle_gamma 90.000000
_cell_volume 2748.596682
_symmetry_space_group_name_H-M "A M M 2"
_symmetry_group_IT_number 38
_symmetry_cell_setting 'orthorhombic'
loop_
_space_group_symop_operation_xyz
x,y,z
-x,-y,z
-x,y,z
x,-y,z
x,1/2+y,1/2+z
-x,1/2-y,1/2+z
-x,1/2+y,1/2+z
x,1/2-y,1/2+z
loop_
_atom_site_type_symbol
_atom_site_label
_atom_site_fract_x
_atom_site_fract_y
_atom_site_fract_z
Si Si1 0.000000 0.178516 0.092310
Si Si2 0.235169 0.823148 0.451708
Si Si3 0.904905 0.177738 0.457273
Si Si4 0.667142 0.823678 0.601908
Si Si5 0.000000 0.175086 0.302810
Si Si6 0.569194 0.322822 0.951819
Si Si7 0.667348 0.323324 0.802390
O O1 0.938138 0.242092 0.044004
O O2 0.000000 0.242700 0.198600
O O3 0.000000 0.000000 0.086985
O O4 0.165286 0.759906 0.452299
O O5 0.271553 0.771047 0.545046
O O6 0.271781 0.767197 0.359306
O O7 0.233567 0.000000 0.449174
O O8 0.938768 0.224899 0.360571
O O9 0.908441 0.000000 0.472770
O O10 0.606133 0.770544 0.544589
O O11 0.667058 0.748183 0.701577
O O12 0.667011 0.000000 0.615134
O O13 0.000000 0.000000 0.291303
O O14 0.500000 0.252169 0.951948
O O15 0.565685 0.500000 0.951843
O O16 0.605958 0.270333 0.858916
O O17 0.668153 0.500000 0.791722
#
# Coordination Sequence:
#
# PCOD8178076 Si02
#       7
#     4   8   8   8   4   8   8
#     4  10  19  31  46  71 100 117 139 186 238 268
#     4   8  16  31  49  66  88 120 156 187 219 270
#     4   9  17  33  52  66  85 122 162 184 210 268
#     4   9  17  30  47  68  93 120 151 190 233 272
#     4   8  16  29  46  65  86 113 143 176 216 262
#     4   8  15  29  47  65  90 126 161 188 222 274
#     4   9  17  30  48  69  91 119 155 192 228 269
#
# _framework density 17.463456000000001
#
# number of rings (size 3 to 8) (size 9 to 14) (size 15 to 20)
#    0.000    3.333    0.000    2.750    0.000    2.000 
#    0.000   10.000    0.000    1.000    0.000    0.000 
#    0.000    0.000    0.000    0.000    0.000    0.000 
#
# Total GULP energy -297453.746607 kJ/mol
# GULP energy per Si atom -12393.906109 kJ/mol
# Density = 1.742371 g / cm^3
# Si number density = 17.463456 Si / 1000 Ang^3
#
#
#
# Elastic Constant Matrix: (Units=GPa)
#
#
# Indices 1 2 3 4 5 6 
#
# 1 193.4711 26.1670 98.4962 0.0000 0.0000 0.0000
# 2 26.1670 26.1314 33.1350 0.0000 0.0000 0.0000
# 3 98.4962 33.1350 189.9193 0.0000 0.0000 0.0000
# 4 0.0000 0.0000 0.0000 31.9634 0.0000 0.0000
# 5 0.0000 0.0000 0.0000 0.0000 13.9018 0.0000
# 6 0.0000 0.0000 0.0000 0.0000 0.0000 14.8867
#
#
#
# Elastic Compliance Matrix: (Units=1/GPa)
#
#
# Indices 1 2 3 4 5 6 
#
# 1 0.007224 -0.003189 -0.003190 0.000000 0.000000 0.000000
# 2 -0.003189 0.050547 -0.007165 0.000000 0.000000 0.000000
# 3 -0.003190 -0.007165 0.008170 0.000000 0.000000 0.000000
# 4 0.000000 0.000000 0.000000 0.031286 0.000000 0.000000
# 5 0.000000 0.000000 0.000000 0.000000 0.071933 0.000000
# 6 0.000000 0.000000 0.000000 0.000000 0.000000 0.067174
#
#
# Mechanical properties :
#
#
# Convention : Reuss Voigt Hill
#
# Bulk Modulus (GPa) = 25.73819 80.56867 53.15343
# Shear Modulus (GPa) = 18.09147 28.93195 23.51171
#
# Velocity S-wave (km/s) = 3.22213 4.07469 3.67323
# Velocity P-wave (km/s) = 5.34912 8.26881 6.96370
#
# Compressibility (1/GPa) = 0.03885277
#
# Stress axis : x y z
#
# Youngs Moduli (GPa) = 138.42412 19.78369 122.39860
#
# Poissons Ratio (x) = 0.06308 0.39049
# Poissons Ratio (y) = 0.44139 0.87700
# Poissons Ratio (z) = 0.44161 0.14175
#
# Static dielectric constant tensor:
#      x y z
#    x 3.774270 0.000000 0.000000 
#    y 0.000000 2.790670 0.000000 
#    z 0.000000 0.000000 3.444990 
# 
# 
# High freq. dielectric constant tensor:
#      x y z
#    x 1.684030 0.000000 0.000000 
#    y 0.000000 1.630460 0.000000 
#    z 0.000000 0.000000 1.679940 
# 
# From -- ./inp_files/10728.got.cif
#   From: 2010.03.12/outbox.cif.g09.slc.cpg/sg38_6_cif.got.tgz:10728.got - 2010.04.14 02:38:36.
