data_PCOD8178737
_publ_section_title
;
Structure prediction by ZEFSAII (Michael W. Deem and Ramdas Pophale) SiO2 
 PCOD8178737
Probable space group: A M M 2
;
_chemical_formula_sum "Si O2"
_cell_formula_units_Z 64
_cell_length_a 8.834820
_cell_length_b 24.725507
_cell_length_c 15.109069
_cell_angle_alpha 90.000000
_cell_angle_beta 90.000000
_cell_angle_gamma 90.000000
_cell_volume 3300.506678
_symmetry_space_group_name_H-M "A M M 2"
_symmetry_group_IT_number 38
_symmetry_cell_setting 'orthorhombic'
loop_
_space_group_symop_operation_xyz
x,y,z
-x,-y,z
-x,y,z
x,-y,z
x,1/2+y,1/2+z
-x,1/2-y,1/2+z
-x,1/2+y,1/2+z
x,1/2-y,1/2+z
loop_
_atom_site_type_symbol
_atom_site_label
_atom_site_fract_x
_atom_site_fract_y
_atom_site_fract_z
Si Si1 0.679060 0.643775 0.118140
Si Si2 0.679636 0.638622 0.759243
Si Si3 0.327757 0.239636 0.155566
Si Si4 0.173343 0.562321 0.247229
Si Si5 0.821193 0.838342 0.435361
Si Si6 0.672930 0.775317 0.953274
Si Si7 0.175342 0.115741 0.930222
Si Si8 0.324146 0.437183 0.599190
O O1 0.500000 0.648792 0.103376
O O2 0.745736 0.700331 0.158594
O O3 0.716984 0.595306 0.183226
O O4 0.753530 0.633750 0.022785
O O5 0.500000 0.640597 0.773660
O O6 0.745454 0.696117 0.722078
O O7 0.762791 0.626900 0.851712
O O8 0.723404 0.591538 0.690585
O O9 0.500000 0.246031 0.184278
O O10 0.313869 0.214922 0.057805
O O11 0.210392 0.500000 0.231286
O O12 0.207391 0.575535 0.349113
O O13 0.000000 0.576161 0.223503
O O14 0.766274 0.776831 0.423395
O O15 0.000000 0.840245 0.440946
O O16 0.500000 0.766636 0.923243
O O17 0.738367 0.828684 0.907210
O O18 0.000000 0.129533 0.941258
O O19 0.230678 0.086954 0.018542
O O20 0.500000 0.426818 0.578609
O O21 0.285787 0.500000 0.609996
#
# Coordination Sequence:
#
# PCOD8178737 Si02
#       8
#     8   8   8   8   8   8   8   8
#     4  10  21  39  62  88 113 149 200 249 297 348
#     4  10  19  36  58  84 118 157 199 246 294 343
#     4   8  16  32  55  82 111 146 187 234 288 339
#     4  10  23  42  60  82 117 158 197 242 298 355
#     4  11  23  38  57  87 122 156 194 241 299 362
#     4  10  19  36  58  84 118 157 196 237 287 344
#     4  11  22  36  57  88 123 159 195 236 292 357
#     4  10  21  38  61  87 117 157 205 251 292 340
#
# _framework density 19.390961000000001
#
# number of rings (size 3 to 8) (size 9 to 14) (size 15 to 20)
#    0.000    2.000    1.250    3.375    1.750    2.500 
#    0.000    1.250    0.000    2.250    0.000    0.000 
#    0.000    0.000    0.000    0.000    0.000    0.000 
#
# Total GULP energy -396826.517221 kJ/mol
# GULP energy per Si atom -12400.828663 kJ/mol
# Density = 1.934683 g / cm^3
# Si number density = 19.390961 Si / 1000 Ang^3
#
#
#
# Elastic Constant Matrix: (Units=GPa)
#
#
# Indices 1 2 3 4 5 6 
#
# 1 92.0337 38.9764 48.7335 0.0000 0.0000 0.0000
# 2 38.9764 95.0371 47.6936 0.0000 0.0000 0.0000
# 3 48.7335 47.6936 106.9666 0.0000 0.0000 0.0000
# 4 0.0000 0.0000 0.0000 30.9530 0.0000 0.0000
# 5 0.0000 0.0000 0.0000 0.0000 31.2596 0.0000
# 6 0.0000 0.0000 0.0000 0.0000 0.0000 26.5697
#
#
#
# Elastic Compliance Matrix: (Units=1/GPa)
#
#
# Indices 1 2 3 4 5 6 
#
# 1 0.015198 -0.003553 -0.005340 0.000000 0.000000 0.000000
# 2 -0.003553 0.014386 -0.004796 0.000000 0.000000 0.000000
# 3 -0.005340 -0.004796 0.013920 0.000000 0.000000 0.000000
# 4 0.000000 0.000000 0.000000 0.032307 0.000000 0.000000
# 5 0.000000 0.000000 0.000000 0.000000 0.031990 0.000000
# 6 0.000000 0.000000 0.000000 0.000000 0.000000 0.037637
#
#
# Mechanical properties :
#
#
# Convention : Reuss Voigt Hill
#
# Bulk Modulus (GPa) = 62.00951 62.76049 62.38500
# Shear Modulus (GPa) = 28.05988 28.33205 28.19597
#
# Velocity S-wave (km/s) = 3.80815 3.82658 3.81737
# Velocity P-wave (km/s) = 7.16826 7.20831 7.18831
#
# Compressibility (1/GPa) = 0.01612656
#
# Stress axis : x y z
#
# Youngs Moduli (GPa) = 65.79860 69.51187 71.84055
#
# Poissons Ratio (x) = 0.24699 0.38362
# Poissons Ratio (y) = 0.23379 0.34451
# Poissons Ratio (z) = 0.35135 0.33335
#
# Static dielectric constant tensor:
#      x y z
#    x 3.405400 0.000000 0.000000 
#    y 0.000000 3.552580 0.000000 
#    z 0.000000 0.000000 3.539170 
# 
# 
# High freq. dielectric constant tensor:
#      x y z
#    x 1.741030 0.000000 0.000000 
#    y 0.000000 1.749740 0.000000 
#    z 0.000000 0.000000 1.758700 
# 
# From -- ./inp_files/12812.got.cif
#   From: 2010.03.12/outbox.cif.g09.slc.cpg/sg38_7_cif.got.tgz:12812.got - 2010.04.14 02:38:36.
