data_PCOD8178314
_publ_section_title
;
Structure prediction by ZEFSAII (Michael W. Deem and Ramdas Pophale) SiO2 
 PCOD8178314
Probable space group: A M M 2
;
_chemical_formula_sum "Si O2"
_cell_formula_units_Z 64
_cell_length_a 18.545824
_cell_length_b 9.069607
_cell_length_c 20.713400
_cell_angle_alpha 90.000000
_cell_angle_beta 90.000000
_cell_angle_gamma 90.000000
_cell_volume 3484.062963
_symmetry_space_group_name_H-M "A M M 2"
_symmetry_group_IT_number 38
_symmetry_cell_setting 'orthorhombic'
loop_
_space_group_symop_operation_xyz
x,y,z
-x,-y,z
-x,y,z
x,-y,z
x,1/2+y,1/2+z
-x,1/2-y,1/2+z
-x,1/2+y,1/2+z
x,1/2-y,1/2+z
loop_
_atom_site_type_symbol
_atom_site_label
_atom_site_fract_x
_atom_site_fract_y
_atom_site_fract_z
Si Si1 0.830309 0.337339 0.571120
Si Si2 0.658929 0.833774 0.065787
Si Si3 0.670249 0.827227 0.437546
Si Si4 0.178799 0.174282 0.930418
Si Si5 0.172829 0.326815 0.194921
Si Si6 0.584195 0.331217 0.809073
Si Si7 0.919176 0.675456 0.313545
Si Si8 0.661934 0.325711 0.193975
O O1 0.859151 0.500000 0.587825
O O2 0.744538 0.335842 0.567768
O O3 0.856882 0.287649 0.500074
O O4 0.858771 0.229522 0.626708
O O5 0.629798 0.750251 0.129481
O O6 0.627593 0.000000 0.064636
O O7 0.635245 0.748280 0.000952
O O8 0.747499 0.760952 0.418795
O O9 0.617242 0.793860 0.378523
O O10 0.678984 0.000000 0.451607
O O11 0.121266 0.228105 0.877903
O O12 0.196043 0.000000 0.925570
O O13 0.166767 0.500000 0.194043
O O14 0.124330 0.260397 0.252281
O O15 0.255234 0.276233 0.205156
O O16 0.500000 0.299861 0.813729
O O17 0.600772 0.500000 0.789669
O O18 0.616970 0.224443 0.755499
O O19 0.921254 0.500000 0.310789
O O20 0.000000 0.740515 0.313296
O O21 0.655502 0.500000 0.185337
#
# Coordination Sequence:
#
# PCOD8178314 Si02
#       8
#     8   8   8   8   8   8   8   8
#     4   8  15  27  45  70  96 121 152 193 241 289
#     4   9  17  31  52  77 104 131 162 205 253 301
#     4  10  19  32  53  78 101 129 167 210 254 300
#     4   9  17  31  51  73  96 125 163 206 249 294
#     4   9  17  29  48  73  97 122 156 199 242 285
#     4  10  22  38  52  70 101 137 169 204 248 297
#     4   9  17  30  48  69  94 127 167 205 240 286
#     4  10  19  32  53  79 103 129 166 210 253 299
#
# _framework density 18.369357000000001
#
# number of rings (size 3 to 8) (size 9 to 14) (size 15 to 20)
#    0.000    2.750    0.000    2.625    0.000    5.750 
#    0.000    1.875    0.000    4.500    0.000    0.000 
#    0.000    0.000    0.000    0.000    0.000    0.000 
#
# Total GULP energy -396741.057158 kJ/mol
# GULP energy per Si atom -12398.158036 kJ/mol
# Density = 1.832755 g / cm^3
# Si number density = 18.369357 Si / 1000 Ang^3
#
#
#
# Elastic Constant Matrix: (Units=GPa)
#
#
# Indices 1 2 3 4 5 6 
#
# 1 76.0201 34.8201 63.9578 0.0000 0.0000 0.0000
# 2 34.8201 67.4098 57.4740 0.0000 0.0000 0.0000
# 3 63.9578 57.4740 172.3860 0.0000 0.0000 0.0000
# 4 0.0000 0.0000 0.0000 35.1124 0.0000 0.0000
# 5 0.0000 0.0000 0.0000 0.0000 2.5836 0.0000
# 6 0.0000 0.0000 0.0000 0.0000 0.0000 14.6270
#
#
#
# Elastic Compliance Matrix: (Units=1/GPa)
#
#
# Indices 1 2 3 4 5 6 
#
# 1 0.020612 -0.005766 -0.005725 0.000000 0.000000 0.000000
# 2 -0.005766 0.022339 -0.005309 0.000000 0.000000 0.000000
# 3 -0.005725 -0.005309 0.009695 0.000000 0.000000 0.000000
# 4 0.000000 0.000000 0.000000 0.028480 0.000000 0.000000
# 5 0.000000 0.000000 0.000000 0.000000 0.387053 0.000000
# 6 0.000000 0.000000 0.000000 0.000000 0.000000 0.068367
#
#
# Mechanical properties :
#
#
# Convention : Reuss Voigt Hill
#
# Bulk Modulus (GPa) = 52.50177 69.81331 61.15754
# Shear Modulus (GPa) = 8.67312 21.10221 14.88766
#
# Velocity S-wave (km/s) = 2.17526 3.39303 2.84995
# Velocity P-wave (km/s) = 5.91204 7.31013 6.64794
#
# Compressibility (1/GPa) = 0.01904698
#
# Stress axis : x y z
#
# Youngs Moduli (GPa) = 48.51541 44.76435 103.14636
#
# Poissons Ratio (x) = 0.25810 0.59052
# Poissons Ratio (y) = 0.27973 0.54758
# Poissons Ratio (z) = 0.27775 0.23764
#
# Static dielectric constant tensor:
#      x y z
#    x 3.138250 0.000000 0.000000 
#    y 0.000000 3.313400 0.000000 
#    z 0.000000 0.000000 3.759180 
# 
# 
# High freq. dielectric constant tensor:
#      x y z
#    x 1.675000 0.000000 0.000000 
#    y 0.000000 1.700110 0.000000 
#    z 0.000000 0.000000 1.732680 
# 
# From -- ./inp_files/21359.got.cif
#   From: 2010.03.12/outbox.cif.g09.slc.cpg/sg38_11_cif.got.tgz:21359.got - 2010.04.14 02:38:36.
