data_PCOD8178402
_publ_section_title
;
Structure prediction by ZEFSAII (Michael W. Deem and Ramdas Pophale) SiO2 
 PCOD8178402
Probable space group: A M M 2
;
_chemical_formula_sum "Si O2"
_cell_formula_units_Z 64
_cell_length_a 8.621395
_cell_length_b 29.854490
_cell_length_c 14.742954
_cell_angle_alpha 90.000000
_cell_angle_beta 90.000000
_cell_angle_gamma 90.000000
_cell_volume 3794.649873
_symmetry_space_group_name_H-M "A M M 2"
_symmetry_group_IT_number 38
_symmetry_cell_setting 'orthorhombic'
loop_
_space_group_symop_operation_xyz
x,y,z
-x,-y,z
-x,y,z
x,-y,z
x,1/2+y,1/2+z
-x,1/2-y,1/2+z
-x,1/2+y,1/2+z
x,1/2-y,1/2+z
loop_
_atom_site_type_symbol
_atom_site_label
_atom_site_fract_x
_atom_site_fract_y
_atom_site_fract_z
Si Si1 0.686153 0.700117 0.078560
Si Si2 0.681521 0.550709 0.291247
Si Si3 0.682604 0.212548 0.186769
Si Si4 0.818024 0.364645 0.216992
Si Si5 0.823080 0.138691 0.067897
Si Si6 0.819961 0.550195 0.483338
Si Si7 0.673320 0.673796 0.394139
Si Si8 0.672901 0.721519 0.884667
O O1 0.500000 0.698436 0.081740
O O2 0.747799 0.745179 0.129652
O O3 0.760304 0.655923 0.122349
O O4 0.749690 0.699621 0.974472
O O5 0.500000 0.556783 0.275455
O O6 0.735609 0.500000 0.271452
O O7 0.773189 0.582902 0.222134
O O8 0.720607 0.563767 0.395028
O O9 0.500000 0.218958 0.195509
O O10 0.716866 0.165230 0.138647
O O11 0.758359 0.211573 0.288372
O O12 0.727165 0.337800 0.293870
O O13 0.000000 0.358319 0.228324
O O14 0.000000 0.147719 0.095268
O O15 0.784913 0.085149 0.065424
O O16 0.795098 0.154861 0.965708
O O17 0.776940 0.500000 0.516579
O O18 0.000000 0.553406 0.455091
O O19 0.500000 0.654269 0.410854
O O20 0.668177 0.726378 0.405049
O O21 0.500000 0.702015 0.876367
#
# Coordination Sequence:
#
# PCOD8178402 Si02
#       8
#     8   8   8   8   8   8   8   8
#     4  10  19  34  53  71  95 131 174 211 243 294
#     4  10  20  33  51  74  98 129 169 206 242 294
#     4  10  19  33  52  72  97 133 172 207 249 297
#     4  12  23  33  47  74 105 136 167 203 255 303
#     4  11  21  31  46  74 103 132 168 206 252 301
#     4   9  18  32  48  68  99 134 164 202 252 300
#     4  11  19  32  51  70  97 135 174 208 241 289
#     4   9  18  33  51  71  94 129 174 212 247 285
#
# _framework density 16.865850999999999
#
# number of rings (size 3 to 8) (size 9 to 14) (size 15 to 20)
#    0.000    1.750    3.750    2.250    0.000    1.750 
#    0.000    0.625    0.000    0.000    0.000    0.875 
#    0.000    5.000    0.000    0.000    0.000    0.000 
#
# Total GULP energy -396669.105672 kJ/mol
# GULP energy per Si atom -12395.909552 kJ/mol
# Density = 1.682746 g / cm^3
# Si number density = 16.865851 Si / 1000 Ang^3
#
#
#
# Elastic Constant Matrix: (Units=GPa)
#
#
# Indices 1 2 3 4 5 6 
#
# 1 36.1515 17.6009 10.7053 0.0000 0.0000 0.0000
# 2 17.6009 90.4713 41.7735 0.0000 0.0000 0.0000
# 3 10.7053 41.7735 93.5577 0.0000 0.0000 0.0000
# 4 0.0000 0.0000 0.0000 24.7638 0.0000 0.0000
# 5 0.0000 0.0000 0.0000 0.0000 15.8196 0.0000
# 6 0.0000 0.0000 0.0000 0.0000 0.0000 21.7896
#
#
#
# Elastic Compliance Matrix: (Units=1/GPa)
#
#
# Indices 1 2 3 4 5 6 
#
# 1 0.030639 -0.005470 -0.001064 0.000000 0.000000 0.000000
# 2 -0.005470 0.014900 -0.006027 0.000000 0.000000 0.000000
# 3 -0.001064 -0.006027 0.013501 0.000000 0.000000 0.000000
# 4 0.000000 0.000000 0.000000 0.040382 0.000000 0.000000
# 5 0.000000 0.000000 0.000000 0.000000 0.063213 0.000000
# 6 0.000000 0.000000 0.000000 0.000000 0.000000 0.045893
#
#
# Mechanical properties :
#
#
# Convention : Reuss Voigt Hill
#
# Bulk Modulus (GPa) = 29.48103 40.03775 34.75939
# Shear Modulus (GPa) = 20.41181 22.48132 21.44656
#
# Velocity S-wave (km/s) = 3.48263 3.65492 3.56981
# Velocity P-wave (km/s) = 5.80425 6.44994 6.13559
#
# Compressibility (1/GPa) = 0.03392012
#
# Stress axis : x y z
#
# Youngs Moduli (GPa) = 32.63776 67.11306 74.06641
#
# Poissons Ratio (x) = 0.36708 0.07878
# Poissons Ratio (y) = 0.17852 0.44640
# Poissons Ratio (z) = 0.03472 0.40450
#
# Static dielectric constant tensor:
#      x y z
#    x 3.051880 0.000000 0.000000 
#    y 0.000000 3.296120 0.000000 
#    z 0.000000 0.000000 3.149030 
# 
# 
# High freq. dielectric constant tensor:
#      x y z
#    x 1.640350 0.000000 0.000000 
#    y 0.000000 1.644440 0.000000 
#    z 0.000000 0.000000 1.625180 
# 
# From -- ./inp_files/13043.got.cif
#   From: 2010.03.12/outbox.cif.g09.slc.cpg/sg38_7_cif.got.tgz:13043.got - 2010.04.14 02:38:36.
