data_PCOD8178169
_publ_section_title
;
Structure prediction by ZEFSAII (Michael W. Deem and Ramdas Pophale) SiO2 
 PCOD8178169
Probable space group: A M M 2
;
_chemical_formula_sum "Si O2"
_cell_formula_units_Z 48
_cell_length_a 7.773694
_cell_length_b 9.698798
_cell_length_c 33.966838
_cell_angle_alpha 90.000000
_cell_angle_beta 90.000000
_cell_angle_gamma 90.000000
_cell_volume 2560.946321
_symmetry_space_group_name_H-M "A M M 2"
_symmetry_group_IT_number 38
_symmetry_cell_setting 'orthorhombic'
loop_
_space_group_symop_operation_xyz
x,y,z
-x,-y,z
-x,y,z
x,-y,z
x,1/2+y,1/2+z
-x,1/2-y,1/2+z
-x,1/2+y,1/2+z
x,1/2-y,1/2+z
loop_
_atom_site_type_symbol
_atom_site_label
_atom_site_fract_x
_atom_site_fract_y
_atom_site_fract_z
Si Si1 0.500000 0.340493 0.736210
Si Si2 0.500000 0.162339 0.813921
Si Si3 0.808594 0.843268 0.869619
Si Si4 0.197818 0.340616 0.676799
Si Si5 0.795320 0.346120 0.105007
Si Si6 0.694251 0.156618 0.436993
Si Si7 0.809734 0.663549 0.020210
O O1 0.500000 0.500000 0.749118
O O2 0.500000 0.244306 0.773739
O O3 0.325796 0.305718 0.712426
O O4 0.329818 0.207867 0.837765
O O5 0.500000 0.000000 0.804744
O O6 0.806988 0.751999 0.908912
O O7 0.000000 0.831802 0.851115
O O8 0.765486 0.000000 0.881890
O O9 0.211171 0.500000 0.665070
O O10 0.265774 0.255120 0.639385
O O11 0.000000 0.302028 0.688334
O O12 0.724029 0.500000 0.113957
O O13 0.727824 0.289523 0.062324
O O14 0.000000 0.350322 0.102484
O O15 0.500000 0.164641 0.421970
O O16 0.700419 0.210326 0.482210
O O17 0.765113 0.000000 0.434457
O O18 0.819719 0.500000 0.022531
O O19 0.000000 0.726452 0.014643
#
# Coordination Sequence:
#
# PCOD8178169 Si02
#       7
#     4   4   8   8   8   8   8
#     4  10  22  38  56  79 106 133 165 206 255 314
#     4  10  22  40  58  79 108 133 163 212 261 312
#     4  10  21  38  59  80 105 140 175 211 263 318
#     4   9  18  34  54  75 103 137 169 207 256 304
#     4   8  14  27  48  72 100 136 176 216 255 297
#     4  10  19  31  50  77 109 143 180 221 262 306
#     4   8  14  26  44  68 101 138 175 217 260 296
#
# _framework density 18.743072000000002
#
# number of rings (size 3 to 8) (size 9 to 14) (size 15 to 20)
#    0.000    2.833    0.833    1.500    0.000    3.000 
#    1.500    0.833    0.000    3.000    0.000    0.000 
#    0.000    0.000    0.000    0.000    0.000    0.000 
#
# Total GULP energy -297451.514485 kJ/mol
# GULP energy per Si atom -12393.813104 kJ/mol
# Density = 1.870041 g / cm^3
# Si number density = 18.743072 Si / 1000 Ang^3
#
#
#
# Elastic Constant Matrix: (Units=GPa)
#
#
# Indices 1 2 3 4 5 6 
#
# 1 89.4876 30.9922 53.8359 0.0000 0.0000 0.0000
# 2 30.9922 63.5981 68.6854 0.0000 0.0000 0.0000
# 3 53.8359 68.6854 153.8705 0.0000 0.0000 0.0000
# 4 0.0000 0.0000 0.0000 31.5431 0.0000 0.0000
# 5 0.0000 0.0000 0.0000 0.0000 26.4020 0.0000
# 6 0.0000 0.0000 0.0000 0.0000 0.0000 13.8473
#
#
#
# Elastic Compliance Matrix: (Units=1/GPa)
#
#
# Indices 1 2 3 4 5 6 
#
# 1 0.014455 -0.003055 -0.003694 0.000000 0.000000 0.000000
# 2 -0.003055 0.031006 -0.012772 0.000000 0.000000 0.000000
# 3 -0.003694 -0.012772 0.013492 0.000000 0.000000 0.000000
# 4 0.000000 0.000000 0.000000 0.031703 0.000000 0.000000
# 5 0.000000 0.000000 0.000000 0.000000 0.037876 0.000000
# 6 0.000000 0.000000 0.000000 0.000000 0.000000 0.072216
#
#
# Mechanical properties :
#
#
# Convention : Reuss Voigt Hill
#
# Bulk Modulus (GPa) = 50.21975 68.22036 59.22005
# Shear Modulus (GPa) = 20.29008 24.58799 22.43904
#
# Velocity S-wave (km/s) = 3.29376 3.62587 3.46380
# Velocity P-wave (km/s) = 6.42784 7.34887 6.90373
#
# Compressibility (1/GPa) = 0.01991248
#
# Stress axis : x y z
#
# Youngs Moduli (GPa) = 69.18065 32.25228 74.11564
#
# Poissons Ratio (x) = 0.09852 0.27377
# Poissons Ratio (y) = 0.21133 0.94658
# Poissons Ratio (z) = 0.25555 0.41191
#
# Static dielectric constant tensor:
#      x y z
#    x 3.465600 0.000000 0.000000 
#    y 0.000000 3.274330 0.000000 
#    z 0.000000 0.000000 3.480240 
# 
# 
# High freq. dielectric constant tensor:
#      x y z
#    x 1.726130 0.000000 0.000000 
#    y 0.000000 1.699970 0.000000 
#    z 0.000000 0.000000 1.724170 
# 
# From -- ./inp_files/24425.got.cif
#   From: 2010.03.12/outbox.cif.g09.slc.cpg/sg38_13_cif.got.tgz:24425.got - 2010.04.14 02:38:36.
