data_PCOD8178653
_publ_section_title
;
Structure prediction by ZEFSAII (Michael W. Deem and Ramdas Pophale) SiO2 
 PCOD8178653
Probable space group: A M M 2
;
_chemical_formula_sum "Si O2"
_cell_formula_units_Z 64
_cell_length_a 9.104270
_cell_length_b 29.241781
_cell_length_c 12.715007
_cell_angle_alpha 90.000000
_cell_angle_beta 90.000000
_cell_angle_gamma 90.000000
_cell_volume 3385.053622
_symmetry_space_group_name_H-M "A M M 2"
_symmetry_group_IT_number 38
_symmetry_cell_setting 'orthorhombic'
loop_
_space_group_symop_operation_xyz
x,y,z
-x,-y,z
-x,y,z
x,-y,z
x,1/2+y,1/2+z
-x,1/2-y,1/2+z
-x,1/2+y,1/2+z
x,1/2-y,1/2+z
loop_
_atom_site_type_symbol
_atom_site_label
_atom_site_fract_x
_atom_site_fract_y
_atom_site_fract_z
Si Si1 0.828106 0.258178 0.266750
Si Si2 0.326880 0.552562 0.690256
Si Si3 0.327443 0.618557 0.059510
Si Si4 0.662964 0.781316 0.084174
Si Si5 0.829141 0.946479 0.403032
Si Si6 0.339020 0.204849 0.423687
Si Si7 0.326675 0.352741 0.289514
Si Si8 0.673363 0.120879 0.014550
O O1 0.779926 0.248016 0.148708
O O2 0.775758 0.212721 0.329925
O O3 0.754274 0.304828 0.304631
O O4 0.000000 0.264036 0.277138
O O5 0.500000 0.559519 0.706353
O O6 0.285902 0.500000 0.669636
O O7 0.248290 0.570919 0.795804
O O8 0.265953 0.579999 0.588156
O O9 0.500000 0.608564 0.050537
O O10 0.279015 0.621681 0.182052
O O11 0.239727 0.577694 0.004730
O O12 0.282833 0.665987 0.003441
O O13 0.500000 0.783998 0.137936
O O14 0.646623 0.754224 0.976446
O O15 0.730456 0.831143 0.061156
O O16 0.000000 0.934462 0.395300
O O17 0.800867 0.000000 0.418118
O O18 0.500000 0.190513 0.379635
O O19 0.500000 0.342355 0.286329
O O20 0.282406 0.384105 0.390960
O O21 0.500000 0.121029 0.021443
#
# Coordination Sequence:
#
# PCOD8178653 Si02
#       8
#     8   8   8   8   8   8   8   8
#     4  12  24  34  48  76 114 148 183 231 282 324
#     4   9  18  35  59  87 114 138 175 227 278 327
#     4  10  21  36  59  85 108 141 188 234 275 324
#     4  10  19  35  56  75 103 147 193 228 263 321
#     4  10  22  40  60  82 112 147 179 219 277 337
#     4  10  20  36  56  76 103 146 191 227 268 322
#     4  10  19  38  59  78 108 148 192 225 269 332
#     4   9  18  33  58  84 106 141 183 224 270 323
#
# _framework density 18.906644
#
# number of rings (size 3 to 8) (size 9 to 14) (size 15 to 20)
#    0.000    2.000    2.500    1.500    1.750    2.250 
#    0.000    1.250    0.000    2.250    0.000    1.750 
#    0.000    0.000    0.000    0.000    0.000    0.000 
#
# Total GULP energy -396667.728787 kJ/mol
# GULP energy per Si atom -12395.866525 kJ/mol
# Density = 1.886361 g / cm^3
# Si number density = 18.906644 Si / 1000 Ang^3
#
#
#
# Elastic Constant Matrix: (Units=GPa)
#
#
# Indices 1 2 3 4 5 6 
#
# 1 67.3219 28.0490 46.0686 0.0000 0.0000 0.0000
# 2 28.0490 73.4909 45.6861 0.0000 0.0000 0.0000
# 3 46.0686 45.6861 123.8908 0.0000 0.0000 0.0000
# 4 0.0000 0.0000 0.0000 34.4933 0.0000 0.0000
# 5 0.0000 0.0000 0.0000 0.0000 2.6172 0.0000
# 6 0.0000 0.0000 0.0000 0.0000 0.0000 20.2492
#
#
#
# Elastic Compliance Matrix: (Units=1/GPa)
#
#
# Indices 1 2 3 4 5 6 
#
# 1 0.020820 -0.004065 -0.006243 0.000000 0.000000 0.000000
# 2 -0.004065 0.018448 -0.005291 0.000000 0.000000 0.000000
# 3 -0.006243 -0.005291 0.012344 0.000000 0.000000 0.000000
# 4 0.000000 0.000000 0.000000 0.028991 0.000000 0.000000
# 5 0.000000 0.000000 0.000000 0.000000 0.382094 0.000000
# 6 0.000000 0.000000 0.000000 0.000000 0.000000 0.049385
#
#
# Mechanical properties :
#
#
# Convention : Reuss Voigt Hill
#
# Bulk Modulus (GPa) = 48.98739 56.03454 52.51097
# Shear Modulus (GPa) = 9.08951 21.13194 15.11072
#
# Velocity S-wave (km/s) = 2.19500 3.34683 2.83013
# Velocity P-wave (km/s) = 5.69126 6.68108 6.20593
#
# Compressibility (1/GPa) = 0.02041342
#
# Stress axis : x y z
#
# Youngs Moduli (GPa) = 48.03162 54.20620 81.01024
#
# Poissons Ratio (x) = 0.22037 0.50571
# Poissons Ratio (y) = 0.19527 0.42864
# Poissons Ratio (z) = 0.29984 0.28682
#
# Static dielectric constant tensor:
#      x y z
#    x 3.207770 0.000000 0.000000 
#    y 0.000000 3.446730 0.000000 
#    z 0.000000 0.000000 3.654580 
# 
# 
# High freq. dielectric constant tensor:
#      x y z
#    x 1.706430 0.000000 0.000000 
#    y 0.000000 1.719840 0.000000 
#    z 0.000000 0.000000 1.743640 
# 
# From -- ./inp_files/8589.got.cif
#   From: 2010.03.12/outbox.cif.g09.slc.cpg/sg38_5_cif.got.tgz:8589.got - 2010.04.14 02:38:36.
