data_PCOD8178313
_publ_section_title
;
Structure prediction by ZEFSAII (Michael W. Deem and Ramdas Pophale) SiO2 
 PCOD8178313
Probable space group: A M M 2
;
_chemical_formula_sum "Si O2"
_cell_formula_units_Z 48
_cell_length_a 18.911146
_cell_length_b 9.107353
_cell_length_c 15.241153
_cell_angle_alpha 90.000000
_cell_angle_beta 90.000000
_cell_angle_gamma 90.000000
_cell_volume 2624.991131
_symmetry_space_group_name_H-M "A M M 2"
_symmetry_group_IT_number 38
_symmetry_cell_setting 'orthorhombic'
loop_
_space_group_symop_operation_xyz
x,y,z
-x,-y,z
-x,y,z
x,-y,z
x,1/2+y,1/2+z
-x,1/2-y,1/2+z
-x,1/2+y,1/2+z
x,1/2-y,1/2+z
loop_
_atom_site_type_symbol
_atom_site_label
_atom_site_fract_x
_atom_site_fract_y
_atom_site_fract_z
Si Si1 0.334453 0.167830 0.137290
Si Si2 0.174785 0.674195 0.953703
Si Si3 0.172331 0.327469 0.632798
Si Si4 0.579478 0.326442 0.282459
Si Si5 0.920844 0.825812 0.294001
Si Si6 0.320102 0.171054 0.938210
O O1 0.253174 0.207416 0.158216
O O2 0.385135 0.268860 0.194032
O O3 0.350303 0.000000 0.161809
O O4 0.351071 0.198825 0.035205
O O5 0.180156 0.500000 0.961449
O O6 0.116832 0.725374 0.883001
O O7 0.250024 0.735069 0.922287
O O8 0.150079 0.741153 0.045757
O O9 0.162904 0.500000 0.614603
O O10 0.122787 0.267520 0.710370
O O11 0.500000 0.264089 0.289849
O O12 0.578810 0.500000 0.276990
O O13 0.622154 0.274195 0.368321
O O14 0.000000 0.760016 0.291465
O O15 0.922859 0.000000 0.289966
O O16 0.300562 0.000000 0.926636
#
# Coordination Sequence:
#
# PCOD8178313 Si02
#       6
#     8   8   8   8   8   8
#     4   9  18  33  53  75  97 127 168 207 243 290
#     4  10  19  32  53  78 101 127 165 212 252 287
#     4   9  18  34  54  74  98 131 170 206 243 294
#     4  10  21  35  51  74 103 132 162 201 249 295
#     4   9  18  32  50  73 103 138 169 199 244 300
#     4   9  19  36  55  73  98 133 168 201 243 298
#
# _framework density 18.285777
#
# number of rings (size 3 to 8) (size 9 to 14) (size 15 to 20)
#    0.000    2.667    0.000    2.500    0.000    6.333 
#    0.000    3.333    0.000    3.500    0.000    0.000 
#    0.000    0.000    0.000    0.000    0.000    0.000 
#
# Total GULP energy -297626.748634 kJ/mol
# GULP energy per Si atom -12401.114526 kJ/mol
# Density = 1.824416 g / cm^3
# Si number density = 18.285777 Si / 1000 Ang^3
#
#
#
# Elastic Constant Matrix: (Units=GPa)
#
#
# Indices 1 2 3 4 5 6 
#
# 1 130.3149 32.7714 91.2452 0.0000 0.0000 0.0000
# 2 32.7714 36.6211 37.2584 0.0000 0.0000 0.0000
# 3 91.2452 37.2584 138.7624 0.0000 0.0000 0.0000
# 4 0.0000 0.0000 0.0000 27.7060 0.0000 0.0000
# 5 0.0000 0.0000 0.0000 0.0000 17.8082 0.0000
# 6 0.0000 0.0000 0.0000 0.0000 0.0000 21.4724
#
#
#
# Elastic Compliance Matrix: (Units=1/GPa)
#
#
# Indices 1 2 3 4 5 6 
#
# 1 0.014761 -0.004587 -0.008475 0.000000 0.000000 0.000000
# 2 -0.004587 0.038996 -0.007454 0.000000 0.000000 0.000000
# 3 -0.008475 -0.007454 0.014781 0.000000 0.000000 0.000000
# 4 0.000000 0.000000 0.000000 0.036093 0.000000 0.000000
# 5 0.000000 0.000000 0.000000 0.000000 0.056154 0.000000
# 6 0.000000 0.000000 0.000000 0.000000 0.000000 0.046571
#
#
# Mechanical properties :
#
#
# Convention : Reuss Voigt Hill
#
# Bulk Modulus (GPa) = 36.35664 69.80539 53.08102
# Shear Modulus (GPa) = 19.41320 23.02556 21.21938
#
# Velocity S-wave (km/s) = 3.26184 3.55238 3.41021
# Velocity P-wave (km/s) = 5.84053 7.42182 6.67814
#
# Compressibility (1/GPa) = 0.02750529
#
# Stress axis : x y z
#
# Youngs Moduli (GPa) = 67.74481 25.64395 67.65569
#
# Poissons Ratio (x) = 0.11764 0.57337
# Poissons Ratio (y) = 0.31077 0.50431
# Poissons Ratio (z) = 0.57412 0.19115
#
# Static dielectric constant tensor:
#      x y z
#    x 3.522890 0.000000 0.000000 
#    y 0.000000 3.130300 0.000000 
#    z 0.000000 0.000000 3.493620 
# 
# 
# High freq. dielectric constant tensor:
#      x y z
#    x 1.706290 0.000000 0.000000 
#    y 0.000000 1.687000 0.000000 
#    z 0.000000 0.000000 1.721650 
# 
# From -- ./inp_files/14962.got.cif
#   From: 2010.03.12/outbox.cif.g09.slc.cpg/sg38_8_cif.got.tgz:14962.got - 2010.04.14 02:38:36.
