data_PCOD8178173
_publ_section_title
;
Structure prediction by ZEFSAII (Michael W. Deem and Ramdas Pophale) SiO2 
 PCOD8178173
Probable space group: A M M 2
;
_chemical_formula_sum "Si O2"
_cell_formula_units_Z 40
_cell_length_a 9.274558
_cell_length_b 7.820710
_cell_length_c 28.948682
_cell_angle_alpha 90.000000
_cell_angle_beta 90.000000
_cell_angle_gamma 90.000000
_cell_volume 2099.752946
_symmetry_space_group_name_H-M "A M M 2"
_symmetry_group_IT_number 38
_symmetry_cell_setting 'orthorhombic'
loop_
_space_group_symop_operation_xyz
x,y,z
-x,-y,z
-x,y,z
x,-y,z
x,1/2+y,1/2+z
-x,1/2-y,1/2+z
-x,1/2+y,1/2+z
x,1/2-y,1/2+z
loop_
_atom_site_type_symbol
_atom_site_label
_atom_site_fract_x
_atom_site_fract_y
_atom_site_fract_z
Si Si1 0.328774 0.312103 0.006070
Si Si2 0.671463 0.000000 0.946455
Si Si3 0.832490 0.305853 0.791385
Si Si4 0.832498 0.305987 0.190854
Si Si5 0.671976 0.500000 0.340899
Si Si6 0.660293 0.303437 0.603068
O O1 0.500000 0.291310 0.007881
O O2 0.283298 0.500000 0.987726
O O3 0.270744 0.291230 0.058560
O O4 0.264745 0.168993 0.971622
O O5 0.500000 0.000000 0.948728
O O6 0.723088 0.000000 0.893830
O O7 0.800985 0.500000 0.808255
O O8 0.794030 0.296414 0.737230
O O9 0.733906 0.172691 0.818677
O O10 0.000000 0.256809 0.799020
O O11 0.780212 0.500000 0.197493
O O12 0.754588 0.220138 0.148147
O O13 0.000000 0.296287 0.179801
O O14 0.500000 0.500000 0.335300
O O15 0.500000 0.232641 0.613621
O O16 0.653515 0.500000 0.589098
#
# Coordination Sequence:
#
# PCOD8178173 Si02
#       6
#     8   4   8   8   4   8
#     4   9  16  29  50  74 106 146 182 219 266 328
#     4   9  18  33  51  77 111 147 185 223 278 345
#     4  10  21  40  63  82 109 154 201 237 280 351
#     4  10  20  35  55  78 107 145 188 230 273 331
#     4  11  23  37  59  89 121 149 185 249 304 339
#     4  10  19  31  50  79 113 144 179 225 273 326
#
# _framework density 19.049862000000001
#
# number of rings (size 3 to 8) (size 9 to 14) (size 15 to 20)
#    0.000    2.200    2.000    1.500    0.000    4.400 
#    0.000    2.000    0.000    2.400    0.000    2.800 
#    0.000    0.000    0.000    0.000    0.000    0.000 
#
# Total GULP energy -247961.980189 kJ/mol
# GULP energy per Si atom -12398.099009 kJ/mol
# Density = 1.900650 g / cm^3
# Si number density = 19.049862 Si / 1000 Ang^3
#
#
#
# Elastic Constant Matrix: (Units=GPa)
#
#
# Indices 1 2 3 4 5 6 
#
# 1 40.0537 36.0973 43.2363 0.0000 0.0000 0.0000
# 2 36.0973 140.8678 66.1843 0.0000 0.0000 0.0000
# 3 43.2363 66.1843 136.8946 0.0000 0.0000 0.0000
# 4 0.0000 0.0000 0.0000 28.7088 0.0000 0.0000
# 5 0.0000 0.0000 0.0000 0.0000 -27.1019 0.0000
# 6 0.0000 0.0000 0.0000 0.0000 0.0000 21.6505
#
#
#
# Elastic Compliance Matrix: (Units=1/GPa)
#
#
# Indices 1 2 3 4 5 6 
#
# 1 0.041190 -0.005749 -0.010230 0.000000 0.000000 0.000000
# 2 -0.005749 0.009988 -0.003013 0.000000 0.000000 0.000000
# 3 -0.010230 -0.003013 0.011993 0.000000 0.000000 0.000000
# 4 0.000000 0.000000 0.000000 0.034833 0.000000 0.000000
# 5 0.000000 0.000000 0.000000 0.000000 -0.036898 0.000000
# 6 0.000000 0.000000 0.000000 0.000000 0.000000 0.046188
#
#
# Mechanical properties :
#
#
# Convention : Reuss Voigt Hill
#
# Bulk Modulus (GPa) = 39.70311 67.65020 53.67666
# Shear Modulus (GPa) = 32.53671 16.13802 24.33737
#
# Velocity S-wave (km/s) = 4.13725 2.91374 3.57818
# Velocity P-wave (km/s) = 6.61131 6.84902 6.73121
#
# Compressibility (1/GPa) = 0.02518694
#
# Stress axis : x y z
#
# Youngs Moduli (GPa) = 24.27763 100.12461 83.38423
#
# Poissons Ratio (x) = 0.57557 0.85303
# Poissons Ratio (y) = 0.13956 0.25124
# Poissons Ratio (z) = 0.24836 0.30168
#
# Static dielectric constant tensor:
#      x y z
#    x 3.126700 0.000000 0.000000 
#    y 0.000000 3.697630 0.000000 
#    z 0.000000 0.000000 3.493290 
# 
# 
# High freq. dielectric constant tensor:
#      x y z
#    x 1.695870 0.000000 0.000000 
#    y 0.000000 1.759370 0.000000 
#    z 0.000000 0.000000 1.741200 
# 
# From -- ./inp_files/23203.got.cif
#   From: 2010.03.12/outbox.cif.g09.slc.cpg/sg38_12_cif.got.tgz:23203.got - 2010.04.14 02:38:36.
