data_PCOD8178254
_publ_section_title
;
Structure prediction by ZEFSAII (Michael W. Deem and Ramdas Pophale) SiO2 
 PCOD8178254
Probable space group: A M M 2
;
_chemical_formula_sum "Si O2"
_cell_formula_units_Z 64
_cell_length_a 13.528861
_cell_length_b 13.385153
_cell_length_c 19.807656
_cell_angle_alpha 90.000000
_cell_angle_beta 90.000000
_cell_angle_gamma 90.000000
_cell_volume 3586.886707
_symmetry_space_group_name_H-M "A M M 2"
_symmetry_group_IT_number 38
_symmetry_cell_setting 'orthorhombic'
loop_
_space_group_symop_operation_xyz
x,y,z
-x,-y,z
-x,y,z
x,-y,z
x,1/2+y,1/2+z
-x,1/2-y,1/2+z
-x,1/2+y,1/2+z
x,1/2-y,1/2+z
loop_
_atom_site_type_symbol
_atom_site_label
_atom_site_fract_x
_atom_site_fract_y
_atom_site_fract_z
Si Si1 0.884676 0.219338 0.165040
Si Si2 0.605964 0.116008 0.110294
Si Si3 0.280519 0.116598 0.238373
Si Si4 0.239675 0.220803 0.032174
Si Si5 0.113063 0.612392 0.268884
Si Si6 0.244080 0.881233 0.897305
Si Si7 0.611005 0.884319 0.493315
Si Si8 0.388555 0.275861 0.855361
O O1 0.830495 0.134544 0.210022
O O2 0.846324 0.227785 0.087979
O O3 0.862225 0.323179 0.202805
O O4 0.000000 0.192320 0.162430
O O5 0.500000 0.166228 0.094701
O O6 0.646719 0.158498 0.180615
O O7 0.680583 0.136045 0.049895
O O8 0.593495 0.000000 0.119117
O O9 0.308832 0.182055 0.302641
O O10 0.293508 0.000000 0.255003
O O11 0.196943 0.180273 0.960884
O O12 0.301251 0.324338 0.030785
O O13 0.138276 0.500000 0.247199
O O14 0.174659 0.643556 0.334250
O O15 0.000000 0.625763 0.290604
O O16 0.351633 0.833041 0.881268
O O17 0.253120 0.000000 0.911159
O O18 0.500000 0.863290 0.522883
O O19 0.610715 0.855510 0.415134
O O20 0.638114 0.000000 0.500932
O O21 0.500000 0.264475 0.825842
#
# Coordination Sequence:
#
# PCOD8178254 Si02
#       8
#     8   8   8   8   8   8   8   8
#     4  10  21  37  55  79 108 139 180 231 281 326
#     4   9  17  29  46  70 101 136 173 214 259 313
#     4  10  19  32  51  76 104 139 181 222 267 318
#     4  10  20  32  51  78 106 141 177 220 272 324
#     4   9  18  35  59  80 100 136 184 228 273 325
#     4  10  20  35  54  79 111 142 178 224 272 325
#     4   9  18  32  50  74 104 138 176 214 258 315
#     4  10  19  32  52  79 108 142 178 218 265 316
#
# _framework density 17.842773000000001
#
# number of rings (size 3 to 8) (size 9 to 14) (size 15 to 20)
#    0.000    2.375    1.250    1.500    0.000    3.750 
#    0.000    0.000    0.000    0.000    0.000    0.000 
#    0.000    0.000    0.000    0.000    0.000    0.000 
#
# Total GULP energy -396564.048945 kJ/mol
# GULP energy per Si atom -12392.626530 kJ/mol
# Density = 1.780216 g / cm^3
# Si number density = 17.842773 Si / 1000 Ang^3
#
#
#
# Elastic Constant Matrix: (Units=GPa)
#
#
# Indices 1 2 3 4 5 6 
#
# 1 100.0896 30.4065 46.8240 0.0000 0.0000 0.0000
# 2 30.4065 75.1782 32.1246 0.0000 0.0000 0.0000
# 3 46.8240 32.1246 86.7871 0.0000 0.0000 0.0000
# 4 0.0000 0.0000 0.0000 24.4401 0.0000 0.0000
# 5 0.0000 0.0000 0.0000 0.0000 21.0728 0.0000
# 6 0.0000 0.0000 0.0000 0.0000 0.0000 24.0162
#
#
#
# Elastic Compliance Matrix: (Units=1/GPa)
#
#
# Indices 1 2 3 4 5 6 
#
# 1 0.013865 -0.002864 -0.006420 0.000000 0.000000 0.000000
# 2 -0.002864 0.016393 -0.004522 0.000000 0.000000 0.000000
# 3 -0.006420 -0.004522 0.016660 0.000000 0.000000 0.000000
# 4 0.000000 0.000000 0.000000 0.040916 0.000000 0.000000
# 5 0.000000 0.000000 0.000000 0.000000 0.047454 0.000000
# 6 0.000000 0.000000 0.000000 0.000000 0.000000 0.041639
#
#
# Mechanical properties :
#
#
# Convention : Reuss Voigt Hill
#
# Bulk Modulus (GPa) = 51.80299 53.41833 52.61066
# Shear Modulus (GPa) = 23.69944 24.08582 23.89263
#
# Velocity S-wave (km/s) = 3.64845 3.67807 3.66329
# Velocity P-wave (km/s) = 6.84429 6.93116 6.88786
#
# Compressibility (1/GPa) = 0.01930391
#
# Stress axis : x y z
#
# Youngs Moduli (GPa) = 72.12577 61.00264 60.02298
#
# Poissons Ratio (x) = 0.17473 0.38536
# Poissons Ratio (y) = 0.20659 0.27145
# Poissons Ratio (z) = 0.46306 0.27588
#
# Static dielectric constant tensor:
#      x y z
#    x 3.444900 0.000000 0.000000 
#    y 0.000000 3.255370 0.000000 
#    z 0.000000 0.000000 3.301510 
# 
# 
# High freq. dielectric constant tensor:
#      x y z
#    x 1.685100 0.000000 0.000000 
#    y 0.000000 1.686370 0.000000 
#    z 0.000000 0.000000 1.689990 
# 
# From -- ./inp_files/17865.got.cif
#   From: 2010.03.12/outbox.cif.g09.slc.cpg/sg38_9_cif.got.tgz:17865.got - 2010.04.14 02:38:36.
