data_PCOD8178910
_publ_section_title
;
Structure prediction by ZEFSAII (Michael W. Deem and Ramdas Pophale) SiO2 
 PCOD8178910
Probable space group: A M M 2
;
_chemical_formula_sum "Si O2"
_cell_formula_units_Z 56
_cell_length_a 19.847302
_cell_length_b 9.361716
_cell_length_c 15.125562
_cell_angle_alpha 90.000000
_cell_angle_beta 90.000000
_cell_angle_gamma 90.000000
_cell_volume 2810.402093
_symmetry_space_group_name_H-M "A M M 2"
_symmetry_group_IT_number 38
_symmetry_cell_setting 'orthorhombic'
loop_
_space_group_symop_operation_xyz
x,y,z
-x,-y,z
-x,y,z
x,-y,z
x,1/2+y,1/2+z
-x,1/2-y,1/2+z
-x,1/2+y,1/2+z
x,1/2-y,1/2+z
loop_
_atom_site_type_symbol
_atom_site_label
_atom_site_fract_x
_atom_site_fract_y
_atom_site_fract_z
Si Si1 0.077962 0.335355 0.470510
Si Si2 0.574749 0.339813 0.331409
Si Si3 0.825040 0.834598 0.812233
Si Si4 0.286972 0.341595 0.596585
Si Si5 0.427872 0.162381 0.040103
Si Si6 0.160204 0.331782 0.107361
Si Si7 0.299505 0.656179 0.798007
O O1 0.092766 0.500000 0.494964
O O2 0.116018 0.291805 0.379988
O O3 0.098588 0.238273 0.554027
O O4 0.000000 0.308490 0.451057
O O5 0.500000 0.298758 0.296827
O O6 0.593320 0.500000 0.300042
O O7 0.576385 0.331385 0.435890
O O8 0.627695 0.228715 0.293562
O O9 0.847959 0.797366 0.711898
O O10 0.757643 0.751833 0.844730
O O11 0.806244 0.000000 0.818073
O O12 0.282206 0.500000 0.550408
O O13 0.359813 0.265541 0.578198
O O14 0.228001 0.236433 0.564263
O O15 0.275301 0.364081 0.699062
O O16 0.500000 0.233536 0.070441
O O17 0.428141 0.000000 0.074350
O O18 0.161640 0.500000 0.090011
O O19 0.304642 0.500000 0.844092
#
# Coordination Sequence:
#
# PCOD8178910 Si02
#       7
#     8   8   8   8   8   8   8
#     4  10  22  40  62  87 112 145 189 226 265 328
#     4   9  18  32  49  70  99 138 183 226 270 326
#     4   9  20  39  60  81 112 154 191 223 267 332
#     4   9  18  33  53  76 103 139 181 223 269 325
#     4   8  15  29  49  71  94 129 180 226 261 309
#     4  10  21  37  58  86 118 148 182 230 282 328
#     4  10  20  32  50  78 108 136 174 229 283 322
#
# _framework density 19.925975000000001
#
# number of rings (size 3 to 8) (size 9 to 14) (size 15 to 20)
#    0.000    2.714    0.000    1.714    2.000    3.429 
#    0.000    2.857    0.000    1.286    0.000    0.000 
#    0.000    0.000    0.000    0.000    0.000    0.000 
#
# Total GULP energy -346977.822690 kJ/mol
# GULP energy per Si atom -12392.065096 kJ/mol
# Density = 1.988062 g / cm^3
# Si number density = 19.925975 Si / 1000 Ang^3
#
#
#
# Elastic Constant Matrix: (Units=GPa)
#
#
# Indices 1 2 3 4 5 6 
#
# 1 141.1759 68.4462 34.2419 0.0000 0.0000 0.0000
# 2 68.4462 104.1830 36.5236 0.0000 0.0000 0.0000
# 3 34.2419 36.5236 50.0992 0.0000 0.0000 0.0000
# 4 0.0000 0.0000 0.0000 18.9041 0.0000 0.0000
# 5 0.0000 0.0000 0.0000 0.0000 31.3727 0.0000
# 6 0.0000 0.0000 0.0000 0.0000 0.0000 26.1759
#
#
#
# Elastic Compliance Matrix: (Units=1/GPa)
#
#
# Indices 1 2 3 4 5 6 
#
# 1 0.010707 -0.006003 -0.002942 0.000000 0.000000 0.000000
# 2 -0.006003 0.016260 -0.007751 0.000000 0.000000 0.000000
# 3 -0.002942 -0.007751 0.027621 0.000000 0.000000 0.000000
# 4 0.000000 0.000000 0.000000 0.052899 0.000000 0.000000
# 5 0.000000 0.000000 0.000000 0.000000 0.031875 0.000000
# 6 0.000000 0.000000 0.000000 0.000000 0.000000 0.038203
#
#
# Mechanical properties :
#
#
# Convention : Reuss Voigt Hill
#
# Bulk Modulus (GPa) = 47.17601 63.76464 55.47032
# Shear Modulus (GPa) = 22.93345 25.70697 24.32021
#
# Velocity S-wave (km/s) = 3.39622 3.59573 3.49740
# Velocity P-wave (km/s) = 6.25349 7.02205 6.64888
#
# Compressibility (1/GPa) = 0.02119722
#
# Stress axis : x y z
#
# Youngs Moduli (GPa) = 93.39284 61.50192 36.20378
#
# Poissons Ratio (x) = 0.36921 0.10651
# Poissons Ratio (y) = 0.56066 0.28060
# Poissons Ratio (z) = 0.27474 0.47667
#
# Static dielectric constant tensor:
#      x y z
#    x 3.581060 0.000000 0.000000 
#    y 0.000000 3.702850 0.000000 
#    z 0.000000 0.000000 3.407540 
# 
# 
# High freq. dielectric constant tensor:
#      x y z
#    x 1.784410 0.000000 0.000000 
#    y 0.000000 1.757390 0.000000 
#    z 0.000000 0.000000 1.761580 
# 
# From -- ./inp_files/15467.got.cif
#   From: 2010.03.12/outbox.cif.g09.slc.cpg/sg38_8_cif.got.tgz:15467.got - 2010.04.14 02:38:36.
