data_PCOD8178217
_publ_section_title
;
Structure prediction by ZEFSAII (Michael W. Deem and Ramdas Pophale) SiO2 
 PCOD8178217
Probable space group: A M M 2
;
_chemical_formula_sum "Si O2"
_cell_formula_units_Z 48
_cell_length_a 8.681031
_cell_length_b 18.450895
_cell_length_c 17.034329
_cell_angle_alpha 90.000000
_cell_angle_beta 90.000000
_cell_angle_gamma 90.000000
_cell_volume 2728.436027
_symmetry_space_group_name_H-M "A M M 2"
_symmetry_group_IT_number 38
_symmetry_cell_setting 'orthorhombic'
loop_
_space_group_symop_operation_xyz
x,y,z
-x,-y,z
-x,y,z
x,-y,z
x,1/2+y,1/2+z
-x,1/2-y,1/2+z
-x,1/2+y,1/2+z
x,1/2-y,1/2+z
loop_
_atom_site_type_symbol
_atom_site_label
_atom_site_fract_x
_atom_site_fract_y
_atom_site_fract_z
Si Si1 0.684517 0.333437 0.650210
Si Si2 0.181945 0.325008 0.817317
Si Si3 0.315683 0.082321 0.454247
Si Si4 0.331653 0.202522 0.558702
Si Si5 0.329513 0.199584 0.905910
Si Si6 0.821063 0.915987 0.007602
O O1 0.500000 0.332242 0.654840
O O2 0.758059 0.351615 0.733197
O O3 0.751336 0.253640 0.623050
O O4 0.732529 0.393656 0.586928
O O5 0.239797 0.386631 0.876196
O O6 0.244052 0.244515 0.837358
O O7 0.000000 0.322370 0.818212
O O8 0.500000 0.090874 0.447339
O O9 0.252225 0.126984 0.531251
O O10 0.263696 0.000000 0.465326
O O11 0.500000 0.183560 0.592011
O O12 0.345221 0.249166 0.480184
O O13 0.500000 0.177546 0.875799
O O14 0.237042 0.127508 0.930754
O O15 0.000000 0.899301 0.020203
O O16 0.788701 0.000000 0.991192
#
# Coordination Sequence:
#
# PCOD8178217 Si02
#       6
#     8   8   8   8   8   8
#     4  10  19  32  50  70  96 131 169 204 240 289
#     4  11  21  32  48  71 100 130 163 205 250 292
#     4   9  17  31  51  73  97 125 157 194 240 296
#     4   7  13  27  47  69  89 115 155 199 234 271
#     4   9  17  32  52  71  93 125 168 206 238 288
#     4  10  20  33  50  75 105 132 160 199 248 297
#
# _framework density 17.592495
#
# number of rings (size 3 to 8) (size 9 to 14) (size 15 to 20)
#    0.000    2.667    0.000    5.000    0.000    2.333 
#    0.000    0.833    0.000    1.000    0.000    2.333 
#    0.000    0.000    0.000    0.000    0.000    0.000 
#
# Total GULP energy -297360.868252 kJ/mol
# GULP energy per Si atom -12390.036177 kJ/mol
# Density = 1.755245 g / cm^3
# Si number density = 17.592495 Si / 1000 Ang^3
#
#
#
# Elastic Constant Matrix: (Units=GPa)
#
#
# Indices 1 2 3 4 5 6 
#
# 1 78.3201 34.7890 13.0274 0.0000 0.0000 0.0000
# 2 34.7890 119.4937 21.0922 0.0000 0.0000 0.0000
# 3 13.0274 21.0922 11.8826 0.0000 0.0000 0.0000
# 4 0.0000 0.0000 0.0000 18.2107 0.0000 0.0000
# 5 0.0000 0.0000 0.0000 0.0000 19.1777 0.0000
# 6 0.0000 0.0000 0.0000 0.0000 0.0000 24.2689
#
#
#
# Elastic Compliance Matrix: (Units=1/GPa)
#
#
# Indices 1 2 3 4 5 6 
#
# 1 0.016031 -0.002279 -0.013530 0.000000 0.000000 0.000000
# 2 -0.002279 0.012511 -0.019709 0.000000 0.000000 0.000000
# 3 -0.013530 -0.019709 0.133976 0.000000 0.000000 0.000000
# 4 0.000000 0.000000 0.000000 0.054913 0.000000 0.000000
# 5 0.000000 0.000000 0.000000 0.000000 0.052144 0.000000
# 6 0.000000 0.000000 0.000000 0.000000 0.000000 0.041205
#
#
# Mechanical properties :
#
#
# Convention : Reuss Voigt Hill
#
# Bulk Modulus (GPa) = 10.93126 38.61263 24.77195
# Shear Modulus (GPa) = 12.12681 21.71732 16.92206
#
# Velocity S-wave (km/s) = 2.62833 3.51731 3.10480
# Velocity P-wave (km/s) = 3.92911 6.20413 5.19274
#
# Compressibility (1/GPa) = 0.09148075
#
# Stress axis : x y z
#
# Youngs Moduli (GPa) = 62.37938 79.92923 7.46405
#
# Poissons Ratio (x) = 0.18215 0.10099
# Poissons Ratio (y) = 0.14216 0.14711
# Poissons Ratio (z) = 0.84400 1.57535
#
# Static dielectric constant tensor:
#      x y z
#    x 3.227820 0.000000 0.000000 
#    y 0.000000 3.485220 0.000000 
#    z 0.000000 0.000000 3.221880 
# 
# 
# High freq. dielectric constant tensor:
#      x y z
#    x 1.673680 0.000000 0.000000 
#    y 0.000000 1.676150 0.000000 
#    z 0.000000 0.000000 1.654760 
# 
# From -- ./inp_files/16849.got.cif
#   From: 2010.03.12/outbox.cif.g09.slc.cpg/sg38_9_cif.got.tgz:16849.got - 2010.04.14 02:38:36.
