data_PCOD8178924
_publ_section_title
;
Structure prediction by ZEFSAII (Michael W. Deem and Ramdas Pophale) SiO2 
 PCOD8178924
Probable space group: A M M 2
;
_chemical_formula_sum "Si O2"
_cell_formula_units_Z 48
_cell_length_a 10.176883
_cell_length_b 8.224725
_cell_length_c 27.819174
_cell_angle_alpha 90.000000
_cell_angle_beta 90.000000
_cell_angle_gamma 90.000000
_cell_volume 2328.522283
_symmetry_space_group_name_H-M "A M M 2"
_symmetry_group_IT_number 38
_symmetry_cell_setting 'orthorhombic'
loop_
_space_group_symop_operation_xyz
x,y,z
-x,-y,z
-x,y,z
x,-y,z
x,1/2+y,1/2+z
-x,1/2-y,1/2+z
-x,1/2+y,1/2+z
x,1/2-y,1/2+z
loop_
_atom_site_type_symbol
_atom_site_label
_atom_site_fract_x
_atom_site_fract_y
_atom_site_fract_z
Si Si1 0.000000 0.192361 0.584060
Si Si2 0.771773 0.809841 0.755068
Si Si3 0.648141 0.805835 0.433414
Si Si4 0.500000 0.306881 0.211599
Si Si5 0.730872 0.807395 0.537347
Si Si6 0.500000 0.305884 0.104076
Si Si7 0.000000 0.188967 0.190590
Si Si8 0.854641 0.189661 0.357038
O O1 0.875430 0.248125 0.552854
O O2 0.000000 0.287929 0.633771
O O3 0.000000 0.000000 0.594650
O O4 0.628372 0.745415 0.739727
O O5 0.871148 0.774142 0.711866
O O6 0.813865 0.715101 0.802310
O O7 0.770537 0.000000 0.766437
O O8 0.500000 0.743573 0.422964
O O9 0.696399 0.737274 0.484808
O O10 0.746382 0.733069 0.392921
O O11 0.650166 0.000000 0.433108
O O12 0.500000 0.500000 0.207923
O O13 0.500000 0.233414 0.157805
O O14 0.628077 0.739535 0.576400
O O15 0.720416 0.000000 0.535330
O O16 0.500000 0.500000 0.105445
O O17 0.000000 0.000000 0.204181
O O18 0.000000 0.266241 0.366130
O O19 0.862323 0.000000 0.367471
#
# Coordination Sequence:
#
# PCOD8178924 Si02
#       8
#     4   8   8   4   8   4   4   8
#     4  10  20  32  53  84 111 141 184 233 283 332
#     4  11  22  39  61  84 113 148 190 237 286 338
#     4   9  17  30  49  78 113 148 184 228 283 337
#     4   9  20  34  54  85 115 143 181 233 284 335
#     4   9  16  27  48  78 110 141 179 227 274 324
#     4   9  14  26  45  69 105 139 169 217 274 319
#     4  12  24  40  59  82 115 153 192 233 285 344
#     4  10  21  35  53  79 114 149 185 232 285 337
#
# _framework density 20.613931000000001
#
# number of rings (size 3 to 8) (size 9 to 14) (size 15 to 20)
#    0.000    2.167    1.667    2.250    2.333    2.667 
#    0.000    1.250    0.000    1.000    0.000    0.000 
#    0.000    0.000    0.000    0.000    0.000    0.000 
#
# Total GULP energy -297605.009915 kJ/mol
# GULP energy per Si atom -12400.208746 kJ/mol
# Density = 2.056701 g / cm^3
# Si number density = 20.613931 Si / 1000 Ang^3
#
#
#
# Elastic Constant Matrix: (Units=GPa)
#
#
# Indices 1 2 3 4 5 6 
#
# 1 223.0949 7.1511 92.0730 0.0000 0.0000 0.0000
# 2 7.1511 13.9203 -0.1103 0.0000 0.0000 0.0000
# 3 92.0730 -0.1103 142.4044 0.0000 0.0000 0.0000
# 4 0.0000 0.0000 0.0000 19.8236 0.0000 0.0000
# 5 0.0000 0.0000 0.0000 0.0000 42.8373 0.0000
# 6 0.0000 0.0000 0.0000 0.0000 0.0000 11.4902
#
#
#
# Elastic Compliance Matrix: (Units=1/GPa)
#
#
# Indices 1 2 3 4 5 6 
#
# 1 0.006257 -0.003246 -0.004048 0.000000 0.000000 0.000000
# 2 -0.003246 0.073522 0.002156 0.000000 0.000000 0.000000
# 3 -0.004048 0.002156 0.009641 0.000000 0.000000 0.000000
# 4 0.000000 0.000000 0.000000 0.050445 0.000000 0.000000
# 5 0.000000 0.000000 0.000000 0.000000 0.023344 0.000000
# 6 0.000000 0.000000 0.000000 0.000000 0.000000 0.087031
#
#
# Mechanical properties :
#
#
# Convention : Reuss Voigt Hill
#
# Bulk Modulus (GPa) = 12.63529 64.18303 38.40916
# Shear Modulus (GPa) = 17.42774 33.51725 25.47250
#
# Velocity S-wave (km/s) = 2.91079 4.03668 3.51906
# Velocity P-wave (km/s) = 4.17609 7.27528 5.93167
#
# Compressibility (1/GPa) = 0.07914343
#
# Stress axis : x y z
#
# Youngs Moduli (GPa) = 159.81683 13.60132 103.72049
#
# Poissons Ratio (x) = 0.04416 0.41988
# Poissons Ratio (y) = 0.51884 -0.22362
# Poissons Ratio (z) = 0.64696 -0.02932
#
# Static dielectric constant tensor:
#      x y z
#    x 4.182200 0.000000 0.000000 
#    y 0.000000 3.085320 0.000000 
#    z 0.000000 0.000000 3.812820 
# 
# 
# High freq. dielectric constant tensor:
#      x y z
#    x 1.827250 0.000000 0.000000 
#    y 0.000000 1.747500 0.000000 
#    z 0.000000 0.000000 1.815520 
# 
# From -- ./inp_files/24458.got.cif
#   From: 2010.03.12/outbox.cif.g09.slc.cpg/sg38_13_cif.got.tgz:24458.got - 2010.04.14 02:38:36.
