data_PCOD8178466
_publ_section_title
;
Structure prediction by ZEFSAII (Michael W. Deem and Ramdas Pophale) SiO2 
 PCOD8178466
Probable space group: A M M 2
;
_chemical_formula_sum "Si O2"
_cell_formula_units_Z 64
_cell_length_a 9.226942
_cell_length_b 24.903225
_cell_length_c 14.990971
_cell_angle_alpha 90.000000
_cell_angle_beta 90.000000
_cell_angle_gamma 90.000000
_cell_volume 3444.634501
_symmetry_space_group_name_H-M "A M M 2"
_symmetry_group_IT_number 38
_symmetry_cell_setting 'orthorhombic'
loop_
_space_group_symop_operation_xyz
x,y,z
-x,-y,z
-x,y,z
x,-y,z
x,1/2+y,1/2+z
-x,1/2-y,1/2+z
-x,1/2+y,1/2+z
x,1/2-y,1/2+z
loop_
_atom_site_type_symbol
_atom_site_label
_atom_site_fract_x
_atom_site_fract_y
_atom_site_fract_z
Si Si1 0.829542 0.103049 0.362830
Si Si2 0.833273 0.246318 0.131845
Si Si3 0.166457 0.062293 0.555754
Si Si4 0.333110 0.850536 0.053497
Si Si5 0.664925 0.324598 0.362362
Si Si6 0.328079 0.852155 0.666982
Si Si7 0.835456 0.777789 0.337037
Si Si8 0.668220 0.560811 0.692528
O O1 0.786669 0.073893 0.454247
O O2 0.775183 0.164589 0.368596
O O3 0.753507 0.072266 0.282643
O O4 0.000000 0.101002 0.343595
O O5 0.764633 0.201275 0.069773
O O6 0.746134 0.301598 0.118263
O O7 0.818135 0.224778 0.231383
O O8 0.000000 0.256230 0.104740
O O9 0.268828 0.093582 0.623935
O O10 0.000000 0.079948 0.570390
O O11 0.188674 0.000000 0.576089
O O12 0.500000 0.836917 0.076533
O O13 0.278535 0.900975 0.111690
O O14 0.316327 0.864040 0.947655
O O15 0.500000 0.307530 0.347993
O O16 0.719341 0.353132 0.271595
O O17 0.747171 0.269344 0.383822
O O18 0.500000 0.849007 0.654259
O O19 0.000000 0.770463 0.367846
O O20 0.500000 0.570342 0.712712
O O21 0.698912 0.500000 0.661764
#
# Coordination Sequence:
#
# PCOD8178466 Si02
#       8
#     8   8   8   8   8   8   8   8
#     4  10  20  36  56  81 111 145 183 223 272 329
#     4  10  19  33  54  81 111 143 179 220 271 328
#     4  10  22  39  58  81 110 146 187 231 279 328
#     4  10  20  35  54  80 113 146 183 226 273 324
#     4   9  20  36  54  78 111 146 181 223 274 326
#     4  10  21  38  58  81 109 143 186 232 278 324
#     4   9  18  32  51  79 111 142 178 216 264 323
#     4  10  21  36  55  80 112 149 186 226 273 324
#
# _framework density 18.579620999999999
#
# number of rings (size 3 to 8) (size 9 to 14) (size 15 to 20)
#    0.000    2.250    1.250    1.125    1.750    3.500 
#    0.000    0.625    0.000    2.250    0.000    0.000 
#    0.000    0.000    0.000    0.000    0.000    0.000 
#
# Total GULP energy -396821.243772 kJ/mol
# GULP energy per Si atom -12400.663868 kJ/mol
# Density = 1.853733 g / cm^3
# Si number density = 18.579621 Si / 1000 Ang^3
#
#
#
# Elastic Constant Matrix: (Units=GPa)
#
#
# Indices 1 2 3 4 5 6 
#
# 1 70.2972 48.2409 43.0364 0.0000 0.0000 0.0000
# 2 48.2409 112.4063 61.4613 0.0000 0.0000 0.0000
# 3 43.0364 61.4613 100.2051 0.0000 0.0000 0.0000
# 4 0.0000 0.0000 0.0000 27.4637 0.0000 0.0000
# 5 0.0000 0.0000 0.0000 0.0000 22.3128 0.0000
# 6 0.0000 0.0000 0.0000 0.0000 0.0000 29.6949
#
#
#
# Elastic Compliance Matrix: (Units=1/GPa)
#
#
# Indices 1 2 3 4 5 6 
#
# 1 0.022014 -0.006437 -0.005507 0.000000 0.000000 0.000000
# 2 -0.006437 0.015267 -0.006600 0.000000 0.000000 0.000000
# 3 -0.005507 -0.006600 0.016393 0.000000 0.000000 0.000000
# 4 0.000000 0.000000 0.000000 0.036412 0.000000 0.000000
# 5 0.000000 0.000000 0.000000 0.000000 0.044817 0.000000
# 6 0.000000 0.000000 0.000000 0.000000 0.000000 0.033676
#
#
# Mechanical properties :
#
#
# Convention : Reuss Voigt Hill
#
# Bulk Modulus (GPa) = 60.28669 65.37620 62.83145
# Shear Modulus (GPa) = 23.67498 24.57228 24.12363
#
# Velocity S-wave (km/s) = 3.57353 3.64062 3.60723
# Velocity P-wave (km/s) = 7.03882 7.27568 7.15823
#
# Compressibility (1/GPa) = 0.01658741
#
# Stress axis : x y z
#
# Youngs Moduli (GPa) = 45.42662 65.49936 61.00332
#
# Poissons Ratio (x) = 0.42159 0.33592
# Poissons Ratio (y) = 0.29239 0.40261
# Poissons Ratio (z) = 0.25014 0.43229
#
# Static dielectric constant tensor:
#      x y z
#    x 3.410060 0.000000 0.000000 
#    y 0.000000 3.373890 0.000000 
#    z 0.000000 0.000000 3.453060 
# 
# 
# High freq. dielectric constant tensor:
#      x y z
#    x 1.717910 0.000000 0.000000 
#    y 0.000000 1.711400 0.000000 
#    z 0.000000 0.000000 1.724420 
# 
# From -- ./inp_files/12722.got.cif
#   From: 2010.03.12/outbox.cif.g09.slc.cpg/sg38_7_cif.got.tgz:12722.got - 2010.04.14 02:38:36.
