data_PCOD8178820
_publ_section_title
;
Structure prediction by ZEFSAII (Michael W. Deem and Ramdas Pophale) SiO2 
 PCOD8178820
Probable space group: A M M 2
;
_chemical_formula_sum "Si O2"
_cell_formula_units_Z 56
_cell_length_a 15.328918
_cell_length_b 9.147694
_cell_length_c 20.568887
_cell_angle_alpha 90.000000
_cell_angle_beta 90.000000
_cell_angle_gamma 90.000000
_cell_volume 2884.256778
_symmetry_space_group_name_H-M "A M M 2"
_symmetry_group_IT_number 38
_symmetry_cell_setting 'orthorhombic'
loop_
_space_group_symop_operation_xyz
x,y,z
-x,-y,z
-x,y,z
x,-y,z
x,1/2+y,1/2+z
-x,1/2-y,1/2+z
-x,1/2+y,1/2+z
x,1/2-y,1/2+z
loop_
_atom_site_type_symbol
_atom_site_label
_atom_site_fract_x
_atom_site_fract_y
_atom_site_fract_z
Si Si1 0.241667 0.670073 0.534000
Si Si2 0.597754 0.170615 0.348422
Si Si3 0.173409 0.838002 0.165418
Si Si4 0.403693 0.333523 0.077596
Si Si5 0.767602 0.170090 0.889174
Si Si6 0.098389 0.173058 0.294243
Si Si7 0.370177 0.837332 0.202464
O O1 0.257822 0.500000 0.550360
O O2 0.181623 0.737113 0.593294
O O3 0.336403 0.744413 0.533491
O O4 0.198333 0.691738 0.463546
O O5 0.500000 0.204059 0.375311
O O6 0.670212 0.265026 0.385667
O O7 0.599627 0.215178 0.272982
O O8 0.620871 0.000000 0.357507
O O9 0.110744 0.764464 0.219972
O O10 0.266280 0.837667 0.200466
O O11 0.136854 0.000000 0.153116
O O12 0.500000 0.321493 0.045936
O O13 0.371752 0.500000 0.080045
O O14 0.409355 0.273906 0.150735
O O15 0.835882 0.249944 0.843273
O O16 0.764111 0.000000 0.870602
O O17 0.000000 0.207606 0.316577
O O18 0.118322 0.000000 0.295301
O O19 0.406334 0.000000 0.188096
#
# Coordination Sequence:
#
# PCOD8178820 Si02
#       7
#     8   8   8   8   8   8   8
#     4   9  20  37  55  74 104 151 193 226 273 332
#     4  10  20  34  54  79 110 153 201 242 280 331
#     4   8  14  31  57  81 103 131 179 231 270 321
#     4  10  20  31  46  74 109 142 183 237 288 331
#     4  11  23  38  56  82 120 156 187 235 291 338
#     4  10  20  37  64  91 112 140 183 235 288 345
#     4   9  16  30  52  74 103 143 185 231 279 330
#
# _framework density 19.415747
#
# number of rings (size 3 to 8) (size 9 to 14) (size 15 to 20)
#    0.000    2.429    1.429    2.143    0.000    4.571 
#    0.000    3.571    0.000    2.571    0.000    0.000 
#    0.000    0.000    0.000    0.000    0.000    0.000 
#
# Total GULP energy -346951.679261 kJ/mol
# GULP energy per Si atom -12391.131402 kJ/mol
# Density = 1.937156 g / cm^3
# Si number density = 19.415747 Si / 1000 Ang^3
#
#
#
# Elastic Constant Matrix: (Units=GPa)
#
#
# Indices 1 2 3 4 5 6 
#
# 1 87.3220 33.5409 50.3005 0.0000 0.0000 0.0000
# 2 33.5409 68.1686 43.0659 0.0000 0.0000 0.0000
# 3 50.3005 43.0659 123.2204 0.0000 0.0000 0.0000
# 4 0.0000 0.0000 0.0000 24.2002 0.0000 0.0000
# 5 0.0000 0.0000 0.0000 0.0000 2.8756 0.0000
# 6 0.0000 0.0000 0.0000 0.0000 0.0000 18.2004
#
#
#
# Elastic Compliance Matrix: (Units=1/GPa)
#
#
# Indices 1 2 3 4 5 6 
#
# 1 0.016131 -0.004847 -0.004891 0.000000 0.000000 0.000000
# 2 -0.004847 0.020283 -0.005110 0.000000 0.000000 0.000000
# 3 -0.004891 -0.005110 0.011898 0.000000 0.000000 0.000000
# 4 0.000000 0.000000 0.000000 0.041322 0.000000 0.000000
# 5 0.000000 0.000000 0.000000 0.000000 0.347748 0.000000
# 6 0.000000 0.000000 0.000000 0.000000 0.000000 0.054944
#
#
# Mechanical properties :
#
#
# Convention : Reuss Voigt Hill
#
# Bulk Modulus (GPa) = 53.71850 59.16950 56.44400
# Shear Modulus (GPa) = 9.46562 19.17549 14.32055
#
# Velocity S-wave (km/s) = 2.21039 3.14606 2.71878
# Velocity P-wave (km/s) = 5.85166 6.61348 6.24420
#
# Compressibility (1/GPa) = 0.01861556
#
# Stress axis : x y z
#
# Youngs Moduli (GPa) = 61.99262 49.30276 84.04699
#
# Poissons Ratio (x) = 0.23897 0.41106
# Poissons Ratio (y) = 0.30048 0.42950
# Poissons Ratio (z) = 0.30320 0.25195
#
# Static dielectric constant tensor:
#      x y z
#    x 3.440320 0.000000 0.000000 
#    y 0.000000 3.347770 0.000000 
#    z 0.000000 0.000000 3.659380 
# 
# 
# High freq. dielectric constant tensor:
#      x y z
#    x 1.738330 0.000000 0.000000 
#    y 0.000000 1.728720 0.000000 
#    z 0.000000 0.000000 1.762430 
# 
# From -- ./inp_files/21061.got.cif
#   From: 2010.03.12/outbox.cif.g09.slc.cpg/sg38_11_cif.got.tgz:21061.got - 2010.04.14 02:38:36.
