data_PCOD8178823
_publ_section_title
;
Structure prediction by ZEFSAII (Michael W. Deem and Ramdas Pophale) SiO2 
 PCOD8178823
Probable space group: A M M 2
;
_chemical_formula_sum "Si O2"
_cell_formula_units_Z 64
_cell_length_a 8.866758
_cell_length_b 29.920349
_cell_length_c 14.353406
_cell_angle_alpha 90.000000
_cell_angle_beta 90.000000
_cell_angle_gamma 90.000000
_cell_volume 3807.908287
_symmetry_space_group_name_H-M "A M M 2"
_symmetry_group_IT_number 38
_symmetry_cell_setting 'orthorhombic'
loop_
_space_group_symop_operation_xyz
x,y,z
-x,-y,z
-x,y,z
x,-y,z
x,1/2+y,1/2+z
-x,1/2-y,1/2+z
-x,1/2+y,1/2+z
x,1/2-y,1/2+z
loop_
_atom_site_type_symbol
_atom_site_label
_atom_site_fract_x
_atom_site_fract_y
_atom_site_fract_z
Si Si1 0.324968 0.367372 0.331140
Si Si2 0.172432 0.277128 0.008827
Si Si3 0.675431 0.948663 0.091834
Si Si4 0.678982 0.784710 0.707790
Si Si5 0.822435 0.550020 0.394054
Si Si6 0.678874 0.197765 0.322913
Si Si7 0.831423 0.173270 0.998668
Si Si8 0.824505 0.370794 0.691889
O O1 0.500000 0.376393 0.318576
O O2 0.267228 0.330032 0.259074
O O3 0.239743 0.414873 0.317333
O O4 0.292202 0.350358 0.435157
O O5 0.262037 0.302768 0.928402
O O6 0.000000 0.293526 0.011287
O O7 0.247013 0.286871 0.107443
O O8 0.184153 0.225488 0.984688
O O9 0.500000 0.937345 0.080640
O O10 0.748642 0.918828 0.173120
O O11 0.701582 0.000000 0.120180
O O12 0.756318 0.937306 0.994768
O O13 0.500000 0.782907 0.697620
O O14 0.736042 0.741678 0.766410
O O15 0.772019 0.500000 0.364746
O O16 0.000000 0.553804 0.400946
O O17 0.500000 0.195964 0.323527
O O18 0.743995 0.152632 0.278527
O O19 0.796461 0.161790 0.104952
O O20 0.000000 0.156850 0.970870
O O21 0.000000 0.377699 0.714037
#
# Coordination Sequence:
#
# PCOD8178823 Si02
#       8
#     8   8   8   8   8   8   8   8
#     4  11  21  33  51  75 102 136 177 214 254 306
#     4  11  22  36  53  73 101 137 177 220 257 298
#     4  10  20  33  50  74 103 136 173 212 257 308
#     4  10  22  36  51  74 102 136 174 212 256 306
#     4  10  20  33  49  72 103 137 171 210 258 309
#     4  11  22  36  53  74 104 139 175 215 257 305
#     4  10  20  31  47  72 104 138 172 212 254 298
#     4  11  21  34  51  76 105 138 178 213 256 307
#
# _framework density 16.807127999999999
#
# number of rings (size 3 to 8) (size 9 to 14) (size 15 to 20)
#    0.000    1.500    3.750    2.250    0.000    4.000 
#    0.000    0.000    0.000    0.000    0.000    0.875 
#    0.000    3.000    0.000    0.000    0.000    0.000 
#
# Total GULP energy -396858.834096 kJ/mol
# GULP energy per Si atom -12401.838565 kJ/mol
# Density = 1.676887 g / cm^3
# Si number density = 16.807128 Si / 1000 Ang^3
#
#
#
# Elastic Constant Matrix: (Units=GPa)
#
#
# Indices 1 2 3 4 5 6 
#
# 1 64.1853 36.6873 35.1300 0.0000 0.0000 0.0000
# 2 36.6873 94.6715 37.1098 0.0000 0.0000 0.0000
# 3 35.1300 37.1098 75.1391 0.0000 0.0000 0.0000
# 4 0.0000 0.0000 0.0000 26.6653 0.0000 0.0000
# 5 0.0000 0.0000 0.0000 0.0000 24.3016 0.0000
# 6 0.0000 0.0000 0.0000 0.0000 0.0000 27.8322
#
#
#
# Elastic Compliance Matrix: (Units=1/GPa)
#
#
# Indices 1 2 3 4 5 6 
#
# 1 0.023330 -0.005909 -0.007989 0.000000 0.000000 0.000000
# 2 -0.005909 0.014595 -0.004446 0.000000 0.000000 0.000000
# 3 -0.007989 -0.004446 0.019239 0.000000 0.000000 0.000000
# 4 0.000000 0.000000 0.000000 0.037502 0.000000 0.000000
# 5 0.000000 0.000000 0.000000 0.000000 0.041150 0.000000
# 6 0.000000 0.000000 0.000000 0.000000 0.000000 0.035930
#
#
# Mechanical properties :
#
#
# Convention : Reuss Voigt Hill
#
# Bulk Modulus (GPa) = 48.83544 50.20556 49.52050
# Shear Modulus (GPa) = 23.22773 24.09774 23.66273
#
# Velocity S-wave (km/s) = 3.72158 3.79064 3.75627
# Velocity P-wave (km/s) = 6.89829 7.00678 6.95275
#
# Compressibility (1/GPa) = 0.02047693
#
# Stress axis : x y z
#
# Youngs Moduli (GPa) = 42.86295 68.51444 51.97663
#
# Poissons Ratio (x) = 0.40488 0.41525
# Poissons Ratio (y) = 0.25329 0.23107
# Poissons Ratio (z) = 0.34244 0.30459
#
# Static dielectric constant tensor:
#      x y z
#    x 3.246230 0.000000 0.000000 
#    y 0.000000 3.322700 0.000000 
#    z 0.000000 0.000000 2.915020 
# 
# 
# High freq. dielectric constant tensor:
#      x y z
#    x 1.661470 0.000000 0.000000 
#    y 0.000000 1.647030 0.000000 
#    z 0.000000 0.000000 1.615960 
# 
# From -- ./inp_files/8674.got.cif
#   From: 2010.03.12/outbox.cif.g09.slc.cpg/sg38_5_cif.got.tgz:8674.got - 2010.04.14 02:38:36.
