data_PCOD8178950
_publ_section_title
;
Structure prediction by ZEFSAII (Michael W. Deem and Ramdas Pophale) SiO2 
 PCOD8178950
Probable space group: A M M 2
;
_chemical_formula_sum "Si O2"
_cell_formula_units_Z 64
_cell_length_a 14.063185
_cell_length_b 8.910381
_cell_length_c 31.080710
_cell_angle_alpha 90.000000
_cell_angle_beta 90.000000
_cell_angle_gamma 90.000000
_cell_volume 3894.672065
_symmetry_space_group_name_H-M "A M M 2"
_symmetry_group_IT_number 38
_symmetry_cell_setting 'orthorhombic'
loop_
_space_group_symop_operation_xyz
x,y,z
-x,-y,z
-x,y,z
x,-y,z
x,1/2+y,1/2+z
-x,1/2-y,1/2+z
-x,1/2+y,1/2+z
x,1/2-y,1/2+z
loop_
_atom_site_type_symbol
_atom_site_label
_atom_site_fract_x
_atom_site_fract_y
_atom_site_fract_z
Si Si1 0.391980 0.174469 0.975450
Si Si2 0.112971 0.168967 0.774564
Si Si3 0.890907 0.822966 0.188097
Si Si4 0.606052 0.328973 0.064285
Si Si5 0.890903 0.324673 0.859970
Si Si6 0.797304 0.325599 0.107729
Si Si7 0.785693 0.176747 0.446218
Si Si8 0.888862 0.825993 0.026125
O O1 0.500000 0.211021 0.962127
O O2 0.324332 0.272681 0.944707
O O3 0.368231 0.000000 0.970064
O O4 0.373346 0.218430 0.024878
O O5 0.149195 0.259818 0.733100
O O6 0.152828 0.241805 0.818384
O O7 0.000000 0.176252 0.776131
O O8 0.151144 0.000000 0.771120
O O9 0.825283 0.760382 0.150613
O O10 0.000000 0.772166 0.180300
O O11 0.882586 0.000000 0.189242
O O12 0.500000 0.300755 0.083276
O O13 0.615758 0.500000 0.047269
O O14 0.684451 0.297949 0.100817
O O15 0.881296 0.500000 0.851219
O O16 0.832073 0.273428 0.901442
O O17 0.000000 0.278592 0.868123
O O18 0.821275 0.500000 0.113249
O O19 0.857234 0.264189 0.067948
O O20 0.836450 0.263662 0.484528
O O21 0.795603 0.000000 0.454037
O O22 0.000000 0.801507 0.019192
O O23 0.862996 0.000000 0.032465
#
# Coordination Sequence:
#
# PCOD8178950 Si02
#       8
#     8   8   8   8   8   8   8   8
#     4  10  20  33  50  71  95 125 162 206 251 293
#     4   9  17  30  49  72  96 123 159 202 243 283
#     4  10  20  33  49  69  97 132 165 199 240 286
#     4   9  18  33  51  70  93 123 160 202 248 294
#     4   9  18  32  49  70  98 130 163 198 238 287
#     4  11  21  32  49  72  96 127 164 203 244 288
#     4  11  21  33  50  72  97 130 167 203 243 289
#     4  11  23  35  46  64  96 135 169 201 239 285
#
# _framework density 16.432706
#
# number of rings (size 3 to 8) (size 9 to 14) (size 15 to 20)
#    0.000    2.000    1.250    3.000    0.000    7.500 
#    0.000    1.250    0.000    0.000    0.000    0.875 
#    0.000    5.000    0.000    0.000    0.000    0.000 
#
# Total GULP energy -396851.288614 kJ/mol
# GULP energy per Si atom -12401.602769 kJ/mol
# Density = 1.639530 g / cm^3
# Si number density = 16.432706 Si / 1000 Ang^3
#
#
#
# Elastic Constant Matrix: (Units=GPa)
#
#
# Indices 1 2 3 4 5 6 
#
# 1 78.7417 29.8955 46.3215 0.0000 0.0000 0.0000
# 2 29.8955 55.2428 36.6056 0.0000 0.0000 0.0000
# 3 46.3215 36.6056 118.7199 0.0000 0.0000 0.0000
# 4 0.0000 0.0000 0.0000 32.1926 0.0000 0.0000
# 5 0.0000 0.0000 0.0000 0.0000 3.2546 0.0000
# 6 0.0000 0.0000 0.0000 0.0000 0.0000 23.2618
#
#
#
# Elastic Compliance Matrix: (Units=1/GPa)
#
#
# Indices 1 2 3 4 5 6 
#
# 1 0.018141 -0.006444 -0.005091 0.000000 0.000000 0.000000
# 2 -0.006444 0.025039 -0.005206 0.000000 0.000000 0.000000
# 3 -0.005091 -0.005206 0.012015 0.000000 0.000000 0.000000
# 4 0.000000 0.000000 0.000000 0.031063 0.000000 0.000000
# 5 0.000000 0.000000 0.000000 0.000000 0.307262 0.000000
# 6 0.000000 0.000000 0.000000 0.000000 0.000000 0.042989
#
#
# Mechanical properties :
#
#
# Convention : Reuss Voigt Hill
#
# Bulk Modulus (GPa) = 46.05657 53.14995 49.60326
# Shear Modulus (GPa) = 10.47715 21.06723 15.77219
#
# Velocity S-wave (km/s) = 2.52777 3.58443 3.10143
# Velocity P-wave (km/s) = 6.05043 7.03883 6.56326
#
# Compressibility (1/GPa) = 0.02171243
#
# Stress axis : x y z
#
# Youngs Moduli (GPa) = 55.12258 39.93806 83.22920
#
# Poissons Ratio (x) = 0.25735 0.42376
# Poissons Ratio (y) = 0.35519 0.43331
# Poissons Ratio (z) = 0.28066 0.20792
#
# Static dielectric constant tensor:
#      x y z
#    x 3.185760 0.000000 0.000000 
#    y 0.000000 3.261700 0.000000 
#    z 0.000000 0.000000 3.153380 
# 
# 
# High freq. dielectric constant tensor:
#      x y z
#    x 1.614530 0.000000 0.000000 
#    y 0.000000 1.648250 0.000000 
#    z 0.000000 0.000000 1.619140 
# 
# From -- ./inp_files/25067.got.cif
#   From: 2010.03.12/outbox.cif.g09.slc.cpg/sg38_13_cif.got.tgz:25067.got - 2010.04.14 02:38:36.
