data_PCOD8178753
_publ_section_title
;
Structure prediction by ZEFSAII (Michael W. Deem and Ramdas Pophale) SiO2 
 PCOD8178753
Probable space group: A M M 2
;
_chemical_formula_sum "Si O2"
_cell_formula_units_Z 48
_cell_length_a 8.647888
_cell_length_b 10.079274
_cell_length_c 27.964549
_cell_angle_alpha 90.000000
_cell_angle_beta 90.000000
_cell_angle_gamma 90.000000
_cell_volume 2437.514049
_symmetry_space_group_name_H-M "A M M 2"
_symmetry_group_IT_number 38
_symmetry_cell_setting 'orthorhombic'
loop_
_space_group_symop_operation_xyz
x,y,z
-x,-y,z
-x,y,z
x,-y,z
x,1/2+y,1/2+z
-x,1/2-y,1/2+z
-x,1/2+y,1/2+z
x,1/2-y,1/2+z
loop_
_atom_site_type_symbol
_atom_site_label
_atom_site_fract_x
_atom_site_fract_y
_atom_site_fract_z
Si Si1 0.316758 0.652185 0.354730
Si Si2 0.316702 0.348866 0.936615
Si Si3 0.316733 0.251041 0.040509
Si Si4 0.325041 0.000000 0.705877
Si Si5 0.181522 0.000000 0.091027
Si Si6 0.182212 0.242627 0.756051
Si Si7 0.327479 0.500000 0.093807
Si Si8 0.816388 0.000000 0.199502
O O1 0.500000 0.646210 0.357140
O O2 0.251827 0.500000 0.358557
O O3 0.250933 0.747442 0.396604
O O4 0.266522 0.722619 0.306127
O O5 0.500000 0.356495 0.933350
O O6 0.250803 0.500000 0.930504
O O7 0.265405 0.285483 0.986768
O O8 0.500000 0.229875 0.044867
O O9 0.233508 0.122509 0.059529
O O10 0.248366 0.367875 0.073897
O O11 0.227601 0.874489 0.721096
O O12 0.331751 0.000000 0.649799
O O13 0.500000 0.000000 0.727600
O O14 0.252704 0.000000 0.145236
O O15 0.000000 0.000000 0.096472
O O16 0.243130 0.374140 0.729582
O O17 0.000000 0.245899 0.764967
O O18 0.500000 0.500000 0.071594
O O19 0.000000 0.000000 0.196539
#
# Coordination Sequence:
#
# PCOD8178753 Si02
#       8
#     8   8   8   4   4   8   4   4
#     4  10  21  36  56  85 118 146 181 232 286 337
#     4   9  18  34  59  88 115 146 185 228 281 342
#     4  10  19  36  61  87 114 148 189 233 278 336
#     4  11  21  35  56  85 118 146 179 233 290 337
#     4  11  23  39  56  81 118 156 191 235 282 333
#     4  11  22  39  60  81 109 151 196 235 279 339
#     4   9  18  33  58  89 115 140 180 237 288 329
#     4   9  22  41  58  79 113 154 196 235 280 337
#
# _framework density 19.692194000000001
#
# number of rings (size 3 to 8) (size 9 to 14) (size 15 to 20)
#    0.000    2.000    1.667    2.000    2.333    0.000 
#    0.000    5.833    0.000    1.000    0.000    0.000 
#    0.000    0.000    0.000    0.000    0.000    0.000 
#
# Total GULP energy -297515.384190 kJ/mol
# GULP energy per Si atom -12396.474341 kJ/mol
# Density = 1.964737 g / cm^3
# Si number density = 19.692194 Si / 1000 Ang^3
#
#
#
# Elastic Constant Matrix: (Units=GPa)
#
#
# Indices 1 2 3 4 5 6 
#
# 1 15.7158 18.2952 11.5877 0.0000 0.0000 0.0000
# 2 18.2952 197.4234 89.6439 0.0000 0.0000 0.0000
# 3 11.5877 89.6439 140.6110 0.0000 0.0000 0.0000
# 4 0.0000 0.0000 0.0000 16.3936 0.0000 0.0000
# 5 0.0000 0.0000 0.0000 0.0000 15.9411 0.0000
# 6 0.0000 0.0000 0.0000 0.0000 0.0000-1727.4067
#
#
#
# Elastic Compliance Matrix: (Units=1/GPa)
#
#
# Indices 1 2 3 4 5 6 
#
# 1 0.071877 -0.005589 -0.002360 0.000000 0.000000 0.000000
# 2 -0.005589 0.007564 -0.004361 0.000000 0.000000 0.000000
# 3 -0.002360 -0.004361 0.010087 0.000000 0.000000 0.000000
# 4 0.000000 0.000000 0.000000 0.060999 0.000000 0.000000
# 5 0.000000 0.000000 0.000000 0.000000 0.062731 0.000000
# 6 0.000000 0.000000 0.000000 0.000000 0.000000 -0.000579
#
#
# Mechanical properties :
#
#
# Convention : Reuss Voigt Hill
#
# Bulk Modulus (GPa) = 15.40691 65.86710 40.63701
# Shear Modulus (GPa) = 19.30982 -323.39952 -152.04485
#
# Velocity S-wave (km/s) = 3.13482 -12.82902 -8.79650
# Velocity P-wave (km/s) = 4.57643 13.63540 9.08241
#
# Compressibility (1/GPa) = 0.06490592
#
# Stress axis : x y z
#
# Youngs Moduli (GPa) = 13.91269 132.21232 99.13894
#
# Poissons Ratio (x) = 0.73896 0.23397
# Poissons Ratio (y) = 0.07776 0.43239
# Poissons Ratio (z) = 0.03283 0.57663
#
# Static dielectric constant tensor:
#      x y z
#    x 3.265190 0.000000 0.000000 
#    y 0.000000 4.245270 0.000000 
#    z 0.000000 0.000000 3.749720 
# 
# 
# High freq. dielectric constant tensor:
#      x y z
#    x 1.726140 0.000000 0.000000 
#    y 0.000000 1.788070 0.000000 
#    z 0.000000 0.000000 1.783390 
# 
# From -- ./inp_files/24453.got.cif
#   From: 2010.03.12/outbox.cif.g09.slc.cpg/sg38_13_cif.got.tgz:24453.got - 2010.04.14 02:38:36.
