data_PCOD8178963
_publ_section_title
;
Structure prediction by ZEFSAII (Michael W. Deem and Ramdas Pophale) SiO2 
 PCOD8178963
Probable space group: A M M 2
;
_chemical_formula_sum "Si O2"
_cell_formula_units_Z 64
_cell_length_a 8.765338
_cell_length_b 23.152130
_cell_length_c 19.180645
_cell_angle_alpha 90.000000
_cell_angle_beta 90.000000
_cell_angle_gamma 90.000000
_cell_volume 3892.448070
_symmetry_space_group_name_H-M "A M M 2"
_symmetry_group_IT_number 38
_symmetry_cell_setting 'orthorhombic'
loop_
_space_group_symop_operation_xyz
x,y,z
-x,-y,z
-x,y,z
x,-y,z
x,1/2+y,1/2+z
-x,1/2-y,1/2+z
-x,1/2+y,1/2+z
x,1/2-y,1/2+z
loop_
_atom_site_type_symbol
_atom_site_label
_atom_site_fract_x
_atom_site_fract_y
_atom_site_fract_z
Si Si1 0.320940 0.778516 0.670650
Si Si2 0.823549 0.065223 0.157404
Si Si3 0.180608 0.251331 0.532384
Si Si4 0.678146 0.875953 0.029682
Si Si5 0.176477 0.433552 0.398590
Si Si6 0.822868 0.839464 0.791634
Si Si7 0.177755 0.328380 0.747119
Si Si8 0.178897 0.767519 0.380794
O O1 0.500000 0.779695 0.665470
O O2 0.253318 0.787011 0.593453
O O3 0.265591 0.831702 0.718830
O O4 0.269509 0.716685 0.700296
O O5 0.783358 0.106836 0.222707
O O6 0.000000 0.072279 0.135520
O O7 0.787798 0.000000 0.181477
O O8 0.720108 0.080032 0.091302
O O9 0.226100 0.318019 0.540119
O O10 0.246464 0.226135 0.458753
O O11 0.000000 0.246691 0.537938
O O12 0.500000 0.861211 0.032175
O O13 0.717127 0.906431 0.957181
O O14 0.219138 0.500000 0.387836
O O15 0.208284 0.402174 0.324711
O O16 0.000000 0.425183 0.420749
O O17 0.760545 0.791668 0.846174
O O18 0.000000 0.828971 0.775901
O O19 0.222439 0.320767 0.829155
O O20 0.000000 0.313532 0.737007
O O21 0.000000 0.761946 0.390581
#
# Coordination Sequence:
#
# PCOD8178963 Si02
#       8
#     8   8   8   8   8   8   8   8
#     4  11  21  31  46  72  99 124 158 199 246 294
#     4  10  20  33  50  69  93 131 171 200 233 284
#     4  11  19  32  51  70  94 129 165 201 241 291
#     4  12  23  32  44  68 102 135 166 203 242 283
#     4  10  20  35  54  72  94 130 174 209 238 284
#     4   9  17  33  51  70  94 126 163 199 242 288
#     4   9  17  32  50  68  92 124 159 198 240 287
#     4   8  15  28  49  70  88 117 158 197 237 284
#
# _framework density 16.442094999999998
#
# number of rings (size 3 to 8) (size 9 to 14) (size 15 to 20)
#    0.000    2.000    2.500    3.750    0.000    2.500 
#    0.000    0.625    0.000    0.000    0.000    0.875 
#    0.000    5.000    0.000    0.000    0.000    0.000 
#
# Total GULP energy -396732.940273 kJ/mol
# GULP energy per Si atom -12397.904384 kJ/mol
# Density = 1.640467 g / cm^3
# Si number density = 16.442095 Si / 1000 Ang^3
#
#
#
# Elastic Constant Matrix: (Units=GPa)
#
#
# Indices 1 2 3 4 5 6 
#
# 1 70.0420 19.8324 39.9586 0.0000 0.0000 0.0000
# 2 19.8324 59.5940 38.6396 0.0000 0.0000 0.0000
# 3 39.9586 38.6396 127.3903 0.0000 0.0000 0.0000
# 4 0.0000 0.0000 0.0000 22.5167 0.0000 0.0000
# 5 0.0000 0.0000 0.0000 0.0000 8.7543 0.0000
# 6 0.0000 0.0000 0.0000 0.0000 0.0000 8.0697
#
#
#
# Elastic Compliance Matrix: (Units=1/GPa)
#
#
# Indices 1 2 3 4 5 6 
#
# 1 0.017773 -0.002863 -0.004706 0.000000 0.000000 0.000000
# 2 -0.002863 0.021349 -0.005578 0.000000 0.000000 0.000000
# 3 -0.004706 -0.005578 0.011018 0.000000 0.000000 0.000000
# 4 0.000000 0.000000 0.000000 0.044411 0.000000 0.000000
# 5 0.000000 0.000000 0.000000 0.000000 0.114229 0.000000
# 6 0.000000 0.000000 0.000000 0.000000 0.000000 0.123921
#
#
# Mechanical properties :
#
#
# Convention : Reuss Voigt Hill
#
# Bulk Modulus (GPa) = 41.93574 50.43197 46.18385
# Shear Modulus (GPa) = 13.62605 18.44119 16.03362
#
# Velocity S-wave (km/s) = 2.88189 3.35264 3.12614
# Velocity P-wave (km/s) = 6.05262 6.76210 6.41717
#
# Compressibility (1/GPa) = 0.02384601
#
# Stress axis : x y z
#
# Youngs Moduli (GPa) = 56.26573 46.83967 90.76133
#
# Poissons Ratio (x) = 0.13411 0.42716
# Poissons Ratio (y) = 0.16110 0.50623
# Poissons Ratio (z) = 0.26481 0.26125
#
# Static dielectric constant tensor:
#      x y z
#    x 2.954670 0.000000 0.000000 
#    y 0.000000 2.983650 0.000000 
#    z 0.000000 0.000000 3.399500 
# 
# 
# High freq. dielectric constant tensor:
#      x y z
#    x 1.622030 0.000000 0.000000 
#    y 0.000000 1.601390 0.000000 
#    z 0.000000 0.000000 1.634240 
# 
# From -- ./inp_files/17275.got.cif
#   From: 2010.03.12/outbox.cif.g09.slc.cpg/sg38_9_cif.got.tgz:17275.got - 2010.04.14 02:38:36.
