data_PCOD8178797
_publ_section_title
;
Structure prediction by ZEFSAII (Michael W. Deem and Ramdas Pophale) SiO2 
 PCOD8178797
Probable space group: A M M 2
;
_chemical_formula_sum "Si O2"
_cell_formula_units_Z 56
_cell_length_a 9.407424
_cell_length_b 18.488683
_cell_length_c 20.716490
_cell_angle_alpha 90.000000
_cell_angle_beta 90.000000
_cell_angle_gamma 90.000000
_cell_volume 3603.237340
_symmetry_space_group_name_H-M "A M M 2"
_symmetry_group_IT_number 38
_symmetry_cell_setting 'orthorhombic'
loop_
_space_group_symop_operation_xyz
x,y,z
-x,-y,z
-x,y,z
x,-y,z
x,1/2+y,1/2+z
-x,1/2-y,1/2+z
-x,1/2+y,1/2+z
x,1/2-y,1/2+z
loop_
_atom_site_type_symbol
_atom_site_label
_atom_site_fract_x
_atom_site_fract_y
_atom_site_fract_z
Si Si1 0.663149 0.079991 0.331930
Si Si2 0.339249 0.777615 0.272839
Si Si3 0.835470 0.293681 0.382190
Si Si4 0.660150 0.852625 0.695608
Si Si5 0.167702 0.417385 0.080103
Si Si6 0.334880 0.081852 0.835809
Si Si7 0.834787 0.849248 0.446917
O O1 0.500000 0.078325 0.354080
O O2 0.681874 0.135179 0.270722
O O3 0.751107 0.106157 0.393273
O O4 0.713929 0.000000 0.310168
O O5 0.500000 0.759901 0.299076
O O6 0.218800 0.748184 0.319626
O O7 0.321975 0.734976 0.204905
O O8 0.748850 0.368816 0.388254
O O9 0.810283 0.237800 0.441621
O O10 0.000000 0.313085 0.373917
O O11 0.500000 0.872046 0.674093
O O12 0.767237 0.879260 0.642096
O O13 0.696477 0.891433 0.763252
O O14 0.220289 0.500000 0.075512
O O15 0.000000 0.413243 0.087827
O O16 0.219604 0.374680 0.016756
O O17 0.500000 0.087646 0.852349
O O18 0.279861 0.000000 0.842680
O O19 0.000000 0.868348 0.437287
#
# Coordination Sequence:
#
# PCOD8178797 Si02
#       7
#     8   8   8   8   8   8   8
#     4   9  16  26  43  66  86 105 134 171 207 244
#     4   8  15  28  42  57  82 111 135 164 208 254
#     4   9  16  26  42  62  81 104 138 174 203 238
#     4   9  17  29  43  58  80 111 142 168 196 237
#     4  10  20  31  42  58  82 112 142 170 200 234
#     4   9  17  29  44  62  86 113 135 162 208 255
#     4   9  18  31  43  57  83 116 142 165 201 247
#
# _framework density 15.541579
#
# number of rings (size 3 to 8) (size 9 to 14) (size 15 to 20)
#    0.000    3.000    0.000    2.143    0.000    5.429 
#    0.000    0.000    0.000    0.000    0.000    1.000 
#    0.000    3.429    0.000    0.000    0.000    0.000 
#
# Total GULP energy -346902.682369 kJ/mol
# GULP energy per Si atom -12389.381513 kJ/mol
# Density = 1.550621 g / cm^3
# Si number density = 15.541579 Si / 1000 Ang^3
#
#
#
# Elastic Constant Matrix: (Units=GPa)
#
#
# Indices 1 2 3 4 5 6 
#
# 1 44.5636 45.2600 28.2628 0.0000 0.0000 0.0000
# 2 45.2600 154.1924 53.7356 0.0000 0.0000 0.0000
# 3 28.2628 53.7356 59.4267 0.0000 0.0000 0.0000
# 4 0.0000 0.0000 0.0000 23.5993 0.0000 0.0000
# 5 0.0000 0.0000 0.0000 0.0000 19.5309 0.0000
# 6 0.0000 0.0000 0.0000 0.0000 0.0000 22.8303
#
#
#
# Elastic Compliance Matrix: (Units=1/GPa)
#
#
# Indices 1 2 3 4 5 6 
#
# 1 0.036436 -0.006798 -0.011181 0.000000 0.000000 0.000000
# 2 -0.006798 0.010738 -0.006476 0.000000 0.000000 0.000000
# 3 -0.011181 -0.006476 0.028001 0.000000 0.000000 0.000000
# 4 0.000000 0.000000 0.000000 0.042374 0.000000 0.000000
# 5 0.000000 0.000000 0.000000 0.000000 0.051201 0.000000
# 6 0.000000 0.000000 0.000000 0.000000 0.000000 0.043801
#
#
# Mechanical properties :
#
#
# Convention : Reuss Voigt Hill
#
# Bulk Modulus (GPa) = 38.07629 56.96661 47.52145
# Shear Modulus (GPa) = 18.50362 21.92039 20.21201
#
# Velocity S-wave (km/s) = 3.45423 3.75965 3.61017
# Velocity P-wave (km/s) = 6.36096 7.45524 6.92973
#
# Compressibility (1/GPa) = 0.02626306
#
# Stress axis : x y z
#
# Youngs Moduli (GPa) = 27.44566 93.12815 35.71266
#
# Poissons Ratio (x) = 0.63311 0.39931
# Poissons Ratio (y) = 0.18658 0.23129
# Poissons Ratio (z) = 0.30688 0.60313
#
# Static dielectric constant tensor:
#      x y z
#    x 2.983930 0.000000 0.000000 
#    y 0.000000 3.469050 0.000000 
#    z 0.000000 0.000000 2.680610 
# 
# 
# High freq. dielectric constant tensor:
#      x y z
#    x 1.600670 0.000000 0.000000 
#    y 0.000000 1.609500 0.000000 
#    z 0.000000 0.000000 1.544450 
# 
# From -- ./inp_files/19981.got.cif
#   From: 2010.03.12/outbox.cif.g09.slc.cpg/sg38_10_cif.got.tgz:19981.got - 2010.04.14 02:38:36.
