data_PCOD8178015
_publ_section_title
;
Structure prediction by ZEFSAII (Michael W. Deem and Ramdas Pophale) SiO2 
 PCOD8178015
Probable space group: A M M 2
;
_chemical_formula_sum "Si O2"
_cell_formula_units_Z 40
_cell_length_a 13.821971
_cell_length_b 9.004741
_cell_length_c 20.727082
_cell_angle_alpha 90.000000
_cell_angle_beta 90.000000
_cell_angle_gamma 90.000000
_cell_volume 2579.760382
_symmetry_space_group_name_H-M "A M M 2"
_symmetry_group_IT_number 38
_symmetry_cell_setting 'orthorhombic'
loop_
_space_group_symop_operation_xyz
x,y,z
-x,-y,z
-x,y,z
x,-y,z
x,1/2+y,1/2+z
-x,1/2-y,1/2+z
-x,1/2+y,1/2+z
x,1/2-y,1/2+z
loop_
_atom_site_type_symbol
_atom_site_label
_atom_site_fract_x
_atom_site_fract_y
_atom_site_fract_z
Si Si1 0.613035 0.172027 0.030060
Si Si2 0.891925 0.669153 0.360942
Si Si3 0.722751 0.175320 0.415012
Si Si4 0.710583 0.668876 0.289763
Si Si5 0.612235 0.828196 0.660930
O O1 0.500000 0.200299 0.018844
O O2 0.644252 0.230487 0.100203
O O3 0.640375 0.000000 0.024459
O O4 0.670661 0.264662 0.977788
O O5 0.896391 0.500000 0.386093
O O6 0.834807 0.767364 0.414435
O O7 0.828758 0.676214 0.294269
O O8 0.000000 0.732059 0.349176
O O9 0.668397 0.236671 0.350372
O O10 0.719657 0.000000 0.415486
O O11 0.672979 0.500000 0.297405
O O12 0.673854 0.732578 0.221759
O O13 0.500000 0.805473 0.677509
O O14 0.635645 0.000000 0.646076
#
# Coordination Sequence:
#
# PCOD8178015 Si02
#       5
#     8   8   8   8   8
#     4  10  20  33  48  66  93 129 164 195 232 281
#     4   8  15  30  50  70  94 124 156 191 236 285
#     4  10  19  30  47  72  97 122 157 199 236 276
#     4   8  16  30  46  69  95 123 158 191 233 281
#     4   9  17  30  48  68  93 125 158 193 233 279
#
# _framework density 15.505315
#
# number of rings (size 3 to 8) (size 9 to 14) (size 15 to 20)
#    1.200    1.800    0.000    1.800    0.000    3.200 
#    0.000    2.000    0.000    1.200    0.000    2.800 
#    0.000    0.000    0.000    0.000    0.000    0.000 
#
# Total GULP energy -247778.460702 kJ/mol
# GULP energy per Si atom -12388.923035 kJ/mol
# Density = 1.547002 g / cm^3
# Si number density = 15.505315 Si / 1000 Ang^3
#
#
#
# Elastic Constant Matrix: (Units=GPa)
#
#
# Indices 1 2 3 4 5 6 
#
# 1 69.0797 43.2906 61.4875 0.0000 0.0000 0.0000
# 2 43.2906 94.8904 60.5034 0.0000 0.0000 0.0000
# 3 61.4875 60.5034 119.7929 0.0000 0.0000 0.0000
# 4 0.0000 0.0000 0.0000 28.2836 0.0000 0.0000
# 5 0.0000 0.0000 0.0000 0.0000 0.9566 0.0000
# 6 0.0000 0.0000 0.0000 0.0000 0.0000 16.9658
#
#
#
# Elastic Compliance Matrix: (Units=1/GPa)
#
#
# Indices 1 2 3 4 5 6 
#
# 1 0.028415 -0.005404 -0.011856 0.000000 0.000000 0.000000
# 2 -0.005404 0.016572 -0.005596 0.000000 0.000000 0.000000
# 3 -0.011856 -0.005596 0.017259 0.000000 0.000000 0.000000
# 4 0.000000 0.000000 0.000000 0.035356 0.000000 0.000000
# 5 0.000000 0.000000 0.000000 0.000000 1.045329 0.000000
# 6 0.000000 0.000000 0.000000 0.000000 0.000000 0.058942
#
#
# Mechanical properties :
#
#
# Convention : Reuss Voigt Hill
#
# Bulk Modulus (GPa) = 60.47791 68.25845 64.36818
# Shear Modulus (GPa) = 3.99011 17.13996 10.56504
#
# Velocity S-wave (km/s) = 1.60592 3.32840 2.61316
# Velocity P-wave (km/s) = 6.52134 7.67393 7.12099
#
# Compressibility (1/GPa) = 0.01653496
#
# Stress axis : x y z
#
# Youngs Moduli (GPa) = 35.19226 60.34208 57.93952
#
# Poissons Ratio (x) = 0.32611 0.68690
# Poissons Ratio (y) = 0.19019 0.32424
# Poissons Ratio (z) = 0.41722 0.33768
#
# Static dielectric constant tensor:
#      x y z
#    x 2.881720 0.000000 0.000000 
#    y 0.000000 2.931270 0.000000 
#    z 0.000000 0.000000 2.877740 
# 
# 
# High freq. dielectric constant tensor:
#      x y z
#    x 1.573700 0.000000 0.000000 
#    y 0.000000 1.596820 0.000000 
#    z 0.000000 0.000000 1.581210 
# 
# From -- ./inp_files/14828.got.cif
#   From: 2010.03.12/outbox.cif.g09.slc.cpg/sg38_8_cif.got.tgz:14828.got - 2010.04.14 02:38:36.
