data_PCOD8178583
_publ_section_title
;
Structure prediction by ZEFSAII (Michael W. Deem and Ramdas Pophale) SiO2 
 PCOD8178583
Probable space group: A M M 2
;
_chemical_formula_sum "Si O2"
_cell_formula_units_Z 48
_cell_length_a 9.054975
_cell_length_b 15.175376
_cell_length_c 18.814516
_cell_angle_alpha 90.000000
_cell_angle_beta 90.000000
_cell_angle_gamma 90.000000
_cell_volume 2585.352508
_symmetry_space_group_name_H-M "A M M 2"
_symmetry_group_IT_number 38
_symmetry_cell_setting 'orthorhombic'
loop_
_space_group_symop_operation_xyz
x,y,z
-x,-y,z
-x,y,z
x,-y,z
x,1/2+y,1/2+z
-x,1/2-y,1/2+z
-x,1/2+y,1/2+z
x,1/2-y,1/2+z
loop_
_atom_site_type_symbol
_atom_site_label
_atom_site_fract_x
_atom_site_fract_y
_atom_site_fract_z
Si Si1 0.828860 0.649942 0.137020
Si Si2 0.827500 0.648382 0.473316
Si Si3 0.673378 0.000000 0.722237
Si Si4 0.824140 0.000000 0.233785
Si Si5 0.674064 0.000000 0.885413
Si Si6 0.325590 0.000000 0.385585
Si Si7 0.831364 0.352184 0.972041
Si Si8 0.175074 0.845876 0.131756
O O1 0.734363 0.586868 0.185614
O O2 0.770261 0.748544 0.153065
O O3 0.000000 0.639222 0.157255
O O4 0.804301 0.627005 0.054594
O O5 0.737435 0.588475 0.419620
O O6 0.797933 0.750412 0.454555
O O7 0.768800 0.627936 0.553055
O O8 0.000000 0.625710 0.466368
O O9 0.722673 0.000000 0.803728
O O10 0.500000 0.000000 0.713342
O O11 0.746198 0.000000 0.308585
O O12 0.769109 0.085263 0.190165
O O13 0.000000 0.000000 0.243581
O O14 0.500000 0.000000 0.895022
O O15 0.277096 0.912230 0.426470
O O16 0.500000 0.000000 0.377851
O O17 0.000000 0.375089 0.951713
O O18 0.000000 0.843483 0.126764
#
# Coordination Sequence:
#
# PCOD8178583 Si02
#       8
#     8   8   4   4   4   4   8   8
#     4   9  18  35  59  83 103 128 171 223 268 312
#     4   9  18  36  62  85 103 131 177 226 267 313
#     4  11  24  37  48  71 110 149 178 209 256 310
#     4  10  19  34  56  79 108 142 173 210 260 316
#     4  11  24  37  49  75 117 153 176 209 260 314
#     4  12  25  36  49  75 113 150 181 214 256 314
#     4   9  19  37  60  83 105 132 173 226 274 313
#     4   8  16  33  59  86 105 127 168 223 272 309
#
# _framework density 18.566134000000002
#
# number of rings (size 3 to 8) (size 9 to 14) (size 15 to 20)
#    0.000    2.500    0.000    4.250    0.000    7.333 
#    0.000   10.000    0.000    0.000    0.000    0.000 
#    0.000    0.000    0.000    0.000    0.000    0.000 
#
# Total GULP energy -297603.033759 kJ/mol
# GULP energy per Si atom -12400.126407 kJ/mol
# Density = 1.852388 g / cm^3
# Si number density = 18.566134 Si / 1000 Ang^3
#
#
#
# Elastic Constant Matrix: (Units=GPa)
#
#
# Indices 1 2 3 4 5 6 
#
# 1 61.7027 52.6473 58.7991 0.0000 0.0000 0.0000
# 2 52.6473 140.2727 92.9541 0.0000 0.0000 0.0000
# 3 58.7991 92.9541 135.4039 0.0000 0.0000 0.0000
# 4 0.0000 0.0000 0.0000 14.1332 0.0000 0.0000
# 5 0.0000 0.0000 0.0000 0.0000 7.5093 0.0000
# 6 0.0000 0.0000 0.0000 0.0000 0.0000 -10.2956
#
#
#
# Elastic Compliance Matrix: (Units=1/GPa)
#
#
# Indices 1 2 3 4 5 6 
#
# 1 0.029243 -0.004697 -0.009474 0.000000 0.000000 0.000000
# 2 -0.004697 0.013833 -0.007457 0.000000 0.000000 0.000000
# 3 -0.009474 -0.007457 0.016618 0.000000 0.000000 0.000000
# 4 0.000000 0.000000 0.000000 0.070756 0.000000 0.000000
# 5 0.000000 0.000000 0.000000 0.000000 0.133168 0.000000
# 6 0.000000 0.000000 0.000000 0.000000 0.000000 -0.097129
#
#
# Mechanical properties :
#
#
# Convention : Reuss Voigt Hill
#
# Bulk Modulus (GPa) = 60.83286 82.90893 71.87090
# Shear Modulus (GPa) = 23.23161 11.13464 17.18313
#
# Velocity S-wave (km/s) = 3.54119 2.45159 3.04552
# Velocity P-wave (km/s) = 7.03965 7.26407 7.15274
#
# Compressibility (1/GPa) = 0.01643848
#
# Stress axis : x y z
#
# Youngs Moduli (GPa) = 34.19635 72.28957 60.17460
#
# Poissons Ratio (x) = 0.33957 0.57009
# Poissons Ratio (y) = 0.16063 0.44870
# Poissons Ratio (z) = 0.32398 0.53904
#
# Static dielectric constant tensor:
#      x y z
#    x 3.128070 0.000000 0.000000 
#    y 0.000000 3.626580 0.000000 
#    z 0.000000 0.000000 3.449930 
# 
# 
# High freq. dielectric constant tensor:
#      x y z
#    x 1.693000 0.000000 0.000000 
#    y 0.000000 1.737910 0.000000 
#    z 0.000000 0.000000 1.721590 
# 
# From -- ./inp_files/16730.got.cif
#   From: 2010.03.12/outbox.cif.g09.slc.cpg/sg38_9_cif.got.tgz:16730.got - 2010.04.14 02:38:36.
