data_PCOD8178438
_publ_section_title
;
Structure prediction by ZEFSAII (Michael W. Deem and Ramdas Pophale) SiO2 
 PCOD8178438
Probable space group: A M M 2
;
_chemical_formula_sum "Si O2"
_cell_formula_units_Z 48
_cell_length_a 18.966068
_cell_length_b 8.782860
_cell_length_c 15.278135
_cell_angle_alpha 90.000000
_cell_angle_beta 90.000000
_cell_angle_gamma 90.000000
_cell_volume 2544.975505
_symmetry_space_group_name_H-M "A M M 2"
_symmetry_group_IT_number 38
_symmetry_cell_setting 'orthorhombic'
loop_
_space_group_symop_operation_xyz
x,y,z
-x,-y,z
-x,y,z
x,-y,z
x,1/2+y,1/2+z
-x,1/2-y,1/2+z
-x,1/2+y,1/2+z
x,1/2-y,1/2+z
loop_
_atom_site_type_symbol
_atom_site_label
_atom_site_fract_x
_atom_site_fract_y
_atom_site_fract_z
Si Si1 0.167380 0.178281 0.067730
Si Si2 0.078991 0.681038 0.731598
Si Si3 0.326813 0.322720 0.584690
Si Si4 0.181212 0.319756 0.883773
Si Si5 0.330441 0.819230 0.890194
Si Si6 0.418552 0.178780 0.242501
O O1 0.112425 0.237282 0.140086
O O2 0.245265 0.212131 0.105396
O O3 0.159009 0.000000 0.046869
O O4 0.153620 0.269381 0.978721
O O5 0.078199 0.500000 0.732264
O O6 0.124674 0.740700 0.813169
O O7 0.000000 0.747408 0.739221
O O8 0.342839 0.500000 0.584794
O O9 0.346318 0.258489 0.488572
O O10 0.375605 0.250150 0.660229
O O11 0.189112 0.500000 0.880367
O O12 0.256131 0.247880 0.858069
O O13 0.393826 0.763163 0.829910
O O14 0.324268 0.000000 0.888787
O O15 0.500000 0.215089 0.226699
O O16 0.404259 0.000000 0.254176
#
# Coordination Sequence:
#
# PCOD8178438 Si02
#       6
#     8   8   8   8   8   8
#     4   9  17  32  53  74  98 131 173 215 252 296
#     4   9  18  32  51  75 104 140 175 205 248 312
#     4   8  16  32  52  72  96 132 172 204 242 299
#     4  10  19  33  54  77 102 133 172 215 256 301
#     4  10  20  35  55  77 102 133 172 214 255 301
#     4  10  20  34  53  77 104 134 168 206 251 304
#
# _framework density 18.860693000000001
#
# number of rings (size 3 to 8) (size 9 to 14) (size 15 to 20)
#    0.000    2.667    0.000    3.000    0.000    4.333 
#    0.000   10.833    0.000    3.500    0.000    0.000 
#    0.000    0.000    0.000    0.000    0.000    0.000 
#
# Total GULP energy -297580.688960 kJ/mol
# GULP energy per Si atom -12399.195373 kJ/mol
# Density = 1.881777 g / cm^3
# Si number density = 18.860693 Si / 1000 Ang^3
#
#
#
# Elastic Constant Matrix: (Units=GPa)
#
#
# Indices 1 2 3 4 5 6 
#
# 1 99.9027 25.5958 56.5786 0.0000 0.0000 0.0000
# 2 25.5958 42.7944 23.1711 0.0000 0.0000 0.0000
# 3 56.5786 23.1711 99.3174 0.0000 0.0000 0.0000
# 4 0.0000 0.0000 0.0000 27.2767 0.0000 0.0000
# 5 0.0000 0.0000 0.0000 0.0000 25.9560 0.0000
# 6 0.0000 0.0000 0.0000 0.0000 0.0000 20.7906
#
#
#
# Elastic Compliance Matrix: (Units=1/GPa)
#
#
# Indices 1 2 3 4 5 6 
#
# 1 0.015733 -0.005216 -0.007746 0.000000 0.000000 0.000000
# 2 -0.005216 0.028475 -0.003672 0.000000 0.000000 0.000000
# 3 -0.007746 -0.003672 0.015338 0.000000 0.000000 0.000000
# 4 0.000000 0.000000 0.000000 0.036661 0.000000 0.000000
# 5 0.000000 0.000000 0.000000 0.000000 0.038527 0.000000
# 6 0.000000 0.000000 0.000000 0.000000 0.000000 0.048099
#
#
# Mechanical properties :
#
#
# Convention : Reuss Voigt Hill
#
# Bulk Modulus (GPa) = 38.05344 50.30062 44.17703
# Shear Modulus (GPa) = 22.23609 23.91594 23.07602
#
# Velocity S-wave (km/s) = 3.43733 3.56481 3.50165
# Velocity P-wave (km/s) = 5.99779 6.60842 6.31050
#
# Compressibility (1/GPa) = 0.02627884
#
# Stress axis : x y z
#
# Youngs Moduli (GPa) = 63.56163 35.11794 65.19800
#
# Poissons Ratio (x) = 0.18318 0.50500
# Poissons Ratio (y) = 0.33154 0.23940
# Poissons Ratio (z) = 0.49232 0.12895
#
# Static dielectric constant tensor:
#      x y z
#    x 3.527300 0.000000 0.000000 
#    y 0.000000 3.112820 0.000000 
#    z 0.000000 0.000000 3.740510 
# 
# 
# High freq. dielectric constant tensor:
#      x y z
#    x 1.730290 0.000000 0.000000 
#    y 0.000000 1.697840 0.000000 
#    z 0.000000 0.000000 1.746960 
# 
# From -- ./inp_files/14969.got.cif
#   From: 2010.03.12/outbox.cif.g09.slc.cpg/sg38_8_cif.got.tgz:14969.got - 2010.04.14 02:38:36.
