data_PCOD8178529
_publ_section_title
;
Structure prediction by ZEFSAII (Michael W. Deem and Ramdas Pophale) SiO2 
 PCOD8178529
Probable space group: A M M 2
;
_chemical_formula_sum "Si O2"
_cell_formula_units_Z 64
_cell_length_a 23.897971
_cell_length_b 9.299592
_cell_length_c 15.044880
_cell_angle_alpha 90.000000
_cell_angle_beta 90.000000
_cell_angle_gamma 90.000000
_cell_volume 3343.594892
_symmetry_space_group_name_H-M "A M M 2"
_symmetry_group_IT_number 38
_symmetry_cell_setting 'orthorhombic'
loop_
_space_group_symop_operation_xyz
x,y,z
-x,-y,z
-x,y,z
x,-y,z
x,1/2+y,1/2+z
-x,1/2-y,1/2+z
-x,1/2+y,1/2+z
x,1/2-y,1/2+z
loop_
_atom_site_type_symbol
_atom_site_label
_atom_site_fract_x
_atom_site_fract_y
_atom_site_fract_z
Si Si1 0.358164 0.664083 0.058690
Si Si2 0.859933 0.830815 0.307037
Si Si3 0.064561 0.166004 0.671773
Si Si4 0.748753 0.664100 0.518435
Si Si5 0.563394 0.169940 0.400342
Si Si6 0.628581 0.163353 0.755848
Si Si7 0.143040 0.665518 0.011121
Si Si8 0.249815 0.336493 0.309673
O O1 0.340541 0.500000 0.037597
O O2 0.303005 0.759599 0.065315
O O3 0.389687 0.673655 0.153114
O O4 0.400361 0.723795 0.984131
O O5 0.908660 0.762952 0.248228
O O6 0.872889 0.792208 0.410021
O O7 0.800379 0.765115 0.277037
O O8 0.858147 0.000000 0.290498
O O9 0.090625 0.197048 0.574767
O O10 0.000000 0.208278 0.664685
O O11 0.073044 0.000000 0.698438
O O12 0.751258 0.500000 0.550135
O O13 0.805885 0.740297 0.548226
O O14 0.740515 0.679000 0.413869
O O15 0.500000 0.222411 0.414775
O O16 0.586943 0.237420 0.310463
O O17 0.566422 0.000000 0.390444
O O18 0.692956 0.215351 0.763763
O O19 0.624037 0.000000 0.791639
O O20 0.161907 0.500000 0.014593
O O21 0.234642 0.500000 0.282913
#
# Coordination Sequence:
#
# PCOD8178529 Si02
#       8
#     8   8   8   8   8   8   8   8
#     4  10  21  36  57  84 114 149 188 230 281 339
#     4  10  21  36  57  86 115 147 187 235 287 332
#     4  10  22  40  60  81 110 152 195 232 278 339
#     4  10  19  33  56  85 117 147 184 234 284 333
#     4  10  22  40  59  81 114 152 189 236 287 333
#     4  10  21  37  58  85 112 149 193 233 279 335
#     4   9  20  38  58  81 112 151 191 229 278 340
#     4   9  18  34  55  81 116 150 185 229 280 339
#
# _framework density 19.141074
#
# number of rings (size 3 to 8) (size 9 to 14) (size 15 to 20)
#    0.000    2.250    1.250    0.750    1.750    4.000 
#    0.000    2.500    0.000    0.000    0.000    0.000 
#    0.000    0.000    0.000    0.000    0.000    0.000 
#
# Total GULP energy -396906.568831 kJ/mol
# GULP energy per Si atom -12403.330276 kJ/mol
# Density = 1.909751 g / cm^3
# Si number density = 19.141074 Si / 1000 Ang^3
#
#
#
# Elastic Constant Matrix: (Units=GPa)
#
#
# Indices 1 2 3 4 5 6 
#
# 1 129.6660 55.4582 51.2633 0.0000 0.0000 0.0000
# 2 55.4582 73.7816 37.5699 0.0000 0.0000 0.0000
# 3 51.2633 37.5699 79.8113 0.0000 0.0000 0.0000
# 4 0.0000 0.0000 0.0000 29.2087 0.0000 0.0000
# 5 0.0000 0.0000 0.0000 0.0000 21.8386 0.0000
# 6 0.0000 0.0000 0.0000 0.0000 0.0000 30.3652
#
#
#
# Elastic Compliance Matrix: (Units=1/GPa)
#
#
# Indices 1 2 3 4 5 6 
#
# 1 0.012619 -0.007047 -0.004788 0.000000 0.000000 0.000000
# 2 -0.007047 0.021762 -0.005718 0.000000 0.000000 0.000000
# 3 -0.004788 -0.005718 0.018296 0.000000 0.000000 0.000000
# 4 0.000000 0.000000 0.000000 0.034236 0.000000 0.000000
# 5 0.000000 0.000000 0.000000 0.000000 0.045790 0.000000
# 6 0.000000 0.000000 0.000000 0.000000 0.000000 0.032932
#
#
# Mechanical properties :
#
#
# Convention : Reuss Voigt Hill
#
# Bulk Modulus (GPa) = 56.90913 63.53797 60.22355
# Shear Modulus (GPa) = 24.20138 25.54700 24.87419
#
# Velocity S-wave (km/s) = 3.55965 3.65728 3.60880
# Velocity P-wave (km/s) = 6.83307 7.14849 6.99256
#
# Compressibility (1/GPa) = 0.01757187
#
# Stress axis : x y z
#
# Youngs Moduli (GPa) = 79.24485 45.95171 54.65546
#
# Poissons Ratio (x) = 0.32383 0.26169
# Poissons Ratio (y) = 0.55845 0.31250
# Poissons Ratio (z) = 0.37943 0.26274
#
# Static dielectric constant tensor:
#      x y z
#    x 3.450310 0.000000 0.000000 
#    y 0.000000 3.480010 0.000000 
#    z 0.000000 0.000000 3.508890 
# 
# 
# High freq. dielectric constant tensor:
#      x y z
#    x 1.737220 0.000000 0.000000 
#    y 0.000000 1.739800 0.000000 
#    z 0.000000 0.000000 1.749120 
# 
# From -- ./inp_files/15739.got.cif
#   From: 2010.03.12/outbox.cif.g09.slc.cpg/sg38_8_cif.got.tgz:15739.got - 2010.04.14 02:38:36.
