data_PCOD8178989
_publ_section_title
;
Structure prediction by ZEFSAII (Michael W. Deem and Ramdas Pophale) SiO2 
 PCOD8178989
Probable space group: A M M 2
;
_chemical_formula_sum "Si O2"
_cell_formula_units_Z 64
_cell_length_a 9.140535
_cell_length_b 28.367599
_cell_length_c 14.152556
_cell_angle_alpha 90.000000
_cell_angle_beta 90.000000
_cell_angle_gamma 90.000000
_cell_volume 3669.687454
_symmetry_space_group_name_H-M "A M M 2"
_symmetry_group_IT_number 38
_symmetry_cell_setting 'orthorhombic'
loop_
_space_group_symop_operation_xyz
x,y,z
-x,-y,z
-x,y,z
x,-y,z
x,1/2+y,1/2+z
-x,1/2-y,1/2+z
-x,1/2+y,1/2+z
x,1/2-y,1/2+z
loop_
_atom_site_type_symbol
_atom_site_label
_atom_site_fract_x
_atom_site_fract_y
_atom_site_fract_z
Si Si1 0.671364 0.445830 0.586350
Si Si2 0.328702 0.696037 0.069169
Si Si3 0.828947 0.946430 0.584909
Si Si4 0.327240 0.380476 0.221317
Si Si5 0.329056 0.873251 0.930774
Si Si6 0.826924 0.624977 0.717523
Si Si7 0.829806 0.869863 0.434433
Si Si8 0.673698 0.197048 0.088593
O O1 0.500000 0.439500 0.608805
O O2 0.717719 0.500000 0.578517
O O3 0.711180 0.421027 0.486941
O O4 0.762590 0.422003 0.670040
O O5 0.500000 0.694984 0.049906
O O6 0.285247 0.665872 0.161369
O O7 0.274127 0.749129 0.085776
O O8 0.252944 0.675417 0.976032
O O9 0.744730 0.926646 0.675882
O O10 0.785342 0.916842 0.491884
O O11 0.000000 0.942655 0.606158
O O12 0.779789 0.000000 0.566942
O O13 0.500000 0.388755 0.223059
O O14 0.258814 0.373908 0.326268
O O15 0.500000 0.868789 0.915671
O O16 0.275440 0.828155 0.991216
O O17 0.783281 0.622368 0.826935
O O18 0.754400 0.672021 0.675516
O O19 0.000000 0.626570 0.701672
O O20 0.000000 0.859082 0.444022
O O21 0.500000 0.191859 0.103799
#
# Coordination Sequence:
#
# PCOD8178989 Si02
#       8
#     8   8   8   8   8   8   8   8
#     4   9  18  33  51  70  94 127 165 202 243 290
#     4   9  18  31  50  75  98 123 158 199 239 279
#     4   9  18  33  50  67  91 124 158 191 232 284
#     4   9  17  30  48  71  96 120 153 196 237 280
#     4   8  15  29  48  68  93 125 157 189 230 283
#     4  10  20  33  50  73  99 128 162 199 241 288
#     4   9  19  34  50  69  96 129 161 194 236 286
#     4   9  18  33  51  71  97 129 162 197 238 283
#
# _framework density 17.440179000000001
#
# number of rings (size 3 to 8) (size 9 to 14) (size 15 to 20)
#    0.000    3.000    0.000    1.125    0.000    4.000 
#    0.000    7.500    0.000    0.000    0.000    0.000 
#    0.000    0.000    0.000    0.000    0.000    0.000 
#
# Total GULP energy -396774.378223 kJ/mol
# GULP energy per Si atom -12399.199319 kJ/mol
# Density = 1.740048 g / cm^3
# Si number density = 17.440179 Si / 1000 Ang^3
#
#
#
# Elastic Constant Matrix: (Units=GPa)
#
#
# Indices 1 2 3 4 5 6 
#
# 1 35.3490 39.3359 41.8743 0.0000 0.0000 0.0000
# 2 39.3359 159.6098 71.4318 0.0000 0.0000 0.0000
# 3 41.8743 71.4318 153.6640 0.0000 0.0000 0.0000
# 4 0.0000 0.0000 0.0000 13.5527 0.0000 0.0000
# 5 0.0000 0.0000 0.0000 0.0000 26.2858 0.0000
# 6 0.0000 0.0000 0.0000 0.0000 0.0000 23.1499
#
#
#
# Elastic Compliance Matrix: (Units=1/GPa)
#
#
# Indices 1 2 3 4 5 6 
#
# 1 0.048044 -0.007552 -0.009581 0.000000 0.000000 0.000000
# 2 -0.007552 0.009098 -0.002171 0.000000 0.000000 0.000000
# 3 -0.009581 -0.002171 0.010128 0.000000 0.000000 0.000000
# 4 0.000000 0.000000 0.000000 0.073786 0.000000 0.000000
# 5 0.000000 0.000000 0.000000 0.000000 0.038043 0.000000
# 6 0.000000 0.000000 0.000000 0.000000 0.000000 0.043197
#
#
# Mechanical properties :
#
#
# Convention : Reuss Voigt Hill
#
# Bulk Modulus (GPa) = 34.89204 72.65632 53.77418
# Shear Modulus (GPa) = 18.48704 25.66305 22.07505
#
# Velocity S-wave (km/s) = 3.25934 3.84016 3.56161
# Velocity P-wave (km/s) = 5.84932 7.83666 6.91476
#
# Compressibility (1/GPa) = 0.02865983
#
# Stress axis : x y z
#
# Youngs Moduli (GPa) = 20.81442 109.91030 98.73542
#
# Poissons Ratio (x) = 0.83008 0.94603
# Poissons Ratio (y) = 0.15720 0.21439
# Poissons Ratio (z) = 0.19943 0.23866
#
# Static dielectric constant tensor:
#      x y z
#    x 3.058340 0.000000 0.000000 
#    y 0.000000 3.361140 0.000000 
#    z 0.000000 0.000000 3.420140 
# 
# 
# High freq. dielectric constant tensor:
#      x y z
#    x 1.655830 0.000000 0.000000 
#    y 0.000000 1.677050 0.000000 
#    z 0.000000 0.000000 1.676380 
# 
# From -- ./inp_files/13095.got.cif
#   From: 2010.03.12/outbox.cif.g09.slc.cpg/sg38_7_cif.got.tgz:13095.got - 2010.04.14 02:38:36.
