data_PCOD8178944
_publ_section_title
;
Structure prediction by ZEFSAII (Michael W. Deem and Ramdas Pophale) SiO2 
 PCOD8178944
Probable space group: A M M 2
;
_chemical_formula_sum "Si O2"
_cell_formula_units_Z 64
_cell_length_a 14.174792
_cell_length_b 8.877852
_cell_length_c 31.600168
_cell_angle_alpha 90.000000
_cell_angle_beta 90.000000
_cell_angle_gamma 90.000000
_cell_volume 3976.619035
_symmetry_space_group_name_H-M "A M M 2"
_symmetry_group_IT_number 38
_symmetry_cell_setting 'orthorhombic'
loop_
_space_group_symop_operation_xyz
x,y,z
-x,-y,z
-x,y,z
x,-y,z
x,1/2+y,1/2+z
-x,1/2-y,1/2+z
-x,1/2+y,1/2+z
x,1/2-y,1/2+z
loop_
_atom_site_type_symbol
_atom_site_label
_atom_site_fract_x
_atom_site_fract_y
_atom_site_fract_z
Si Si1 0.702013 0.325160 0.780390
Si Si2 0.391727 0.176645 0.609686
Si Si3 0.611285 0.676880 0.201378
Si Si4 0.393107 0.820154 0.519077
Si Si5 0.893366 0.675099 0.407326
Si Si6 0.390086 0.175770 0.860291
Si Si7 0.283064 0.821727 0.438119
Si Si8 0.104901 0.172054 0.319504
O O1 0.677336 0.500000 0.786032
O O2 0.671908 0.270956 0.734342
O O3 0.644190 0.232658 0.814960
O O4 0.814820 0.296354 0.784592
O O5 0.500000 0.221145 0.606891
O O6 0.352989 0.237262 0.654850
O O7 0.348662 0.235634 0.564704
O O8 0.379096 0.000000 0.612242
O O9 0.500000 0.708360 0.207247
O O10 0.631535 0.500000 0.207400
O O11 0.500000 0.760688 0.513038
O O12 0.330641 0.756219 0.480722
O O13 0.393771 0.000000 0.518576
O O14 0.871163 0.500000 0.411748
O O15 0.824905 0.766837 0.438349
O O16 0.874496 0.720587 0.358967
O O17 0.000000 0.714189 0.420737
O O18 0.500000 0.211090 0.864891
O O19 0.336023 0.261349 0.897131
O O20 0.368037 0.000000 0.863969
O O21 0.287306 0.000000 0.437058
O O22 0.000000 0.204253 0.300532
O O23 0.111586 0.000000 0.335769
#
# Coordination Sequence:
#
# PCOD8178944 Si02
#       8
#     8   8   8   8   8   8   8   8
#     4  11  21  31  46  68  91 119 152 190 233 273
#     4   7  11  23  43  65  88 116 151 188 224 263
#     4   9  17  29  46  67  92 123 155 186 223 270
#     4   8  14  25  43  68  95 120 150 188 225 267
#     4  10  20  33  49  67  88 118 155 194 233 274
#     4  11  23  35  45  60  90 130 163 188 218 264
#     4  11  20  30  47  71  95 121 152 190 235 277
#     4   9  18  33  50  66  85 112 149 193 237 276
#
# _framework density 16.094073000000002
#
# number of rings (size 3 to 8) (size 9 to 14) (size 15 to 20)
#    0.000    2.500    1.250    3.750    0.000    4.500 
#    0.000    0.000    0.000    1.500    0.000    4.375 
#    0.000    5.000    0.000    0.000    0.000    0.000 
#
# Total GULP energy -396523.361466 kJ/mol
# GULP energy per Si atom -12391.355046 kJ/mol
# Density = 1.605744 g / cm^3
# Si number density = 16.094073 Si / 1000 Ang^3
#
#
#
# Elastic Constant Matrix: (Units=GPa)
#
#
# Indices 1 2 3 4 5 6 
#
# 1 91.2555 34.0852 54.4855 0.0000 0.0000 0.0000
# 2 34.0852 45.6239 25.4532 0.0000 0.0000 0.0000
# 3 54.4855 25.4532 124.7214 0.0000 0.0000 0.0000
# 4 0.0000 0.0000 0.0000 16.9902 0.0000 0.0000
# 5 0.0000 0.0000 0.0000 0.0000 11.0694 0.0000
# 6 0.0000 0.0000 0.0000 0.0000 0.0000 22.0111
#
#
#
# Elastic Compliance Matrix: (Units=1/GPa)
#
#
# Indices 1 2 3 4 5 6 
#
# 1 0.018380 -0.010441 -0.005899 0.000000 0.000000 0.000000
# 2 -0.010441 0.030665 -0.001697 0.000000 0.000000 0.000000
# 3 -0.005899 -0.001697 0.010941 0.000000 0.000000 0.000000
# 4 0.000000 0.000000 0.000000 0.058857 0.000000 0.000000
# 5 0.000000 0.000000 0.000000 0.000000 0.090339 0.000000
# 6 0.000000 0.000000 0.000000 0.000000 0.000000 0.045432
#
#
# Mechanical properties :
#
#
# Convention : Reuss Voigt Hill
#
# Bulk Modulus (GPa) = 41.81751 54.40540 48.11145
# Shear Modulus (GPa) = 16.74155 19.85261 18.29708
#
# Velocity S-wave (km/s) = 3.22876 3.51598 3.37543
# Velocity P-wave (km/s) = 6.31977 7.09654 6.71939
#
# Compressibility (1/GPa) = 0.02391343
#
# Stress axis : x y z
#
# Youngs Moduli (GPa) = 54.40734 32.61017 91.39854
#
# Poissons Ratio (x) = 0.34047 0.53913
# Poissons Ratio (y) = 0.56805 0.15511
# Poissons Ratio (z) = 0.32093 0.05534
#
# Static dielectric constant tensor:
#      x y z
#    x 3.137100 0.000000 0.000000 
#    y 0.000000 2.924180 0.000000 
#    z 0.000000 0.000000 3.327720 
# 
# 
# High freq. dielectric constant tensor:
#      x y z
#    x 1.601350 0.000000 0.000000 
#    y 0.000000 1.606030 0.000000 
#    z 0.000000 0.000000 1.613750 
# 
# From -- ./inp_files/25038.got.cif
#   From: 2010.03.12/outbox.cif.g09.slc.cpg/sg38_13_cif.got.tgz:25038.got - 2010.04.14 02:38:36.
