data_PCOD8178270
_publ_section_title
;
Structure prediction by ZEFSAII (Michael W. Deem and Ramdas Pophale) SiO2 
 PCOD8178270
Probable space group: A M M 2
;
_chemical_formula_sum "Si O2"
_cell_formula_units_Z 64
_cell_length_a 19.568950
_cell_length_b 9.214377
_cell_length_c 20.631903
_cell_angle_alpha 90.000000
_cell_angle_beta 90.000000
_cell_angle_gamma 90.000000
_cell_volume 3720.255677
_symmetry_space_group_name_H-M "A M M 2"
_symmetry_group_IT_number 38
_symmetry_cell_setting 'orthorhombic'
loop_
_space_group_symop_operation_xyz
x,y,z
-x,-y,z
-x,y,z
x,-y,z
x,1/2+y,1/2+z
-x,1/2-y,1/2+z
-x,1/2+y,1/2+z
x,1/2-y,1/2+z
loop_
_atom_site_type_symbol
_atom_site_label
_atom_site_fract_x
_atom_site_fract_y
_atom_site_fract_z
Si Si1 0.218909 0.665020 0.763800
Si Si2 0.794004 0.168849 0.111251
Si Si3 0.925095 0.669191 0.118659
Si Si4 0.927257 0.664577 0.749829
Si Si5 0.651212 0.672145 0.560244
Si Si6 0.346335 0.328052 0.304154
Si Si7 0.422488 0.172863 0.932929
Si Si8 0.419657 0.834118 0.190089
O O1 0.242730 0.500000 0.775289
O O2 0.219631 0.701401 0.687130
O O3 0.141521 0.691869 0.791833
O O4 0.268877 0.769832 0.803245
O O5 0.861940 0.249028 0.083991
O O6 0.728883 0.227481 0.070662
O O7 0.805293 0.000000 0.099211
O O8 0.908652 0.500000 0.117677
O O9 0.928540 0.721452 0.192277
O O10 0.000000 0.700411 0.086100
O O11 0.921142 0.500000 0.721162
O O12 0.000000 0.679688 0.788839
O O13 0.651110 0.500000 0.556236
O O14 0.618581 0.737093 0.494639
O O15 0.604532 0.722530 0.620202
O O16 0.344824 0.500000 0.300654
O O17 0.383767 0.272488 0.368864
O O18 0.387085 0.267986 0.243386
O O19 0.500000 0.233438 0.932931
O O20 0.424003 0.000000 0.935552
O O21 0.500000 0.820127 0.194232
O O22 0.395286 0.000000 0.201470
#
# Coordination Sequence:
#
# PCOD8178270 Si02
#       8
#     8   8   8   8   8   8   8   8
#     4   9  16  28  45  67  95 123 156 195 230 275
#     4   9  16  27  45  67  91 117 152 199 237 269
#     4   9  16  24  36  59  93 128 156 182 220 276
#     4   8  14  25  41  61  87 120 156 195 234 267
#     4   9  16  30  50  71  91 116 156 201 238 273
#     4  11  21  31  46  70 100 129 154 187 235 288
#     4   9  18  32  49  69  93 121 156 198 239 280
#     4  10  19  32  52  73  91 116 153 195 238 283
#
# _framework density 17.203118
#
# number of rings (size 3 to 8) (size 9 to 14) (size 15 to 20)
#    0.000    2.750    1.250    2.250    0.000    5.000 
#    0.000    0.000    0.000    3.000    0.000    0.875 
#    0.000    5.000    0.000    0.000    0.000    0.000 
#
# Total GULP energy -396505.506491 kJ/mol
# GULP energy per Si atom -12390.797078 kJ/mol
# Density = 1.716396 g / cm^3
# Si number density = 17.203118 Si / 1000 Ang^3
#
#
#
# Elastic Constant Matrix: (Units=GPa)
#
#
# Indices 1 2 3 4 5 6 
#
# 1 170.4665 42.9156 49.7660 0.0000 0.0000 0.0000
# 2 42.9156 45.4871 19.6784 0.0000 0.0000 0.0000
# 3 49.7660 19.6784 70.8328 0.0000 0.0000 0.0000
# 4 0.0000 0.0000 0.0000 13.3520 0.0000 0.0000
# 5 0.0000 0.0000 0.0000 0.0000 19.6583 0.0000
# 6 0.0000 0.0000 0.0000 0.0000 0.0000 27.2771
#
#
#
# Elastic Compliance Matrix: (Units=1/GPa)
#
#
# Indices 1 2 3 4 5 6 
#
# 1 0.008745 -0.006356 -0.004378 0.000000 0.000000 0.000000
# 2 -0.006356 0.029608 -0.003760 0.000000 0.000000 0.000000
# 3 -0.004378 -0.003760 0.018238 0.000000 0.000000 0.000000
# 4 0.000000 0.000000 0.000000 0.074895 0.000000 0.000000
# 5 0.000000 0.000000 0.000000 0.000000 0.050869 0.000000
# 6 0.000000 0.000000 0.000000 0.000000 0.000000 0.036661
#
#
# Mechanical properties :
#
#
# Convention : Reuss Voigt Hill
#
# Bulk Modulus (GPa) = 36.22840 56.83404 46.53122
# Shear Modulus (GPa) = 19.43981 23.68589 21.56285
#
# Velocity S-wave (km/s) = 3.36522 3.71460 3.54422
# Velocity P-wave (km/s) = 6.01702 7.17680 6.62235
#
# Compressibility (1/GPa) = 0.02760266
#
# Stress axis : x y z
#
# Youngs Moduli (GPa) = 114.35679 33.77507 54.83031
#
# Poissons Ratio (x) = 0.21468 0.24004
# Poissons Ratio (y) = 0.72688 0.20614
# Poissons Ratio (z) = 0.50065 0.12698
#
# Static dielectric constant tensor:
#      x y z
#    x 3.891460 0.000000 0.000000 
#    y 0.000000 2.988560 0.000000 
#    z 0.000000 0.000000 2.912300 
# 
# 
# High freq. dielectric constant tensor:
#      x y z
#    x 1.696250 0.000000 0.000000 
#    y 0.000000 1.638560 0.000000 
#    z 0.000000 0.000000 1.607990 
# 
# From -- ./inp_files/21544.got.cif
#   From: 2010.03.12/outbox.cif.g09.slc.cpg/sg38_11_cif.got.tgz:21544.got - 2010.04.14 02:38:36.
