data_PCOD8178449
_publ_section_title
;
Structure prediction by ZEFSAII (Michael W. Deem and Ramdas Pophale) SiO2 
 PCOD8178449
Probable space group: A M M 2
;
_chemical_formula_sum "Si O2"
_cell_formula_units_Z 64
_cell_length_a 20.077931
_cell_length_b 19.499762
_cell_length_c 8.774250
_cell_angle_alpha 90.000000
_cell_angle_beta 90.000000
_cell_angle_gamma 90.000000
_cell_volume 3435.249400
_symmetry_space_group_name_H-M "A M M 2"
_symmetry_group_IT_number 38
_symmetry_cell_setting 'orthorhombic'
loop_
_space_group_symop_operation_xyz
x,y,z
-x,-y,z
-x,y,z
x,-y,z
x,1/2+y,1/2+z
-x,1/2-y,1/2+z
-x,1/2+y,1/2+z
x,1/2-y,1/2+z
loop_
_atom_site_type_symbol
_atom_site_label
_atom_site_fract_x
_atom_site_fract_y
_atom_site_fract_z
Si Si1 0.821369 0.079202 0.496190
Si Si2 0.800921 0.665863 0.264962
Si Si3 0.923884 0.338290 0.838147
Si Si4 0.423907 0.815419 0.291306
Si Si5 0.327550 0.422898 0.940215
Si Si6 0.328801 0.921936 0.783659
Si Si7 0.137790 0.727840 0.556379
Si Si8 0.425008 0.324757 0.435001
O O1 0.841387 0.111468 0.660488
O O2 0.876517 0.096331 0.369487
O O3 0.748625 0.106159 0.440235
O O4 0.815768 0.000000 0.526297
O O5 0.728817 0.634730 0.294884
O O6 0.830736 0.676179 0.433248
O O7 0.804870 0.736275 0.162887
O O8 0.911787 0.313194 0.666373
O O9 0.000000 0.361086 0.855361
O O10 0.906839 0.281529 0.964062
O O11 0.500000 0.828971 0.348121
O O12 0.375324 0.876010 0.341042
O O13 0.396019 0.743228 0.353817
O O14 0.420865 0.811052 0.111989
O O15 0.329015 0.500000 0.871691
O O16 0.355618 0.423662 0.111651
O O17 0.386305 0.894177 0.893159
O O18 0.307808 0.000000 0.832721
O O19 0.500000 0.336620 0.378980
#
# Coordination Sequence:
#
# PCOD8178449 Si02
#       8
#     8   8   8   8   8   8   8   8
#     4   9  19  36  55  75 105 144 180 215 258 312
#     4   9  18  34  54  79 109 136 173 217 264 321
#     4  10  19  33  54  78 106 137 174 218 262 314
#     4  10  21  37  56  79 107 139 177 220 269 322
#     4   9  19  36  56  79 107 139 176 217 263 317
#     4  10  21  36  55  77 104 141 180 219 264 317
#     4   9  19  33  53  82 108 135 168 214 272 319
#     4  10  22  37  53  75 104 138 176 221 268 317
#
# _framework density 18.630379000000001
#
# number of rings (size 3 to 8) (size 9 to 14) (size 15 to 20)
#    0.000    2.500    0.000    2.250    0.000    8.750 
#    0.000    5.625    0.000    0.000    0.000    0.000 
#    0.000    0.000    0.000    0.000    0.000    0.000 
#
# Total GULP energy -396593.368731 kJ/mol
# GULP energy per Si atom -12393.542773 kJ/mol
# Density = 1.858798 g / cm^3
# Si number density = 18.630379 Si / 1000 Ang^3
#
#
#
# Elastic Constant Matrix: (Units=GPa)
#
#
# Indices 1 2 3 4 5 6 
#
# 1 98.5105 55.4871 44.5592 0.0000 0.0000 0.0000
# 2 55.4871 75.1764 30.8774 0.0000 0.0000 0.0000
# 3 44.5592 30.8774 88.5294 0.0000 0.0000 0.0000
# 4 0.0000 0.0000 0.0000 28.1915 0.0000 0.0000
# 5 0.0000 0.0000 0.0000 0.0000 26.7950 0.0000
# 6 0.0000 0.0000 0.0000 0.0000 0.0000 22.9810
#
#
#
# Elastic Compliance Matrix: (Units=1/GPa)
#
#
# Indices 1 2 3 4 5 6 
#
# 1 0.019490 -0.012088 -0.005594 0.000000 0.000000 0.000000
# 2 -0.012088 0.023023 -0.001946 0.000000 0.000000 0.000000
# 3 -0.005594 -0.001946 0.014790 0.000000 0.000000 0.000000
# 4 0.000000 0.000000 0.000000 0.035472 0.000000 0.000000
# 5 0.000000 0.000000 0.000000 0.000000 0.037320 0.000000
# 6 0.000000 0.000000 0.000000 0.000000 0.000000 0.043514
#
#
# Mechanical properties :
#
#
# Convention : Reuss Voigt Hill
#
# Bulk Modulus (GPa) = 55.40798 58.22930 56.81864
# Shear Modulus (GPa) = 22.84347 24.34635 23.59491
#
# Velocity S-wave (km/s) = 3.50543 3.61890 3.56262
# Velocity P-wave (km/s) = 6.79627 6.98461 6.89108
#
# Compressibility (1/GPa) = 0.01804794
#
# Stress axis : x y z
#
# Youngs Moduli (GPa) = 51.30805 43.43430 67.61360
#
# Poissons Ratio (x) = 0.52503 0.37822
# Poissons Ratio (y) = 0.62021 0.13157
# Poissons Ratio (z) = 0.28701 0.08452
#
# Static dielectric constant tensor:
#      x y z
#    x 3.372370 0.000000 0.000000 
#    y 0.000000 3.450710 0.000000 
#    z 0.000000 0.000000 3.454900 
# 
# 
# High freq. dielectric constant tensor:
#      x y z
#    x 1.708550 0.000000 0.000000 
#    y 0.000000 1.719140 0.000000 
#    z 0.000000 0.000000 1.725100 
# 
# From -- ./inp_files/6812.got.cif
#   From: 2010.03.12/outbox.cif.g09.slc.cpg/sg38_4_cif.got.tgz:6812.got - 2010.04.14 02:38:36.
