data_PCOD8178549
_publ_section_title
;
Structure prediction by ZEFSAII (Michael W. Deem and Ramdas Pophale) SiO2 
 PCOD8178549
Probable space group: A M M 2
;
_chemical_formula_sum "Si O2"
_cell_formula_units_Z 48
_cell_length_a 15.395340
_cell_length_b 19.922380
_cell_length_c 8.370286
_cell_angle_alpha 90.000000
_cell_angle_beta 90.000000
_cell_angle_gamma 90.000000
_cell_volume 2567.265600
_symmetry_space_group_name_H-M "A M M 2"
_symmetry_group_IT_number 38
_symmetry_cell_setting 'orthorhombic'
loop_
_space_group_symop_operation_xyz
x,y,z
-x,-y,z
-x,y,z
x,-y,z
x,1/2+y,1/2+z
-x,1/2-y,1/2+z
-x,1/2+y,1/2+z
x,1/2-y,1/2+z
loop_
_atom_site_type_symbol
_atom_site_label
_atom_site_fract_x
_atom_site_fract_y
_atom_site_fract_z
Si Si1 0.683189 0.270503 0.022020
Si Si2 0.400331 0.160043 0.237247
Si Si3 0.903694 0.579505 0.793183
Si Si4 0.766745 0.665737 0.317566
Si Si5 0.899009 0.923779 0.657607
Si Si6 0.260539 0.922130 0.098941
O O1 0.625529 0.213698 0.103647
O O2 0.718648 0.323361 0.150120
O O3 0.616915 0.310456 0.911471
O O4 0.762924 0.235924 0.919244
O O5 0.500000 0.139229 0.219407
O O6 0.341085 0.093889 0.215274
O O7 0.906537 0.500000 0.777798
O O8 0.828931 0.608661 0.675986
O O9 0.000000 0.608243 0.748165
O O10 0.879869 0.598179 0.975354
O O11 0.859924 0.632998 0.275749
O O12 0.719544 0.610157 0.426691
O O13 0.000000 0.924142 0.693995
O O14 0.862889 0.000000 0.689569
O O15 0.250525 0.000000 0.076207
#
# Coordination Sequence:
#
# PCOD8178549 Si02
#       6
#     8   8   8   8   8   8
#     4   9  20  35  53  76  99 131 176 217 257 303
#     4  10  19  34  56  77 101 132 169 213 257 310
#     4   8  15  29  49  74 103 132 165 205 248 301
#     4  10  19  34  52  73 104 136 172 220 262 305
#     4   9  17  30  51  78 105 135 171 212 261 316
#     4  10  20  32  51  79 107 137 169 209 264 314
#
# _framework density 18.696936000000001
#
# number of rings (size 3 to 8) (size 9 to 14) (size 15 to 20)
#    0.000    2.667    0.000    3.000    0.000    1.000 
#    0.000    4.167    0.000    6.000    0.000    0.000 
#    0.000    0.000    0.000    0.000    0.000    0.000 
#
# Total GULP energy -297352.148228 kJ/mol
# GULP energy per Si atom -12389.672843 kJ/mol
# Density = 1.865438 g / cm^3
# Si number density = 18.696936 Si / 1000 Ang^3
#
#
#
# Elastic Constant Matrix: (Units=GPa)
#
#
# Indices 1 2 3 4 5 6 
#
# 1 114.9917 41.3323 51.3395 0.0000 0.0000 0.0000
# 2 41.3323 46.9294 32.9451 0.0000 0.0000 0.0000
# 3 51.3395 32.9451 102.8291 0.0000 0.0000 0.0000
# 4 0.0000 0.0000 0.0000 31.1330 0.0000 0.0000
# 5 0.0000 0.0000 0.0000 0.0000 21.2294 0.0000
# 6 0.0000 0.0000 0.0000 0.0000 0.0000 27.6137
#
#
#
# Elastic Compliance Matrix: (Units=1/GPa)
#
#
# Indices 1 2 3 4 5 6 
#
# 1 0.013824 -0.009457 -0.003872 0.000000 0.000000 0.000000
# 2 -0.009457 0.033962 -0.006159 0.000000 0.000000 0.000000
# 3 -0.003872 -0.006159 0.013631 0.000000 0.000000 0.000000
# 4 0.000000 0.000000 0.000000 0.032120 0.000000 0.000000
# 5 0.000000 0.000000 0.000000 0.000000 0.047104 0.000000
# 6 0.000000 0.000000 0.000000 0.000000 0.000000 0.036214
#
#
# Mechanical properties :
#
#
# Convention : Reuss Voigt Hill
#
# Bulk Modulus (GPa) = 44.56241 57.33154 50.94697
# Shear Modulus (GPa) = 22.39008 25.27079 23.83043
#
# Velocity S-wave (km/s) = 3.46428 3.68040 3.57398
# Velocity P-wave (km/s) = 6.31565 6.98503 6.65876
#
# Compressibility (1/GPa) = 0.02244044
#
# Stress axis : x y z
#
# Youngs Moduli (GPa) = 72.33636 29.44486 73.36005
#
# Poissons Ratio (x) = 0.27847 0.28406
# Poissons Ratio (y) = 0.68410 0.45184
# Poissons Ratio (z) = 0.28009 0.18136
#
# Static dielectric constant tensor:
#      x y z
#    x 3.406150 0.000000 0.000000 
#    y 0.000000 3.346160 0.000000 
#    z 0.000000 0.000000 3.676130 
# 
# 
# High freq. dielectric constant tensor:
#      x y z
#    x 1.705390 0.000000 0.000000 
#    y 0.000000 1.704950 0.000000 
#    z 0.000000 0.000000 1.738200 
# 
# From -- ./inp_files/5574.got.cif
#   From: 2010.03.12/outbox.cif.g09.slc.cpg/sg38_3_cif.got.tgz:5574.got - 2010.04.14 02:38:36.
