data_PCOD8178837
_publ_section_title
;
Structure prediction by ZEFSAII (Michael W. Deem and Ramdas Pophale) SiO2 
 PCOD8178837
Probable space group: A M M 2
;
_chemical_formula_sum "Si O2"
_cell_formula_units_Z 56
_cell_length_a 8.875005
_cell_length_b 29.545107
_cell_length_c 13.453082
_cell_angle_alpha 90.000000
_cell_angle_beta 90.000000
_cell_angle_gamma 90.000000
_cell_volume 3527.572618
_symmetry_space_group_name_H-M "A M M 2"
_symmetry_group_IT_number 38
_symmetry_cell_setting 'orthorhombic'
loop_
_space_group_symop_operation_xyz
x,y,z
-x,-y,z
-x,y,z
x,-y,z
x,1/2+y,1/2+z
-x,1/2-y,1/2+z
-x,1/2+y,1/2+z
x,1/2-y,1/2+z
loop_
_atom_site_type_symbol
_atom_site_label
_atom_site_fract_x
_atom_site_fract_y
_atom_site_fract_z
Si Si1 0.820342 0.597808 0.593900
Si Si2 0.164185 0.500000 0.589712
Si Si3 0.164137 0.000000 0.324482
Si Si4 0.324991 0.816889 0.005753
Si Si5 0.323327 0.319491 0.928574
Si Si6 0.822817 0.232226 0.601861
Si Si7 0.327546 0.767727 0.804955
Si Si8 0.179699 0.902142 0.321612
O O1 0.755983 0.547778 0.561424
O O2 0.741645 0.633463 0.521908
O O3 0.775992 0.608665 0.707793
O O4 0.000000 0.599371 0.581173
O O5 0.141573 0.500000 0.707091
O O6 0.000000 0.500000 0.538652
O O7 0.243548 0.952299 0.353259
O O8 0.000000 0.000000 0.375461
O O9 0.500000 0.815514 0.033981
O O10 0.242241 0.781583 0.077390
O O11 0.299067 0.804467 0.890939
O O12 0.500000 0.322708 0.948094
O O13 0.285799 0.281896 0.845960
O O14 0.259846 0.367265 0.893958
O O15 0.245805 0.306415 0.031987
O O16 0.782009 0.219947 0.714872
O O17 0.000000 0.233286 0.587531
O O18 0.500000 0.769009 0.768425
O O19 0.000000 0.899927 0.334550
#
# Coordination Sequence:
#
# PCOD8178837 Si02
#       8
#     8   4   4   8   8   8   8   8
#     4   9  16  27  45  67  92 121 152 185 217 255
#     4   7  12  24  41  63  90 119 148 179 219 258
#     4   7  12  24  41  61  88 119 148 181 219 256
#     4  10  20  32  46  65  91 121 149 178 218 266
#     4  10  20  32  46  65  91 121 148 177 218 266
#     4  11  21  32  48  67  87 113 148 188 222 257
#     4   9  19  34  47  61  87 120 148 178 220 264
#     4   9  16  27  44  66  91 120 153 185 217 255
#
# _framework density 15.874938999999999
#
# number of rings (size 3 to 8) (size 9 to 14) (size 15 to 20)
#    0.000    2.714    0.000    5.571    0.000    6.286 
#    0.000    0.714    0.000    2.571    0.000    1.000 
#    0.000    5.714    0.000    0.000    0.000    0.000 
#
# Total GULP energy -347025.837199 kJ/mol
# GULP energy per Si atom -12393.779900 kJ/mol
# Density = 1.583881 g / cm^3
# Si number density = 15.874939 Si / 1000 Ang^3
#
#
#
# Elastic Constant Matrix: (Units=GPa)
#
#
# Indices 1 2 3 4 5 6 
#
# 1 73.5709 47.9615 40.3595 0.0000 0.0000 0.0000
# 2 47.9615 149.8755 53.7021 0.0000 0.0000 0.0000
# 3 40.3595 53.7021 74.5683 0.0000 0.0000 0.0000
# 4 0.0000 0.0000 0.0000 22.9387 0.0000 0.0000
# 5 0.0000 0.0000 0.0000 0.0000 23.8051 0.0000
# 6 0.0000 0.0000 0.0000 0.0000 0.0000 13.3346
#
#
#
# Elastic Compliance Matrix: (Units=1/GPa)
#
#
# Indices 1 2 3 4 5 6 
#
# 1 0.020612 -0.003502 -0.008634 0.000000 0.000000 0.000000
# 2 -0.003502 0.009588 -0.005009 0.000000 0.000000 0.000000
# 3 -0.008634 -0.005009 0.021691 0.000000 0.000000 0.000000
# 4 0.000000 0.000000 0.000000 0.043594 0.000000 0.000000
# 5 0.000000 0.000000 0.000000 0.000000 0.042008 0.000000
# 6 0.000000 0.000000 0.000000 0.000000 0.000000 0.074993
#
#
# Mechanical properties :
#
#
# Convention : Reuss Voigt Hill
#
# Bulk Modulus (GPa) = 56.81823 64.67343 60.74583
# Shear Modulus (GPa) = 19.79075 22.41512 21.10294
#
# Velocity S-wave (km/s) = 3.53465 3.76171 3.64994
# Velocity P-wave (km/s) = 7.24756 7.72626 7.49073
#
# Compressibility (1/GPa) = 0.01759998
#
# Stress axis : x y z
#
# Youngs Moduli (GPa) = 48.51581 104.29818 46.10213
#
# Poissons Ratio (x) = 0.36530 0.39803
# Poissons Ratio (y) = 0.16992 0.23094
# Poissons Ratio (z) = 0.41887 0.52246
#
# Static dielectric constant tensor:
#      x y z
#    x 2.881680 0.000000 0.000000 
#    y 0.000000 3.350260 0.000000 
#    z 0.000000 0.000000 2.768870 
# 
# 
# High freq. dielectric constant tensor:
#      x y z
#    x 1.601610 0.000000 0.000000 
#    y 0.000000 1.614030 0.000000 
#    z 0.000000 0.000000 1.577920 
# 
# From -- ./inp_files/13027.got.cif
#   From: 2010.03.12/outbox.cif.g09.slc.cpg/sg38_7_cif.got.tgz:13027.got - 2010.04.14 02:38:36.
