data_PCOD8178905
_publ_section_title
;
Structure prediction by ZEFSAII (Michael W. Deem and Ramdas Pophale) SiO2 
 PCOD8178905
Probable space group: A M M 2
;
_chemical_formula_sum "Si O2"
_cell_formula_units_Z 64
_cell_length_a 14.550230
_cell_length_b 9.012893
_cell_length_c 25.006472
_cell_angle_alpha 90.000000
_cell_angle_beta 90.000000
_cell_angle_gamma 90.000000
_cell_volume 3279.340389
_symmetry_space_group_name_H-M "A M M 2"
_symmetry_group_IT_number 38
_symmetry_cell_setting 'orthorhombic'
loop_
_space_group_symop_operation_xyz
x,y,z
-x,-y,z
-x,y,z
x,-y,z
x,1/2+y,1/2+z
-x,1/2-y,1/2+z
-x,1/2+y,1/2+z
x,1/2-y,1/2+z
loop_
_atom_site_type_symbol
_atom_site_label
_atom_site_fract_x
_atom_site_fract_y
_atom_site_fract_z
Si Si1 0.279676 0.824543 0.434650
Si Si2 0.602634 0.333454 0.224108
Si Si3 0.102127 0.171507 0.899951
Si Si4 0.863598 0.833997 0.292559
Si Si5 0.605325 0.824152 0.537000
Si Si6 0.656502 0.835324 0.320651
Si Si7 0.709220 0.175134 0.134355
Si Si8 0.900013 0.824592 0.175401
O O1 0.178070 0.752893 0.436650
O O2 0.341081 0.770613 0.484163
O O3 0.333950 0.774789 0.381224
O O4 0.264427 0.000000 0.433987
O O5 0.500000 0.335397 0.200341
O O6 0.644174 0.500000 0.221994
O O7 0.596384 0.277472 0.285544
O O8 0.662754 0.219660 0.190037
O O9 0.098971 0.231838 0.839712
O O10 0.000000 0.194089 0.925083
O O11 0.129168 0.000000 0.897924
O O12 0.754649 0.841755 0.292700
O O13 0.893187 0.761895 0.235891
O O14 0.904301 0.000000 0.300034
O O15 0.500000 0.766851 0.534883
O O16 0.658338 0.757718 0.586935
O O17 0.607191 0.000000 0.542132
O O18 0.611646 0.000000 0.321057
O O19 0.816305 0.228804 0.137294
O O20 0.700038 0.000000 0.125819
O O21 0.000000 0.778252 0.151124
O O22 0.890669 0.000000 0.180565
#
# Coordination Sequence:
#
# PCOD8178905 Si02
#       8
#     8   8   8   8   8   8   8   8
#     4   9  20  38  60  83 109 144 188 234 282 337
#     4  11  23  36  52  78 113 152 186 222 278 339
#     4  10  20  32  49  80 120 155 188 229 276 324
#     4   9  16  30  52  77 108 149 192 229 269 325
#     4  10  22  42  65  86 108 139 184 238 293 343
#     4   9  17  32  54  82 111 141 180 227 277 330
#     4  11  22  38  59  84 113 145 187 234 278 331
#     4   9  17  31  53  80 110 145 185 227 271 323
#
# _framework density 19.516120000000001
#
# number of rings (size 3 to 8) (size 9 to 14) (size 15 to 20)
#    0.000    2.250    1.250    2.625    0.000    7.250 
#    0.000    1.875    0.000    4.500    0.000    0.000 
#    0.000    0.000    0.000    0.000    0.000    0.000 
#
# Total GULP energy -396660.263767 kJ/mol
# GULP energy per Si atom -12395.633243 kJ/mol
# Density = 1.947170 g / cm^3
# Si number density = 19.516120 Si / 1000 Ang^3
#
#
#
# Elastic Constant Matrix: (Units=GPa)
#
#
# Indices 1 2 3 4 5 6 
#
# 1 138.3158 27.3178 61.8819 0.0000 0.0000 0.0000
# 2 27.3178 34.7545 21.4450 0.0000 0.0000 0.0000
# 3 61.8819 21.4450 105.8054 0.0000 0.0000 0.0000
# 4 0.0000 0.0000 0.0000 25.9416 0.0000 0.0000
# 5 0.0000 0.0000 0.0000 0.0000 20.8250 0.0000
# 6 0.0000 0.0000 0.0000 0.0000 0.0000 24.2623
#
#
#
# Elastic Compliance Matrix: (Units=1/GPa)
#
#
# Indices 1 2 3 4 5 6 
#
# 1 0.010533 -0.005118 -0.005123 0.000000 0.000000 0.000000
# 2 -0.005118 0.035373 -0.004176 0.000000 0.000000 0.000000
# 3 -0.005123 -0.004176 0.013294 0.000000 0.000000 0.000000
# 4 0.000000 0.000000 0.000000 0.038548 0.000000 0.000000
# 5 0.000000 0.000000 0.000000 0.000000 0.048019 0.000000
# 6 0.000000 0.000000 0.000000 0.000000 0.000000 0.041216
#
#
# Mechanical properties :
#
#
# Convention : Reuss Voigt Hill
#
# Bulk Modulus (GPa) = 32.93206 55.57390 44.25298
# Shear Modulus (GPa) = 22.12991 25.42118 23.77555
#
# Velocity S-wave (km/s) = 3.37104 3.61303 3.49413
# Velocity P-wave (km/s) = 5.66240 6.77813 6.24523
#
# Compressibility (1/GPa) = 0.03036555
#
# Stress axis : x y z
#
# Youngs Moduli (GPa) = 94.94383 28.27025 75.22231
#
# Poissons Ratio (x) = 0.14468 0.38535
# Poissons Ratio (y) = 0.48591 0.31415
# Poissons Ratio (z) = 0.48638 0.11806
#
# Static dielectric constant tensor:
#      x y z
#    x 3.754450 0.000000 0.000000 
#    y 0.000000 3.383170 0.000000 
#    z 0.000000 0.000000 3.469420 
# 
# 
# High freq. dielectric constant tensor:
#      x y z
#    x 1.770640 0.000000 0.000000 
#    y 0.000000 1.740050 0.000000 
#    z 0.000000 0.000000 1.740930 
# 
# From -- ./inp_files/22919.got.cif
#   From: 2010.03.12/outbox.cif.g09.slc.cpg/sg38_12_cif.got.tgz:22919.got - 2010.04.14 02:38:36.
