data_PCOD8178697
_publ_section_title
;
Structure prediction by ZEFSAII (Michael W. Deem and Ramdas Pophale) SiO2 
 PCOD8178697
Probable space group: A M M 2
;
_chemical_formula_sum "Si O2"
_cell_formula_units_Z 40
_cell_length_a 8.550635
_cell_length_b 25.791569
_cell_length_c 9.053666
_cell_angle_alpha 90.000000
_cell_angle_beta 90.000000
_cell_angle_gamma 90.000000
_cell_volume 1996.643827
_symmetry_space_group_name_H-M "A M M 2"
_symmetry_group_IT_number 38
_symmetry_cell_setting 'orthorhombic'
loop_
_space_group_symop_operation_xyz
x,y,z
-x,-y,z
-x,y,z
x,-y,z
x,1/2+y,1/2+z
-x,1/2-y,1/2+z
-x,1/2+y,1/2+z
x,1/2-y,1/2+z
loop_
_atom_site_type_symbol
_atom_site_label
_atom_site_fract_x
_atom_site_fract_y
_atom_site_fract_z
Si Si1 0.815452 0.392675 0.135720
Si Si2 0.674534 0.500000 0.484549
Si Si3 0.322341 0.000000 0.633632
Si Si4 0.816054 0.393885 0.472182
Si Si5 0.183073 0.796283 0.160812
Si Si6 0.681319 0.295392 0.979633
O O1 0.769113 0.449483 0.075503
O O2 0.756605 0.385604 0.304535
O O3 0.723194 0.352382 0.035503
O O4 0.000000 0.384137 0.119635
O O5 0.500000 0.500000 0.546287
O O6 0.682232 0.500000 0.309224
O O7 0.756200 0.447704 0.543135
O O8 0.500000 0.000000 0.574469
O O9 0.756225 0.346367 0.571024
O O10 0.000000 0.396499 0.469834
O O11 0.210182 0.745627 0.063053
O O12 0.284822 0.791733 0.306876
O O13 0.000000 0.800658 0.199839
O O14 0.500000 0.283185 0.008829
#
# Coordination Sequence:
#
# PCOD8178697 Si02
#       6
#     8   4   4   8   8   8
#     4  10  19  35  59  86 115 152 194 235 281 341
#     4   9  17  29  52  83 116 149 182 224 278 333
#     4   9  17  31  52  83 118 151 188 234 284 335
#     4   9  19  35  58  84 112 147 190 233 274 327
#     4  11  23  41  62  84 112 151 194 236 284 346
#     4  12  25  40  59  86 117 149 187 239 294 343
#
# _framework density 20.033618000000001
#
# number of rings (size 3 to 8) (size 9 to 14) (size 15 to 20)
#    0.000    1.800    0.000    4.800    0.000    6.400 
#    0.000    1.000    0.000    3.600    0.000    0.000 
#    0.000    0.000    0.000    0.000    0.000    0.000 
#
# Total GULP energy -248072.812977 kJ/mol
# GULP energy per Si atom -12403.640649 kJ/mol
# Density = 1.998802 g / cm^3
# Si number density = 20.033618 Si / 1000 Ang^3
#
#
#
# Elastic Constant Matrix: (Units=GPa)
#
#
# Indices 1 2 3 4 5 6 
#
# 1 52.3847 15.8545 15.2568 0.0000 0.0000 0.0000
# 2 15.8545 146.8915 45.9062 0.0000 0.0000 0.0000
# 3 15.2568 45.9062 78.5699 0.0000 0.0000 0.0000
# 4 0.0000 0.0000 0.0000 31.1235 0.0000 0.0000
# 5 0.0000 0.0000 0.0000 0.0000 26.1085 0.0000
# 6 0.0000 0.0000 0.0000 0.0000 0.0000 28.1300
#
#
#
# Elastic Compliance Matrix: (Units=1/GPa)
#
#
# Indices 1 2 3 4 5 6 
#
# 1 0.020399 -0.001179 -0.003272 0.000000 0.000000 0.000000
# 2 -0.001179 0.008397 -0.004677 0.000000 0.000000 0.000000
# 3 -0.003272 -0.004677 0.016096 0.000000 0.000000 0.000000
# 4 0.000000 0.000000 0.000000 0.032130 0.000000 0.000000
# 5 0.000000 0.000000 0.000000 0.000000 0.038302 0.000000
# 6 0.000000 0.000000 0.000000 0.000000 0.000000 0.035549
#
#
# Mechanical properties :
#
#
# Convention : Reuss Voigt Hill
#
# Bulk Modulus (GPa) = 37.54468 47.98680 42.76574
# Shear Modulus (GPa) = 28.08867 30.46097 29.27482
#
# Velocity S-wave (km/s) = 3.74849 3.90358 3.82682
# Velocity P-wave (km/s) = 6.12507 6.65751 6.39683
#
# Compressibility (1/GPa) = 0.02663493
#
# Stress axis : x y z
#
# Youngs Moduli (GPa) = 49.02090 119.09519 62.12896
#
# Poissons Ratio (x) = 0.14043 0.20330
# Poissons Ratio (y) = 0.05780 0.29057
# Poissons Ratio (z) = 0.16041 0.55700
#
# Static dielectric constant tensor:
#      x y z
#    x 3.585830 0.000000 0.000000 
#    y 0.000000 3.981910 0.000000 
#    z 0.000000 0.000000 3.473880 
# 
# 
# High freq. dielectric constant tensor:
#      x y z
#    x 1.785000 0.000000 0.000000 
#    y 0.000000 1.801320 0.000000 
#    z 0.000000 0.000000 1.754270 
# 
# From -- ./inp_files/3536.got.cif
#   From: 2010.03.12/outbox.cif.g09.slc.cpg/sg38_2_cif.got.tgz:3536.got - 2010.04.14 02:38:36.
