data_PCOD8178766
_publ_section_title
;
Structure prediction by ZEFSAII (Michael W. Deem and Ramdas Pophale) SiO2 
 PCOD8178766
Probable space group: A M M 2
;
_chemical_formula_sum "Si O2"
_cell_formula_units_Z 40
_cell_length_a 16.606751
_cell_length_b 8.616713
_cell_length_c 14.686111
_cell_angle_alpha 90.000000
_cell_angle_beta 90.000000
_cell_angle_gamma 90.000000
_cell_volume 2101.517971
_symmetry_space_group_name_H-M "A M M 2"
_symmetry_group_IT_number 38
_symmetry_cell_setting 'orthorhombic'
loop_
_space_group_symop_operation_xyz
x,y,z
-x,-y,z
-x,y,z
x,-y,z
x,1/2+y,1/2+z
-x,1/2-y,1/2+z
-x,1/2+y,1/2+z
x,1/2-y,1/2+z
loop_
_atom_site_type_symbol
_atom_site_label
_atom_site_fract_x
_atom_site_fract_y
_atom_site_fract_z
Si Si1 0.706385 0.319249 0.380430
Si Si2 0.000000 0.682998 0.723133
Si Si3 0.407158 0.320714 0.738694
Si Si4 0.588082 0.183145 0.031819
Si Si5 0.000000 0.316303 0.517098
Si Si6 0.880199 0.681943 0.876240
O O1 0.727444 0.500000 0.390662
O O2 0.649964 0.293698 0.293761
O O3 0.657895 0.250602 0.467144
O O4 0.787196 0.222664 0.370435
O O5 0.000000 0.753976 0.620669
O O6 0.922009 0.737394 0.781674
O O7 0.000000 0.500000 0.712327
O O8 0.500000 0.290361 0.764564
O O9 0.384617 0.500000 0.756916
O O10 0.390597 0.274646 0.634746
O O11 0.500000 0.253309 0.005937
O O12 0.583243 0.000000 0.019081
O O13 0.079849 0.261779 0.464223
O O14 0.000000 0.500000 0.521178
O O15 0.892728 0.500000 0.888589
#
# Coordination Sequence:
#
# PCOD8178766 Si02
#       6
#     8   4   8   8   4   8
#     4  11  21  33  52  79 108 138 174 219 263 300
#     4   8  18  37  60  77  98 137 173 202 250 318
#     4   9  18  34  54  74  99 137 181 219 260 314
#     4   8  16  32  52  72  99 139 181 215 257 317
#     4  10  19  37  62  83 100 127 171 216 256 302
#     4  10  21  38  55  78 110 141 172 206 253 314
#
# _framework density 19.033860000000001
#
# number of rings (size 3 to 8) (size 9 to 14) (size 15 to 20)
#    0.000    2.600    0.000    3.900    0.000    2.800 
#    0.000   16.000    0.000    2.400    0.000    0.000 
#    0.000    0.000    0.000    0.000    0.000    0.000 
#
# Total GULP energy -247943.221284 kJ/mol
# GULP energy per Si atom -12397.161064 kJ/mol
# Density = 1.899054 g / cm^3
# Si number density = 19.033860 Si / 1000 Ang^3
#
#
#
# Elastic Constant Matrix: (Units=GPa)
#
#
# Indices 1 2 3 4 5 6 
#
# 1 125.4315 19.5792 69.8768 0.0000 0.0000 0.0000
# 2 19.5792 40.3056 23.8842 0.0000 0.0000 0.0000
# 3 69.8768 23.8842 144.7082 0.0000 0.0000 0.0000
# 4 0.0000 0.0000 0.0000 27.0655 0.0000 0.0000
# 5 0.0000 0.0000 0.0000 0.0000 113.7484 0.0000
# 6 0.0000 0.0000 0.0000 0.0000 0.0000 27.4232
#
#
#
# Elastic Compliance Matrix: (Units=1/GPa)
#
#
# Indices 1 2 3 4 5 6 
#
# 1 0.011122 -0.002461 -0.004965 0.000000 0.000000 0.000000
# 2 -0.002461 0.028045 -0.003440 0.000000 0.000000 0.000000
# 3 -0.004965 -0.003440 0.009876 0.000000 0.000000 0.000000
# 4 0.000000 0.000000 0.000000 0.036947 0.000000 0.000000
# 5 0.000000 0.000000 0.000000 0.000000 0.008791 0.000000
# 6 0.000000 0.000000 0.000000 0.000000 0.000000 0.036465
#
#
# Mechanical properties :
#
#
# Convention : Reuss Voigt Hill
#
# Bulk Modulus (GPa) = 36.61583 59.68066 48.14824
# Shear Modulus (GPa) = 30.84851 46.78776 38.81813
#
# Velocity S-wave (km/s) = 4.03018 4.96333 4.52090
# Velocity P-wave (km/s) = 6.39808 8.01681 7.25275
#
# Compressibility (1/GPa) = 0.02731060
#
# Stress axis : x y z
#
# Youngs Moduli (GPa) = 89.90899 35.65742 101.25952
#
# Poissons Ratio (x) = 0.08775 0.50271
# Poissons Ratio (y) = 0.22127 0.34838
# Poissons Ratio (z) = 0.44636 0.12268
#
# Static dielectric constant tensor:
#      x y z
#    x 2.235370 0.000000 0.000000 
#    y 0.000000 3.170730 0.000000 
#    z 0.000000 0.000000 3.746340 
# 
# 
# High freq. dielectric constant tensor:
#      x y z
#    x 1.742000 0.000000 0.000000 
#    y 0.000000 1.714910 0.000000 
#    z 0.000000 0.000000 1.748240 
# 
# From -- ./inp_files/14283.got.cif
#   From: 2010.03.12/outbox.cif.g09.slc.cpg/sg38_8_cif.got.tgz:14283.got - 2010.04.14 02:38:36.
