data_PCOD8178862
_publ_section_title
;
Structure prediction by ZEFSAII (Michael W. Deem and Ramdas Pophale) SiO2 
 PCOD8178862
Probable space group: A M M 2
;
_chemical_formula_sum "Si O2"
_cell_formula_units_Z 64
_cell_length_a 8.914902
_cell_length_b 23.444291
_cell_length_c 18.852127
_cell_angle_alpha 90.000000
_cell_angle_beta 90.000000
_cell_angle_gamma 90.000000
_cell_volume 3940.161595
_symmetry_space_group_name_H-M "A M M 2"
_symmetry_group_IT_number 38
_symmetry_cell_setting 'orthorhombic'
loop_
_space_group_symop_operation_xyz
x,y,z
-x,-y,z
-x,y,z
x,-y,z
x,1/2+y,1/2+z
-x,1/2-y,1/2+z
-x,1/2+y,1/2+z
x,1/2-y,1/2+z
loop_
_atom_site_type_symbol
_atom_site_label
_atom_site_fract_x
_atom_site_fract_y
_atom_site_fract_z
Si Si1 0.174622 0.830378 0.484080
Si Si2 0.825432 0.342040 0.442236
Si Si3 0.177884 0.883533 0.713680
Si Si4 0.327148 0.262182 0.211967
Si Si5 0.326052 0.566140 0.351558
Si Si6 0.177111 0.937362 0.567985
Si Si7 0.673409 0.272713 0.557538
Si Si8 0.828700 0.232396 0.346732
O O1 0.220887 0.895063 0.503559
O O2 0.272977 0.789178 0.532414
O O3 0.205301 0.819421 0.401003
O O4 0.000000 0.817889 0.501760
O O5 0.740844 0.398703 0.417387
O O6 0.764953 0.323109 0.519299
O O7 0.794055 0.292051 0.385734
O O8 0.000000 0.355517 0.449171
O O9 0.225752 0.818118 0.712935
O O10 0.244303 0.917796 0.779186
O O11 0.239138 0.913220 0.642283
O O12 0.000000 0.885770 0.719827
O O13 0.500000 0.280452 0.217863
O O14 0.299090 0.224216 0.141982
O O15 0.279710 0.224177 0.279619
O O16 0.500000 0.581075 0.343328
O O17 0.299242 0.500000 0.368368
O O18 0.000000 0.942129 0.574002
O O19 0.246914 0.000000 0.553075
O O20 0.500000 0.280029 0.537841
O O21 0.000000 0.230717 0.320765
#
# Coordination Sequence:
#
# PCOD8178862 Si02
#       8
#     8   8   8   8   8   8   8   8
#     4   9  17  31  48  68  94 124 161 202 244 291
#     4  10  20  34  52  73  95 126 165 205 246 289
#     4  11  20  31  48  69  98 135 172 207 237 280
#     4  11  21  31  47  71  99 131 163 199 247 298
#     4  11  23  36  50  70 100 136 169 204 245 289
#     4   9  17  29  47  70  95 127 166 204 241 281
#     4  10  20  32  48  70  97 126 159 200 249 299
#     4   9  18  30  47  69  93 123 159 200 246 293
#
# _framework density 16.242989000000001
#
# number of rings (size 3 to 8) (size 9 to 14) (size 15 to 20)
#    0.000    2.000    2.500    3.000    0.000    5.000 
#    0.000    0.000    0.000    1.125    0.000    0.875 
#    0.000    3.000    0.000    0.000    0.000    0.000 
#
# Total GULP energy -396814.817176 kJ/mol
# GULP energy per Si atom -12400.463037 kJ/mol
# Density = 1.620602 g / cm^3
# Si number density = 16.242989 Si / 1000 Ang^3
#
#
#
# Elastic Constant Matrix: (Units=GPa)
#
#
# Indices 1 2 3 4 5 6 
#
# 1 76.6956 34.3398 49.1571 0.0000 0.0000 0.0000
# 2 34.3398 94.8902 60.0007 0.0000 0.0000 0.0000
# 3 49.1571 60.0007 110.0388 0.0000 0.0000 0.0000
# 4 0.0000 0.0000 0.0000 23.4029 0.0000 0.0000
# 5 0.0000 0.0000 0.0000 0.0000 26.3508 0.0000
# 6 0.0000 0.0000 0.0000 0.0000 0.0000 18.2475
#
#
#
# Elastic Compliance Matrix: (Units=1/GPa)
#
#
# Indices 1 2 3 4 5 6 
#
# 1 0.018580 -0.002252 -0.007072 0.000000 0.000000 0.000000
# 2 -0.002252 0.016357 -0.007913 0.000000 0.000000 0.000000
# 3 -0.007072 -0.007913 0.016562 0.000000 0.000000 0.000000
# 4 0.000000 0.000000 0.000000 0.042730 0.000000 0.000000
# 5 0.000000 0.000000 0.000000 0.000000 0.037950 0.000000
# 6 0.000000 0.000000 0.000000 0.000000 0.000000 0.054802
#
#
# Mechanical properties :
#
#
# Convention : Reuss Voigt Hill
#
# Bulk Modulus (GPa) = 58.73964 63.18000 60.95982
# Shear Modulus (GPa) = 22.01400 22.80869 22.41134
#
# Velocity S-wave (km/s) = 3.68542 3.75135 3.71853
# Velocity P-wave (km/s) = 7.37234 7.59900 7.48653
#
# Compressibility (1/GPa) = 0.01702428
#
# Stress axis : x y z
#
# Youngs Moduli (GPa) = 53.82244 61.13621 60.38063
#
# Poissons Ratio (x) = 0.13768 0.42701
# Poissons Ratio (y) = 0.12121 0.47778
# Poissons Ratio (z) = 0.38063 0.48376
#
# Static dielectric constant tensor:
#      x y z
#    x 3.073140 0.000000 0.000000 
#    y 0.000000 3.048600 0.000000 
#    z 0.000000 0.000000 3.179690 
# 
# 
# High freq. dielectric constant tensor:
#      x y z
#    x 1.627380 0.000000 0.000000 
#    y 0.000000 1.599050 0.000000 
#    z 0.000000 0.000000 1.620190 
# 
# From -- ./inp_files/17291.got.cif
#   From: 2010.03.12/outbox.cif.g09.slc.cpg/sg38_9_cif.got.tgz:17291.got - 2010.04.14 02:38:36.
