data_PCOD8178107
_publ_section_title
;
Structure prediction by ZEFSAII (Michael W. Deem and Ramdas Pophale) SiO2 
 PCOD8178107
Probable space group: A M M 2
;
_chemical_formula_sum "Si O2"
_cell_formula_units_Z 64
_cell_length_a 8.633864
_cell_length_b 23.409845
_cell_length_c 19.085293
_cell_angle_alpha 90.000000
_cell_angle_beta 90.000000
_cell_angle_gamma 90.000000
_cell_volume 3857.470143
_symmetry_space_group_name_H-M "A M M 2"
_symmetry_group_IT_number 38
_symmetry_cell_setting 'orthorhombic'
loop_
_space_group_symop_operation_xyz
x,y,z
-x,-y,z
-x,y,z
x,-y,z
x,1/2+y,1/2+z
-x,1/2-y,1/2+z
-x,1/2+y,1/2+z
x,1/2-y,1/2+z
loop_
_atom_site_type_symbol
_atom_site_label
_atom_site_fract_x
_atom_site_fract_y
_atom_site_fract_z
Si Si1 0.184179 0.563086 0.211010
Si Si2 0.182787 0.223148 0.217281
Si Si3 0.182828 0.666050 0.298175
Si Si4 0.819205 0.123181 0.569402
Si Si5 0.319375 0.247835 0.574308
Si Si6 0.322285 0.435041 0.938463
Si Si7 0.320852 0.168248 0.344171
Si Si8 0.818063 0.269174 0.431087
O O1 0.255533 0.500000 0.222649
O O2 0.249782 0.605259 0.271823
O O3 0.237108 0.586636 0.135829
O O4 0.000000 0.559875 0.214016
O O5 0.243790 0.283802 0.247274
O O6 0.233697 0.218907 0.136888
O O7 0.260614 0.173431 0.264303
O O8 0.000000 0.216494 0.223439
O O9 0.229818 0.679285 0.378344
O O10 0.000000 0.665254 0.290574
O O11 0.726949 0.182012 0.567866
O O12 0.786831 0.086005 0.500919
O O13 0.000000 0.138221 0.574456
O O14 0.500000 0.252865 0.587369
O O15 0.273884 0.279727 0.502600
O O16 0.500000 0.429760 0.963547
O O17 0.279040 0.500000 0.918922
O O18 0.294320 0.396765 0.869325
O O19 0.500000 0.186023 0.348696
O O20 0.224302 0.208967 0.395847
O O21 0.000000 0.268734 0.446920
#
# Coordination Sequence:
#
# PCOD8178107 Si02
#       8
#     8   8   8   8   8   8   8   8
#     4   9  16  27  45  70  97 125 160 199 233 273
#     4  10  19  33  51  70  96 127 162 202 247 298
#     4   8  15  28  45  68  94 122 155 194 236 280
#     4  11  20  31  47  69  99 134 172 205 236 284
#     4  12  22  32  48  72  99 129 163 204 253 301
#     4  10  21  35  49  68 100 137 169 204 245 289
#     4  10  19  32  49  72  99 128 164 203 246 294
#     4  10  19  31  49  69  95 129 164 202 246 294
#
# _framework density 16.591183999999998
#
# number of rings (size 3 to 8) (size 9 to 14) (size 15 to 20)
#    0.000    2.000    2.500    3.750    0.000    1.250 
#    0.000    0.000    0.000    0.000    0.000    0.875 
#    0.000    3.000    0.000    0.000    0.000    0.000 
#
# Total GULP energy -396765.178296 kJ/mol
# GULP energy per Si atom -12398.911822 kJ/mol
# Density = 1.655342 g / cm^3
# Si number density = 16.591184 Si / 1000 Ang^3
#
#
#
# Elastic Constant Matrix: (Units=GPa)
#
#
# Indices 1 2 3 4 5 6 
#
# 1 41.2780 20.2546 15.7195 0.0000 0.0000 0.0000
# 2 20.2546 92.1556 60.3790 0.0000 0.0000 0.0000
# 3 15.7195 60.3790 116.1965 0.0000 0.0000 0.0000
# 4 0.0000 0.0000 0.0000 23.8239 0.0000 0.0000
# 5 0.0000 0.0000 0.0000 0.0000 23.9464 0.0000
# 6 0.0000 0.0000 0.0000 0.0000 0.0000 13.9747
#
#
#
# Elastic Compliance Matrix: (Units=1/GPa)
#
#
# Indices 1 2 3 4 5 6 
#
# 1 0.027212 -0.005411 -0.000870 0.000000 0.000000 0.000000
# 2 -0.005411 0.017529 -0.008376 0.000000 0.000000 0.000000
# 3 -0.000870 -0.008376 0.013076 0.000000 0.000000 0.000000
# 4 0.000000 0.000000 0.000000 0.041975 0.000000 0.000000
# 5 0.000000 0.000000 0.000000 0.000000 0.041760 0.000000
# 6 0.000000 0.000000 0.000000 0.000000 0.000000 0.071558
#
#
# Mechanical properties :
#
#
# Convention : Reuss Voigt Hill
#
# Bulk Modulus (GPa) = 35.08393 49.14846 42.11620
# Shear Modulus (GPa) = 19.84722 22.56748 21.20735
#
# Velocity S-wave (km/s) = 3.46244 3.69210 3.57911
# Velocity P-wave (km/s) = 6.09727 6.91831 6.52073
#
# Compressibility (1/GPa) = 0.02850308
#
# Stress axis : x y z
#
# Youngs Moduli (GPa) = 36.74807 57.04979 76.47420
#
# Poissons Ratio (x) = 0.30871 0.06650
# Poissons Ratio (y) = 0.19885 0.64057
# Poissons Ratio (z) = 0.03195 0.47787
#
# Static dielectric constant tensor:
#      x y z
#    x 3.009360 0.000000 0.000000 
#    y 0.000000 3.203580 0.000000 
#    z 0.000000 0.000000 3.288710 
# 
# 
# High freq. dielectric constant tensor:
#      x y z
#    x 1.631850 0.000000 0.000000 
#    y 0.000000 1.610490 0.000000 
#    z 0.000000 0.000000 1.637690 
# 
# From -- ./inp_files/17298.got.cif
#   From: 2010.03.12/outbox.cif.g09.slc.cpg/sg38_9_cif.got.tgz:17298.got - 2010.04.14 02:38:36.
