data_PCOD8178608
_publ_section_title
;
Structure prediction by ZEFSAII (Michael W. Deem and Ramdas Pophale) SiO2 
 PCOD8178608
Probable space group: A M M 2
;
_chemical_formula_sum "Si O2"
_cell_formula_units_Z 64
_cell_length_a 20.530228
_cell_length_b 19.232722
_cell_length_c 8.389431
_cell_angle_alpha 90.000000
_cell_angle_beta 90.000000
_cell_angle_gamma 90.000000
_cell_volume 3312.585016
_symmetry_space_group_name_H-M "A M M 2"
_symmetry_group_IT_number 38
_symmetry_cell_setting 'orthorhombic'
loop_
_space_group_symop_operation_xyz
x,y,z
-x,-y,z
-x,y,z
x,-y,z
x,1/2+y,1/2+z
-x,1/2-y,1/2+z
-x,1/2+y,1/2+z
x,1/2-y,1/2+z
loop_
_atom_site_type_symbol
_atom_site_label
_atom_site_fract_x
_atom_site_fract_y
_atom_site_fract_z
Si Si1 0.071743 0.671629 0.614260
Si Si2 0.315051 0.079206 0.555888
Si Si3 0.299473 0.833974 0.263601
Si Si4 0.188413 0.580860 0.613478
Si Si5 0.364702 0.772486 0.968852
Si Si6 0.188296 0.919006 0.740134
Si Si7 0.926874 0.318331 0.240104
Si Si8 0.425850 0.656987 0.184930
O O1 0.114856 0.603872 0.653720
O O2 0.068750 0.682109 0.427608
O O3 0.100002 0.743018 0.687193
O O4 0.000000 0.656775 0.684785
O O5 0.330916 0.109957 0.382124
O O6 0.250287 0.110825 0.641062
O O7 0.378050 0.090965 0.667150
O O8 0.301078 0.000000 0.532186
O O9 0.229035 0.864321 0.219714
O O10 0.338096 0.826868 0.098223
O O11 0.304758 0.760277 0.361552
O O12 0.199151 0.500000 0.663386
O O13 0.204074 0.591609 0.427040
O O14 0.405950 0.712543 0.052095
O O15 0.416391 0.812343 0.860470
O O16 0.124321 0.876974 0.682750
O O17 0.174903 0.000000 0.705056
O O18 0.000000 0.332367 0.168929
O O19 0.500000 0.633228 0.161464
#
# Coordination Sequence:
#
# PCOD8178608 Si02
#       8
#     8   8   8   8   8   8   8   8
#     4   9  19  33  49  71 100 135 174 219 267 316
#     4  10  21  36  54  76 106 144 180 216 260 312
#     4  10  20  35  54  78 108 137 174 219 266 319
#     4  10  20  33  52  76 103 139 179 220 267 320
#     4   9  20  35  54  83 109 135 170 214 268 318
#     4   9  19  35  54  78 107 139 178 222 268 321
#     4   9  18  33  52  75 103 136 175 218 268 321
#     4  10  19  34  57  81 108 138 172 215 260 312
#
# _framework density 19.320259
#
# number of rings (size 3 to 8) (size 9 to 14) (size 15 to 20)
#    0.000    2.500    0.000    1.500    0.000    6.750 
#    0.000    3.750    0.000    0.000    0.000    5.250 
#    0.000    0.000    0.000    0.000    0.000    0.000 
#
# Total GULP energy -396522.324738 kJ/mol
# GULP energy per Si atom -12391.322648 kJ/mol
# Density = 1.927629 g / cm^3
# Si number density = 19.320259 Si / 1000 Ang^3
#
#
#
# Elastic Constant Matrix: (Units=GPa)
#
#
# Indices 1 2 3 4 5 6 
#
# 1 126.9479 52.5551 40.5069 0.0000 0.0000 0.0000
# 2 52.5551 60.9798 26.0820 0.0000 0.0000 0.0000
# 3 40.5069 26.0820 71.7099 0.0000 0.0000 0.0000
# 4 0.0000 0.0000 0.0000 25.3750 0.0000 0.0000
# 5 0.0000 0.0000 0.0000 0.0000 21.1074 0.0000
# 6 0.0000 0.0000 0.0000 0.0000 0.0000 26.5861
#
#
#
# Elastic Compliance Matrix: (Units=1/GPa)
#
#
# Indices 1 2 3 4 5 6 
#
# 1 0.013109 -0.009628 -0.003903 0.000000 0.000000 0.000000
# 2 -0.009628 0.026492 -0.004197 0.000000 0.000000 0.000000
# 3 -0.003903 -0.004197 0.017676 0.000000 0.000000 0.000000
# 4 0.000000 0.000000 0.000000 0.039409 0.000000 0.000000
# 5 0.000000 0.000000 0.000000 0.000000 0.047377 0.000000
# 6 0.000000 0.000000 0.000000 0.000000 0.000000 0.037614
#
#
# Mechanical properties :
#
#
# Convention : Reuss Voigt Hill
#
# Bulk Modulus (GPa) = 45.82735 55.32507 50.57621
# Shear Modulus (GPa) = 22.28113 23.97994 23.13054
#
# Velocity S-wave (km/s) = 3.39964 3.52686 3.46384
# Velocity P-wave (km/s) = 6.25951 6.72926 6.49863
#
# Compressibility (1/GPa) = 0.02182103
#
# Stress axis : x y z
#
# Youngs Moduli (GPa) = 76.28617 37.74721 56.57378
#
# Poissons Ratio (x) = 0.36344 0.22079
# Poissons Ratio (y) = 0.73451 0.23743
# Poissons Ratio (z) = 0.29772 0.15842
#
# Static dielectric constant tensor:
#      x y z
#    x 3.662950 0.000000 0.000000 
#    y 0.000000 3.483640 0.000000 
#    z 0.000000 0.000000 3.627370 
# 
# 
# High freq. dielectric constant tensor:
#      x y z
#    x 1.741190 0.000000 0.000000 
#    y 0.000000 1.741160 0.000000 
#    z 0.000000 0.000000 1.754420 
# 
# From -- ./inp_files/6492.got.cif
#   From: 2010.03.12/outbox.cif.g09.slc.cpg/sg38_4_cif.got.tgz:6492.got - 2010.04.14 02:38:36.
