data_PCOD8178787
_publ_section_title
;
Structure prediction by ZEFSAII (Michael W. Deem and Ramdas Pophale) SiO2 
 PCOD8178787
Probable space group: A M M 2
;
_chemical_formula_sum "Si O2"
_cell_formula_units_Z 56
_cell_length_a 7.677014
_cell_length_b 22.168140
_cell_length_c 15.124443
_cell_angle_alpha 90.000000
_cell_angle_beta 90.000000
_cell_angle_gamma 90.000000
_cell_volume 2573.955164
_symmetry_space_group_name_H-M "A M M 2"
_symmetry_group_IT_number 38
_symmetry_cell_setting 'orthorhombic'
loop_
_space_group_symop_operation_xyz
x,y,z
-x,-y,z
-x,y,z
x,-y,z
x,1/2+y,1/2+z
-x,1/2-y,1/2+z
-x,1/2+y,1/2+z
x,1/2-y,1/2+z
loop_
_atom_site_type_symbol
_atom_site_label
_atom_site_fract_x
_atom_site_fract_y
_atom_site_fract_z
Si Si1 0.500000 0.429036 0.050470
Si Si2 0.794458 0.385340 0.740893
Si Si3 0.302080 0.066614 0.061903
Si Si4 0.208860 0.159297 0.797248
Si Si5 0.805617 0.311002 0.486859
Si Si6 0.206203 0.260653 0.664215
Si Si7 0.500000 0.070974 0.753925
Si Si8 0.805040 0.428379 0.930076
O O1 0.500000 0.500000 0.035850
O O2 0.500000 0.411723 0.151680
O O3 0.675922 0.403005 0.005540
O O4 0.706351 0.427933 0.668028
O O5 0.734983 0.316435 0.725060
O O6 0.730175 0.404707 0.837311
O O7 0.000000 0.393799 0.732784
O O8 0.500000 0.074389 0.029831
O O9 0.189797 0.118558 0.015288
O O10 0.232925 0.000000 0.034771
O O11 0.266350 0.199524 0.712654
O O12 0.321458 0.098046 0.794348
O O13 0.000000 0.145354 0.797864
O O14 0.269779 0.194119 0.887336
O O15 0.712408 0.270531 0.564385
O O16 0.000000 0.286743 0.480640
O O17 0.000000 0.261342 0.655718
O O18 0.500000 0.000000 0.772746
O O19 0.809728 0.500000 0.927946
O O20 0.000000 0.403199 0.949364
#
# Coordination Sequence:
#
# PCOD8178787 Si02
#       8
#     4   8   8   8   8   8   4   8
#     4   9  20  38  55  74 112 152 186 247 304 341
#     4   9  17  31  52  79 114 155 196 247 303 360
#     4  10  20  30  46  77 117 160 200 245 305 364
#     4  10  22  43  68  93 123 163 205 250 312 371
#     4   9  19  37  61  86 118 159 199 250 307 360
#     4   8  16  36  61  86 120 156 194 245 302 360
#     4  11  26  46  65  90 122 156 205 265 314 363
#     4   9  17  30  52  81 114 157 203 243 295 359
#
# _framework density 21.756399999999999
#
# number of rings (size 3 to 8) (size 9 to 14) (size 15 to 20)
#    0.000    2.714    0.000    1.714    2.000    3.143 
#    7.714    2.857    0.000    0.000    0.000    0.000 
#    0.000    0.000    0.000    0.000    0.000    0.000 
#
# Total GULP energy -346926.128983 kJ/mol
# GULP energy per Si atom -12390.218892 kJ/mol
# Density = 2.170688 g / cm^3
# Si number density = 21.756400 Si / 1000 Ang^3
#
#
#
# Elastic Constant Matrix: (Units=GPa)
#
#
# Indices 1 2 3 4 5 6 
#
# 1 69.1098 16.5850 32.8135 0.0000 0.0000 0.0000
# 2 16.5850 80.1508 36.7074 0.0000 0.0000 0.0000
# 3 32.8135 36.7074 139.8259 0.0000 0.0000 0.0000
# 4 0.0000 0.0000 0.0000 27.4546 0.0000 0.0000
# 5 0.0000 0.0000 0.0000 0.0000 24.0399 0.0000
# 6 0.0000 0.0000 0.0000 0.0000 0.0000 20.2398
#
#
#
# Elastic Compliance Matrix: (Units=1/GPa)
#
#
# Indices 1 2 3 4 5 6 
#
# 1 0.016527 -0.001868 -0.003388 0.000000 0.000000 0.000000
# 2 -0.001868 0.014393 -0.003340 0.000000 0.000000 0.000000
# 3 -0.003388 -0.003340 0.008824 0.000000 0.000000 0.000000
# 4 0.000000 0.000000 0.000000 0.036424 0.000000 0.000000
# 5 0.000000 0.000000 0.000000 0.000000 0.041597 0.000000
# 6 0.000000 0.000000 0.000000 0.000000 0.000000 0.049408
#
#
# Mechanical properties :
#
#
# Convention : Reuss Voigt Hill
#
# Bulk Modulus (GPa) = 44.34426 51.25537 47.79981
# Shear Modulus (GPa) = 26.05783 27.87891 26.96837
#
# Velocity S-wave (km/s) = 3.46455 3.58356 3.52456
# Velocity P-wave (km/s) = 6.03577 6.38220 6.21140
#
# Compressibility (1/GPa) = 0.02255083
#
# Stress axis : x y z
#
# Youngs Moduli (GPa) = 60.50836 69.47969 113.33194
#
# Poissons Ratio (x) = 0.12980 0.38396
# Poissons Ratio (y) = 0.11304 0.37853
# Poissons Ratio (z) = 0.20500 0.23206
#
# Static dielectric constant tensor:
#      x y z
#    x 3.764150 0.000000 0.000000 
#    y 0.000000 3.709800 0.000000 
#    z 0.000000 0.000000 4.231940 
# 
# 
# High freq. dielectric constant tensor:
#      x y z
#    x 1.838550 0.000000 0.000000 
#    y 0.000000 1.828630 0.000000 
#    z 0.000000 0.000000 1.860340 
# 
# From -- ./inp_files/12519.got.cif
#   From: 2010.03.12/outbox.cif.g09.slc.cpg/sg38_7_cif.got.tgz:12519.got - 2010.04.14 02:38:36.
