data_PCOD8178044
_publ_section_title
;
Structure prediction by ZEFSAII (Michael W. Deem and Ramdas Pophale) SiO2 
 PCOD8178044
Probable space group: A M M 2
;
_chemical_formula_sum "Si O2"
_cell_formula_units_Z 56
_cell_length_a 17.538912
_cell_length_b 8.803790
_cell_length_c 18.989344
_cell_angle_alpha 90.000000
_cell_angle_beta 90.000000
_cell_angle_gamma 90.000000
_cell_volume 2932.123682
_symmetry_space_group_name_H-M "A M M 2"
_symmetry_group_IT_number 38
_symmetry_cell_setting 'orthorhombic'
loop_
_space_group_symop_operation_xyz
x,y,z
-x,-y,z
-x,y,z
x,-y,z
x,1/2+y,1/2+z
-x,1/2-y,1/2+z
-x,1/2+y,1/2+z
x,1/2-y,1/2+z
loop_
_atom_site_type_symbol
_atom_site_label
_atom_site_fract_x
_atom_site_fract_y
_atom_site_fract_z
Si Si1 0.086763 0.179321 0.672720
Si Si2 0.587594 0.178300 0.391278
Si Si3 0.700419 0.321733 0.013015
Si Si4 0.304833 0.328100 0.286423
Si Si5 0.241496 0.179277 0.146589
Si Si6 0.087325 0.666116 0.817978
Si Si7 0.188536 0.828480 0.913961
O O1 0.155895 0.256250 0.629165
O O2 0.104542 0.224122 0.752808
O O3 0.000000 0.232372 0.650688
O O4 0.093662 0.000000 0.664676
O O5 0.500000 0.223618 0.400995
O O6 0.630779 0.231780 0.462696
O O7 0.618501 0.259341 0.320838
O O8 0.599768 0.000000 0.380627
O O9 0.698419 0.500000 0.026536
O O10 0.779049 0.272936 0.976570
O O11 0.698268 0.237386 0.088019
O O12 0.320963 0.500000 0.261484
O O13 0.275340 0.230727 0.221093
O O14 0.241319 0.322297 0.345792
O O15 0.236549 0.000000 0.144434
O O16 0.128186 0.500000 0.808210
O O17 0.110519 0.749991 0.889973
O O18 0.000000 0.632871 0.825485
O O19 0.175660 0.000000 0.940786
#
# Coordination Sequence:
#
# PCOD8178044 Si02
#       7
#     8   8   8   8   8   8   8
#     4  10  20  34  53  78 109 146 188 236 289 339
#     4   9  19  38  63  89 115 145 182 226 279 339
#     4  10  21  37  58  81 112 149 186 227 280 342
#     4  10  20  34  56  84 112 144 183 226 274 327
#     4  12  23  36  56  82 115 151 192 238 283 334
#     4  10  19  30  48  76 107 141 184 232 283 334
#     4  10  19  33  53  77 106 140 183 230 275 328
#
# _framework density 19.098786
#
# number of rings (size 3 to 8) (size 9 to 14) (size 15 to 20)
#    0.000    1.857    1.429    3.429    0.000    3.714 
#    0.000    1.429    0.000    6.857    0.000    0.000 
#    0.000    0.000    0.000    0.000    0.000    0.000 
#
# Total GULP energy -347089.250838 kJ/mol
# GULP energy per Si atom -12396.044673 kJ/mol
# Density = 1.905532 g / cm^3
# Si number density = 19.098786 Si / 1000 Ang^3
#
#
#
# Elastic Constant Matrix: (Units=GPa)
#
#
# Indices 1 2 3 4 5 6 
#
# 1 74.0317 40.5278 37.0453 0.0000 0.0000 0.0000
# 2 40.5278 109.7483 36.5037 0.0000 0.0000 0.0000
# 3 37.0453 36.5037 72.2767 0.0000 0.0000 0.0000
# 4 0.0000 0.0000 0.0000 32.6609 0.0000 0.0000
# 5 0.0000 0.0000 0.0000 0.0000 22.9962 0.0000
# 6 0.0000 0.0000 0.0000 0.0000 0.0000 25.9610
#
#
#
# Elastic Compliance Matrix: (Units=1/GPa)
#
#
# Indices 1 2 3 4 5 6 
#
# 1 0.020068 -0.004795 -0.007864 0.000000 0.000000 0.000000
# 2 -0.004795 0.012097 -0.003652 0.000000 0.000000 0.000000
# 3 -0.007864 -0.003652 0.019711 0.000000 0.000000 0.000000
# 4 0.000000 0.000000 0.000000 0.030618 0.000000 0.000000
# 5 0.000000 0.000000 0.000000 0.000000 0.043485 0.000000
# 6 0.000000 0.000000 0.000000 0.000000 0.000000 0.038519
#
#
# Mechanical properties :
#
#
# Convention : Reuss Voigt Hill
#
# Bulk Modulus (GPa) = 51.93786 53.80116 52.86951
# Shear Modulus (GPa) = 24.56540 25.78896 25.17718
#
# Velocity S-wave (km/s) = 3.59029 3.67862 3.63472
# Velocity P-wave (km/s) = 6.66636 6.80251 6.73478
#
# Compressibility (1/GPa) = 0.01925378
#
# Stress axis : x y z
#
# Youngs Moduli (GPa) = 49.83105 82.66398 50.73329
#
# Poissons Ratio (x) = 0.39637 0.39897
# Poissons Ratio (y) = 0.23894 0.18528
# Poissons Ratio (z) = 0.39187 0.30190
#
# Static dielectric constant tensor:
#      x y z
#    x 3.557530 0.000000 0.000000 
#    y 0.000000 3.627430 0.000000 
#    z 0.000000 0.000000 3.470770 
# 
# 
# High freq. dielectric constant tensor:
#      x y z
#    x 1.727980 0.000000 0.000000 
#    y 0.000000 1.756480 0.000000 
#    z 0.000000 0.000000 1.725970 
# 
# From -- ./inp_files/18820.got.cif
#   From: 2010.03.12/outbox.cif.g09.slc.cpg/sg38_10_cif.got.tgz:18820.got - 2010.04.14 02:38:36.
