data_PCOD8178103
_publ_section_title
;
Structure prediction by ZEFSAII (Michael W. Deem and Ramdas Pophale) SiO2 
 PCOD8178103
Probable space group: A M M 2
;
_chemical_formula_sum "Si O2"
_cell_formula_units_Z 64
_cell_length_a 28.632510
_cell_length_b 8.906383
_cell_length_c 14.271802
_cell_angle_alpha 90.000000
_cell_angle_beta 90.000000
_cell_angle_gamma 90.000000
_cell_volume 3639.482203
_symmetry_space_group_name_H-M "A M M 2"
_symmetry_group_IT_number 38
_symmetry_cell_setting 'orthorhombic'
loop_
_space_group_symop_operation_xyz
x,y,z
-x,-y,z
-x,y,z
x,-y,z
x,1/2+y,1/2+z
-x,1/2-y,1/2+z
-x,1/2+y,1/2+z
x,1/2-y,1/2+z
loop_
_atom_site_type_symbol
_atom_site_label
_atom_site_fract_x
_atom_site_fract_y
_atom_site_fract_z
Si Si1 0.874424 0.822691 0.563000
Si Si2 0.199061 0.822010 0.413037
Si Si3 0.874283 0.822264 0.264198
Si Si4 0.624262 0.820920 0.053972
Si Si5 0.304047 0.178454 0.417882
Si Si6 0.375731 0.676280 0.763950
Si Si7 0.051968 0.821701 0.413173
Si Si8 0.446359 0.322699 0.918768
O O1 0.828326 0.769913 0.506349
O O2 0.874455 0.747527 0.662851
O O3 0.920251 0.768939 0.505856
O O4 0.874615 0.000000 0.575766
O O5 0.171454 0.765397 0.320836
O O6 0.251457 0.757326 0.413702
O O7 0.200597 0.000000 0.410210
O O8 0.920430 0.768338 0.320364
O O9 0.873711 0.000000 0.254940
O O10 0.624293 0.754951 0.159909
O O11 0.625437 0.000000 0.050158
O O12 0.670257 0.756321 0.004563
O O13 0.577050 0.762346 0.005689
O O14 0.329327 0.224730 0.320856
O O15 0.305952 0.000000 0.433159
O O16 0.377005 0.500000 0.752299
O O17 0.421283 0.728821 0.822416
O O18 0.000000 0.750774 0.413400
O O19 0.049379 0.000000 0.413078
O O20 0.500000 0.274313 0.912427
O O21 0.440026 0.500000 0.934540
#
# Coordination Sequence:
#
# PCOD8178103 Si02
#       8
#     8   8   8   8   8   8   8   8
#     4   9  17  30  47  68  93 120 152 190 235 281
#     4   8  16  31  49  66  88 122 157 186 223 278
#     4   9  17  30  48  69  91 119 157 195 230 272
#     4  10  19  31  48  73 100 120 146 190 240 276
#     4   9  17  33  52  66  87 123 161 188 218 271
#     4   8  16  30  48  68  90 119 151 183 221 268
#     4   8  15  29  47  65  90 126 161 189 225 281
#     4   9  18  34  53  70  91 125 165 193 218 267
#
# _framework density 17.58492
#
# number of rings (size 3 to 8) (size 9 to 14) (size 15 to 20)
#    0.000    3.250    0.000    2.625    0.000    2.250 
#    0.000   11.250    0.000    0.750    0.000    0.000 
#    0.000    0.000    0.000    0.000    0.000    0.000 
#
# Total GULP energy -396630.457814 kJ/mol
# GULP energy per Si atom -12394.701807 kJ/mol
# Density = 1.754490 g / cm^3
# Si number density = 17.584920 Si / 1000 Ang^3
#
#
#
# Elastic Constant Matrix: (Units=GPa)
#
#
# Indices 1 2 3 4 5 6 
#
# 1 191.5335 28.5586 96.8396 0.0000 0.0000 0.0000
# 2 28.5586 27.7774 32.8491 0.0000 0.0000 0.0000
# 3 96.8396 32.8491 188.9039 0.0000 0.0000 0.0000
# 4 0.0000 0.0000 0.0000 30.1810 0.0000 0.0000
# 5 0.0000 0.0000 0.0000 0.0000 13.3794 0.0000
# 6 0.0000 0.0000 0.0000 0.0000 0.0000 16.7202
#
#
#
# Elastic Compliance Matrix: (Units=1/GPa)
#
#
# Indices 1 2 3 4 5 6 
#
# 1 0.007371 -0.003915 -0.003098 0.000000 0.000000 0.000000
# 2 -0.003915 0.047400 -0.006236 0.000000 0.000000 0.000000
# 3 -0.003098 -0.006236 0.007966 0.000000 0.000000 0.000000
# 4 0.000000 0.000000 0.000000 0.033133 0.000000 0.000000
# 5 0.000000 0.000000 0.000000 0.000000 0.074742 0.000000
# 6 0.000000 0.000000 0.000000 0.000000 0.000000 0.059808
#
#
# Mechanical properties :
#
#
# Convention : Reuss Voigt Hill
#
# Bulk Modulus (GPa) = 27.59372 80.52324 54.05848
# Shear Modulus (GPa) = 18.58762 28.72064 23.65413
#
# Velocity S-wave (km/s) = 3.25471 4.04574 3.67159
# Velocity P-wave (km/s) = 5.46351 8.22888 6.98443
#
# Compressibility (1/GPa) = 0.03624013
#
# Stress axis : x y z
#
# Youngs Moduli (GPa) = 135.66574 21.09725 125.53124
#
# Poissons Ratio (x) = 0.08259 0.38889
# Poissons Ratio (y) = 0.53110 0.78276
# Poissons Ratio (z) = 0.42028 0.13155
#
# Static dielectric constant tensor:
#      x y z
#    x 3.668760 0.000000 0.000000 
#    y 0.000000 2.852170 0.000000 
#    z 0.000000 0.000000 3.548210 
# 
# 
# High freq. dielectric constant tensor:
#      x y z
#    x 1.687920 0.000000 0.000000 
#    y 0.000000 1.640120 0.000000 
#    z 0.000000 0.000000 1.684950 
# 
# From -- ./inp_files/10935.got.cif
#   From: 2010.03.12/outbox.cif.g09.slc.cpg/sg38_6_cif.got.tgz:10935.got - 2010.04.14 02:38:36.
