data_PCOD8178578
_publ_section_title
;
Structure prediction by ZEFSAII (Michael W. Deem and Ramdas Pophale) SiO2 
 PCOD8178578
Probable space group: A M M 2
;
_chemical_formula_sum "Si O2"
_cell_formula_units_Z 64
_cell_length_a 27.585642
_cell_length_b 9.143600
_cell_length_c 14.408248
_cell_angle_alpha 90.000000
_cell_angle_beta 90.000000
_cell_angle_gamma 90.000000
_cell_volume 3634.222307
_symmetry_space_group_name_H-M "A M M 2"
_symmetry_group_IT_number 38
_symmetry_cell_setting 'orthorhombic'
loop_
_space_group_symop_operation_xyz
x,y,z
-x,-y,z
-x,y,z
x,-y,z
x,1/2+y,1/2+z
-x,1/2-y,1/2+z
-x,1/2+y,1/2+z
x,1/2-y,1/2+z
loop_
_atom_site_type_symbol
_atom_site_label
_atom_site_fract_x
_atom_site_fract_y
_atom_site_fract_z
Si Si1 0.806000 0.173131 0.332780
Si Si2 0.293052 0.167163 0.821900
Si Si3 0.445487 0.325489 0.322012
Si Si4 0.372081 0.169962 0.974466
Si Si5 0.945494 0.672232 0.608854
Si Si6 0.889179 0.337207 0.253938
Si Si7 0.872459 0.337169 0.454537
Si Si8 0.627701 0.669509 0.169182
O O1 0.750941 0.220415 0.319885
O O2 0.838467 0.245058 0.249861
O O3 0.826277 0.232154 0.432898
O O4 0.810253 0.000000 0.328238
O O5 0.324039 0.198955 0.914159
O O6 0.324096 0.195833 0.729420
O O7 0.274093 0.000000 0.823234
O O8 0.500000 0.262806 0.322035
O O9 0.444274 0.500000 0.321876
O O10 0.418029 0.270672 0.414947
O O11 0.417994 0.270483 0.229146
O O12 0.378539 0.000000 0.995474
O O13 0.368276 0.249513 0.072076
O O14 0.940772 0.500000 0.623898
O O15 0.932604 0.754143 0.703398
O O16 0.906943 0.729865 0.533255
O O17 0.000000 0.714484 0.578974
O O18 0.880988 0.500000 0.212245
O O19 0.905241 0.348141 0.361546
O O20 0.853691 0.500000 0.481960
O O21 0.620605 0.500000 0.147063
#
# Coordination Sequence:
#
# PCOD8178578 Si02
#       8
#     8   8   8   8   8   8   8   8
#     4  10  19  34  56  78 101 131 172 219 260 300
#     4   9  18  35  52  69  98 136 171 204 255 316
#     4   8  15  30  51  73 101 139 175 207 251 309
#     4   9  18  32  51  74 101 134 172 211 254 307
#     4  10  20  35  56  81 107 136 172 212 253 300
#     4   9  19  36  55  76 104 137 170 206 253 306
#     4   8  18  36  54  74 105 139 166 202 254 305
#     4   9  18  32  51  74 101 133 171 213 255 304
#
# _framework density 17.610368999999999
#
# number of rings (size 3 to 8) (size 9 to 14) (size 15 to 20)
#    0.750    2.250    0.000    2.625    0.000    2.750 
#    2.250    3.125    0.000    0.750    0.000    0.000 
#    0.000    0.000    0.000    0.000    0.000    0.000 
#
# Total GULP energy -396518.863616 kJ/mol
# GULP energy per Si atom -12391.214488 kJ/mol
# Density = 1.757029 g / cm^3
# Si number density = 17.610369 Si / 1000 Ang^3
#
#
#
# Elastic Constant Matrix: (Units=GPa)
#
#
# Indices 1 2 3 4 5 6 
#
# 1 97.5735 48.1841 31.5334 0.0000 0.0000 0.0000
# 2 48.1841 75.2998 36.7173 0.0000 0.0000 0.0000
# 3 31.5334 36.7173 98.3911 0.0000 0.0000 0.0000
# 4 0.0000 0.0000 0.0000 28.9176 0.0000 0.0000
# 5 0.0000 0.0000 0.0000 0.0000 18.1311 0.0000
# 6 0.0000 0.0000 0.0000 0.0000 0.0000 23.4516
#
#
#
# Elastic Compliance Matrix: (Units=1/GPa)
#
#
# Indices 1 2 3 4 5 6 
#
# 1 0.015166 -0.008966 -0.001515 0.000000 0.000000 0.000000
# 2 -0.008966 0.021535 -0.005163 0.000000 0.000000 0.000000
# 3 -0.001515 -0.005163 0.012576 0.000000 0.000000 0.000000
# 4 0.000000 0.000000 0.000000 0.034581 0.000000 0.000000
# 5 0.000000 0.000000 0.000000 0.000000 0.055154 0.000000
# 6 0.000000 0.000000 0.000000 0.000000 0.000000 0.042641
#
#
# Mechanical properties :
#
#
# Convention : Reuss Voigt Hill
#
# Bulk Modulus (GPa) = 55.58793 56.01490 55.80142
# Shear Modulus (GPa) = 22.83775 24.42203 23.62989
#
# Velocity S-wave (km/s) = 3.60507 3.72801 3.66706
# Velocity P-wave (km/s) = 6.99733 7.09984 7.04877
#
# Compressibility (1/GPa) = 0.01798952
#
# Stress axis : x y z
#
# Youngs Moduli (GPa) = 65.93787 46.43589 79.51905
#
# Poissons Ratio (x) = 0.41634 0.12044
# Poissons Ratio (y) = 0.59120 0.41055
# Poissons Ratio (z) = 0.09987 0.23974
#
# Static dielectric constant tensor:
#      x y z
#    x 3.233240 0.000000 0.000000 
#    y 0.000000 3.054450 0.000000 
#    z 0.000000 0.000000 3.146540 
# 
# 
# High freq. dielectric constant tensor:
#      x y z
#    x 1.674680 0.000000 0.000000 
#    y 0.000000 1.666270 0.000000 
#    z 0.000000 0.000000 1.671360 
# 
# From -- ./inp_files/10919.got.cif
#   From: 2010.03.12/outbox.cif.g09.slc.cpg/sg38_6_cif.got.tgz:10919.got - 2010.04.14 02:38:36.
