data_PCOD8178389
_publ_section_title
;
Structure prediction by ZEFSAII (Michael W. Deem and Ramdas Pophale) SiO2 
 PCOD8178389
Probable space group: A M M 2
;
_chemical_formula_sum "Si O2"
_cell_formula_units_Z 64
_cell_length_a 8.548995
_cell_length_b 25.034146
_cell_length_c 15.221363
_cell_angle_alpha 90.000000
_cell_angle_beta 90.000000
_cell_angle_gamma 90.000000
_cell_volume 3257.627233
_symmetry_space_group_name_H-M "A M M 2"
_symmetry_group_IT_number 38
_symmetry_cell_setting 'orthorhombic'
loop_
_space_group_symop_operation_xyz
x,y,z
-x,-y,z
-x,y,z
x,-y,z
x,1/2+y,1/2+z
-x,1/2-y,1/2+z
-x,1/2+y,1/2+z
x,1/2-y,1/2+z
loop_
_atom_site_type_symbol
_atom_site_label
_atom_site_fract_x
_atom_site_fract_y
_atom_site_fract_z
Si Si1 0.814209 0.059021 0.335980
Si Si2 0.815482 0.147235 0.206108
Si Si3 0.816352 0.834913 0.011296
Si Si4 0.817159 0.265847 0.228426
Si Si5 0.317575 0.858028 0.834620
Si Si6 0.184601 0.938413 0.696659
Si Si7 0.681491 0.776864 0.543324
Si Si8 0.184340 0.886671 0.513605
O O1 0.740313 0.100388 0.265311
O O2 0.765991 0.074341 0.434728
O O3 0.000000 0.059644 0.327882
O O4 0.747951 0.000000 0.315592
O O5 0.771737 0.204493 0.249251
O O6 0.000000 0.140780 0.204150
O O7 0.753499 0.144145 0.105845
O O8 0.727666 0.868598 0.936126
O O9 0.000000 0.844065 0.000919
O O10 0.780139 0.771948 0.003533
O O11 0.773335 0.303733 0.309083
O O12 0.720150 0.286558 0.145336
O O13 0.000000 0.270997 0.205776
O O14 0.500000 0.848326 0.824290
O O15 0.267421 0.908401 0.776705
O O16 0.240508 0.913574 0.604325
O O17 0.000000 0.931892 0.707557
O O18 0.235833 0.000000 0.699819
O O19 0.500000 0.764367 0.529622
O O20 0.729021 0.831053 0.494138
O O21 0.000000 0.876027 0.514987
#
# Coordination Sequence:
#
# PCOD8178389 Si02
#       8
#     8   8   8   8   8   8   8   8
#     4   9  17  31  54  86 117 144 186 242 288 332
#     4   8  17  33  54  81 110 146 191 239 290 337
#     4  10  21  38  58  79 113 157 199 243 291 355
#     4  10  19  34  55  80 113 154 195 233 282 351
#     4  12  24  37  56  86 119 152 194 246 303 354
#     4  10  21  38  59  83 115 158 204 242 284 351
#     4  11  21  34  53  83 119 152 190 237 291 346
#     4  10  19  32  55  85 118 156 192 231 285 349
#
# _framework density 19.646201000000001
#
# number of rings (size 3 to 8) (size 9 to 14) (size 15 to 20)
#    0.000    2.000    1.250    4.125    1.750    1.750 
#    0.000    0.625    0.000    4.125    0.000    0.000 
#    0.000    0.000    0.000    0.000    0.000    0.000 
#
# Total GULP energy -396819.050673 kJ/mol
# GULP energy per Si atom -12400.595334 kJ/mol
# Density = 1.960148 g / cm^3
# Si number density = 19.646201 Si / 1000 Ang^3
#
#
#
# Elastic Constant Matrix: (Units=GPa)
#
#
# Indices 1 2 3 4 5 6 
#
# 1 44.2578 22.3328 16.9434 0.0000 0.0000 0.0000
# 2 22.3328 136.1873 68.4521 0.0000 0.0000 0.0000
# 3 16.9434 68.4521 114.7823 0.0000 0.0000 0.0000
# 4 0.0000 0.0000 0.0000 32.9316 0.0000 0.0000
# 5 0.0000 0.0000 0.0000 0.0000 14.9857 0.0000
# 6 0.0000 0.0000 0.0000 0.0000 0.0000 8.3952
#
#
#
# Elastic Compliance Matrix: (Units=1/GPa)
#
#
# Indices 1 2 3 4 5 6 
#
# 1 0.024883 -0.003191 -0.001770 0.000000 0.000000 0.000000
# 2 -0.003191 0.010895 -0.006027 0.000000 0.000000 0.000000
# 3 -0.001770 -0.006027 0.012567 0.000000 0.000000 0.000000
# 4 0.000000 0.000000 0.000000 0.030366 0.000000 0.000000
# 5 0.000000 0.000000 0.000000 0.000000 0.066730 0.000000
# 6 0.000000 0.000000 0.000000 0.000000 0.000000 0.119115
#
#
# Mechanical properties :
#
#
# Convention : Reuss Voigt Hill
#
# Bulk Modulus (GPa) = 37.92117 56.74265 47.33191
# Shear Modulus (GPa) = 16.93070 23.76244 20.34657
#
# Velocity S-wave (km/s) = 2.93879 3.48159 3.22164
# Velocity P-wave (km/s) = 5.55511 6.71616 6.16304
#
# Compressibility (1/GPa) = 0.02637049
#
# Stress axis : x y z
#
# Youngs Moduli (GPa) = 40.18872 91.78384 79.57059
#
# Poissons Ratio (x) = 0.29285 0.14086
# Poissons Ratio (y) = 0.12823 0.47953
# Poissons Ratio (z) = 0.07114 0.55314
#
# Static dielectric constant tensor:
#      x y z
#    x 3.244840 0.000000 0.000000 
#    y 0.000000 3.698480 0.000000 
#    z 0.000000 0.000000 3.719400 
# 
# 
# High freq. dielectric constant tensor:
#      x y z
#    x 1.736510 0.000000 0.000000 
#    y 0.000000 1.759860 0.000000 
#    z 0.000000 0.000000 1.768100 
# 
# From -- ./inp_files/12807.got.cif
#   From: 2010.03.12/outbox.cif.g09.slc.cpg/sg38_7_cif.got.tgz:12807.got - 2010.04.14 02:38:36.
