data_PCOD8178527
_publ_section_title
;
Structure prediction by ZEFSAII (Michael W. Deem and Ramdas Pophale) SiO2 
 PCOD8178527
Probable space group: A M M 2
;
_chemical_formula_sum "Si O2"
_cell_formula_units_Z 64
_cell_length_a 19.529292
_cell_length_b 18.093969
_cell_length_c 9.594114
_cell_angle_alpha 90.000000
_cell_angle_beta 90.000000
_cell_angle_gamma 90.000000
_cell_volume 3390.199188
_symmetry_space_group_name_H-M "A M M 2"
_symmetry_group_IT_number 38
_symmetry_cell_setting 'orthorhombic'
loop_
_space_group_symop_operation_xyz
x,y,z
-x,-y,z
-x,y,z
x,-y,z
x,1/2+y,1/2+z
-x,1/2-y,1/2+z
-x,1/2+y,1/2+z
x,1/2-y,1/2+z
loop_
_atom_site_type_symbol
_atom_site_label
_atom_site_fract_x
_atom_site_fract_y
_atom_site_fract_z
Si Si1 0.340946 0.327249 0.012810
Si Si2 0.820390 0.670784 0.632042
Si Si3 0.580576 0.084619 0.287100
Si Si4 0.846678 0.914751 0.686990
Si Si5 0.667419 0.841867 0.060291
Si Si6 0.923835 0.087386 0.954328
Si Si7 0.307540 0.585877 0.272626
Si Si8 0.814375 0.313899 0.949392
O O1 0.355453 0.243916 0.064412
O O2 0.348607 0.382914 0.141461
O O3 0.395442 0.356216 0.901706
O O4 0.266064 0.331615 0.944392
O O5 0.742026 0.643883 0.627645
O O6 0.872595 0.608829 0.578641
O O7 0.840987 0.690585 0.790903
O O8 0.830087 0.738620 0.528277
O O9 0.500000 0.091068 0.271269
O O10 0.613521 0.107647 0.140767
O O11 0.602059 0.000000 0.324241
O O12 0.899672 0.883747 0.801954
O O13 0.772545 0.898604 0.752587
O O14 0.855159 0.875885 0.537128
O O15 0.858542 0.000000 0.655932
O O16 0.666423 0.867768 0.902217
O O17 0.000000 0.118836 0.983244
O O18 0.923913 0.000000 0.949973
O O19 0.323934 0.500000 0.292630
#
# Coordination Sequence:
#
# PCOD8178527 Si02
#       8
#     8   8   8   8   8   8   8   8
#     4  10  21  37  59  85 114 154 193 244 299 355
#     4  11  21  36  59  86 118 154 195 249 296 348
#     4  11  24  41  58  84 123 160 197 246 306 365
#     4   9  18  34  55  84 115 147 189 239 290 347
#     4  11  21  36  61  88 115 153 199 249 297 352
#     4  10  21  38  59  85 121 162 199 241 298 359
#     4  10  19  33  56  85 115 143 192 245 290 344
#     4  10  21  35  59  88 115 149 190 248 294 350
#
# _framework density 18.877946999999999
#
# number of rings (size 3 to 8) (size 9 to 14) (size 15 to 20)
#    0.000    1.750    2.500    2.250    7.000    2.000 
#    0.000    3.750    0.000    3.750    0.000    0.000 
#    0.000    0.000    0.000    0.000    0.000    0.000 
#
# Total GULP energy -396818.920195 kJ/mol
# GULP energy per Si atom -12400.591256 kJ/mol
# Density = 1.883498 g / cm^3
# Si number density = 18.877947 Si / 1000 Ang^3
#
#
#
# Elastic Constant Matrix: (Units=GPa)
#
#
# Indices 1 2 3 4 5 6 
#
# 1 67.4907 42.8348 39.9829 0.0000 0.0000 0.0000
# 2 42.8348 66.7751 26.8051 0.0000 0.0000 0.0000
# 3 39.9829 26.8051 126.9765 0.0000 0.0000 0.0000
# 4 0.0000 0.0000 0.0000 33.7359 0.0000 0.0000
# 5 0.0000 0.0000 0.0000 0.0000 19.2755 0.0000
# 6 0.0000 0.0000 0.0000 0.0000 0.0000 22.9971
#
#
#
# Elastic Compliance Matrix: (Units=1/GPa)
#
#
# Indices 1 2 3 4 5 6 
#
# 1 0.028134 -0.015833 -0.005516 0.000000 0.000000 0.000000
# 2 -0.015833 0.025272 -0.000350 0.000000 0.000000 0.000000
# 3 -0.005516 -0.000350 0.009686 0.000000 0.000000 0.000000
# 4 0.000000 0.000000 0.000000 0.029642 0.000000 0.000000
# 5 0.000000 0.000000 0.000000 0.000000 0.051879 0.000000
# 6 0.000000 0.000000 0.000000 0.000000 0.000000 0.043484
#
#
# Mechanical properties :
#
#
# Convention : Reuss Voigt Hill
#
# Bulk Modulus (GPa) = 50.77506 53.38753 52.08129
# Shear Modulus (GPa) = 21.00316 25.30967 23.15641
#
# Velocity S-wave (km/s) = 3.33915 3.66553 3.50614
# Velocity P-wave (km/s) = 6.46695 6.80122 6.63619
#
# Compressibility (1/GPa) = 0.01969471
#
# Stress axis : x y z
#
# Youngs Moduli (GPa) = 35.54480 39.56912 103.23826
#
# Poissons Ratio (x) = 0.62648 0.56951
# Poissons Ratio (y) = 0.56277 0.03609
# Poissons Ratio (z) = 0.19608 0.01383
#
# Static dielectric constant tensor:
#      x y z
#    x 3.368920 0.000000 0.000000 
#    y 0.000000 3.592700 0.000000 
#    z 0.000000 0.000000 3.516670 
# 
# 
# High freq. dielectric constant tensor:
#      x y z
#    x 1.701940 0.000000 0.000000 
#    y 0.000000 1.740050 0.000000 
#    z 0.000000 0.000000 1.743930 
# 
# From -- ./inp_files/6831.got.cif
#   From: 2010.03.12/outbox.cif.g09.slc.cpg/sg38_4_cif.got.tgz:6831.got - 2010.04.14 02:38:36.
