data_PCOD8178185
_publ_section_title
;
Structure prediction by ZEFSAII (Michael W. Deem and Ramdas Pophale) SiO2 
 PCOD8178185
Probable space group: A M M 2
;
_chemical_formula_sum "Si O2"
_cell_formula_units_Z 48
_cell_length_a 15.586151
_cell_length_b 8.772936
_cell_length_c 17.865536
_cell_angle_alpha 90.000000
_cell_angle_beta 90.000000
_cell_angle_gamma 90.000000
_cell_volume 2442.867383
_symmetry_space_group_name_H-M "A M M 2"
_symmetry_group_IT_number 38
_symmetry_cell_setting 'orthorhombic'
loop_
_space_group_symop_operation_xyz
x,y,z
-x,-y,z
-x,y,z
x,-y,z
x,1/2+y,1/2+z
-x,1/2-y,1/2+z
-x,1/2+y,1/2+z
x,1/2-y,1/2+z
loop_
_atom_site_type_symbol
_atom_site_label
_atom_site_fract_x
_atom_site_fract_y
_atom_site_fract_z
Si Si1 0.331106 0.318982 0.446480
Si Si2 0.668783 0.818699 0.114571
Si Si3 0.160459 0.320082 0.695942
Si Si4 0.500000 0.681117 0.361921
Si Si5 0.834596 0.822231 0.856439
Si Si6 0.000000 0.821553 0.613281
Si Si7 0.000000 0.174847 0.955459
Si Si8 0.500000 0.318792 0.698635
O O1 0.331235 0.500000 0.450437
O O2 0.327532 0.251897 0.530453
O O3 0.416645 0.258906 0.406052
O O4 0.248614 0.261872 0.400650
O O5 0.750756 0.759448 0.160596
O O6 0.583350 0.757491 0.154893
O O7 0.667396 0.000000 0.112008
O O8 0.152665 0.500000 0.688154
O O9 0.155890 0.274668 0.781957
O O10 0.083801 0.246478 0.650712
O O11 0.500000 0.500000 0.355502
O O12 0.500000 0.751318 0.280594
O O13 0.916781 0.789453 0.906825
O O14 0.826815 0.000000 0.835774
O O15 0.000000 0.785545 0.525775
O O16 0.000000 0.000000 0.626774
O O17 0.000000 0.000000 0.983378
O O18 0.500000 0.500000 0.703949
#
# Coordination Sequence:
#
# PCOD8178185 Si02
#       8
#     8   8   8   4   8   4   4   4
#     4   9  17  31  52  77 105 140 184 228 268 318
#     4   9  18  33  55  82 109 143 186 227 269 320
#     4  11  22  37  58  83 113 147 185 228 274 328
#     4  10  19  31  51  77 105 140 182 226 270 320
#     4  10  20  35  56  81 111 145 181 224 274 327
#     4  12  25  40  59  83 111 143 183 230 279 330
#     4  10  21  38  59  81 107 141 179 222 275 330
#     4  10  19  33  55  81 111 144 180 224 270 322
#
# _framework density 19.649042000000001
#
# number of rings (size 3 to 8) (size 9 to 14) (size 15 to 20)
#    0.000    2.000    0.000    4.250    0.000    6.000 
#    0.000    0.833    0.000    5.000    0.000    0.000 
#    0.000    0.000    0.000    0.000    0.000    0.000 
#
# Total GULP energy -297681.946604 kJ/mol
# GULP energy per Si atom -12403.414442 kJ/mol
# Density = 1.960432 g / cm^3
# Si number density = 19.649042 Si / 1000 Ang^3
#
#
#
# Elastic Constant Matrix: (Units=GPa)
#
#
# Indices 1 2 3 4 5 6 
#
# 1 199.6688 40.3470 82.8575 0.0000 0.0000 0.0000
# 2 40.3470 48.1357 38.2092 0.0000 0.0000 0.0000
# 3 82.8575 38.2092 157.5880 0.0000 0.0000 0.0000
# 4 0.0000 0.0000 0.0000 32.9744 0.0000 0.0000
# 5 0.0000 0.0000 0.0000 0.0000 38.6823 0.0000
# 6 0.0000 0.0000 0.0000 0.0000 0.0000 64.6147
#
#
#
# Elastic Compliance Matrix: (Units=1/GPa)
#
#
# Indices 1 2 3 4 5 6 
#
# 1 0.006871 -0.003581 -0.002744 0.000000 0.000000 0.000000
# 2 -0.003581 0.027592 -0.004807 0.000000 0.000000 0.000000
# 3 -0.002744 -0.004807 0.008954 0.000000 0.000000 0.000000
# 4 0.000000 0.000000 0.000000 0.030327 0.000000 0.000000
# 5 0.000000 0.000000 0.000000 0.000000 0.025852 0.000000
# 6 0.000000 0.000000 0.000000 0.000000 0.000000 0.015476
#
#
# Mechanical properties :
#
#
# Convention : Reuss Voigt Hill
#
# Bulk Modulus (GPa) = 47.27655 80.91332 64.09493
# Shear Modulus (GPa) = 34.62930 43.51953 39.07441
#
# Velocity S-wave (km/s) = 4.20264 4.71132 4.46423
# Velocity P-wave (km/s) = 6.90379 8.41808 7.69826
#
# Compressibility (1/GPa) = 0.02115214
#
# Stress axis : x y z
#
# Youngs Moduli (GPa) = 145.54689 36.24266 111.67940
#
# Poissons Ratio (x) = 0.12977 0.30649
# Poissons Ratio (y) = 0.52113 0.53689
# Poissons Ratio (z) = 0.39943 0.17423
#
# Static dielectric constant tensor:
#      x y z
#    x 3.936310 0.000000 0.000000 
#    y 0.000000 3.192990 0.000000 
#    z 0.000000 0.000000 3.730660 
# 
# 
# High freq. dielectric constant tensor:
#      x y z
#    x 1.790030 0.000000 0.000000 
#    y 0.000000 1.724770 0.000000 
#    z 0.000000 0.000000 1.784020 
# 
# From -- ./inp_files/18262.got.cif
#   From: 2010.03.12/outbox.cif.g09.slc.cpg/sg38_10_cif.got.tgz:18262.got - 2010.04.14 02:38:36.
