data_PCOD8178139
_publ_section_title
;
Structure prediction by ZEFSAII (Michael W. Deem and Ramdas Pophale) SiO2 
 PCOD8178139
Probable space group: A M M 2
;
_chemical_formula_sum "Si O2"
_cell_formula_units_Z 64
_cell_length_a 9.149495
_cell_length_b 13.829808
_cell_length_c 28.749827
_cell_angle_alpha 90.000000
_cell_angle_beta 90.000000
_cell_angle_gamma 90.000000
_cell_volume 3637.881185
_symmetry_space_group_name_H-M "A M M 2"
_symmetry_group_IT_number 38
_symmetry_cell_setting 'orthorhombic'
loop_
_space_group_symop_operation_xyz
x,y,z
-x,-y,z
-x,y,z
x,-y,z
x,1/2+y,1/2+z
-x,1/2-y,1/2+z
-x,1/2+y,1/2+z
x,1/2-y,1/2+z
loop_
_atom_site_type_symbol
_atom_site_label
_atom_site_fract_x
_atom_site_fract_y
_atom_site_fract_z
Si Si1 0.163745 0.614439 0.291590
Si Si2 0.669685 0.206782 0.435586
Si Si3 0.668278 0.793977 0.707697
Si Si4 0.332227 0.608820 0.381533
Si Si5 0.835216 0.614566 0.850919
Si Si6 0.331613 0.611440 0.113472
Si Si7 0.332254 0.891150 0.260203
Si Si8 0.828345 0.611554 0.019505
O O1 0.166589 0.500000 0.293410
O O2 0.243496 0.645861 0.245146
O O3 0.241695 0.653189 0.338347
O O4 0.000000 0.655701 0.291095
O O5 0.500000 0.179327 0.440569
O O6 0.691215 0.321354 0.425806
O O7 0.736301 0.146557 0.393510
O O8 0.752079 0.181452 0.482787
O O9 0.500000 0.824392 0.713111
O O10 0.722024 0.821644 0.656130
O O11 0.691175 0.679022 0.715947
O O12 0.500000 0.609025 0.365503
O O13 0.281947 0.500000 0.395228
O O14 0.836243 0.500000 0.850729
O O15 0.766133 0.650414 0.802218
O O16 0.000000 0.655415 0.855780
O O17 0.500000 0.631662 0.100359
O O18 0.308674 0.500000 0.127795
O O19 0.231685 0.639699 0.070002
O O20 0.500000 0.888636 0.277124
O O21 0.286707 0.000000 0.245530
O O22 0.791201 0.500000 0.007663
O O23 0.000000 0.630419 0.018299
#
# Coordination Sequence:
#
# PCOD8178139 Si02
#       8
#     8   8   8   8   8   8   8   8
#     4  10  20  31  45  70 102 132 162 197 238 284
#     4  11  21  32  51  75  96 124 162 200 239 284
#     4  10  19  31  50  73  96 127 165 200 238 284
#     4   9  19  35  51  68  95 130 165 200 237 278
#     4  10  20  32  46  68 100 134 165 198 238 284
#     4   9  18  33  52  73  96 122 155 196 240 287
#     4   9  18  32  48  68  97 131 166 203 239 276
#     4  10  21  36  53  74 100 127 154 189 237 290
#
# _framework density 17.592658
#
# number of rings (size 3 to 8) (size 9 to 14) (size 15 to 20)
#    0.000    2.250    0.000    3.000    0.000    9.250 
#    0.000    1.250    0.000    0.750    0.000    3.500 
#    0.000    0.000    0.000    0.000    0.000    0.000 
#
# Total GULP energy -396836.887667 kJ/mol
# GULP energy per Si atom -12401.152740 kJ/mol
# Density = 1.755262 g / cm^3
# Si number density = 17.592658 Si / 1000 Ang^3
#
#
#
# Elastic Constant Matrix: (Units=GPa)
#
#
# Indices 1 2 3 4 5 6 
#
# 1 97.6720 41.4466 69.7509 0.0000 0.0000 0.0000
# 2 41.4466 52.9189 63.0513 0.0000 0.0000 0.0000
# 3 69.7509 63.0513 137.5820 0.0000 0.0000 0.0000
# 4 0.0000 0.0000 0.0000 30.2640 0.0000 0.0000
# 5 0.0000 0.0000 0.0000 0.0000 0.6371 0.0000
# 6 0.0000 0.0000 0.0000 0.0000 0.0000 19.0881
#
#
#
# Elastic Compliance Matrix: (Units=1/GPa)
#
#
# Indices 1 2 3 4 5 6 
#
# 1 0.017074 -0.006738 -0.005568 0.000000 0.000000 0.000000
# 2 -0.006738 0.044285 -0.016879 0.000000 0.000000 0.000000
# 3 -0.005568 -0.016879 0.017827 0.000000 0.000000 0.000000
# 4 0.000000 0.000000 0.000000 0.033043 0.000000 0.000000
# 5 0.000000 0.000000 0.000000 0.000000 1.569677 0.000000
# 6 0.000000 0.000000 0.000000 0.000000 0.000000 0.052389
#
#
# Mechanical properties :
#
#
# Convention : Reuss Voigt Hill
#
# Bulk Modulus (GPa) = 48.04204 70.74116 59.39160
# Shear Modulus (GPa) = 2.77839 17.59276 10.18557
#
# Velocity S-wave (km/s) = 1.25806 3.16572 2.40878
# Velocity P-wave (km/s) = 5.42933 7.32532 6.44740
#
# Compressibility (1/GPa) = 0.02081510
#
# Stress axis : x y z
#
# Youngs Moduli (GPa) = 58.56820 22.58097 56.09602
#
# Poissons Ratio (x) = 0.15216 0.31235
# Poissons Ratio (y) = 0.39465 0.94684
# Poissons Ratio (z) = 0.32611 0.38114
#
# Static dielectric constant tensor:
#      x y z
#    x 3.457560 0.000000 0.000000 
#    y 0.000000 3.382360 0.000000 
#    z 0.000000 0.000000 3.146250 
# 
# 
# High freq. dielectric constant tensor:
#      x y z
#    x 1.687860 0.000000 0.000000 
#    y 0.000000 1.678940 0.000000 
#    z 0.000000 0.000000 1.661010 
# 
# From -- ./inp_files/22201.got.cif
#   From: 2010.03.12/outbox.cif.g09.slc.cpg/sg38_12_cif.got.tgz:22201.got - 2010.04.14 02:38:36.
