data_PCOD8178094
_publ_section_title
;
Structure prediction by ZEFSAII (Michael W. Deem and Ramdas Pophale) SiO2 
 PCOD8178094
Probable space group: A M M 2
;
_chemical_formula_sum "Si O2"
_cell_formula_units_Z 64
_cell_length_a 8.827030
_cell_length_b 30.149273
_cell_length_c 14.387964
_cell_angle_alpha 90.000000
_cell_angle_beta 90.000000
_cell_angle_gamma 90.000000
_cell_volume 3829.047813
_symmetry_space_group_name_H-M "A M M 2"
_symmetry_group_IT_number 38
_symmetry_cell_setting 'orthorhombic'
loop_
_space_group_symop_operation_xyz
x,y,z
-x,-y,z
-x,y,z
x,-y,z
x,1/2+y,1/2+z
-x,1/2-y,1/2+z
-x,1/2+y,1/2+z
x,1/2-y,1/2+z
loop_
_atom_site_type_symbol
_atom_site_label
_atom_site_fract_x
_atom_site_fract_y
_atom_site_fract_z
Si Si1 0.179946 0.951577 0.515850
Si Si2 0.669696 0.723251 0.591783
Si Si3 0.176988 0.949497 0.725868
Si Si4 0.321761 0.704049 0.795489
Si Si5 0.668911 0.674303 0.095364
Si Si6 0.322915 0.133902 0.790635
Si Si7 0.176898 0.863431 0.424474
Si Si8 0.177854 0.787941 0.899926
O O1 0.239114 0.942400 0.620425
O O2 0.235768 0.913681 0.444294
O O3 0.000000 0.951365 0.520571
O O4 0.237881 0.000000 0.481421
O O5 0.500000 0.708035 0.562805
O O6 0.723023 0.699736 0.687149
O O7 0.669311 0.774390 0.618970
O O8 0.784358 0.712869 0.509123
O O9 0.264737 0.916882 0.796873
O O10 0.000000 0.938523 0.731035
O O11 0.208854 0.000000 0.757333
O O12 0.500000 0.709914 0.808770
O O13 0.267807 0.657612 0.839235
O O14 0.248503 0.746084 0.846779
O O15 0.500000 0.659395 0.062974
O O16 0.719580 0.649343 0.187555
O O17 0.791934 0.665235 0.016369
O O18 0.500000 0.136538 0.812226
O O19 0.237613 0.165190 0.862977
O O20 0.000000 0.861938 0.401370
O O21 0.000000 0.785204 0.885865
#
# Coordination Sequence:
#
# PCOD8178094 Si02
#       8
#     8   8   8   8   8   8   8   8
#     4   8  15  28  46  70 102 136 167 204 251 298
#     4  10  21  38  54  68  96 137 173 207 250 298
#     4   9  17  31  50  73 103 136 170 210 255 301
#     4  11  22  37  53  71 101 137 170 205 253 306
#     4  10  19  31  48  69  99 137 172 205 245 294
#     4  11  21  34  51  73 103 139 176 208 250 305
#     4  11  20  30  49  76 101 132 173 210 249 296
#     4  12  24  35  52  76 101 130 170 215 254 296
#
# _framework density 16.714338000000001
#
# number of rings (size 3 to 8) (size 9 to 14) (size 15 to 20)
#    0.000    1.750    3.750    3.000    0.000    1.750 
#    0.000    0.000    0.000    1.500    0.000    0.875 
#    0.000    3.000    0.000    0.000    0.000    0.000 
#
# Total GULP energy -396736.332458 kJ/mol
# GULP energy per Si atom -12398.010389 kJ/mol
# Density = 1.667629 g / cm^3
# Si number density = 16.714338 Si / 1000 Ang^3
#
#
#
# Elastic Constant Matrix: (Units=GPa)
#
#
# Indices 1 2 3 4 5 6 
#
# 1 76.7300 35.5285 39.1498 0.0000 0.0000 0.0000
# 2 35.5285 107.8612 42.0965 0.0000 0.0000 0.0000
# 3 39.1498 42.0965 69.6328 0.0000 0.0000 0.0000
# 4 0.0000 0.0000 0.0000 25.3453 0.0000 0.0000
# 5 0.0000 0.0000 0.0000 0.0000 15.7514 0.0000
# 6 0.0000 0.0000 0.0000 0.0000 0.0000 20.3275
#
#
#
# Elastic Compliance Matrix: (Units=1/GPa)
#
#
# Indices 1 2 3 4 5 6 
#
# 1 0.018864 -0.002715 -0.008965 0.000000 0.000000 0.000000
# 2 -0.002715 0.012525 -0.006046 0.000000 0.000000 0.000000
# 3 -0.008965 -0.006046 0.023056 0.000000 0.000000 0.000000
# 4 0.000000 0.000000 0.000000 0.039455 0.000000 0.000000
# 5 0.000000 0.000000 0.000000 0.000000 0.063486 0.000000
# 6 0.000000 0.000000 0.000000 0.000000 0.000000 0.049194
#
#
# Mechanical properties :
#
#
# Convention : Reuss Voigt Hill
#
# Bulk Modulus (GPa) = 52.64598 54.19708 53.42153
# Shear Modulus (GPa) = 20.13189 21.44810 20.79000
#
# Velocity S-wave (km/s) = 3.47431 3.58609 3.53064
# Velocity P-wave (km/s) = 6.90364 7.04575 6.97506
#
# Compressibility (1/GPa) = 0.01899480
#
# Stress axis : x y z
#
# Youngs Moduli (GPa) = 53.01183 79.84088 43.37250
#
# Poissons Ratio (x) = 0.21675 0.38881
# Poissons Ratio (y) = 0.14392 0.26221
# Poissons Ratio (z) = 0.47523 0.48269
#
# Static dielectric constant tensor:
#      x y z
#    x 3.087220 0.000000 0.000000 
#    y 0.000000 3.367870 0.000000 
#    z 0.000000 0.000000 3.012320 
# 
# 
# High freq. dielectric constant tensor:
#      x y z
#    x 1.641330 0.000000 0.000000 
#    y 0.000000 1.640470 0.000000 
#    z 0.000000 0.000000 1.615990 
# 
# From -- ./inp_files/13075.got.cif
#   From: 2010.03.12/outbox.cif.g09.slc.cpg/sg38_7_cif.got.tgz:13075.got - 2010.04.14 02:38:36.
