data_PCOD8178199
_publ_section_title
;
Structure prediction by ZEFSAII (Michael W. Deem and Ramdas Pophale) SiO2 
 PCOD8178199
Probable space group: A M M 2
;
_chemical_formula_sum "Si O2"
_cell_formula_units_Z 64
_cell_length_a 9.036690
_cell_length_b 20.683322
_cell_length_c 19.402964
_cell_angle_alpha 90.000000
_cell_angle_beta 90.000000
_cell_angle_gamma 90.000000
_cell_volume 3626.584118
_symmetry_space_group_name_H-M "A M M 2"
_symmetry_group_IT_number 38
_symmetry_cell_setting 'orthorhombic'
loop_
_space_group_symop_operation_xyz
x,y,z
-x,-y,z
-x,y,z
x,-y,z
x,1/2+y,1/2+z
-x,1/2-y,1/2+z
-x,1/2+y,1/2+z
x,1/2-y,1/2+z
loop_
_atom_site_type_symbol
_atom_site_label
_atom_site_fract_x
_atom_site_fract_y
_atom_site_fract_z
Si Si1 0.170943 0.695398 0.705940
Si Si2 0.170462 0.240555 0.353605
Si Si3 0.328033 0.624263 0.343812
Si Si4 0.328376 0.730382 0.987340
Si Si5 0.669393 0.377938 0.498830
Si Si6 0.829966 0.073392 0.716382
Si Si7 0.326472 0.315845 0.135531
Si Si8 0.825619 0.570939 0.626646
O O1 0.188515 0.692828 0.788585
O O2 0.263171 0.753621 0.673906
O O3 0.234321 0.627369 0.676951
O O4 0.000000 0.705774 0.685161
O O5 0.263430 0.304202 0.336822
O O6 0.233806 0.205194 0.421971
O O7 0.000000 0.259391 0.365675
O O8 0.500000 0.627349 0.323751
O O9 0.306512 0.596920 0.420912
O O10 0.243549 0.577423 0.291631
O O11 0.500000 0.728589 0.966246
O O12 0.294136 0.686828 0.053800
O O13 0.280221 0.803507 0.004667
O O14 0.500000 0.385157 0.521699
O O15 0.767095 0.420688 0.549248
O O16 0.747877 0.118918 0.662146
O O17 0.000000 0.095424 0.722085
O O18 0.816353 0.000000 0.689818
O O19 0.500000 0.318128 0.150672
O O20 0.775155 0.500000 0.653883
O O21 0.000000 0.574747 0.623111
#
# Coordination Sequence:
#
# PCOD8178199 Si02
#       8
#     8   8   8   8   8   8   8   8
#     4  10  20  34  53  79 108 138 178 224 269 315
#     4  10  19  31  52  80 107 138 177 222 270 318
#     4  10  20  34  52  75 107 144 181 221 263 315
#     4   9  19  34  52  79 109 136 172 219 270 322
#     4   9  18  33  50  73 106 140 177 217 260 310
#     4  11  24  39  54  77 110 144 180 223 269 323
#     4  11  21  35  58  82 105 138 180 223 271 323
#     4  10  21  35  51  74 106 144 181 218 264 315
#
# _framework density 17.647461
#
# number of rings (size 3 to 8) (size 9 to 14) (size 15 to 20)
#    0.000    2.000    2.500    2.250    0.000    5.750 
#    0.000    2.500    0.000    0.750    0.000    1.750 
#    0.000    0.000    0.000    0.000    0.000    0.000 
#
# Total GULP energy -396805.791109 kJ/mol
# GULP energy per Si atom -12400.180972 kJ/mol
# Density = 1.760729 g / cm^3
# Si number density = 17.647461 Si / 1000 Ang^3
#
#
#
# Elastic Constant Matrix: (Units=GPa)
#
#
# Indices 1 2 3 4 5 6 
#
# 1 83.0035 45.0302 52.2518 0.0000 0.0000 0.0000
# 2 45.0302 97.8116 56.9952 0.0000 0.0000 0.0000
# 3 52.2518 56.9952 107.6914 0.0000 0.0000 0.0000
# 4 0.0000 0.0000 0.0000 21.3993 0.0000 0.0000
# 5 0.0000 0.0000 0.0000 0.0000 30.6041 0.0000
# 6 0.0000 0.0000 0.0000 0.0000 0.0000 16.1048
#
#
#
# Elastic Compliance Matrix: (Units=1/GPa)
#
#
# Indices 1 2 3 4 5 6 
#
# 1 0.018801 -0.004829 -0.006566 0.000000 0.000000 0.000000
# 2 -0.004829 0.016023 -0.006137 0.000000 0.000000 0.000000
# 3 -0.006566 -0.006137 0.015720 0.000000 0.000000 0.000000
# 4 0.000000 0.000000 0.000000 0.046730 0.000000 0.000000
# 5 0.000000 0.000000 0.000000 0.000000 0.032675 0.000000
# 6 0.000000 0.000000 0.000000 0.000000 0.000000 0.062093
#
#
# Mechanical properties :
#
#
# Convention : Reuss Voigt Hill
#
# Bulk Modulus (GPa) = 64.60515 66.34008 65.47262
# Shear Modulus (GPa) = 21.52680 22.57026 22.04853
#
# Velocity S-wave (km/s) = 3.49639 3.58012 3.53850
# Velocity P-wave (km/s) = 7.27928 7.40022 7.33999
#
# Compressibility (1/GPa) = 0.01547864
#
# Stress axis : x y z
#
# Youngs Moduli (GPa) = 53.18765 62.40991 63.61415
#
# Poissons Ratio (x) = 0.30140 0.41772
# Poissons Ratio (y) = 0.25686 0.39040
# Poissons Ratio (z) = 0.34925 0.38301
#
# Static dielectric constant tensor:
#      x y z
#    x 3.365540 0.000000 0.000000 
#    y 0.000000 3.193650 0.000000 
#    z 0.000000 0.000000 3.508950 
# 
# 
# High freq. dielectric constant tensor:
#      x y z
#    x 1.690700 0.000000 0.000000 
#    y 0.000000 1.654550 0.000000 
#    z 0.000000 0.000000 1.685090 
# 
# From -- ./inp_files/20237.got.cif
#   From: 2010.03.12/outbox.cif.g09.slc.cpg/sg38_11_cif.got.tgz:20237.got - 2010.04.14 02:38:36.
