data_PCOD8178210
_publ_section_title
;
Structure prediction by ZEFSAII (Michael W. Deem and Ramdas Pophale) SiO2 
 PCOD8178210
Probable space group: A M M 2
;
_chemical_formula_sum "Si O2"
_cell_formula_units_Z 48
_cell_length_a 7.805327
_cell_length_b 9.185093
_cell_length_c 34.552632
_cell_angle_alpha 90.000000
_cell_angle_beta 90.000000
_cell_angle_gamma 90.000000
_cell_volume 2477.169904
_symmetry_space_group_name_H-M "A M M 2"
_symmetry_group_IT_number 38
_symmetry_cell_setting 'orthorhombic'
loop_
_space_group_symop_operation_xyz
x,y,z
-x,-y,z
-x,y,z
x,-y,z
x,1/2+y,1/2+z
-x,1/2-y,1/2+z
-x,1/2+y,1/2+z
x,1/2-y,1/2+z
loop_
_atom_site_type_symbol
_atom_site_label
_atom_site_fract_x
_atom_site_fract_y
_atom_site_fract_z
Si Si1 0.796826 0.664674 0.230430
Si Si2 0.500000 0.172263 0.936245
Si Si3 0.302212 0.662485 0.655579
Si Si4 0.188468 0.672541 0.573600
Si Si5 0.796965 0.163245 0.304259
Si Si6 0.500000 0.674313 0.522932
Si Si7 0.803608 0.171262 0.881283
O O1 0.729617 0.500000 0.233746
O O2 0.727512 0.731846 0.191143
O O3 0.721578 0.754506 0.266759
O O4 0.000000 0.670160 0.230360
O O5 0.674193 0.223859 0.914873
O O6 0.500000 0.000000 0.938385
O O7 0.500000 0.237953 0.979428
O O8 0.500000 0.653419 0.644970
O O9 0.232186 0.500000 0.665609
O O10 0.210302 0.728972 0.617614
O O11 0.209547 0.500000 0.574749
O O12 0.331482 0.736481 0.544639
O O13 0.000000 0.718889 0.558469
O O14 0.741278 0.248558 0.342600
O O15 0.000000 0.159111 0.301462
O O16 0.721176 0.000000 0.305467
O O17 0.500000 0.500000 0.522295
O O18 0.000000 0.212448 0.892608
O O19 0.788289 0.000000 0.873479
#
# Coordination Sequence:
#
# PCOD8178210 Si02
#       7
#     8   4   8   8   8   4   8
#     4  10  20  33  50  74 103 136 175 216 259 310
#     4   9  18  30  47  72 103 136 167 206 255 307
#     4  10  19  32  49  71 102 137 176 221 261 303
#     4   9  16  27  46  71 101 137 171 208 256 303
#     4   9  17  31  52  75  99 131 172 216 257 299
#     4   9  16  28  44  70 105 132 163 208 255 309
#     4   9  17  31  50  72 101 136 171 208 255 308
#
# _framework density 19.376951999999999
#
# number of rings (size 3 to 8) (size 9 to 14) (size 15 to 20)
#    0.000    2.667    0.833    1.500    0.000    4.667 
#    1.500    3.750    0.000    0.000    0.000    2.333 
#    0.000    2.667    0.000    0.000    0.000    0.000 
#
# Total GULP energy -297536.689754 kJ/mol
# GULP energy per Si atom -12397.362073 kJ/mol
# Density = 1.933285 g / cm^3
# Si number density = 19.376952 Si / 1000 Ang^3
#
#
#
# Elastic Constant Matrix: (Units=GPa)
#
#
# Indices 1 2 3 4 5 6 
#
# 1 102.6720 27.3230 74.3796 0.0000 0.0000 0.0000
# 2 27.3230 60.1118 38.2788 0.0000 0.0000 0.0000
# 3 74.3796 38.2788 168.5873 0.0000 0.0000 0.0000
# 4 0.0000 0.0000 0.0000 19.6032 0.0000 0.0000
# 5 0.0000 0.0000 0.0000 0.0000 31.5756 0.0000
# 6 0.0000 0.0000 0.0000 0.0000 0.0000 11.0883
#
#
#
# Elastic Compliance Matrix: (Units=1/GPa)
#
#
# Indices 1 2 3 4 5 6 
#
# 1 0.014763 -0.002996 -0.005833 0.000000 0.000000 0.000000
# 2 -0.002996 0.020055 -0.003232 0.000000 0.000000 0.000000
# 3 -0.005833 -0.003232 0.009239 0.000000 0.000000 0.000000
# 4 0.000000 0.000000 0.000000 0.051012 0.000000 0.000000
# 5 0.000000 0.000000 0.000000 0.000000 0.031670 0.000000
# 6 0.000000 0.000000 0.000000 0.000000 0.000000 0.090185
#
#
# Mechanical properties :
#
#
# Convention : Reuss Voigt Hill
#
# Bulk Modulus (GPa) = 50.16153 67.92598 59.04375
# Shear Modulus (GPa) = 20.18644 25.21273 22.69958
#
# Velocity S-wave (km/s) = 3.23116 3.61109 3.42639
# Velocity P-wave (km/s) = 6.31379 7.24691 6.79638
#
# Compressibility (1/GPa) = 0.01993560
#
# Stress axis : x y z
#
# Youngs Moduli (GPa) = 67.73873 49.86169 108.23727
#
# Poissons Ratio (x) = 0.14937 0.63134
# Poissons Ratio (y) = 0.20293 0.34982
# Poissons Ratio (z) = 0.39512 0.16115
#
# Static dielectric constant tensor:
#      x y z
#    x 3.542460 0.000000 0.000000 
#    y 0.000000 3.278340 0.000000 
#    z 0.000000 0.000000 3.666560 
# 
# 
# High freq. dielectric constant tensor:
#      x y z
#    x 1.753340 0.000000 0.000000 
#    y 0.000000 1.709650 0.000000 
#    z 0.000000 0.000000 1.756060 
# 
# From -- ./inp_files/24325.got.cif
#   From: 2010.03.12/outbox.cif.g09.slc.cpg/sg38_13_cif.got.tgz:24325.got - 2010.04.14 02:38:36.
