data_PCOD8178296
_publ_section_title
;
Structure prediction by ZEFSAII (Michael W. Deem and Ramdas Pophale) SiO2 
 PCOD8178296
Probable space group: A M M 2
;
_chemical_formula_sum "Si O2"
_cell_formula_units_Z 64
_cell_length_a 18.718150
_cell_length_b 21.761211
_cell_length_c 8.110839
_cell_angle_alpha 90.000000
_cell_angle_beta 90.000000
_cell_angle_gamma 90.000000
_cell_volume 3303.784900
_symmetry_space_group_name_H-M "A M M 2"
_symmetry_group_IT_number 38
_symmetry_cell_setting 'orthorhombic'
loop_
_space_group_symop_operation_xyz
x,y,z
-x,-y,z
-x,y,z
x,-y,z
x,1/2+y,1/2+z
-x,1/2-y,1/2+z
-x,1/2+y,1/2+z
x,1/2-y,1/2+z
loop_
_atom_site_type_symbol
_atom_site_label
_atom_site_fract_x
_atom_site_fract_y
_atom_site_fract_z
Si Si1 0.669062 0.572532 0.773230
Si Si2 0.669676 0.427568 0.143298
Si Si3 0.170878 0.931535 0.706911
Si Si4 0.080486 0.332093 0.308927
Si Si5 0.082535 0.568936 0.871668
Si Si6 0.804044 0.657076 0.756878
Si Si7 0.849864 0.260436 0.028893
Si Si8 0.419853 0.927113 0.953381
O O1 0.686972 0.500000 0.765566
O O2 0.740641 0.609320 0.734369
O O3 0.613382 0.591887 0.630653
O O4 0.640866 0.589869 0.958569
O O5 0.668001 0.500000 0.161372
O O6 0.751231 0.404353 0.160940
O O7 0.622417 0.399476 0.293718
O O8 0.133607 0.889558 0.847899
O O9 0.120598 0.930923 0.548050
O O10 0.178540 0.000000 0.779726
O O11 0.104160 0.308146 0.131504
O O12 0.089216 0.274901 0.428496
O O13 0.000000 0.356385 0.310649
O O14 0.088252 0.500000 0.796713
O O15 0.121669 0.618373 0.753503
O O16 0.000000 0.588600 0.890856
O O17 0.802120 0.708513 0.615381
O O18 0.796429 0.697523 0.922624
O O19 0.500000 0.900371 0.947540
O O20 0.420900 0.000000 0.940491
#
# Coordination Sequence:
#
# PCOD8178296 Si02
#       8
#     8   8   8   8   8   8   8   8
#     4  10  19  34  61  89 116 155 190 230 288 347
#     4   9  17  31  52  79 114 155 188 221 272 339
#     4  10  19  32  52  79 107 142 188 230 283 345
#     4  11  21  36  52  72 101 140 185 235 286 337
#     4  10  19  32  54  80 108 144 187 240 294 347
#     4  11  21  39  55  78 109 142 195 238 289 343
#     4  10  24  36  52  73 103 141 190 239 288 333
#     4   9  19  33  52  88 130 158 185 223 280 355
#
# _framework density 19.371721000000001
#
# number of rings (size 3 to 8) (size 9 to 14) (size 15 to 20)
#    0.000    2.000    2.500    1.125    1.750    3.750 
#    0.000    3.125    0.000    0.000    0.000    0.875 
#    0.000    0.000    0.000    0.000    0.000    0.000 
#
# Total GULP energy -396529.606431 kJ/mol
# GULP energy per Si atom -12391.550201 kJ/mol
# Density = 1.932763 g / cm^3
# Si number density = 19.371721 Si / 1000 Ang^3
#
#
#
# Elastic Constant Matrix: (Units=GPa)
#
#
# Indices 1 2 3 4 5 6 
#
# 1 139.1190 34.6442 61.0627 0.0000 0.0000 0.0000
# 2 34.6442 74.1493 22.3275 0.0000 0.0000 0.0000
# 3 61.0627 22.3275 94.6199 0.0000 0.0000 0.0000
# 4 0.0000 0.0000 0.0000 27.6545 0.0000 0.0000
# 5 0.0000 0.0000 0.0000 0.0000 21.9049 0.0000
# 6 0.0000 0.0000 0.0000 0.0000 0.0000 13.4574
#
#
#
# Elastic Compliance Matrix: (Units=1/GPa)
#
#
# Indices 1 2 3 4 5 6 
#
# 1 0.010665 -0.003133 -0.006143 0.000000 0.000000 0.000000
# 2 -0.003133 0.015438 -0.001621 0.000000 0.000000 0.000000
# 3 -0.006143 -0.001621 0.014916 0.000000 0.000000 0.000000
# 4 0.000000 0.000000 0.000000 0.036160 0.000000 0.000000
# 5 0.000000 0.000000 0.000000 0.000000 0.045652 0.000000
# 6 0.000000 0.000000 0.000000 0.000000 0.000000 0.074309
#
#
# Mechanical properties :
#
#
# Convention : Reuss Voigt Hill
#
# Bulk Modulus (GPa) = 52.01814 60.43967 56.22890
# Shear Modulus (GPa) = 22.18850 25.26028 23.72439
#
# Velocity S-wave (km/s) = 3.38806 3.61498 3.50336
# Velocity P-wave (km/s) = 6.49740 6.97795 6.74196
#
# Compressibility (1/GPa) = 0.01922406
#
# Stress axis : x y z
#
# Youngs Moduli (GPa) = 93.76779 64.77423 67.04404
#
# Poissons Ratio (x) = 0.20294 0.41186
# Poissons Ratio (y) = 0.29377 0.10869
# Poissons Ratio (z) = 0.57603 0.10501
#
# Static dielectric constant tensor:
#      x y z
#    x 3.451530 0.000000 0.000000 
#    y 0.000000 3.510060 0.000000 
#    z 0.000000 0.000000 3.778690 
# 
# 
# High freq. dielectric constant tensor:
#      x y z
#    x 1.728900 0.000000 0.000000 
#    y 0.000000 1.738320 0.000000 
#    z 0.000000 0.000000 1.753810 
# 
# From -- ./inp_files/6575.got.cif
#   From: 2010.03.12/outbox.cif.g09.slc.cpg/sg38_4_cif.got.tgz:6575.got - 2010.04.14 02:38:36.
