data_PCOD8178664
_publ_section_title
;
Structure prediction by ZEFSAII (Michael W. Deem and Ramdas Pophale) SiO2 
 PCOD8178664
Probable space group: A M M 2
;
_chemical_formula_sum "Si O2"
_cell_formula_units_Z 64
_cell_length_a 15.359959
_cell_length_b 22.313193
_cell_length_c 9.339489
_cell_angle_alpha 90.000000
_cell_angle_beta 90.000000
_cell_angle_gamma 90.000000
_cell_volume 3200.920540
_symmetry_space_group_name_H-M "A M M 2"
_symmetry_group_IT_number 38
_symmetry_cell_setting 'orthorhombic'
loop_
_space_group_symop_operation_xyz
x,y,z
-x,-y,z
-x,y,z
x,-y,z
x,1/2+y,1/2+z
-x,1/2-y,1/2+z
-x,1/2+y,1/2+z
x,1/2-y,1/2+z
loop_
_atom_site_type_symbol
_atom_site_label
_atom_site_fract_x
_atom_site_fract_y
_atom_site_fract_z
Si Si1 0.401604 0.753612 0.603100
Si Si2 0.903974 0.433193 0.382430
Si Si3 0.727527 0.069234 0.719073
Si Si4 0.773425 0.235651 0.280622
Si Si5 0.403454 0.434694 0.725713
Si Si6 0.313648 0.643175 0.953468
Si Si7 0.646021 0.633885 0.471173
Si Si8 0.173214 0.172635 0.014363
O O1 0.500000 0.751367 0.669586
O O2 0.324826 0.748425 0.721884
O O3 0.389378 0.816945 0.524689
O O4 0.394076 0.700834 0.482600
O O5 0.891742 0.500000 0.451824
O O6 0.827432 0.422201 0.268085
O O7 0.900736 0.378721 0.498972
O O8 0.000000 0.430010 0.310005
O O9 0.722683 0.092141 0.557530
O O10 0.658557 0.109305 0.809892
O O11 0.698928 0.000000 0.726578
O O12 0.766662 0.184928 0.403335
O O13 0.814162 0.292887 0.361732
O O14 0.839575 0.216747 0.151347
O O15 0.500000 0.438584 0.789803
O O16 0.358780 0.500000 0.733218
O O17 0.349936 0.386554 0.811920
O O18 0.410347 0.413412 0.560926
O O19 0.739913 0.635236 0.547812
#
# Coordination Sequence:
#
# PCOD8178664 Si02
#       8
#     8   8   8   8   8   8   8   8
#     4  11  22  34  54  82 110 147 196 248 298 340
#     4   9  19  38  66  96 123 150 186 235 286 346
#     4  10  22  39  61  87 113 149 198 238 288 355
#     4  11  21  37  55  83 118 153 195 243 288 339
#     4  11  23  38  54  77 114 156 199 249 302 352
#     4  12  22  38  57  83 113 155 195 248 292 348
#     4  10  19  35  57  80 108 145 196 242 285 343
#     4  10  20  37  59  87 115 153 191 234 283 345
#
# _framework density 19.994250000000001
#
# number of rings (size 3 to 8) (size 9 to 14) (size 15 to 20)
#    0.000    1.500    5.000    3.000    0.000    1.000 
#    0.000    2.500    0.000    5.250    0.000    1.750 
#    0.000    0.000    0.000    0.000    0.000    0.000 
#
# Total GULP energy -396454.410274 kJ/mol
# GULP energy per Si atom -12389.200321 kJ/mol
# Density = 1.994874 g / cm^3
# Si number density = 19.994250 Si / 1000 Ang^3
#
#
#
# Elastic Constant Matrix: (Units=GPa)
#
#
# Indices 1 2 3 4 5 6 
#
# 1 60.6737 29.7816 20.4033 0.0000 0.0000 0.0000
# 2 29.7816 127.1185 39.9800 0.0000 0.0000 0.0000
# 3 20.4033 39.9800 89.5777 0.0000 0.0000 0.0000
# 4 0.0000 0.0000 0.0000 33.4504 0.0000 0.0000
# 5 0.0000 0.0000 0.0000 0.0000 11.2356 0.0000
# 6 0.0000 0.0000 0.0000 0.0000 0.0000 22.7372
#
#
#
# Elastic Compliance Matrix: (Units=1/GPa)
#
#
# Indices 1 2 3 4 5 6 
#
# 1 0.019189 -0.003631 -0.002750 0.000000 0.000000 0.000000
# 2 -0.003631 0.009838 -0.003564 0.000000 0.000000 0.000000
# 3 -0.002750 -0.003564 0.013381 0.000000 0.000000 0.000000
# 4 0.000000 0.000000 0.000000 0.029895 0.000000 0.000000
# 5 0.000000 0.000000 0.000000 0.000000 0.089003 0.000000
# 6 0.000000 0.000000 0.000000 0.000000 0.000000 0.043981
#
#
# Mechanical properties :
#
#
# Convention : Reuss Voigt Hill
#
# Bulk Modulus (GPa) = 44.40950 50.85552 47.63251
# Shear Modulus (GPa) = 21.48859 25.96496 23.72677
#
# Velocity S-wave (km/s) = 3.28188 3.60755 3.44856
# Velocity P-wave (km/s) = 6.05147 6.54544 6.30330
#
# Compressibility (1/GPa) = 0.02251771
#
# Stress axis : x y z
#
# Youngs Moduli (GPa) = 52.11453 101.64498 74.73511
#
# Poissons Ratio (x) = 0.36903 0.20554
# Poissons Ratio (y) = 0.18920 0.26636
# Poissons Ratio (z) = 0.14333 0.36226
#
# Static dielectric constant tensor:
#      x y z
#    x 3.385800 0.000000 0.000000 
#    y 0.000000 3.994860 0.000000 
#    z 0.000000 0.000000 3.539920 
# 
# 
# High freq. dielectric constant tensor:
#      x y z
#    x 1.733990 0.000000 0.000000 
#    y 0.000000 1.804370 0.000000 
#    z 0.000000 0.000000 1.763620 
# 
# From -- ./inp_files/5891.got.cif
#   From: 2010.03.12/outbox.cif.g09.slc.cpg/sg38_3_cif.got.tgz:5891.got - 2010.04.14 02:38:36.
