data_PCOD8178798
_publ_section_title
;
Structure prediction by ZEFSAII (Michael W. Deem and Ramdas Pophale) SiO2 
 PCOD8178798
Probable space group: A M M 2
;
_chemical_formula_sum "Si O2"
_cell_formula_units_Z 64
_cell_length_a 15.260150
_cell_length_b 9.049512
_cell_length_c 29.977100
_cell_angle_alpha 90.000000
_cell_angle_beta 90.000000
_cell_angle_gamma 90.000000
_cell_volume 4139.744897
_symmetry_space_group_name_H-M "A M M 2"
_symmetry_group_IT_number 38
_symmetry_cell_setting 'orthorhombic'
loop_
_space_group_symop_operation_xyz
x,y,z
-x,-y,z
-x,y,z
x,-y,z
x,1/2+y,1/2+z
-x,1/2-y,1/2+z
-x,1/2+y,1/2+z
x,1/2-y,1/2+z
loop_
_atom_site_type_symbol
_atom_site_label
_atom_site_fract_x
_atom_site_fract_y
_atom_site_fract_z
Si Si1 0.093387 0.167131 0.309730
Si Si2 0.600947 0.171998 0.732612
Si Si3 0.604384 0.666675 0.644229
Si Si4 0.268214 0.170623 0.404587
Si Si5 0.604280 0.166590 0.557553
Si Si6 0.280375 0.666437 0.799046
Si Si7 0.903597 0.828124 0.900346
Si Si8 0.602262 0.827357 0.968496
O O1 0.180785 0.193118 0.280044
O O2 0.091328 0.286702 0.348572
O O3 0.000000 0.180110 0.282940
O O4 0.101838 0.000000 0.330220
O O5 0.500000 0.212119 0.741446
O O6 0.638121 0.256561 0.689404
O O7 0.654320 0.219534 0.776190
O O8 0.613694 0.000000 0.723845
O O9 0.500000 0.669890 0.643043
O O10 0.640256 0.500000 0.642950
O O11 0.642394 0.753612 0.601556
O O12 0.278256 0.195826 0.351826
O O13 0.175057 0.234347 0.422667
O O14 0.347729 0.257459 0.426948
O O15 0.274054 0.000000 0.417955
O O16 0.500000 0.167051 0.559488
O O17 0.636972 0.253873 0.514093
O O18 0.640817 0.000000 0.555891
O O19 0.312339 0.500000 0.788569
O O20 0.000000 0.794837 0.922069
O O21 0.880336 0.000000 0.904858
O O22 0.500000 0.794782 0.961186
O O23 0.621944 0.000000 0.971465
#
# Coordination Sequence:
#
# PCOD8178798 Si02
#       8
#     8   8   8   8   8   8   8   8
#     4   8  14  26  43  61  81 105 134 170 214 261
#     4  10  20  31  42  58  82 113 147 180 213 249
#     4   9  16  27  44  63  82 105 135 173 216 257
#     4  10  20  32  45  61  84 116 151 184 217 255
#     4   9  16  27  44  64  85 108 136 172 214 258
#     4   9  18  30  43  60  82 111 145 178 212 250
#     4   9  16  26  42  63  84 106 135 174 219 262
#     4  10  20  32  45  62  86 116 149 183 217 253
#
# _framework density 15.45989
#
# number of rings (size 3 to 8) (size 9 to 14) (size 15 to 20)
#    0.000    2.750    0.000    3.000    0.000    8.250 
#    0.000    2.500    0.000    0.000    0.000    0.000 
#    0.000    1.000    0.000    6.000    0.000    4.625 
#
# Total GULP energy -396580.105469 kJ/mol
# GULP energy per Si atom -12393.128296 kJ/mol
# Density = 1.542470 g / cm^3
# Si number density = 15.459890 Si / 1000 Ang^3
#
#
#
# Elastic Constant Matrix: (Units=GPa)
#
#
# Indices 1 2 3 4 5 6 
#
# 1 71.2461 46.5032 37.3593 0.0000 0.0000 0.0000
# 2 46.5032 103.2246 40.0331 0.0000 0.0000 0.0000
# 3 37.3593 40.0331 61.1864 0.0000 0.0000 0.0000
# 4 0.0000 0.0000 0.0000 28.1922 0.0000 0.0000
# 5 0.0000 0.0000 0.0000 0.0000 1.1350 0.0000
# 6 0.0000 0.0000 0.0000 0.0000 0.0000 22.0439
#
#
#
# Elastic Compliance Matrix: (Units=1/GPa)
#
#
# Indices 1 2 3 4 5 6 
#
# 1 0.023743 -0.006799 -0.010048 0.000000 0.000000 0.000000
# 2 -0.006799 0.014929 -0.005616 0.000000 0.000000 0.000000
# 3 -0.010048 -0.005616 0.026153 0.000000 0.000000 0.000000
# 4 0.000000 0.000000 0.000000 0.035471 0.000000 0.000000
# 5 0.000000 0.000000 0.000000 0.000000 0.881046 0.000000
# 6 0.000000 0.000000 0.000000 0.000000 0.000000 0.045364
#
#
# Mechanical properties :
#
#
# Convention : Reuss Voigt Hill
#
# Bulk Modulus (GPa) = 50.25741 53.71649 51.98695
# Shear Modulus (GPa) = 4.63708 17.72500 11.18104
#
# Velocity S-wave (km/s) = 1.73376 3.38970 2.69221
# Velocity P-wave (km/s) = 6.04870 7.08104 6.58513
#
# Compressibility (1/GPa) = 0.01989756
#
# Stress axis : x y z
#
# Youngs Moduli (GPa) = 42.11789 66.98469 38.23607
#
# Poissons Ratio (x) = 0.45545 0.38421
# Poissons Ratio (y) = 0.28637 0.21474
# Poissons Ratio (z) = 0.42321 0.37619
#
# Static dielectric constant tensor:
#      x y z
#    x 3.006270 0.000000 0.000000 
#    y 0.000000 3.100970 0.000000 
#    z 0.000000 0.000000 2.721490 
# 
# 
# High freq. dielectric constant tensor:
#      x y z
#    x 1.570160 0.000000 0.000000 
#    y 0.000000 1.611260 0.000000 
#    z 0.000000 0.000000 1.555680 
# 
# From -- ./inp_files/25088.got.cif
#   From: 2010.03.12/outbox.cif.g09.slc.cpg/sg38_13_cif.got.tgz:25088.got - 2010.04.14 02:38:36.
