data_PCOD8178144
_publ_section_title
;
Structure prediction by ZEFSAII (Michael W. Deem and Ramdas Pophale) SiO2 
 PCOD8178144
Probable space group: A M M 2
;
_chemical_formula_sum "Si O2"
_cell_formula_units_Z 64
_cell_length_a 9.074659
_cell_length_b 27.209785
_cell_length_c 14.589257
_cell_angle_alpha 90.000000
_cell_angle_beta 90.000000
_cell_angle_gamma 90.000000
_cell_volume 3602.372341
_symmetry_space_group_name_H-M "A M M 2"
_symmetry_group_IT_number 38
_symmetry_cell_setting 'orthorhombic'
loop_
_space_group_symop_operation_xyz
x,y,z
-x,-y,z
-x,y,z
x,-y,z
x,1/2+y,1/2+z
-x,1/2-y,1/2+z
-x,1/2+y,1/2+z
x,1/2-y,1/2+z
loop_
_atom_site_type_symbol
_atom_site_label
_atom_site_fract_x
_atom_site_fract_y
_atom_site_fract_z
Si Si1 0.668368 0.669791 0.209570
Si Si2 0.827623 0.669257 0.391229
Si Si3 0.670645 0.782208 0.209259
Si Si4 0.329849 0.556239 0.709556
Si Si5 0.826397 0.282702 0.893065
Si Si6 0.171835 0.442968 0.895770
Si Si7 0.327460 0.862753 0.511236
Si Si8 0.328567 0.636932 0.565428
O O1 0.500000 0.665441 0.241437
O O2 0.767563 0.650803 0.293270
O O3 0.706216 0.726093 0.184252
O O4 0.699851 0.636888 0.120407
O O5 0.782850 0.725910 0.407968
O O6 0.760069 0.635811 0.470907
O O7 0.000000 0.661586 0.390845
O O8 0.500000 0.790577 0.235101
O O9 0.768182 0.800460 0.294453
O O10 0.715377 0.814475 0.121878
O O11 0.500000 0.565624 0.735748
O O12 0.300681 0.500000 0.682034
O O13 0.232757 0.571987 0.796361
O O14 0.282821 0.588947 0.623139
O O15 0.747722 0.314232 0.970797
O O16 0.000000 0.291477 0.898091
O O17 0.202726 0.500000 0.916153
O O18 0.255422 0.412250 0.973057
O O19 0.000000 0.430135 0.898556
O O20 0.500000 0.861369 0.487740
O O21 0.500000 0.636531 0.541163
#
# Coordination Sequence:
#
# PCOD8178144 Si02
#       8
#     8   8   8   8   8   8   8   8
#     4   9  19  34  50  69  96 130 168 209 248 289
#     4  10  21  34  49  71 100 134 169 207 251 297
#     4   9  17  30  48  71  99 132 169 205 243 292
#     4   9  18  33  53  78 106 134 166 205 248 295
#     4  10  20  32  47  72 105 136 165 202 249 298
#     4  10  21  36  54  78 107 135 161 196 247 301
#     4  11  21  33  53  77  99 130 171 209 247 293
#     4  10  19  31  50  73  98 131 169 207 247 293
#
# _framework density 17.766069999999999
#
# number of rings (size 3 to 8) (size 9 to 14) (size 15 to 20)
#    0.000    2.250    0.000    3.000    0.000    6.250 
#    0.000    2.500    0.000    0.750    0.000    1.750 
#    0.000    0.000    0.000    0.000    0.000    0.000 
#
# Total GULP energy -396912.317261 kJ/mol
# GULP energy per Si atom -12403.509914 kJ/mol
# Density = 1.772563 g / cm^3
# Si number density = 17.766070 Si / 1000 Ang^3
#
#
#
# Elastic Constant Matrix: (Units=GPa)
#
#
# Indices 1 2 3 4 5 6 
#
# 1 90.5648 39.8645 65.6572 0.0000 0.0000 0.0000
# 2 39.8645 69.9572 57.5396 0.0000 0.0000 0.0000
# 3 65.6572 57.5396 131.5549 0.0000 0.0000 0.0000
# 4 0.0000 0.0000 0.0000 28.0018 0.0000 0.0000
# 5 0.0000 0.0000 0.0000 0.0000 11.3144 0.0000
# 6 0.0000 0.0000 0.0000 0.0000 0.0000 23.6449
#
#
#
# Elastic Compliance Matrix: (Units=1/GPa)
#
#
# Indices 1 2 3 4 5 6 
#
# 1 0.018175 -0.004523 -0.007092 0.000000 0.000000 0.000000
# 2 -0.004523 0.023452 -0.008000 0.000000 0.000000 0.000000
# 3 -0.007092 -0.008000 0.014640 0.000000 0.000000 0.000000
# 4 0.000000 0.000000 0.000000 0.035712 0.000000 0.000000
# 5 0.000000 0.000000 0.000000 0.000000 0.088383 0.000000
# 6 0.000000 0.000000 0.000000 0.000000 0.000000 0.042292
#
#
# Mechanical properties :
#
#
# Convention : Reuss Voigt Hill
#
# Bulk Modulus (GPa) = 58.70051 68.68884 63.69467
# Shear Modulus (GPa) = 18.68716 21.19325 19.94020
#
# Velocity S-wave (km/s) = 3.24673 3.45759 3.35382
# Velocity P-wave (km/s) = 6.86787 7.39505 7.13633
#
# Compressibility (1/GPa) = 0.01703563
#
# Stress axis : x y z
#
# Youngs Moduli (GPa) = 55.02186 42.64044 68.30559
#
# Poissons Ratio (x) = 0.19287 0.48444
# Poissons Ratio (y) = 0.24888 0.54644
# Poissons Ratio (z) = 0.39023 0.34112
#
# Static dielectric constant tensor:
#      x y z
#    x 3.298770 0.000000 0.000000 
#    y 0.000000 3.212650 0.000000 
#    z 0.000000 0.000000 3.239680 
# 
# 
# High freq. dielectric constant tensor:
#      x y z
#    x 1.691870 0.000000 0.000000 
#    y 0.000000 1.667590 0.000000 
#    z 0.000000 0.000000 1.684570 
# 
# From -- ./inp_files/8642.got.cif
#   From: 2010.03.12/outbox.cif.g09.slc.cpg/sg38_5_cif.got.tgz:8642.got - 2010.04.14 02:38:36.
