data_PCOD8178072
_publ_section_title
;
Structure prediction by ZEFSAII (Michael W. Deem and Ramdas Pophale) SiO2 
 PCOD8178072
Probable space group: A M M 2
;
_chemical_formula_sum "Si O2"
_cell_formula_units_Z 64
_cell_length_a 9.106867
_cell_length_b 27.829502
_cell_length_c 14.500025
_cell_angle_alpha 90.000000
_cell_angle_beta 90.000000
_cell_angle_gamma 90.000000
_cell_volume 3674.880150
_symmetry_space_group_name_H-M "A M M 2"
_symmetry_group_IT_number 38
_symmetry_cell_setting 'orthorhombic'
loop_
_space_group_symop_operation_xyz
x,y,z
-x,-y,z
-x,y,z
x,-y,z
x,1/2+y,1/2+z
-x,1/2-y,1/2+z
-x,1/2+y,1/2+z
x,1/2-y,1/2+z
loop_
_atom_site_type_symbol
_atom_site_label
_atom_site_fract_x
_atom_site_fract_y
_atom_site_fract_z
Si Si1 0.674832 0.368627 0.444400
Si Si2 0.174233 0.355181 0.010562
Si Si3 0.663253 0.233989 0.569684
Si Si4 0.167560 0.056043 0.824755
Si Si5 0.167597 0.316914 0.816203
Si Si6 0.829530 0.172119 0.114880
Si Si7 0.825769 0.052786 0.617640
Si Si8 0.659831 0.770415 0.865615
O O1 0.500000 0.368353 0.456748
O O2 0.728790 0.417214 0.397533
O O3 0.745357 0.363810 0.546259
O O4 0.726822 0.323809 0.380179
O O5 0.252442 0.316771 0.077768
O O6 0.228625 0.407742 0.043922
O O7 0.000000 0.349724 0.022482
O O8 0.224457 0.348188 0.903585
O O9 0.500000 0.230847 0.614973
O O10 0.761334 0.274795 0.616179
O O11 0.644572 0.245633 0.463516
O O12 0.225667 0.066476 0.721187
O O13 0.000000 0.073859 0.836776
O O14 0.179267 0.000000 0.847350
O O15 0.188592 0.346619 0.720845
O O16 0.241749 0.264442 0.803743
O O17 0.000000 0.304339 0.834632
O O18 0.000000 0.174825 0.085973
O O19 0.000000 0.049847 0.619369
O O20 0.762986 0.000000 0.589808
O O21 0.500000 0.774592 0.818361
#
# Coordination Sequence:
#
# PCOD8178072 Si02
#       8
#     8   8   8   8   8   8   8   8
#     4  10  20  33  49  71  96 125 161 197 237 283
#     4   9  16  29  49  71  95 124 158 194 234 282
#     4   9  17  29  43  63  91 121 156 195 232 271
#     4   9  18  33  52  73  95 120 152 192 240 290
#     4   9  18  29  44  68  96 126 160 195 229 270
#     4  10  19  31  46  66  95 130 164 196 230 271
#     4   8  15  29  50  74  96 119 152 194 239 287
#     4   8  16  29  43  61  88 120 153 189 227 269
#
# _framework density 17.415533
#
# number of rings (size 3 to 8) (size 9 to 14) (size 15 to 20)
#    0.000    3.000    0.000    2.625    0.000    5.750 
#    0.000    4.375    0.000    1.875    0.000    3.500 
#    0.000    0.000    0.000    0.000    0.000    0.000 
#
# Total GULP energy -396532.164798 kJ/mol
# GULP energy per Si atom -12391.630150 kJ/mol
# Density = 1.737589 g / cm^3
# Si number density = 17.415533 Si / 1000 Ang^3
#
#
#
# Elastic Constant Matrix: (Units=GPa)
#
#
# Indices 1 2 3 4 5 6 
#
# 1 67.5549 33.3835 34.0703 0.0000 0.0000 0.0000
# 2 33.3835 93.5352 48.0684 0.0000 0.0000 0.0000
# 3 34.0703 48.0684 89.2072 0.0000 0.0000 0.0000
# 4 0.0000 0.0000 0.0000 22.4973 0.0000 0.0000
# 5 0.0000 0.0000 0.0000 0.0000 8.7684 0.0000
# 6 0.0000 0.0000 0.0000 0.0000 0.0000 18.0140
#
#
#
# Elastic Compliance Matrix: (Units=1/GPa)
#
#
# Indices 1 2 3 4 5 6 
#
# 1 0.019529 -0.004339 -0.005121 0.000000 0.000000 0.000000
# 2 -0.004339 0.015749 -0.006829 0.000000 0.000000 0.000000
# 3 -0.005121 -0.006829 0.016846 0.000000 0.000000 0.000000
# 4 0.000000 0.000000 0.000000 0.044450 0.000000 0.000000
# 5 0.000000 0.000000 0.000000 0.000000 0.114046 0.000000
# 6 0.000000 0.000000 0.000000 0.000000 0.000000 0.055512
#
#
# Mechanical properties :
#
#
# Convention : Reuss Voigt Hill
#
# Bulk Modulus (GPa) = 51.15978 53.48241 52.32109
# Shear Modulus (GPa) = 16.38132 18.84094 17.61113
#
# Velocity S-wave (km/s) = 3.07027 3.29271 3.18344
# Velocity P-wave (km/s) = 6.48140 6.72549 6.60457
#
# Compressibility (1/GPa) = 0.01954661
#
# Stress axis : x y z
#
# Youngs Moduli (GPa) = 51.20481 63.49500 59.36265
#
# Poissons Ratio (x) = 0.27547 0.30399
# Poissons Ratio (y) = 0.22215 0.40541
# Poissons Ratio (z) = 0.26222 0.43363
#
# Static dielectric constant tensor:
#      x y z
#    x 3.300440 0.000000 0.000000 
#    y 0.000000 3.252100 0.000000 
#    z 0.000000 0.000000 3.241670 
# 
# 
# High freq. dielectric constant tensor:
#      x y z
#    x 1.664230 0.000000 0.000000 
#    y 0.000000 1.648990 0.000000 
#    z 0.000000 0.000000 1.666720 
# 
# From -- ./inp_files/13122.got.cif
#   From: 2010.03.12/outbox.cif.g09.slc.cpg/sg38_7_cif.got.tgz:13122.got - 2010.04.14 02:38:36.
