data_PCOD8178619
_publ_section_title
;
Structure prediction by ZEFSAII (Michael W. Deem and Ramdas Pophale) SiO2 
 PCOD8178619
Probable space group: A M M 2
;
_chemical_formula_sum "Si O2"
_cell_formula_units_Z 48
_cell_length_a 15.637637
_cell_length_b 8.679097
_cell_length_c 18.032771
_cell_angle_alpha 90.000000
_cell_angle_beta 90.000000
_cell_angle_gamma 90.000000
_cell_volume 2447.417929
_symmetry_space_group_name_H-M "A M M 2"
_symmetry_group_IT_number 38
_symmetry_cell_setting 'orthorhombic'
loop_
_space_group_symop_operation_xyz
x,y,z
-x,-y,z
-x,y,z
x,-y,z
x,1/2+y,1/2+z
-x,1/2-y,1/2+z
-x,1/2+y,1/2+z
x,1/2-y,1/2+z
loop_
_atom_site_type_symbol
_atom_site_label
_atom_site_fract_x
_atom_site_fract_y
_atom_site_fract_z
Si Si1 0.158048 0.818583 0.594660
Si Si2 0.000000 0.174870 0.175869
Si Si3 0.684597 0.816649 0.177535
Si Si4 0.686587 0.177227 0.838417
Si Si5 0.500000 0.174537 0.827273
Si Si6 0.500000 0.676712 0.676129
Si Si7 0.156009 0.681910 0.434575
Si Si8 0.000000 0.823786 0.351259
O O1 0.084097 0.758707 0.647633
O O2 0.248200 0.754106 0.621543
O O3 0.140181 0.766253 0.511532
O O4 0.159613 0.000000 0.598681
O O5 0.000000 0.181322 0.263528
O O6 0.000000 0.000000 0.146538
O O7 0.701325 0.769061 0.262367
O O8 0.590977 0.754119 0.148452
O O9 0.689712 0.000000 0.173587
O O10 0.589511 0.198164 0.871761
O O11 0.752639 0.234723 0.900782
O O12 0.705711 0.000000 0.819464
O O13 0.500000 0.303013 0.764379
O O14 0.500000 0.000000 0.793721
O O15 0.500000 0.500000 0.654846
O O16 0.151793 0.500000 0.447566
O O17 0.083228 0.734178 0.378322
O O18 0.000000 0.000000 0.380273
#
# Coordination Sequence:
#
# PCOD8178619 Si02
#       8
#     8   4   8   8   4   4   8   4
#     4  12  25  40  58  82 115 151 188 230 278 331
#     4  11  24  43  66  89 113 143 182 227 276 331
#     4  10  19  34  57  84 114 148 189 234 280 331
#     4   9  18  33  56  84 112 145 185 230 279 331
#     4   8  14  28  51  80 111 141 179 227 277 328
#     4   8  16  30  51  80 111 145 185 231 279 326
#     4  11  23  39  58  81 113 150 186 225 274 331
#     4  11  24  41  62  87 111 139 178 225 276 329
#
# _framework density 19.612507999999998
#
# number of rings (size 3 to 8) (size 9 to 14) (size 15 to 20)
#    0.000    1.833    0.000    4.500    0.000    6.000 
#    0.000    0.833    0.000    3.000    0.000    0.000 
#    0.000    0.000    0.000    0.000    0.000    0.000 
#
# Total GULP energy -297470.512530 kJ/mol
# GULP energy per Si atom -12394.604689 kJ/mol
# Density = 1.956787 g / cm^3
# Si number density = 19.612508 Si / 1000 Ang^3
#
#
#
# Elastic Constant Matrix: (Units=GPa)
#
#
# Indices 1 2 3 4 5 6 
#
# 1 157.7458 35.6500 34.8186 0.0000 0.0000 0.0000
# 2 35.6500 78.3899 21.5966 0.0000 0.0000 0.0000
# 3 34.8186 21.5966 62.1241 0.0000 0.0000 0.0000
# 4 0.0000 0.0000 0.0000 19.3845 0.0000 0.0000
# 5 0.0000 0.0000 0.0000 0.0000 4.7366 0.0000
# 6 0.0000 0.0000 0.0000 0.0000 0.0000 85.0990
#
#
#
# Elastic Compliance Matrix: (Units=1/GPa)
#
#
# Indices 1 2 3 4 5 6 
#
# 1 0.007668 -0.002547 -0.003412 0.000000 0.000000 0.000000
# 2 -0.002547 0.014954 -0.003771 0.000000 0.000000 0.000000
# 3 -0.003412 -0.003771 0.019320 0.000000 0.000000 0.000000
# 4 0.000000 0.000000 0.000000 0.051587 0.000000 0.000000
# 5 0.000000 0.000000 0.000000 0.000000 0.211121 0.000000
# 6 0.000000 0.000000 0.000000 0.000000 0.000000 0.011751
#
#
# Mechanical properties :
#
#
# Convention : Reuss Voigt Hill
#
# Bulk Modulus (GPa) = 44.48087 53.59890 49.03989
# Shear Modulus (GPa) = 14.56210 35.59033 25.07622
#
# Velocity S-wave (km/s) = 2.72782 4.26452 3.57961
# Velocity P-wave (km/s) = 5.71406 7.18585 6.49180
#
# Compressibility (1/GPa) = 0.02248157
#
# Stress axis : x y z
#
# Youngs Moduli (GPa) = 130.40959 66.87141 51.75933
#
# Poissons Ratio (x) = 0.17034 0.17662
# Poissons Ratio (y) = 0.33218 0.19518
# Poissons Ratio (z) = 0.44499 0.25217
#
# Static dielectric constant tensor:
#      x y z
#    x 4.149940 0.000000 0.000000 
#    y 0.000000 3.719720 0.000000 
#    z 0.000000 0.000000 3.305580 
# 
# 
# High freq. dielectric constant tensor:
#      x y z
#    x 1.794660 0.000000 0.000000 
#    y 0.000000 1.769210 0.000000 
#    z 0.000000 0.000000 1.734740 
# 
# From -- ./inp_files/18288.got.cif
#   From: 2010.03.12/outbox.cif.g09.slc.cpg/sg38_10_cif.got.tgz:18288.got - 2010.04.14 02:38:36.
