data_PCOD8178920
_publ_section_title
;
Structure prediction by ZEFSAII (Michael W. Deem and Ramdas Pophale) SiO2 
 PCOD8178920
Probable space group: A M M 2
;
_chemical_formula_sum "Si O2"
_cell_formula_units_Z 48
_cell_length_a 7.810661
_cell_length_b 9.254973
_cell_length_c 34.476633
_cell_angle_alpha 90.000000
_cell_angle_beta 90.000000
_cell_angle_gamma 90.000000
_cell_volume 2492.228114
_symmetry_space_group_name_H-M "A M M 2"
_symmetry_group_IT_number 38
_symmetry_cell_setting 'orthorhombic'
loop_
_space_group_symop_operation_xyz
x,y,z
-x,-y,z
-x,y,z
x,-y,z
x,1/2+y,1/2+z
-x,1/2-y,1/2+z
-x,1/2+y,1/2+z
x,1/2-y,1/2+z
loop_
_atom_site_type_symbol
_atom_site_label
_atom_site_fract_x
_atom_site_fract_y
_atom_site_fract_z
Si Si1 0.500000 0.328216 0.738471
Si Si2 0.500000 0.170162 0.819492
Si Si3 0.809503 0.834975 0.873665
Si Si4 0.192198 0.327316 0.684703
Si Si5 0.797955 0.157491 0.101206
Si Si6 0.693538 0.162674 0.444721
Si Si7 0.801246 0.829712 0.017548
O O1 0.500000 0.500000 0.743039
O O2 0.500000 0.256398 0.779947
O O3 0.329953 0.273737 0.716038
O O4 0.330219 0.218847 0.842702
O O5 0.500000 0.000000 0.810875
O O6 0.807351 0.742867 0.912861
O O7 0.000000 0.819947 0.855404
O O8 0.769019 0.000000 0.885214
O O9 0.193151 0.500000 0.681531
O O10 0.246551 0.262425 0.642030
O O11 0.000000 0.274643 0.696403
O O12 0.743139 0.231741 0.060352
O O13 0.000000 0.136612 0.099469
O O14 0.709967 0.000000 0.102101
O O15 0.500000 0.162528 0.429346
O O16 0.695544 0.243748 0.485686
O O17 0.763164 0.000000 0.449879
O O18 0.000000 0.799176 0.009892
O O19 0.761672 0.000000 0.014688
#
# Coordination Sequence:
#
# PCOD8178920 Si02
#       7
#     4   4   8   8   8   8   8
#     4  10  20  32  52  81 106 133 173 210 249 314
#     4  10  22  40  58  79 110 137 161 208 267 316
#     4  10  21  39  63  84 101 132 177 218 261 314
#     4   8  14  27  47  73 107 139 168 213 264 300
#     4   7  11  23  44  69  99 133 169 214 261 298
#     4  11  23  36  50  73 109 146 177 214 262 314
#     4   9  17  30  50  76 103 135 179 225 265 307
#
# _framework density 19.259874
#
# number of rings (size 3 to 8) (size 9 to 14) (size 15 to 20)
#    0.000    2.833    0.833    3.000    0.000    5.000 
#    1.500    0.000    0.000    1.000    0.000    2.333 
#    0.000    0.000    0.000    0.000    0.000    0.000 
#
# Total GULP energy -297357.504884 kJ/mol
# GULP energy per Si atom -12389.896037 kJ/mol
# Density = 1.921604 g / cm^3
# Si number density = 19.259874 Si / 1000 Ang^3
#
#
#
# Elastic Constant Matrix: (Units=GPa)
#
#
# Indices 1 2 3 4 5 6 
#
# 1 102.4351 25.9382 64.1745 0.0000 0.0000 0.0000
# 2 25.9382 47.4248 44.5785 0.0000 0.0000 0.0000
# 3 64.1745 44.5785 165.5528 0.0000 0.0000 0.0000
# 4 0.0000 0.0000 0.0000 21.9160 0.0000 0.0000
# 5 0.0000 0.0000 0.0000 0.0000 29.4998 0.0000
# 6 0.0000 0.0000 0.0000 0.0000 0.0000 12.7744
#
#
#
# Elastic Compliance Matrix: (Units=1/GPa)
#
#
# Indices 1 2 3 4 5 6 
#
# 1 0.013255 -0.003240 -0.004266 0.000000 0.000000 0.000000
# 2 -0.003240 0.029024 -0.006559 0.000000 0.000000 0.000000
# 3 -0.004266 -0.006559 0.009460 0.000000 0.000000 0.000000
# 4 0.000000 0.000000 0.000000 0.045629 0.000000 0.000000
# 5 0.000000 0.000000 0.000000 0.000000 0.033899 0.000000
# 6 0.000000 0.000000 0.000000 0.000000 0.000000 0.078282
#
#
# Mechanical properties :
#
#
# Convention : Reuss Voigt Hill
#
# Bulk Modulus (GPa) = 42.35676 64.97721 53.66699
# Shear Modulus (GPa) = 20.36265 24.88613 22.62439
#
# Velocity S-wave (km/s) = 3.25508 3.59851 3.43109
# Velocity P-wave (km/s) = 6.01393 7.14675 6.60467
#
# Compressibility (1/GPa) = 0.02360898
#
# Stress axis : x y z
#
# Youngs Moduli (GPa) = 75.44242 34.45463 105.70641
#
# Poissons Ratio (x) = 0.11163 0.45092
# Poissons Ratio (y) = 0.24443 0.69336
# Poissons Ratio (z) = 0.32182 0.22600
#
# Static dielectric constant tensor:
#      x y z
#    x 3.530380 0.000000 0.000000 
#    y 0.000000 3.063220 0.000000 
#    z 0.000000 0.000000 3.656460 
# 
# 
# High freq. dielectric constant tensor:
#      x y z
#    x 1.748100 0.000000 0.000000 
#    y 0.000000 1.693640 0.000000 
#    z 0.000000 0.000000 1.755820 
# 
# From -- ./inp_files/24417.got.cif
#   From: 2010.03.12/outbox.cif.g09.slc.cpg/sg38_13_cif.got.tgz:24417.got - 2010.04.14 02:38:36.
