data_PCOD8178420
_publ_section_title
;
Structure prediction by ZEFSAII (Michael W. Deem and Ramdas Pophale) SiO2 
 PCOD8178420
Probable space group: A M M 2
;
_chemical_formula_sum "Si O2"
_cell_formula_units_Z 64
_cell_length_a 18.735987
_cell_length_b 9.479337
_cell_length_c 19.922280
_cell_angle_alpha 90.000000
_cell_angle_beta 90.000000
_cell_angle_gamma 90.000000
_cell_volume 3538.291256
_symmetry_space_group_name_H-M "A M M 2"
_symmetry_group_IT_number 38
_symmetry_cell_setting 'orthorhombic'
loop_
_space_group_symop_operation_xyz
x,y,z
-x,-y,z
-x,y,z
x,-y,z
x,1/2+y,1/2+z
-x,1/2-y,1/2+z
-x,1/2+y,1/2+z
x,1/2-y,1/2+z
loop_
_atom_site_type_symbol
_atom_site_label
_atom_site_fract_x
_atom_site_fract_y
_atom_site_fract_z
Si Si1 0.695646 0.664829 0.698690
Si Si2 0.170272 0.165485 0.661828
Si Si3 0.919895 0.167074 0.536425
Si Si4 0.848116 0.666700 0.900471
Si Si5 0.080774 0.340603 0.291181
Si Si6 0.418441 0.338163 0.588987
Si Si7 0.417709 0.665597 0.959810
Si Si8 0.305273 0.832880 0.351122
O O1 0.715790 0.500000 0.699709
O O2 0.756591 0.749118 0.659621
O O3 0.623772 0.694564 0.657317
O O4 0.685634 0.722788 0.774800
O O5 0.119043 0.222179 0.603039
O O6 0.132100 0.201875 0.731002
O O7 0.186556 0.000000 0.653366
O O8 0.870245 0.215333 0.474723
O O9 0.000000 0.231805 0.531406
O O10 0.926462 0.000000 0.538348
O O11 0.852845 0.500000 0.891520
O O12 0.905979 0.734827 0.851696
O O13 0.768868 0.722907 0.882981
O O14 0.096084 0.500000 0.315223
O O15 0.000000 0.324772 0.265690
O O16 0.500000 0.302027 0.605824
O O17 0.408488 0.500000 0.566980
O O18 0.391208 0.243025 0.527218
O O19 0.500000 0.702125 0.943701
O O20 0.406385 0.500000 0.971620
O O21 0.370617 0.721422 0.897199
O O22 0.305851 0.000000 0.350511
#
# Coordination Sequence:
#
# PCOD8178420 Si02
#       8
#     8   8   8   8   8   8   8   8
#     4  10  20  35  53  75 105 137 169 210 252 299
#     4  10  20  34  53  75 100 133 170 211 254 302
#     4   9  18  32  51  75  99 128 171 215 254 300
#     4  10  19  33  53  76 101 132 170 213 254 299
#     4  10  20  34  52  74 102 134 167 207 256 306
#     4   9  19  35  54  77 105 138 172 205 249 303
#     4   9  18  33  55  81 106 134 170 211 252 296
#     4   9  18  32  51  76 106 134 167 210 253 297
#
# _framework density 18.087826
#
# number of rings (size 3 to 8) (size 9 to 14) (size 15 to 20)
#    0.000    2.500    1.250    0.750    1.750    3.250 
#    0.000    4.375    0.000    1.875    0.000    3.500 
#    0.000    0.000    0.000    0.000    0.000    0.000 
#
# Total GULP energy -396806.703480 kJ/mol
# GULP energy per Si atom -12400.209484 kJ/mol
# Density = 1.804666 g / cm^3
# Si number density = 18.087826 Si / 1000 Ang^3
#
#
#
# Elastic Constant Matrix: (Units=GPa)
#
#
# Indices 1 2 3 4 5 6 
#
# 1 107.9022 29.0067 66.4081 0.0000 0.0000 0.0000
# 2 29.0067 32.3805 34.3343 0.0000 0.0000 0.0000
# 3 66.4081 34.3343 132.7846 0.0000 0.0000 0.0000
# 4 0.0000 0.0000 0.0000 24.0886 0.0000 0.0000
# 5 0.0000 0.0000 0.0000 0.0000 38.3820 0.0000
# 6 0.0000 0.0000 0.0000 0.0000 0.0000 24.6024
#
#
#
# Elastic Compliance Matrix: (Units=1/GPa)
#
#
# Indices 1 2 3 4 5 6 
#
# 1 0.014550 -0.007327 -0.005382 0.000000 0.000000 0.000000
# 2 -0.007327 0.046238 -0.008292 0.000000 0.000000 0.000000
# 3 -0.005382 -0.008292 0.012367 0.000000 0.000000 0.000000
# 4 0.000000 0.000000 0.000000 0.041513 0.000000 0.000000
# 5 0.000000 0.000000 0.000000 0.000000 0.026054 0.000000
# 6 0.000000 0.000000 0.000000 0.000000 0.000000 0.040646
#
#
# Mechanical properties :
#
#
# Convention : Reuss Voigt Hill
#
# Bulk Modulus (GPa) = 32.09921 59.17396 45.63658
# Shear Modulus (GPa) = 21.39005 26.96915 24.17960
#
# Velocity S-wave (km/s) = 3.44258 3.86555 3.66018
# Velocity P-wave (km/s) = 5.79540 7.26010 6.56870
#
# Compressibility (1/GPa) = 0.03115341
#
# Stress axis : x y z
#
# Youngs Moduli (GPa) = 68.73009 21.62718 80.86301
#
# Poissons Ratio (x) = 0.15846 0.43521
# Poissons Ratio (y) = 0.50358 0.67048
# Poissons Ratio (z) = 0.36991 0.17932
#
# Static dielectric constant tensor:
#      x y z
#    x 3.457060 0.000000 0.000000 
#    y 0.000000 3.045880 0.000000 
#    z 0.000000 0.000000 3.497600 
# 
# 
# High freq. dielectric constant tensor:
#      x y z
#    x 1.708860 0.000000 0.000000 
#    y 0.000000 1.666630 0.000000 
#    z 0.000000 0.000000 1.708300 
# 
# From -- ./inp_files/18758.got.cif
#   From: 2010.03.12/outbox.cif.g09.slc.cpg/sg38_10_cif.got.tgz:18758.got - 2010.04.14 02:38:36.
