data_PCOD8178756
_publ_section_title
;
Structure prediction by ZEFSAII (Michael W. Deem and Ramdas Pophale) SiO2 
 PCOD8178756
Probable space group: A M M 2
;
_chemical_formula_sum "Si O2"
_cell_formula_units_Z 48
_cell_length_a 8.915057
_cell_length_b 18.095110
_cell_length_c 14.931381
_cell_angle_alpha 90.000000
_cell_angle_beta 90.000000
_cell_angle_gamma 90.000000
_cell_volume 2408.714512
_symmetry_space_group_name_H-M "A M M 2"
_symmetry_group_IT_number 38
_symmetry_cell_setting 'orthorhombic'
loop_
_space_group_symop_operation_xyz
x,y,z
-x,-y,z
-x,y,z
x,-y,z
x,1/2+y,1/2+z
-x,1/2-y,1/2+z
-x,1/2+y,1/2+z
x,1/2-y,1/2+z
loop_
_atom_site_type_symbol
_atom_site_label
_atom_site_fract_x
_atom_site_fract_y
_atom_site_fract_z
Si Si1 0.832146 0.000000 0.582600
Si Si2 0.172886 0.500000 0.292675
Si Si3 0.666362 0.394376 0.963098
Si Si4 0.823091 0.727453 0.701412
Si Si5 0.674966 0.081642 0.266086
Si Si6 0.668127 0.231958 0.015945
Si Si7 0.678039 0.154203 0.837488
O O1 0.814870 0.000000 0.687224
O O2 0.761213 0.074822 0.545155
O O3 0.000000 0.000000 0.549567
O O4 0.255469 0.427078 0.326666
O O5 0.000000 0.500000 0.324708
O O6 0.500000 0.425206 0.977478
O O7 0.728789 0.423110 0.868739
O O8 0.669644 0.306870 0.959981
O O9 0.773214 0.643227 0.717697
O O10 0.781474 0.740910 0.598049
O O11 0.746586 0.787029 0.767090
O O12 0.000000 0.735577 0.714043
O O13 0.500000 0.104327 0.260398
O O14 0.701319 0.000000 0.222753
O O15 0.500000 0.214357 0.052230
O O16 0.718159 0.172915 0.940919
O O17 0.500000 0.153870 0.821510
#
# Coordination Sequence:
#
# PCOD8178756 Si02
#       7
#     4   4   8   8   8   8   8
#     4  11  23  35  53  88 129 162 195 243 308 382
#     4  11  25  43  61  92 131 166 205 259 326 378
#     4  10  19  36  61  88 117 153 201 253 302 356
#     4  12  25  40  63  95 131 166 204 258 322 380
#     4  10  20  39  64  89 121 161 206 255 304 365
#     4  10  22  41  66  91 118 160 216 262 303 369
#     4  11  23  44  70  93 122 167 219 265 310 371
#
# _framework density 19.927641999999999
#
# number of rings (size 3 to 8) (size 9 to 14) (size 15 to 20)
#    0.000    1.333    2.500    3.500    0.000    7.000 
#    1.500    0.000    0.000    0.000    0.000    0.000 
#    0.000    0.000    0.000    0.000    0.000    0.000 
#
# Total GULP energy -297543.337141 kJ/mol
# GULP energy per Si atom -12397.639048 kJ/mol
# Density = 1.988229 g / cm^3
# Si number density = 19.927642 Si / 1000 Ang^3
#
#
#
# Elastic Constant Matrix: (Units=GPa)
#
#
# Indices 1 2 3 4 5 6 
#
# 1 85.7297 42.1422 54.2292 0.0000 0.0000 0.0000
# 2 42.1422 128.3502 39.7796 0.0000 0.0000 0.0000
# 3 54.2292 39.7796 78.7242 0.0000 0.0000 0.0000
# 4 0.0000 0.0000 0.0000 39.7309 0.0000 0.0000
# 5 0.0000 0.0000 0.0000 0.0000 18.5733 0.0000
# 6 0.0000 0.0000 0.0000 0.0000 0.0000 40.5585
#
#
#
# Elastic Compliance Matrix: (Units=1/GPa)
#
#
# Indices 1 2 3 4 5 6 
#
# 1 0.021567 -0.002937 -0.013373 0.000000 0.000000 0.000000
# 2 -0.002937 0.009638 -0.002847 0.000000 0.000000 0.000000
# 3 -0.013373 -0.002847 0.023353 0.000000 0.000000 0.000000
# 4 0.000000 0.000000 0.000000 0.025169 0.000000 0.000000
# 5 0.000000 0.000000 0.000000 0.000000 0.053841 0.000000
# 6 0.000000 0.000000 0.000000 0.000000 0.000000 0.024656
#
#
# Mechanical properties :
#
#
# Convention : Reuss Voigt Hill
#
# Bulk Modulus (GPa) = 61.55698 62.78958 62.17328
# Shear Modulus (GPa) = 24.75839 30.21606 27.48722
#
# Velocity S-wave (km/s) = 3.52861 3.89818 3.71799
# Velocity P-wave (km/s) = 6.89629 7.19988 7.04972
#
# Compressibility (1/GPa) = 0.01624511
#
# Stress axis : x y z
#
# Youngs Moduli (GPa) = 46.36672 103.75797 42.82117
#
# Poissons Ratio (x) = 0.30471 0.57263
# Poissons Ratio (y) = 0.13617 0.12191
# Poissons Ratio (z) = 0.62005 0.29540
#
# Static dielectric constant tensor:
#      x y z
#    x 3.654280 0.000000 0.000000 
#    y 0.000000 3.508880 0.000000 
#    z 0.000000 0.000000 3.537940 
# 
# 
# High freq. dielectric constant tensor:
#      x y z
#    x 1.771600 0.000000 0.000000 
#    y 0.000000 1.792910 0.000000 
#    z 0.000000 0.000000 1.772940 
# 
# From -- ./inp_files/12080.got.cif
#   From: 2010.03.12/outbox.cif.g09.slc.cpg/sg38_7_cif.got.tgz:12080.got - 2010.04.14 02:38:36.
