data_PCOD8178444
_publ_section_title
;
Structure prediction by ZEFSAII (Michael W. Deem and Ramdas Pophale) SiO2 
 PCOD8178444
Probable space group: A M M 2
;
_chemical_formula_sum "Si O2"
_cell_formula_units_Z 64
_cell_length_a 18.482720
_cell_length_b 9.009125
_cell_length_c 20.116631
_cell_angle_alpha 90.000000
_cell_angle_beta 90.000000
_cell_angle_gamma 90.000000
_cell_volume 3349.683290
_symmetry_space_group_name_H-M "A M M 2"
_symmetry_group_IT_number 38
_symmetry_cell_setting 'orthorhombic'
loop_
_space_group_symop_operation_xyz
x,y,z
-x,-y,z
-x,y,z
x,-y,z
x,1/2+y,1/2+z
-x,1/2-y,1/2+z
-x,1/2+y,1/2+z
x,1/2-y,1/2+z
loop_
_atom_site_type_symbol
_atom_site_label
_atom_site_fract_x
_atom_site_fract_y
_atom_site_fract_z
Si Si1 0.691752 0.824399 0.633000
Si Si2 0.082560 0.677144 0.945592
Si Si3 0.323028 0.675412 0.775734
Si Si4 0.166191 0.824900 0.318710
Si Si5 0.414374 0.831348 0.883386
Si Si6 0.416519 0.172850 0.517080
Si Si7 0.917722 0.831947 0.194012
Si Si8 0.153596 0.824821 0.579648
O O1 0.677058 0.743701 0.702314
O O2 0.628694 0.778834 0.581705
O O3 0.767091 0.767281 0.601040
O O4 0.692811 0.000000 0.645849
O O5 0.080905 0.500000 0.944202
O O6 0.125535 0.743550 0.882358
O O7 0.000000 0.737959 0.947316
O O8 0.129325 0.735587 0.007864
O O9 0.332880 0.500000 0.768509
O O10 0.250447 0.716973 0.816475
O O11 0.387546 0.742404 0.819022
O O12 0.129747 0.759667 0.252489
O O13 0.154283 0.000000 0.319509
O O14 0.500000 0.823060 0.880947
O O15 0.386198 0.000000 0.880258
O O16 0.386965 0.758997 0.952344
O O17 0.500000 0.211423 0.531930
O O18 0.405387 0.000000 0.501692
O O19 0.907284 0.733068 0.129399
O O20 0.000000 0.827373 0.217559
O O21 0.892840 0.000000 0.178299
O O22 0.152801 0.000000 0.579816
#
# Coordination Sequence:
#
# PCOD8178444 Si02
#       8
#     8   8   8   8   8   8   8   8
#     4  10  21  36  55  81 117 154 189 233 285 336
#     4   9  17  30  50  76 104 137 182 231 277 327
#     4  11  22  36  58  84 114 150 192 237 279 331
#     4   9  18  32  51  77 107 139 180 230 276 321
#     4  10  22  40  61  86 117 150 184 225 276 334
#     4   9  19  37  61  87 113 145 187 230 275 331
#     4  10  19  33  54  77 105 142 182 225 275 328
#     4  10  20  33  52  78 108 141 181 228 277 334
#
# _framework density 19.106283999999999
#
# number of rings (size 3 to 8) (size 9 to 14) (size 15 to 20)
#    0.000    2.250    1.250    1.500    1.750    4.000 
#    0.000    1.250    0.000    0.750    0.000    0.000 
#    0.000    0.000    0.000    0.000    0.000    0.000 
#
# Total GULP energy -396799.674183 kJ/mol
# GULP energy per Si atom -12399.989818 kJ/mol
# Density = 1.906280 g / cm^3
# Si number density = 19.106284 Si / 1000 Ang^3
#
#
#
# Elastic Constant Matrix: (Units=GPa)
#
#
# Indices 1 2 3 4 5 6 
#
# 1 73.4075 31.6091 56.3793 0.0000 0.0000 0.0000
# 2 31.6091 41.8501 44.8919 0.0000 0.0000 0.0000
# 3 56.3793 44.8919 163.3331 0.0000 0.0000 0.0000
# 4 0.0000 0.0000 0.0000 31.6614 0.0000 0.0000
# 5 0.0000 0.0000 0.0000 0.0000 42.0316 0.0000
# 6 0.0000 0.0000 0.0000 0.0000 0.0000 19.9216
#
#
#
# Elastic Compliance Matrix: (Units=1/GPa)
#
#
# Indices 1 2 3 4 5 6 
#
# 1 0.022149 -0.012093 -0.004322 0.000000 0.000000 0.000000
# 2 -0.012093 0.040488 -0.006954 0.000000 0.000000 0.000000
# 3 -0.004322 -0.006954 0.009525 0.000000 0.000000 0.000000
# 4 0.000000 0.000000 0.000000 0.031584 0.000000 0.000000
# 5 0.000000 0.000000 0.000000 0.000000 0.023792 0.000000
# 6 0.000000 0.000000 0.000000 0.000000 0.000000 0.050197
#
#
# Mechanical properties :
#
#
# Convention : Reuss Voigt Hill
#
# Bulk Modulus (GPa) = 39.33112 60.48351 49.90731
# Shear Modulus (GPa) = 21.46407 28.43694 24.95050
#
# Velocity S-wave (km/s) = 3.35536 3.86211 3.61762
# Velocity P-wave (km/s) = 5.97004 7.18421 6.60508
#
# Compressibility (1/GPa) = 0.02542516
#
# Stress axis : x y z
#
# Youngs Moduli (GPa) = 45.14862 24.69869 104.98263
#
# Poissons Ratio (x) = 0.29869 0.45369
# Poissons Ratio (y) = 0.54600 0.73002
# Poissons Ratio (z) = 0.19511 0.17175
#
# Static dielectric constant tensor:
#      x y z
#    x 3.592540 0.000000 0.000000 
#    y 0.000000 3.237390 0.000000 
#    z 0.000000 0.000000 3.648430 
# 
# 
# High freq. dielectric constant tensor:
#      x y z
#    x 1.749330 0.000000 0.000000 
#    y 0.000000 1.710840 0.000000 
#    z 0.000000 0.000000 1.755450 
# 
# From -- ./inp_files/18924.got.cif
#   From: 2010.03.12/outbox.cif.g09.slc.cpg/sg38_10_cif.got.tgz:18924.got - 2010.04.14 02:38:36.
