data_PCOD8178146
_publ_section_title
;
Structure prediction by ZEFSAII (Michael W. Deem and Ramdas Pophale) SiO2 
 PCOD8178146
Probable space group: A M M 2
;
_chemical_formula_sum "Si O2"
_cell_formula_units_Z 64
_cell_length_a 14.555886
_cell_length_b 9.542593
_cell_length_c 25.173283
_cell_angle_alpha 90.000000
_cell_angle_beta 90.000000
_cell_angle_gamma 90.000000
_cell_volume 3496.591560
_symmetry_space_group_name_H-M "A M M 2"
_symmetry_group_IT_number 38
_symmetry_cell_setting 'orthorhombic'
loop_
_space_group_symop_operation_xyz
x,y,z
-x,-y,z
-x,y,z
x,-y,z
x,1/2+y,1/2+z
-x,1/2-y,1/2+z
-x,1/2+y,1/2+z
x,1/2-y,1/2+z
loop_
_atom_site_type_symbol
_atom_site_label
_atom_site_fract_x
_atom_site_fract_y
_atom_site_fract_z
Si Si1 0.729711 0.666584 0.507970
Si Si2 0.652872 0.844239 0.692216
Si Si3 0.896099 0.835534 0.543948
Si Si4 0.600606 0.156971 0.102140
Si Si5 0.395887 0.333333 0.410074
Si Si6 0.900823 0.833314 0.772953
Si Si7 0.292348 0.166853 0.807025
Si Si8 0.859213 0.344384 0.159526
O O1 0.747087 0.500000 0.506163
O O2 0.826801 0.748028 0.506390
O O3 0.674850 0.714870 0.560509
O O4 0.667620 0.716226 0.458564
O O5 0.591062 0.744823 0.656203
O O6 0.659331 0.784770 0.752269
O O7 0.750426 0.847490 0.663725
O O8 0.609809 0.000000 0.693272
O O9 0.888575 0.772044 0.604064
O O10 0.000000 0.812692 0.523056
O O11 0.868899 0.000000 0.542277
O O12 0.500000 0.159090 0.074544
O O13 0.628644 0.000000 0.118333
O O14 0.500000 0.274160 0.415435
O O15 0.399631 0.500000 0.407737
O O16 0.349067 0.271551 0.356494
O O17 0.814276 0.777453 0.807555
O O18 0.898686 0.769815 0.712772
O O19 0.000000 0.793440 0.799006
O O20 0.889235 0.000000 0.767594
O O21 0.291236 0.000000 0.809476
O O22 0.900846 0.500000 0.156640
#
# Coordination Sequence:
#
# PCOD8178146 Si02
#       8
#     8   8   8   8   8   8   8   8
#     4  10  20  34  51  70  96 130 169 210 245 282
#     4   9  16  28  47  72 101 127 154 197 248 295
#     4  10  19  31  50  74 100 132 166 198 241 296
#     4  10  20  32  46  67  96 131 167 200 243 300
#     4   9  17  31  50  68  89 125 171 211 247 291
#     4   8  12  19  34  59  93 127 153 182 229 287
#     4   8  15  26  43  70  98 122 156 202 248 292
#     4   8  13  23  40  64  94 126 157 187 223 277
#
# _framework density 18.303539000000001
#
# number of rings (size 3 to 8) (size 9 to 14) (size 15 to 20)
#    0.000    3.000    1.250    2.250    0.000    4.000 
#    0.000    1.875    0.000    4.125    0.000    0.000 
#    0.000    0.000    0.000    0.000    0.000    0.000 
#
# Total GULP energy -396445.325190 kJ/mol
# GULP energy per Si atom -12388.916412 kJ/mol
# Density = 1.826188 g / cm^3
# Si number density = 18.303539 Si / 1000 Ang^3
#
#
#
# Elastic Constant Matrix: (Units=GPa)
#
#
# Indices 1 2 3 4 5 6 
#
# 1 131.7310 27.3404 63.0178 0.0000 0.0000 0.0000
# 2 27.3404 29.2166 27.8731 0.0000 0.0000 0.0000
# 3 63.0178 27.8731 112.8412 0.0000 0.0000 0.0000
# 4 0.0000 0.0000 0.0000 15.7237 0.0000 0.0000
# 5 0.0000 0.0000 0.0000 0.0000 24.1785 0.0000
# 6 0.0000 0.0000 0.0000 0.0000 0.0000 18.5447
#
#
#
# Elastic Compliance Matrix: (Units=1/GPa)
#
#
# Indices 1 2 3 4 5 6 
#
# 1 0.011071 -0.005837 -0.004741 0.000000 0.000000 0.000000
# 2 -0.005837 0.047857 -0.008562 0.000000 0.000000 0.000000
# 3 -0.004741 -0.008562 0.013624 0.000000 0.000000 0.000000
# 4 0.000000 0.000000 0.000000 0.063598 0.000000 0.000000
# 5 0.000000 0.000000 0.000000 0.000000 0.041359 0.000000
# 6 0.000000 0.000000 0.000000 0.000000 0.000000 0.053924
#
#
# Mechanical properties :
#
#
# Convention : Reuss Voigt Hill
#
# Bulk Modulus (GPa) = 29.17696 56.69460 42.93578
# Shear Modulus (GPa) = 17.78498 22.05987 19.92243
#
# Velocity S-wave (km/s) = 3.12054 3.47540 3.30274
# Velocity P-wave (km/s) = 5.38135 6.86633 6.16869
#
# Compressibility (1/GPa) = 0.03427361
#
# Stress axis : x y z
#
# Youngs Moduli (GPa) = 90.32986 20.89553 73.39803
#
# Poissons Ratio (x) = 0.12197 0.34796
# Poissons Ratio (y) = 0.52725 0.62840
# Poissons Ratio (z) = 0.42823 0.17890
#
# Static dielectric constant tensor:
#      x y z
#    x 3.527870 0.000000 0.000000 
#    y 0.000000 2.792160 0.000000 
#    z 0.000000 0.000000 3.387840 
# 
# 
# High freq. dielectric constant tensor:
#      x y z
#    x 1.723930 0.000000 0.000000 
#    y 0.000000 1.636340 0.000000 
#    z 0.000000 0.000000 1.695590 
# 
# From -- ./inp_files/22999.got.cif
#   From: 2010.03.12/outbox.cif.g09.slc.cpg/sg38_12_cif.got.tgz:22999.got - 2010.04.14 02:38:36.
