data_PCOD8178552
_publ_section_title
;
Structure prediction by ZEFSAII (Michael W. Deem and Ramdas Pophale) SiO2 
 PCOD8178552
Probable space group: A M M 2
;
_chemical_formula_sum "Si O2"
_cell_formula_units_Z 56
_cell_length_a 17.872371
_cell_length_b 13.733314
_cell_length_c 12.843893
_cell_angle_alpha 90.000000
_cell_angle_beta 90.000000
_cell_angle_gamma 90.000000
_cell_volume 3152.493501
_symmetry_space_group_name_H-M "A M M 2"
_symmetry_group_IT_number 38
_symmetry_cell_setting 'orthorhombic'
loop_
_space_group_symop_operation_xyz
x,y,z
-x,-y,z
-x,y,z
x,-y,z
x,1/2+y,1/2+z
-x,1/2-y,1/2+z
-x,1/2+y,1/2+z
x,1/2-y,1/2+z
loop_
_atom_site_type_symbol
_atom_site_label
_atom_site_fract_x
_atom_site_fract_y
_atom_site_fract_z
Si Si1 0.695896 0.883847 0.976830
Si Si2 0.586316 0.735864 0.074307
Si Si3 0.084643 0.886136 0.262364
Si Si4 0.685206 0.275622 0.262047
Si Si5 0.184572 0.223866 0.112387
Si Si6 0.827293 0.890449 0.467295
Si Si7 0.657034 0.890457 0.408423
O O1 0.693206 0.853243 0.855385
O O2 0.691644 0.000000 0.986336
O O3 0.626430 0.835765 0.038150
O O4 0.771555 0.843700 0.029565
O O5 0.500000 0.759077 0.092324
O O6 0.621498 0.692050 0.180357
O O7 0.595837 0.653370 0.986519
O O8 0.116119 0.836302 0.159013
O O9 0.136040 0.856542 0.359563
O O10 0.000000 0.851225 0.283061
O O11 0.088558 0.000000 0.242285
O O12 0.763801 0.264924 0.204309
O O13 0.659034 0.169902 0.302235
O O14 0.146603 0.316362 0.056037
O O15 0.737785 0.883483 0.462433
O O16 0.853109 0.000000 0.495747
O O17 0.634779 0.000000 0.379544
#
# Coordination Sequence:
#
# PCOD8178552 Si02
#       7
#     8   8   8   8   8   8   8
#     4  10  21  35  54  78 105 141 179 223 268 320
#     4  10  22  38  53  75 109 141 176 226 276 328
#     4  10  21  35  55  84 115 145 177 218 268 319
#     4  10  19  34  53  81 103 137 176 222 266 324
#     4  11  18  35  56  83 108 141 180 221 266 317
#     4  10  19  34  57  83 111 139 180 227 265 313
#     4  10  19  35  57  80 103 136 180 227 269 315
#
# _framework density 17.763715999999999
#
# number of rings (size 3 to 8) (size 9 to 14) (size 15 to 20)
#    0.000    1.857    5.714    0.429    0.000    6.857 
#    0.000    0.000    0.000    0.000    0.000    0.000 
#    0.000    0.000    0.000    0.000    0.000    0.000 
#
# Total GULP energy -347199.874642 kJ/mol
# GULP energy per Si atom -12399.995523 kJ/mol
# Density = 1.772328 g / cm^3
# Si number density = 17.763716 Si / 1000 Ang^3
#
#
#
# Elastic Constant Matrix: (Units=GPa)
#
#
# Indices 1 2 3 4 5 6 
#
# 1 71.7805 31.4846 31.6167 0.0000 0.0000 0.0000
# 2 31.4846 85.4308 40.2696 0.0000 0.0000 0.0000
# 3 31.6167 40.2696 100.6596 0.0000 0.0000 0.0000
# 4 0.0000 0.0000 0.0000 24.6138 0.0000 0.0000
# 5 0.0000 0.0000 0.0000 0.0000 18.2294 0.0000
# 6 0.0000 0.0000 0.0000 0.0000 0.0000 17.5024
#
#
#
# Elastic Compliance Matrix: (Units=1/GPa)
#
#
# Indices 1 2 3 4 5 6 
#
# 1 0.017627 -0.004790 -0.003620 0.000000 0.000000 0.000000
# 2 -0.004790 0.015727 -0.004787 0.000000 0.000000 0.000000
# 3 -0.003620 -0.004787 0.012987 0.000000 0.000000 0.000000
# 4 0.000000 0.000000 0.000000 0.040628 0.000000 0.000000
# 5 0.000000 0.000000 0.000000 0.000000 0.054857 0.000000
# 6 0.000000 0.000000 0.000000 0.000000 0.000000 0.057135
#
#
# Mechanical properties :
#
#
# Convention : Reuss Voigt Hill
#
# Bulk Modulus (GPa) = 50.13516 51.62365 50.87940
# Shear Modulus (GPa) = 21.55140 22.36911 21.96026
#
# Velocity S-wave (km/s) = 3.48692 3.55245 3.51984
# Velocity P-wave (km/s) = 6.67054 6.77871 6.72484
#
# Compressibility (1/GPa) = 0.01994608
#
# Stress axis : x y z
#
# Youngs Moduli (GPa) = 56.73158 63.58423 77.00108
#
# Poissons Ratio (x) = 0.30455 0.27877
# Poissons Ratio (y) = 0.27172 0.36863
# Poissons Ratio (z) = 0.20539 0.30440
#
# Static dielectric constant tensor:
#      x y z
#    x 3.124260 0.000000 0.000000 
#    y 0.000000 3.314790 0.000000 
#    z 0.000000 0.000000 3.355870 
# 
# 
# High freq. dielectric constant tensor:
#      x y z
#    x 1.668550 0.000000 0.000000 
#    y 0.000000 1.682590 0.000000 
#    z 0.000000 0.000000 1.694440 
# 
# From -- ./inp_files/15290.got.cif
#   From: 2010.03.12/outbox.cif.g09.slc.cpg/sg38_8_cif.got.tgz:15290.got - 2010.04.14 02:38:36.
