data_PCOD8178693
_publ_section_title
;
Structure prediction by ZEFSAII (Michael W. Deem and Ramdas Pophale) SiO2 
 PCOD8178693
Probable space group: A M M 2
;
_chemical_formula_sum "Si O2"
_cell_formula_units_Z 64
_cell_length_a 24.179276
_cell_length_b 8.962102
_cell_length_c 15.218219
_cell_angle_alpha 90.000000
_cell_angle_beta 90.000000
_cell_angle_gamma 90.000000
_cell_volume 3297.744500
_symmetry_space_group_name_H-M "A M M 2"
_symmetry_group_IT_number 38
_symmetry_cell_setting 'orthorhombic'
loop_
_space_group_symop_operation_xyz
x,y,z
-x,-y,z
-x,y,z
x,-y,z
x,1/2+y,1/2+z
-x,1/2-y,1/2+z
-x,1/2+y,1/2+z
x,1/2-y,1/2+z
loop_
_atom_site_type_symbol
_atom_site_label
_atom_site_fract_x
_atom_site_fract_y
_atom_site_fract_z
Si Si1 0.862671 0.173465 0.913570
Si Si2 0.751067 0.329400 0.872677
Si Si3 0.750578 0.669036 0.665365
Si Si4 0.564091 0.325720 0.008489
Si Si5 0.360264 0.174751 0.667499
Si Si6 0.637798 0.323061 0.367101
Si Si7 0.062450 0.322386 0.768843
Si Si8 0.133478 0.826950 0.109554
O O1 0.801279 0.239797 0.915665
O O2 0.902942 0.260342 0.849551
O O3 0.859894 0.000000 0.887541
O O4 0.888032 0.196844 0.010882
O O5 0.751196 0.500000 0.905923
O O6 0.758328 0.320722 0.769050
O O7 0.694109 0.251859 0.902179
O O8 0.741998 0.500000 0.633516
O O9 0.697254 0.758371 0.632962
O O10 0.805430 0.743949 0.623047
O O11 0.500000 0.287096 0.017274
O O12 0.574472 0.500000 0.990478
O O13 0.591870 0.275020 0.100404
O O14 0.587627 0.232865 0.926870
O O15 0.374502 0.228863 0.766563
O O16 0.352603 0.000000 0.667734
O O17 0.643525 0.500000 0.374019
O O18 0.063531 0.500000 0.773438
O O19 0.088903 0.260658 0.677977
O O20 0.000000 0.261526 0.774149
O O21 0.140856 0.000000 0.132848
#
# Coordination Sequence:
#
# PCOD8178693 Si02
#       8
#     8   8   8   8   8   8   8   8
#     4  11  22  35  57  89 120 147 185 239 293 337
#     4  10  19  35  59  84 116 154 192 230 280 345
#     4   9  17  33  57  81 111 147 186 229 276 336
#     4  10  22  40  59  81 113 153 194 233 280 344
#     4   9  20  37  56  82 113 147 187 232 285 337
#     4  10  21  37  58  86 117 148 189 239 290 337
#     4  10  21  41  64  81 108 154 200 235 275 340
#     4   9  19  36  56  83 113 149 190 229 281 340
#
# _framework density 19.407202999999999
#
# number of rings (size 3 to 8) (size 9 to 14) (size 15 to 20)
#    0.000    2.250    1.250    1.125    1.750    3.000 
#    0.000    4.375    0.000    0.000    0.000    0.000 
#    0.000    0.000    0.000    0.000    0.000    0.000 
#
# Total GULP energy -396816.783449 kJ/mol
# GULP energy per Si atom -12400.524483 kJ/mol
# Density = 1.936303 g / cm^3
# Si number density = 19.407203 Si / 1000 Ang^3
#
#
#
# Elastic Constant Matrix: (Units=GPa)
#
#
# Indices 1 2 3 4 5 6 
#
# 1 136.9532 25.3638 61.5842 0.0000 0.0000 0.0000
# 2 25.3638 32.7296 23.7753 0.0000 0.0000 0.0000
# 3 61.5842 23.7753 95.7642 0.0000 0.0000 0.0000
# 4 0.0000 0.0000 0.0000 25.7576 0.0000 0.0000
# 5 0.0000 0.0000 0.0000 0.0000 21.1045 0.0000
# 6 0.0000 0.0000 0.0000 0.0000 0.0000 28.0501
#
#
#
# Elastic Compliance Matrix: (Units=1/GPa)
#
#
# Indices 1 2 3 4 5 6 
#
# 1 0.010688 -0.004014 -0.005877 0.000000 0.000000 0.000000
# 2 -0.004014 0.038783 -0.007048 0.000000 0.000000 0.000000
# 3 -0.005877 -0.007048 0.015971 0.000000 0.000000 0.000000
# 4 0.000000 0.000000 0.000000 0.038824 0.000000 0.000000
# 5 0.000000 0.000000 0.000000 0.000000 0.047383 0.000000
# 6 0.000000 0.000000 0.000000 0.000000 0.000000 0.035651
#
#
# Mechanical properties :
#
#
# Convention : Reuss Voigt Hill
#
# Bulk Modulus (GPa) = 31.67919 54.09929 42.88924
# Shear Modulus (GPa) = 21.57992 25.29734 23.43863
#
# Velocity S-wave (km/s) = 3.33821 3.61432 3.47901
# Velocity P-wave (km/s) = 5.58723 6.73455 6.18754
#
# Compressibility (1/GPa) = 0.03156646
#
# Stress axis : x y z
#
# Youngs Moduli (GPa) = 93.56628 25.78438 62.61296
#
# Poissons Ratio (x) = 0.10349 0.36795
# Poissons Ratio (y) = 0.37553 0.44127
# Poissons Ratio (z) = 0.54985 0.18172
#
# Static dielectric constant tensor:
#      x y z
#    x 3.635940 0.000000 0.000000 
#    y 0.000000 3.413010 0.000000 
#    z 0.000000 0.000000 3.620510 
# 
# 
# High freq. dielectric constant tensor:
#      x y z
#    x 1.755320 0.000000 0.000000 
#    y 0.000000 1.739250 0.000000 
#    z 0.000000 0.000000 1.761830 
# 
# From -- ./inp_files/15742.got.cif
#   From: 2010.03.12/outbox.cif.g09.slc.cpg/sg38_8_cif.got.tgz:15742.got - 2010.04.14 02:38:36.
