data_PCOD8178140
_publ_section_title
;
Structure prediction by ZEFSAII (Michael W. Deem and Ramdas Pophale) SiO2 
 PCOD8178140
Probable space group: A M M 2
;
_chemical_formula_sum "Si O2"
_cell_formula_units_Z 64
_cell_length_a 20.695667
_cell_length_b 9.197385
_cell_length_c 18.604301
_cell_angle_alpha 90.000000
_cell_angle_beta 90.000000
_cell_angle_gamma 90.000000
_cell_volume 3541.254599
_symmetry_space_group_name_H-M "A M M 2"
_symmetry_group_IT_number 38
_symmetry_cell_setting 'orthorhombic'
loop_
_space_group_symop_operation_xyz
x,y,z
-x,-y,z
-x,y,z
x,-y,z
x,1/2+y,1/2+z
-x,1/2-y,1/2+z
-x,1/2+y,1/2+z
x,1/2-y,1/2+z
loop_
_atom_site_type_symbol
_atom_site_label
_atom_site_fract_x
_atom_site_fract_y
_atom_site_fract_z
Si Si1 0.812995 0.327407 0.192760
Si Si2 0.571463 0.663941 0.952142
Si Si3 0.570233 0.163113 0.281382
Si Si4 0.307263 0.168989 0.781697
Si Si5 0.929217 0.672586 0.285816
Si Si6 0.924893 0.831784 0.948906
Si Si7 0.186148 0.672901 0.028138
Si Si8 0.303176 0.329521 0.449560
O O1 0.814421 0.500000 0.199853
O O2 0.751682 0.264677 0.236050
O O3 0.877316 0.261951 0.230179
O O4 0.809489 0.277830 0.110782
O O5 0.500000 0.714590 0.979724
O O6 0.585568 0.500000 0.979330
O O7 0.571338 0.667098 0.866824
O O8 0.628175 0.770289 0.980209
O O9 0.500000 0.220151 0.254491
O O10 0.627062 0.262307 0.250342
O O11 0.581465 0.000000 0.253590
O O12 0.296210 0.204271 0.865203
O O13 0.314026 0.000000 0.768065
O O14 0.931905 0.500000 0.280732
O O15 0.910298 0.715248 0.367037
O O16 0.000000 0.736442 0.266312
O O17 0.000000 0.806959 0.967776
O O18 0.905656 0.000000 0.960985
O O19 0.882302 0.729180 0.999240
O O20 0.190110 0.500000 0.019050
O O21 0.245088 0.746598 0.987238
O O22 0.298872 0.500000 0.466061
#
# Coordination Sequence:
#
# PCOD8178140 Si02
#       8
#     8   8   8   8   8   8   8   8
#     4   9  18  31  46  68  97 126 160 200 236 273
#     4   8  14  26  45  70 100 129 156 193 243 294
#     4   8  14  25  42  67  98 125 149 186 240 296
#     4   9  17  30  49  70  92 122 162 205 240 275
#     4   8  14  28  52  76  95 120 156 195 233 276
#     4   9  18  34  56  78  99 125 157 195 240 289
#     4  11  22  33  48  71 100 132 163 199 241 285
#     4  10  19  31  50  73  97 127 163 204 245 286
#
# _framework density 18.072692
#
# number of rings (size 3 to 8) (size 9 to 14) (size 15 to 20)
#    0.000    3.000    0.000    3.000    0.000    3.750 
#    0.000    5.000    0.000    2.250    0.000    1.750 
#    0.000    0.000    0.000    0.000    0.000    0.000 
#
# Total GULP energy -396634.758091 kJ/mol
# GULP energy per Si atom -12394.836190 kJ/mol
# Density = 1.803156 g / cm^3
# Si number density = 18.072692 Si / 1000 Ang^3
#
#
#
# Elastic Constant Matrix: (Units=GPa)
#
#
# Indices 1 2 3 4 5 6 
#
# 1 171.1335 60.8057 69.7371 0.0000 0.0000 0.0000
# 2 60.8057 62.7198 41.2302 0.0000 0.0000 0.0000
# 3 69.7371 41.2302 73.2146 0.0000 0.0000 0.0000
# 4 0.0000 0.0000 0.0000 16.5305 0.0000 0.0000
# 5 0.0000 0.0000 0.0000 0.0000 3.8489 0.0000
# 6 0.0000 0.0000 0.0000 0.0000 0.0000 33.3508
#
#
#
# Elastic Compliance Matrix: (Units=1/GPa)
#
#
# Indices 1 2 3 4 5 6 
#
# 1 0.010756 -0.005864 -0.006943 0.000000 0.000000 0.000000
# 2 -0.005864 0.028512 -0.010471 0.000000 0.000000 0.000000
# 3 -0.006943 -0.010471 0.026169 0.000000 0.000000 0.000000
# 4 0.000000 0.000000 0.000000 0.060494 0.000000 0.000000
# 5 0.000000 0.000000 0.000000 0.000000 0.259814 0.000000
# 6 0.000000 0.000000 0.000000 0.000000 0.000000 0.029984
#
#
# Mechanical properties :
#
#
# Convention : Reuss Voigt Hill
#
# Bulk Modulus (GPa) = 52.96383 72.29042 62.62713
# Shear Modulus (GPa) = 10.67055 19.76570 15.21813
#
# Velocity S-wave (km/s) = 2.43250 3.31067 2.90496
# Velocity P-wave (km/s) = 6.10402 7.39599 6.78084
#
# Compressibility (1/GPa) = 0.01888081
#
# Stress axis : x y z
#
# Youngs Moduli (GPa) = 92.96970 35.07290 38.21356
#
# Poissons Ratio (x) = 0.20565 0.26533
# Poissons Ratio (y) = 0.54514 0.40014
# Poissons Ratio (z) = 0.64551 0.36725
#
# Static dielectric constant tensor:
#      x y z
#    x 3.874800 0.000000 0.000000 
#    y 0.000000 3.135270 0.000000 
#    z 0.000000 0.000000 3.108420 
# 
# 
# High freq. dielectric constant tensor:
#      x y z
#    x 1.722400 0.000000 0.000000 
#    y 0.000000 1.672280 0.000000 
#    z 0.000000 0.000000 1.665390 
# 
# From -- ./inp_files/18933.got.cif
#   From: 2010.03.12/outbox.cif.g09.slc.cpg/sg38_10_cif.got.tgz:18933.got - 2010.04.14 02:38:36.
