data_PCOD8178229
_publ_section_title
;
Structure prediction by ZEFSAII (Michael W. Deem and Ramdas Pophale) SiO2 
 PCOD8178229
Probable space group: A M M 2
;
_chemical_formula_sum "Si O2"
_cell_formula_units_Z 64
_cell_length_a 19.226632
_cell_length_b 8.982101
_cell_length_c 20.896872
_cell_angle_alpha 90.000000
_cell_angle_beta 90.000000
_cell_angle_gamma 90.000000
_cell_volume 3608.796814
_symmetry_space_group_name_H-M "A M M 2"
_symmetry_group_IT_number 38
_symmetry_cell_setting 'orthorhombic'
loop_
_space_group_symop_operation_xyz
x,y,z
-x,-y,z
-x,y,z
x,-y,z
x,1/2+y,1/2+z
-x,1/2-y,1/2+z
-x,1/2+y,1/2+z
x,1/2-y,1/2+z
loop_
_atom_site_type_symbol
_atom_site_label
_atom_site_fract_x
_atom_site_fract_y
_atom_site_fract_z
Si Si1 0.578812 0.827900 0.553070
Si Si2 0.707036 0.823931 0.103319
Si Si3 0.920644 0.827543 0.536508
Si Si4 0.279123 0.177371 0.360603
Si Si5 0.922562 0.171429 0.169727
Si Si6 0.217328 0.674697 0.729066
Si Si7 0.205663 0.176268 0.980239
Si Si8 0.575459 0.176337 0.409017
O O1 0.500000 0.803819 0.576834
O O2 0.628901 0.737712 0.600246
O O3 0.587817 0.764305 0.481054
O O4 0.599962 0.000000 0.555660
O O5 0.742947 0.758944 0.167338
O O6 0.704479 0.000000 0.105784
O O7 0.750525 0.769797 0.041794
O O8 0.909192 0.773119 0.608688
O O9 0.872973 0.734345 0.488069
O O10 0.000000 0.801034 0.515058
O O11 0.900114 0.000000 0.533173
O O12 0.248252 0.242622 0.294405
O O13 0.237017 0.250718 0.417527
O O14 0.360524 0.226932 0.364228
O O15 0.271449 0.000000 0.366030
O O16 0.865184 0.211716 0.223511
O O17 0.000000 0.197977 0.198291
O O18 0.912918 0.000000 0.147661
O O19 0.230175 0.500000 0.731316
O O20 0.205766 0.000000 0.972668
O O21 0.500000 0.235912 0.383336
O O22 0.571733 0.000000 0.412867
#
# Coordination Sequence:
#
# PCOD8178229 Si02
#       8
#     8   8   8   8   8   8   8   8
#     4   9  17  30  49  74 101 129 168 215 259 307
#     4  10  19  32  50  74 104 134 167 209 256 310
#     4  10  20  33  52  80 107 131 171 222 262 300
#     4  10  19  33  54  75 103 138 176 222 260 303
#     4   9  16  30  52  74 101 138 174 208 256 314
#     4   9  18  33  50  75 105 136 175 215 257 309
#     4  11  21  34  53  76 106 138 169 208 257 316
#     4   8  14  26  46  72  97 125 168 216 260 305
#
# _framework density 17.734442000000001
#
# number of rings (size 3 to 8) (size 9 to 14) (size 15 to 20)
#    0.000    2.500    2.500    1.500    0.000    1.500 
#    0.000    2.500    0.000    4.875    0.000    0.000 
#    0.000    0.000    0.000    0.000    0.000    0.000 
#
# Total GULP energy -396684.936283 kJ/mol
# GULP energy per Si atom -12396.404259 kJ/mol
# Density = 1.769408 g / cm^3
# Si number density = 17.734442 Si / 1000 Ang^3
#
#
#
# Elastic Constant Matrix: (Units=GPa)
#
#
# Indices 1 2 3 4 5 6 
#
# 1 154.3669 30.4314 79.5380 0.0000 0.0000 0.0000
# 2 30.4314 28.7266 26.3255 0.0000 0.0000 0.0000
# 3 79.5380 26.3255 123.3599 0.0000 0.0000 0.0000
# 4 0.0000 0.0000 0.0000 19.3002 0.0000 0.0000
# 5 0.0000 0.0000 0.0000 0.0000 29.6748 0.0000
# 6 0.0000 0.0000 0.0000 0.0000 0.0000 25.3014
#
#
#
# Elastic Compliance Matrix: (Units=1/GPa)
#
#
# Indices 1 2 3 4 5 6 
#
# 1 0.010499 -0.006114 -0.005465 0.000000 0.000000 0.000000
# 2 -0.006114 0.046835 -0.006052 0.000000 0.000000 0.000000
# 3 -0.005465 -0.006052 0.012921 0.000000 0.000000 0.000000
# 4 0.000000 0.000000 0.000000 0.051813 0.000000 0.000000
# 5 0.000000 0.000000 0.000000 0.000000 0.033699 0.000000
# 6 0.000000 0.000000 0.000000 0.000000 0.000000 0.039523
#
#
# Mechanical properties :
#
#
# Convention : Reuss Voigt Hill
#
# Bulk Modulus (GPa) = 28.57767 64.33811 46.45789
# Shear Modulus (GPa) = 20.64269 26.19921 23.42095
#
# Velocity S-wave (km/s) = 3.41543 3.84774 3.63801
# Velocity P-wave (km/s) = 5.63052 7.48983 6.62572
#
# Compressibility (1/GPa) = 0.03499236
#
# Stress axis : x y z
#
# Youngs Moduli (GPa) = 95.24644 21.35178 77.39133
#
# Poissons Ratio (x) = 0.13055 0.42291
# Poissons Ratio (y) = 0.58236 0.46840
# Poissons Ratio (z) = 0.52048 0.12923
#
# Static dielectric constant tensor:
#      x y z
#    x 3.775110 0.000000 0.000000 
#    y 0.000000 3.021440 0.000000 
#    z 0.000000 0.000000 3.193080 
# 
# 
# High freq. dielectric constant tensor:
#      x y z
#    x 1.705210 0.000000 0.000000 
#    y 0.000000 1.658770 0.000000 
#    z 0.000000 0.000000 1.655780 
# 
# From -- ./inp_files/18885.got.cif
#   From: 2010.03.12/outbox.cif.g09.slc.cpg/sg38_10_cif.got.tgz:18885.got - 2010.04.14 02:38:36.
