data_PCOD8178573
_publ_section_title
;
Structure prediction by ZEFSAII (Michael W. Deem and Ramdas Pophale) SiO2 
 PCOD8178573
Probable space group: A M M 2
;
_chemical_formula_sum "Si O2"
_cell_formula_units_Z 64
_cell_length_a 8.931469
_cell_length_b 24.340883
_cell_length_c 15.155461
_cell_angle_alpha 90.000000
_cell_angle_beta 90.000000
_cell_angle_gamma 90.000000
_cell_volume 3294.794826
_symmetry_space_group_name_H-M "A M M 2"
_symmetry_group_IT_number 38
_symmetry_cell_setting 'orthorhombic'
loop_
_space_group_symop_operation_xyz
x,y,z
-x,-y,z
-x,y,z
x,-y,z
x,1/2+y,1/2+z
-x,1/2-y,1/2+z
-x,1/2+y,1/2+z
x,1/2-y,1/2+z
loop_
_atom_site_type_symbol
_atom_site_label
_atom_site_fract_x
_atom_site_fract_y
_atom_site_fract_z
Si Si1 0.673657 0.714914 0.656770
Si Si2 0.176747 0.391581 0.616498
Si Si3 0.327230 0.647156 0.941483
Si Si4 0.328998 0.937284 0.949641
Si Si5 0.173478 0.733802 0.835660
Si Si6 0.328338 0.660425 0.136024
Si Si7 0.326397 0.063222 0.290499
Si Si8 0.826626 0.640695 0.312773
O O1 0.500000 0.700042 0.652328
O O2 0.763102 0.670161 0.599266
O O3 0.726847 0.709180 0.757381
O O4 0.709206 0.775338 0.620491
O O5 0.236369 0.430233 0.539153
O O6 0.228737 0.414560 0.710311
O O7 0.000000 0.390984 0.612886
O O8 0.500000 0.664578 0.929908
O O9 0.224347 0.700243 0.921642
O O10 0.284482 0.595899 0.879637
O O11 0.297584 0.629857 0.043288
O O12 0.500000 0.920779 0.968368
O O13 0.267436 0.900869 0.870577
O O14 0.314959 0.000000 0.918892
O O15 0.205631 0.798187 0.848940
O O16 0.000000 0.723549 0.813876
O O17 0.500000 0.653868 0.167178
O O18 0.222761 0.634992 0.210859
O O19 0.500000 0.070964 0.265656
O O20 0.286973 0.000000 0.308628
O O21 0.000000 0.625297 0.319888
#
# Coordination Sequence:
#
# PCOD8178573 Si02
#       8
#     8   8   8   8   8   8   8   8
#     4  10  19  34  55  82 117 158 197 237 285 346
#     4  12  24  37  57  87 121 156 193 242 299 358
#     4  10  20  35  57  85 117 157 202 245 292 345
#     4  11  25  44  65  87 113 152 203 252 296 352
#     4  10  20  34  54  85 119 153 192 237 293 354
#     4   9  20  37  58  86 119 158 202 243 288 349
#     4  10  21  38  59  83 116 158 201 245 293 350
#     4  10  22  40  61  88 120 155 193 243 305 357
#
# _framework density 19.424576999999999
#
# number of rings (size 3 to 8) (size 9 to 14) (size 15 to 20)
#    0.000    1.750    1.250    3.000    1.750    5.250 
#    0.000    0.625    0.000    2.250    0.000    0.000 
#    0.000    0.000    0.000    0.000    0.000    0.000 
#
# Total GULP energy -396920.595829 kJ/mol
# GULP energy per Si atom -12403.768620 kJ/mol
# Density = 1.938037 g / cm^3
# Si number density = 19.424577 Si / 1000 Ang^3
#
#
#
# Elastic Constant Matrix: (Units=GPa)
#
#
# Indices 1 2 3 4 5 6 
#
# 1 117.5195 57.5188 53.3639 0.0000 0.0000 0.0000
# 2 57.5188 95.2400 55.4006 0.0000 0.0000 0.0000
# 3 53.3639 55.4006 110.3137 0.0000 0.0000 0.0000
# 4 0.0000 0.0000 0.0000 28.6264 0.0000 0.0000
# 5 0.0000 0.0000 0.0000 0.0000 11.7930 0.0000
# 6 0.0000 0.0000 0.0000 0.0000 0.0000 23.5494
#
#
#
# Elastic Compliance Matrix: (Units=1/GPa)
#
#
# Indices 1 2 3 4 5 6 
#
# 1 0.012869 -0.005864 -0.003280 0.000000 0.000000 0.000000
# 2 -0.005864 0.017505 -0.005955 0.000000 0.000000 0.000000
# 3 -0.003280 -0.005955 0.013642 0.000000 0.000000 0.000000
# 4 0.000000 0.000000 0.000000 0.034933 0.000000 0.000000
# 5 0.000000 0.000000 0.000000 0.000000 0.084796 0.000000
# 6 0.000000 0.000000 0.000000 0.000000 0.000000 0.042464
#
#
# Mechanical properties :
#
#
# Convention : Reuss Voigt Hill
#
# Bulk Modulus (GPa) = 72.36605 72.84888 72.60746
# Shear Modulus (GPa) = 20.74584 23.24643 21.99614
#
# Velocity S-wave (km/s) = 3.27160 3.46317 3.36875
# Velocity P-wave (km/s) = 7.18380 7.31958 7.25201
#
# Compressibility (1/GPa) = 0.01381863
#
# Stress axis : x y z
#
# Youngs Moduli (GPa) = 77.70764 57.12713 73.30106
#
# Poissons Ratio (x) = 0.33498 0.24046
# Poissons Ratio (y) = 0.45565 0.43647
# Poissons Ratio (z) = 0.25491 0.34017
#
# Static dielectric constant tensor:
#      x y z
#    x 3.560860 0.000000 0.000000 
#    y 0.000000 3.561360 0.000000 
#    z 0.000000 0.000000 3.505290 
# 
# 
# High freq. dielectric constant tensor:
#      x y z
#    x 1.760140 0.000000 0.000000 
#    y 0.000000 1.748060 0.000000 
#    z 0.000000 0.000000 1.753130 
# 
# From -- ./inp_files/12796.got.cif
#   From: 2010.03.12/outbox.cif.g09.slc.cpg/sg38_7_cif.got.tgz:12796.got - 2010.04.14 02:38:36.
