data_PCOD8178284
_publ_section_title
;
Structure prediction by ZEFSAII (Michael W. Deem and Ramdas Pophale) SiO2 
 PCOD8178284
Probable space group: A M M 2
;
_chemical_formula_sum "Si O2"
_cell_formula_units_Z 48
_cell_length_a 8.944737
_cell_length_b 16.377877
_cell_length_c 18.567536
_cell_angle_alpha 90.000000
_cell_angle_beta 90.000000
_cell_angle_gamma 90.000000
_cell_volume 2720.066085
_symmetry_space_group_name_H-M "A M M 2"
_symmetry_group_IT_number 38
_symmetry_cell_setting 'orthorhombic'
loop_
_space_group_symop_operation_xyz
x,y,z
-x,-y,z
-x,y,z
x,-y,z
x,1/2+y,1/2+z
-x,1/2-y,1/2+z
-x,1/2+y,1/2+z
x,1/2-y,1/2+z
loop_
_atom_site_type_symbol
_atom_site_label
_atom_site_fract_x
_atom_site_fract_y
_atom_site_fract_z
Si Si1 0.175337 0.337863 0.814720
Si Si2 0.674863 0.409021 0.274821
Si Si3 0.323140 0.000000 0.296169
Si Si4 0.825659 0.179759 0.901498
Si Si5 0.172911 0.000000 0.142977
Si Si6 0.174837 0.832581 0.064148
Si Si7 0.323608 0.253918 0.187357
O O1 0.256294 0.421434 0.837282
O O2 0.212034 0.271296 0.875488
O O3 0.240248 0.310731 0.737953
O O4 0.000000 0.352921 0.805103
O O5 0.500000 0.405079 0.288202
O O6 0.726120 0.500000 0.251582
O O7 0.748533 0.386404 0.350634
O O8 0.720932 0.345806 0.211694
O O9 0.500000 0.000000 0.302640
O O10 0.275724 0.000000 0.212900
O O11 0.000000 0.161518 0.897040
O O12 0.766044 0.169796 0.982382
O O13 0.211337 0.078413 0.094992
O O14 0.000000 0.000000 0.167332
O O15 0.264592 0.762227 0.106979
O O16 0.000000 0.811574 0.068035
O O17 0.500000 0.239148 0.192396
#
# Coordination Sequence:
#
# PCOD8178284 Si02
#       7
#     8   8   4   8   4   8   8
#     4  10  19  34  53  75 103 137 172 211 261 304
#     4   9  19  35  53  75 103 135 169 211 259 304
#     4  12  22  32  52  80 106 131 174 217 250 303
#     4   9  20  35  54  78 103 135 171 210 255 310
#     4  10  20  32  50  76 108 141 164 199 258 309
#     4  10  20  34  52  76 107 138 168 205 257 309
#     4  10  19  32  52  76 101 135 175 213 253 303
#
# _framework density 17.646629999999998
#
# number of rings (size 3 to 8) (size 9 to 14) (size 15 to 20)
#    0.000    2.167    1.667    1.750    1.167    2.333 
#    0.000    0.000    1.833    0.000    0.000    0.000 
#    0.000    0.000    0.000    0.000    0.000    0.000 
#
# Total GULP energy -297639.936502 kJ/mol
# GULP energy per Si atom -12401.664021 kJ/mol
# Density = 1.760647 g / cm^3
# Si number density = 17.646630 Si / 1000 Ang^3
#
#
#
# Elastic Constant Matrix: (Units=GPa)
#
#
# Indices 1 2 3 4 5 6 
#
# 1 64.7925 41.7394 24.5809 0.0000 0.0000 0.0000
# 2 41.7394 128.7302 44.5348 0.0000 0.0000 0.0000
# 3 24.5809 44.5348 89.2660 0.0000 0.0000 0.0000
# 4 0.0000 0.0000 0.0000 20.7541 0.0000 0.0000
# 5 0.0000 0.0000 0.0000 0.0000 17.9884 0.0000
# 6 0.0000 0.0000 0.0000 0.0000 0.0000 25.5943
#
#
#
# Elastic Compliance Matrix: (Units=1/GPa)
#
#
# Indices 1 2 3 4 5 6 
#
# 1 0.020054 -0.005550 -0.002753 0.000000 0.000000 0.000000
# 2 -0.005550 0.010924 -0.003922 0.000000 0.000000 0.000000
# 3 -0.002753 -0.003922 0.013917 0.000000 0.000000 0.000000
# 4 0.000000 0.000000 0.000000 0.048183 0.000000 0.000000
# 5 0.000000 0.000000 0.000000 0.000000 0.055591 0.000000
# 6 0.000000 0.000000 0.000000 0.000000 0.000000 0.039071
#
#
# Mechanical properties :
#
#
# Convention : Reuss Voigt Hill
#
# Bulk Modulus (GPa) = 48.91100 56.05544 52.48322
# Shear Modulus (GPa) = 22.83038 24.32958 23.57998
#
# Velocity S-wave (km/s) = 3.60078 3.71713 3.65942
# Velocity P-wave (km/s) = 6.71301 7.08923 6.90369
#
# Compressibility (1/GPa) = 0.02044530
#
# Stress axis : x y z
#
# Youngs Moduli (GPa) = 49.86660 91.53805 71.85263
#
# Poissons Ratio (x) = 0.50800 0.19784
# Poissons Ratio (y) = 0.27674 0.28181
# Poissons Ratio (z) = 0.13730 0.35901
#
# Static dielectric constant tensor:
#      x y z
#    x 3.237270 0.000000 0.000000 
#    y 0.000000 3.602390 0.000000 
#    z 0.000000 0.000000 3.212560 
# 
# 
# High freq. dielectric constant tensor:
#      x y z
#    x 1.683400 0.000000 0.000000 
#    y 0.000000 1.689670 0.000000 
#    z 0.000000 0.000000 1.662400 
# 
# From -- ./inp_files/16673.got.cif
#   From: 2010.03.12/outbox.cif.g09.slc.cpg/sg38_9_cif.got.tgz:16673.got - 2010.04.14 02:38:36.
