data_PCOD8178855
_publ_section_title
;
Structure prediction by ZEFSAII (Michael W. Deem and Ramdas Pophale) SiO2 
 PCOD8178855
Probable space group: A M M 2
;
_chemical_formula_sum "Si O2"
_cell_formula_units_Z 64
_cell_length_a 14.118812
_cell_length_b 9.103541
_cell_length_c 30.858974
_cell_angle_alpha 90.000000
_cell_angle_beta 90.000000
_cell_angle_gamma 90.000000
_cell_volume 3966.340463
_symmetry_space_group_name_H-M "A M M 2"
_symmetry_group_IT_number 38
_symmetry_cell_setting 'orthorhombic'
loop_
_space_group_symop_operation_xyz
x,y,z
-x,-y,z
-x,y,z
x,-y,z
x,1/2+y,1/2+z
-x,1/2-y,1/2+z
-x,1/2+y,1/2+z
x,1/2-y,1/2+z
loop_
_atom_site_type_symbol
_atom_site_label
_atom_site_fract_x
_atom_site_fract_y
_atom_site_fract_z
Si Si1 0.892212 0.330099 0.841640
Si Si2 0.387862 0.661917 0.048622
Si Si3 0.391051 0.172358 0.452063
Si Si4 0.280703 0.174093 0.877001
Si Si5 0.393801 0.325429 0.293398
Si Si6 0.388494 0.169406 0.132163
Si Si7 0.892421 0.170542 0.241982
Si Si8 0.717190 0.825723 0.709074
O O1 0.865184 0.500000 0.847306
O O2 0.826099 0.232304 0.872274
O O3 0.878775 0.281795 0.791822
O O4 0.000000 0.302135 0.856224
O O5 0.500000 0.650727 0.047763
O O6 0.346466 0.500000 0.059749
O O7 0.354232 0.778334 0.084599
O O8 0.355363 0.711339 0.000656
O O9 0.500000 0.220143 0.445190
O O10 0.325367 0.265190 0.420657
O O11 0.379189 0.000000 0.442879
O O12 0.341521 0.232992 0.836240
O O13 0.279268 0.000000 0.879068
O O14 0.500000 0.260866 0.292947
O O15 0.396025 0.500000 0.293284
O O16 0.339582 0.267236 0.251031
O O17 0.500000 0.196387 0.138393
O O18 0.333472 0.265101 0.166861
O O19 0.361401 0.000000 0.137574
O O20 0.824278 0.266530 0.211623
O O21 0.000000 0.201745 0.227306
O O22 0.867570 0.000000 0.236139
O O23 0.718685 0.000000 0.706567
#
# Coordination Sequence:
#
# PCOD8178855 Si02
#       8
#     8   8   8   8   8   8   8   8
#     4   9  18  33  51  68  90 123 160 200 245 289
#     4   8  15  30  50  69  91 122 160 200 240 281
#     4   9  18  32  49  70  97 129 164 199 236 283
#     4  11  20  30  46  70  98 128 161 200 241 281
#     4   9  18  30  41  59  92 130 163 192 225 269
#     4  10  20  32  47  70  99 128 161 200 240 284
#     4   9  18  33  51  69  92 122 156 200 249 289
#     4  11  20  31  48  69  95 129 164 199 237 280
#
# _framework density 16.135781999999999
#
# number of rings (size 3 to 8) (size 9 to 14) (size 15 to 20)
#    0.000    2.500    1.250    3.375    0.000    3.000 
#    0.000    2.500    0.000    3.000    0.000    0.875 
#    0.000    1.000    0.000    0.000    0.000    0.000 
#
# Total GULP energy -396790.920482 kJ/mol
# GULP energy per Si atom -12399.716265 kJ/mol
# Density = 1.609906 g / cm^3
# Si number density = 16.135782 Si / 1000 Ang^3
#
#
#
# Elastic Constant Matrix: (Units=GPa)
#
#
# Indices 1 2 3 4 5 6 
#
# 1 86.6827 45.5139 48.2785 0.0000 0.0000 0.0000
# 2 45.5139 72.3323 49.5570 0.0000 0.0000 0.0000
# 3 48.2785 49.5570 108.2751 0.0000 0.0000 0.0000
# 4 0.0000 0.0000 0.0000 26.5025 0.0000 0.0000
# 5 0.0000 0.0000 0.0000 0.0000 11.0446 0.0000
# 6 0.0000 0.0000 0.0000 0.0000 0.0000 25.1310
#
#
#
# Elastic Compliance Matrix: (Units=1/GPa)
#
#
# Indices 1 2 3 4 5 6 
#
# 1 0.018480 -0.008716 -0.004251 0.000000 0.000000 0.000000
# 2 -0.008716 0.024252 -0.007214 0.000000 0.000000 0.000000
# 3 -0.004251 -0.007214 0.014433 0.000000 0.000000 0.000000
# 4 0.000000 0.000000 0.000000 0.037732 0.000000 0.000000
# 5 0.000000 0.000000 0.000000 0.000000 0.090542 0.000000
# 6 0.000000 0.000000 0.000000 0.000000 0.000000 0.039791
#
#
# Mechanical properties :
#
#
# Convention : Reuss Voigt Hill
#
# Bulk Modulus (GPa) = 59.50990 61.55434 60.53212
# Shear Modulus (GPa) = 18.43706 20.79834 19.61770
#
# Velocity S-wave (km/s) = 3.38393 3.59410 3.49060
# Velocity P-wave (km/s) = 7.22695 7.44674 7.33767
#
# Compressibility (1/GPa) = 0.01680393
#
# Stress axis : x y z
#
# Youngs Moduli (GPa) = 54.11152 41.23413 69.28700
#
# Poissons Ratio (x) = 0.35940 0.29453
# Poissons Ratio (y) = 0.47164 0.49980
# Poissons Ratio (z) = 0.23002 0.29744
#
# Static dielectric constant tensor:
#      x y z
#    x 2.935120 0.000000 0.000000 
#    y 0.000000 2.959260 0.000000 
#    z 0.000000 0.000000 3.090580 
# 
# 
# High freq. dielectric constant tensor:
#      x y z
#    x 1.601590 0.000000 0.000000 
#    y 0.000000 1.616780 0.000000 
#    z 0.000000 0.000000 1.610500 
# 
# From -- ./inp_files/25062.got.cif
#   From: 2010.03.12/outbox.cif.g09.slc.cpg/sg38_13_cif.got.tgz:25062.got - 2010.04.14 02:38:36.
