data_PCOD8178488
_publ_section_title
;
Structure prediction by ZEFSAII (Michael W. Deem and Ramdas Pophale) SiO2 
 PCOD8178488
Probable space group: A M M 2
;
_chemical_formula_sum "Si O2"
_cell_formula_units_Z 48
_cell_length_a 9.070236
_cell_length_b 14.518468
_cell_length_c 20.149349
_cell_angle_alpha 90.000000
_cell_angle_beta 90.000000
_cell_angle_gamma 90.000000
_cell_volume 2653.385784
_symmetry_space_group_name_H-M "A M M 2"
_symmetry_group_IT_number 38
_symmetry_cell_setting 'orthorhombic'
loop_
_space_group_symop_operation_xyz
x,y,z
-x,-y,z
-x,y,z
x,-y,z
x,1/2+y,1/2+z
-x,1/2-y,1/2+z
-x,1/2+y,1/2+z
x,1/2-y,1/2+z
loop_
_atom_site_type_symbol
_atom_site_label
_atom_site_fract_x
_atom_site_fract_y
_atom_site_fract_z
Si Si1 0.675549 0.000000 0.864990
Si Si2 0.325197 0.500000 0.214534
Si Si3 0.331875 0.500000 0.751188
Si Si4 0.673958 0.304897 0.167401
Si Si5 0.828956 0.683091 0.406900
Si Si6 0.829965 0.807618 0.058490
Si Si7 0.670781 0.301333 0.799451
Si Si8 0.825616 0.500000 0.612943
O O1 0.733121 0.000000 0.789596
O O2 0.738387 0.089587 0.900356
O O3 0.500000 0.000000 0.870091
O O4 0.500000 0.500000 0.216848
O O5 0.267237 0.591055 0.177517
O O6 0.500000 0.500000 0.724984
O O7 0.301771 0.589309 0.796398
O O8 0.226997 0.500000 0.688288
O O9 0.500000 0.301877 0.158949
O O10 0.744297 0.268270 0.100317
O O11 0.722787 0.243533 0.230212
O O12 0.806915 0.717650 0.481856
O O13 0.768217 0.762156 0.358907
O O14 0.000000 0.664180 0.391152
O O15 0.766277 0.909562 0.074736
O O16 0.000000 0.803150 0.079130
O O17 0.500000 0.276786 0.812977
O O18 0.000000 0.500000 0.612554
#
# Coordination Sequence:
#
# PCOD8178488 Si02
#       8
#     4   4   4   8   8   8   8   4
#     4  11  20  36  60  86 118 148 182 233 287 338
#     4   9  18  34  55  83 113 139 173 230 285 324
#     4  10  20  35  56  85 115 139 180 238 285 329
#     4  10  19  35  59  82 109 144 186 231 278 335
#     4  11  23  38  56  82 118 154 190 231 280 340
#     4  10  22  38  54  79 116 150 183 229 279 329
#     4  10  20  36  58  83 112 146 187 237 285 334
#     4  10  19  33  55  80 110 144 177 221 281 339
#
# _framework density 18.090094000000001
#
# number of rings (size 3 to 8) (size 9 to 14) (size 15 to 20)
#    0.000    1.833    3.333    1.250    0.000    4.000 
#    0.000    2.083    0.000    5.000    0.000    0.000 
#    0.000    0.000    0.000    0.000    0.000    0.000 
#
# Total GULP energy -297664.816585 kJ/mol
# GULP energy per Si atom -12402.700691 kJ/mol
# Density = 1.804892 g / cm^3
# Si number density = 18.090094 Si / 1000 Ang^3
#
#
#
# Elastic Constant Matrix: (Units=GPa)
#
#
# Indices 1 2 3 4 5 6 
#
# 1 54.0395 39.3233 45.9088 0.0000 0.0000 0.0000
# 2 39.3233 139.0913 56.0001 0.0000 0.0000 0.0000
# 3 45.9088 56.0001 109.2974 0.0000 0.0000 0.0000
# 4 0.0000 0.0000 0.0000 26.1303 0.0000 0.0000
# 5 0.0000 0.0000 0.0000 0.0000 31.7117 0.0000
# 6 0.0000 0.0000 0.0000 0.0000 0.0000 26.3968
#
#
#
# Elastic Compliance Matrix: (Units=1/GPa)
#
#
# Indices 1 2 3 4 5 6 
#
# 1 0.030774 -0.004405 -0.010670 0.000000 0.000000 0.000000
# 2 -0.004405 0.009689 -0.003114 0.000000 0.000000 0.000000
# 3 -0.010670 -0.003114 0.015226 0.000000 0.000000 0.000000
# 4 0.000000 0.000000 0.000000 0.038270 0.000000 0.000000
# 5 0.000000 0.000000 0.000000 0.000000 0.031534 0.000000
# 6 0.000000 0.000000 0.000000 0.000000 0.000000 0.037883
#
#
# Mechanical properties :
#
#
# Convention : Reuss Voigt Hill
#
# Bulk Modulus (GPa) = 51.77859 64.98808 58.38333
# Shear Modulus (GPa) = 24.24942 27.59416 25.92179
#
# Velocity S-wave (km/s) = 3.66523 3.90984 3.78951
# Velocity P-wave (km/s) = 6.82617 7.50900 7.17572
#
# Compressibility (1/GPa) = 0.01931300
#
# Stress axis : x y z
#
# Youngs Moduli (GPa) = 32.49454 103.21505 65.67546
#
# Poissons Ratio (x) = 0.45463 0.70073
# Poissons Ratio (y) = 0.14313 0.20451
# Poissons Ratio (z) = 0.34670 0.32140
#
# Static dielectric constant tensor:
#      x y z
#    x 3.230350 0.000000 0.000000 
#    y 0.000000 3.612710 0.000000 
#    z 0.000000 0.000000 3.229590 
# 
# 
# High freq. dielectric constant tensor:
#      x y z
#    x 1.690510 0.000000 0.000000 
#    y 0.000000 1.708210 0.000000 
#    z 0.000000 0.000000 1.694650 
# 
# From -- ./inp_files/16736.got.cif
#   From: 2010.03.12/outbox.cif.g09.slc.cpg/sg38_9_cif.got.tgz:16736.got - 2010.04.14 02:38:36.
