data_PCOD8178650
_publ_section_title
;
Structure prediction by ZEFSAII (Michael W. Deem and Ramdas Pophale) SiO2 
 PCOD8178650
Probable space group: A M M 2
;
_chemical_formula_sum "Si O2"
_cell_formula_units_Z 48
_cell_length_a 13.648559
_cell_length_b 14.514645
_cell_length_c 13.117233
_cell_angle_alpha 90.000000
_cell_angle_beta 90.000000
_cell_angle_gamma 90.000000
_cell_volume 2598.576177
_symmetry_space_group_name_H-M "A M M 2"
_symmetry_group_IT_number 38
_symmetry_cell_setting 'orthorhombic'
loop_
_space_group_symop_operation_xyz
x,y,z
-x,-y,z
-x,y,z
x,-y,z
x,1/2+y,1/2+z
-x,1/2-y,1/2+z
-x,1/2+y,1/2+z
x,1/2-y,1/2+z
loop_
_atom_site_type_symbol
_atom_site_label
_atom_site_fract_x
_atom_site_fract_y
_atom_site_fract_z
Si Si1 0.615497 0.000000 0.898150
Si Si2 0.771971 0.753470 0.467794
Si Si3 0.615360 0.698430 0.322814
Si Si4 0.888964 0.736641 0.280404
Si Si5 0.887775 0.105944 0.592500
Si Si6 0.383618 0.500000 0.631423
Si Si7 0.719888 0.179364 0.177658
O O1 0.650136 0.092341 0.838990
O O2 0.500000 0.000000 0.901517
O O3 0.653553 0.000000 0.014435
O O4 0.669535 0.764248 0.406067
O O5 0.853189 0.706606 0.393153
O O6 0.814641 0.850108 0.509303
O O7 0.751269 0.685502 0.560581
O O8 0.500000 0.710406 0.336399
O O9 0.651624 0.733407 0.211865
O O10 0.873785 0.652048 0.203107
O O11 0.819631 0.821780 0.244877
O O12 0.000000 0.771598 0.283066
O O13 0.000000 0.118868 0.555591
O O14 0.859291 0.000000 0.604100
O O15 0.500000 0.500000 0.638625
O O16 0.341893 0.412856 0.692552
#
# Coordination Sequence:
#
# PCOD8178650 Si02
#       7
#     4   8   8   8   8   4   8
#     4   9  18  34  60  84 107 148 192 232 285 338
#     4  10  19  35  54  85 110 148 188 233 287 335
#     4  10  20  36  57  83 115 149 192 240 287 340
#     4   9  19  37  58  80 114 150 187 237 291 339
#     4   9  18  35  59  85 112 148 192 233 284 346
#     4  11  20  36  61  84 117 158 195 234 286 348
#     4  10  21  36  55  88 112 152 193 237 284 339
#
# _framework density 18.471654000000001
#
# number of rings (size 3 to 8) (size 9 to 14) (size 15 to 20)
#    0.000    2.333    1.667    1.000    0.000    1.333 
#   21.000    0.417    0.000    0.000    0.000    0.000 
#    0.000    0.000    0.000    0.000    0.000    0.000 
#
# Total GULP energy -297430.323934 kJ/mol
# GULP energy per Si atom -12392.930164 kJ/mol
# Density = 1.842961 g / cm^3
# Si number density = 18.471654 Si / 1000 Ang^3
#
#
#
# Elastic Constant Matrix: (Units=GPa)
#
#
# Indices 1 2 3 4 5 6 
#
# 1 139.9606 61.7240 53.2238 0.0000 0.0000 0.0000
# 2 61.7240 126.3871 50.2684 0.0000 0.0000 0.0000
# 3 53.2238 50.2684 102.8830 0.0000 0.0000 0.0000
# 4 0.0000 0.0000 0.0000 14.9098 0.0000 0.0000
# 5 0.0000 0.0000 0.0000 0.0000 30.4479 0.0000
# 6 0.0000 0.0000 0.0000 0.0000 0.0000 30.9376
#
#
#
# Elastic Compliance Matrix: (Units=1/GPa)
#
#
# Indices 1 2 3 4 5 6 
#
# 1 0.010010 -0.003511 -0.003463 0.000000 0.000000 0.000000
# 2 -0.003511 0.011052 -0.003584 0.000000 0.000000 0.000000
# 3 -0.003463 -0.003584 0.013262 0.000000 0.000000 0.000000
# 4 0.000000 0.000000 0.000000 0.067070 0.000000 0.000000
# 5 0.000000 0.000000 0.000000 0.000000 0.032843 0.000000
# 6 0.000000 0.000000 0.000000 0.000000 0.000000 0.032323
#
#
# Mechanical properties :
#
#
# Convention : Reuss Voigt Hill
#
# Bulk Modulus (GPa) = 75.70616 77.74034 76.72325
# Shear Modulus (GPa) = 26.03082 28.86003 27.44543
#
# Velocity S-wave (km/s) = 3.75804 3.95700 3.85881
# Velocity P-wave (km/s) = 7.73980 7.94071 7.84090
#
# Compressibility (1/GPa) = 0.01320897
#
# Stress axis : x y z
#
# Youngs Moduli (GPa) = 99.89700 90.47792 75.40249
#
# Poissons Ratio (x) = 0.31771 0.26111
# Poissons Ratio (y) = 0.35078 0.27021
# Poissons Ratio (z) = 0.34593 0.32424
#
# Static dielectric constant tensor:
#      x y z
#    x 3.564460 0.000000 0.000000 
#    y 0.000000 3.263730 0.000000 
#    z 0.000000 0.000000 3.581170 
# 
# 
# High freq. dielectric constant tensor:
#      x y z
#    x 1.724940 0.000000 0.000000 
#    y 0.000000 1.689350 0.000000 
#    z 0.000000 0.000000 1.718520 
# 
# From -- ./inp_files/10046.got.cif
#   From: 2010.03.12/outbox.cif.g09.slc.cpg/sg38_6_cif.got.tgz:10046.got - 2010.04.14 02:38:36.
