data_PCOD8178720
_publ_section_title
;
Structure prediction by ZEFSAII (Michael W. Deem and Ramdas Pophale) SiO2 
 PCOD8178720
Probable space group: A M M 2
;
_chemical_formula_sum "Si O2"
_cell_formula_units_Z 48
_cell_length_a 8.661225
_cell_length_b 18.138108
_cell_length_c 15.075922
_cell_angle_alpha 90.000000
_cell_angle_beta 90.000000
_cell_angle_gamma 90.000000
_cell_volume 2368.400729
_symmetry_space_group_name_H-M "A M M 2"
_symmetry_group_IT_number 38
_symmetry_cell_setting 'orthorhombic'
loop_
_space_group_symop_operation_xyz
x,y,z
-x,-y,z
-x,y,z
x,-y,z
x,1/2+y,1/2+z
-x,1/2-y,1/2+z
-x,1/2+y,1/2+z
x,1/2-y,1/2+z
loop_
_atom_site_type_symbol
_atom_site_label
_atom_site_fract_x
_atom_site_fract_y
_atom_site_fract_z
Si Si1 0.317515 0.346352 0.846370
Si Si2 0.318003 0.230351 0.997158
Si Si3 0.818370 0.081418 0.934643
Si Si4 0.174314 0.608230 0.243340
Si Si5 0.816591 0.000000 0.602034
Si Si6 0.816224 0.500000 0.905643
Si Si7 0.175808 0.231321 0.186036
O O1 0.500000 0.351799 0.852180
O O2 0.256546 0.286175 0.919768
O O3 0.244211 0.426192 0.859898
O O4 0.270129 0.326395 0.745485
O O5 0.500000 0.235873 0.001421
O O6 0.270392 0.145152 0.986146
O O7 0.248791 0.252255 0.091813
O O8 0.750184 0.080372 0.834651
O O9 0.000000 0.100459 0.935873
O O10 0.787787 0.000000 0.976849
O O11 0.248589 0.571146 0.155880
O O12 0.183947 0.695292 0.243723
O O13 0.000000 0.579039 0.243617
O O14 0.744480 0.000000 0.504608
O O15 0.000000 0.000000 0.588576
O O16 0.000000 0.500000 0.901644
O O17 0.000000 0.203844 0.172750
#
# Coordination Sequence:
#
# PCOD8178720 Si02
#       7
#     8   8   8   8   4   4   8
#     4  11  24  43  64  88 127 169 206 254 315 379
#     4  11  24  41  62  89 127 168 206 249 309 379
#     4  10  19  35  61  90 122 156 199 253 305 358
#     4   9  16  29  54  88 121 149 185 244 306 355
#     4   9  16  29  53  90 125 150 185 243 312 366
#     4  11  23  39  63  92 123 160 209 261 310 366
#     4  11  22  38  64  92 119 158 213 264 306 362
#
# _framework density 20.266839000000001
#
# number of rings (size 3 to 8) (size 9 to 14) (size 15 to 20)
#    0.000    1.667    2.500    2.750    0.000    3.667 
#    1.500    0.000    0.000    1.000    0.000    0.000 
#    0.000    0.000    0.000    0.000    0.000    0.000 
#
# Total GULP energy -297440.443863 kJ/mol
# GULP energy per Si atom -12393.351828 kJ/mol
# Density = 2.022071 g / cm^3
# Si number density = 20.266839 Si / 1000 Ang^3
#
#
#
# Elastic Constant Matrix: (Units=GPa)
#
#
# Indices 1 2 3 4 5 6 
#
# 1 69.4318 31.6917 24.1045 0.0000 0.0000 0.0000
# 2 31.6917 113.1509 24.4930 0.0000 0.0000 0.0000
# 3 24.1045 24.4930 82.2395 0.0000 0.0000 0.0000
# 4 0.0000 0.0000 0.0000 30.9645 0.0000 0.0000
# 5 0.0000 0.0000 0.0000 0.0000 27.8120 0.0000
# 6 0.0000 0.0000 0.0000 0.0000 0.0000 24.0659
#
#
#
# Elastic Compliance Matrix: (Units=1/GPa)
#
#
# Indices 1 2 3 4 5 6 
#
# 1 0.017640 -0.004085 -0.003954 0.000000 0.000000 0.000000
# 2 -0.004085 0.010393 -0.001898 0.000000 0.000000 0.000000
# 3 -0.003954 -0.001898 0.013884 0.000000 0.000000 0.000000
# 4 0.000000 0.000000 0.000000 0.032295 0.000000 0.000000
# 5 0.000000 0.000000 0.000000 0.000000 0.035956 0.000000
# 6 0.000000 0.000000 0.000000 0.000000 0.000000 0.041553
#
#
# Mechanical properties :
#
#
# Convention : Reuss Voigt Hill
#
# Bulk Modulus (GPa) = 45.36532 47.26675 46.31603
# Shear Modulus (GPa) = 27.94235 28.87069 28.40652
#
# Velocity S-wave (km/s) = 3.71714 3.77839 3.74789
# Velocity P-wave (km/s) = 6.39183 6.51213 6.45226
#
# Compressibility (1/GPa) = 0.02204327
#
# Stress axis : x y z
#
# Youngs Moduli (GPa) = 56.69033 96.22174 72.02700
#
# Poissons Ratio (x) = 0.39304 0.28477
# Poissons Ratio (y) = 0.23157 0.13670
# Poissons Ratio (z) = 0.22414 0.18262
#
# Static dielectric constant tensor:
#      x y z
#    x 3.398650 0.000000 0.000000 
#    y 0.000000 3.793070 0.000000 
#    z 0.000000 0.000000 3.777360 
# 
# 
# High freq. dielectric constant tensor:
#      x y z
#    x 1.762210 0.000000 0.000000 
#    y 0.000000 1.801810 0.000000 
#    z 0.000000 0.000000 1.793320 
# 
# From -- ./inp_files/12117.got.cif
#   From: 2010.03.12/outbox.cif.g09.slc.cpg/sg38_7_cif.got.tgz:12117.got - 2010.04.14 02:38:36.
