data_PCOD8178007
_publ_section_title
;
Structure prediction by ZEFSAII (Michael W. Deem and Ramdas Pophale) SiO2 
 PCOD8178007
Probable space group: A M M 2
;
_chemical_formula_sum "Si O2"
_cell_formula_units_Z 64
_cell_length_a 20.643480
_cell_length_b 9.163410
_cell_length_c 19.701601
_cell_angle_alpha 90.000000
_cell_angle_beta 90.000000
_cell_angle_gamma 90.000000
_cell_volume 3726.846873
_symmetry_space_group_name_H-M "A M M 2"
_symmetry_group_IT_number 38
_symmetry_cell_setting 'orthorhombic'
loop_
_space_group_symop_operation_xyz
x,y,z
-x,-y,z
-x,y,z
x,-y,z
x,1/2+y,1/2+z
-x,1/2-y,1/2+z
-x,1/2+y,1/2+z
x,1/2-y,1/2+z
loop_
_atom_site_type_symbol
_atom_site_label
_atom_site_fract_x
_atom_site_fract_y
_atom_site_fract_z
Si Si1 0.576099 0.668392 0.154180
Si Si2 0.191939 0.338193 0.555624
Si Si3 0.672018 0.329792 0.907350
Si Si4 0.929304 0.330237 0.047154
Si Si5 0.794703 0.161722 0.894099
Si Si6 0.334131 0.674105 0.549058
Si Si7 0.930930 0.167682 0.907444
Si Si8 0.425647 0.833128 0.288540
O O1 0.500000 0.689370 0.142524
O O2 0.596767 0.500000 0.149439
O O3 0.611146 0.760544 0.096587
O O4 0.596795 0.729386 0.227439
O O5 0.180437 0.500000 0.583683
O O6 0.132192 0.243104 0.585445
O O7 0.193290 0.334902 0.474451
O O8 0.263148 0.282029 0.579083
O O9 0.676641 0.500000 0.925231
O O10 0.740093 0.278238 0.873600
O O11 0.615570 0.294893 0.854550
O O12 0.655913 0.239078 0.974293
O O13 0.914893 0.500000 0.046173
O O14 0.932410 0.274657 0.970774
O O15 0.000000 0.297509 0.081834
O O16 0.866153 0.201093 0.862147
O O17 0.771952 0.000000 0.871062
O O18 0.340779 0.500000 0.543931
O O19 0.000000 0.187913 0.867366
O O20 0.925256 0.000000 0.933521
O O21 0.500000 0.804378 0.308052
O O22 0.414492 0.000000 0.265509
#
# Coordination Sequence:
#
# PCOD8178007 Si02
#       8
#     8   8   8   8   8   8   8   8
#     4  10  21  36  54  75  96 119 151 191 233 279
#     4   8  15  26  38  54  79 114 152 185 220 266
#     4  10  19  30  47  71  97 125 157 194 234 275
#     4   9  15  20  29  49  76 107 144 184 225 267
#     4   8  14  24  37  55  82 115 149 186 228 273
#     4  10  20  33  49  70  97 128 160 193 232 278
#     4   8  13  21  32  46  69 106 148 183 217 262
#     4   9  19  36  54  70  92 123 155 188 229 275
#
# _framework density 17.172694
#
# number of rings (size 3 to 8) (size 9 to 14) (size 15 to 20)
#    0.000    3.000    0.000    3.000    0.000    8.000 
#    0.000    1.250    0.000    0.000    0.000    0.000 
#    0.000    1.000    0.000    7.500    0.000    7.375 
#
# Total GULP energy -396425.629354 kJ/mol
# GULP energy per Si atom -12388.300917 kJ/mol
# Density = 1.713361 g / cm^3
# Si number density = 17.172694 Si / 1000 Ang^3
#
#
#
# Elastic Constant Matrix: (Units=GPa)
#
#
# Indices 1 2 3 4 5 6 
#
# 1 119.6124 63.5539 48.5014 0.0000 0.0000 0.0000
# 2 63.5539 97.4805 40.9276 0.0000 0.0000 0.0000
# 3 48.5014 40.9276 47.1759 0.0000 0.0000 0.0000
# 4 0.0000 0.0000 0.0000 18.5766 0.0000 0.0000
# 5 0.0000 0.0000 0.0000 0.0000 -0.3556 0.0000
# 6 0.0000 0.0000 0.0000 0.0000 0.0000 32.6485
#
#
#
# Elastic Compliance Matrix: (Units=1/GPa)
#
#
# Indices 1 2 3 4 5 6 
#
# 1 0.016050 -0.005562 -0.011676 0.000000 0.000000 0.000000
# 2 -0.005562 0.018063 -0.009953 0.000000 0.000000 0.000000
# 3 -0.011676 -0.009953 0.041835 0.000000 0.000000 0.000000
# 4 0.000000 0.000000 0.000000 0.053831 0.000000 0.000000
# 5 0.000000 0.000000 0.000000 0.000000 -2.812318 0.000000
# 6 0.000000 0.000000 0.000000 0.000000 0.000000 0.030629
#
#
# Mechanical properties :
#
#
# Convention : Reuss Voigt Hill
#
# Bulk Modulus (GPa) = 46.36453 63.35940 54.86197
# Shear Modulus (GPa) = -1.93025 17.59296 7.83135
#
# Velocity S-wave (km/s) = -1.06135 3.20421 2.13781
# Velocity P-wave (km/s) = 5.05526 7.11792 6.17335
#
# Compressibility (1/GPa) = 0.02156821
#
# Stress axis : x y z
#
# Youngs Moduli (GPa) = 62.30583 55.36075 23.90319
#
# Poissons Ratio (x) = 0.30791 0.27908
# Poissons Ratio (y) = 0.34654 0.23790
# Poissons Ratio (z) = 0.72745 0.55099
#
# Static dielectric constant tensor:
#      x y z
#    x 3.989370 0.000000 0.000000 
#    y 0.000000 3.316180 0.000000 
#    z 0.000000 0.000000 2.581430 
# 
# 
# High freq. dielectric constant tensor:
#      x y z
#    x 1.690750 0.000000 0.000000 
#    y 0.000000 1.670940 0.000000 
#    z 0.000000 0.000000 1.584500 
# 
# From -- ./inp_files/21554.got.cif
#   From: 2010.03.12/outbox.cif.g09.slc.cpg/sg38_11_cif.got.tgz:21554.got - 2010.04.14 02:38:36.
