data_PCOD8178792
_publ_section_title
;
Structure prediction by ZEFSAII (Michael W. Deem and Ramdas Pophale) SiO2 
 PCOD8178792
Probable space group: A M M 2
;
_chemical_formula_sum "Si O2"
_cell_formula_units_Z 64
_cell_length_a 8.752715
_cell_length_b 18.698464
_cell_length_c 26.300296
_cell_angle_alpha 90.000000
_cell_angle_beta 90.000000
_cell_angle_gamma 90.000000
_cell_volume 4304.367627
_symmetry_space_group_name_H-M "A M M 2"
_symmetry_group_IT_number 38
_symmetry_cell_setting 'orthorhombic'
loop_
_space_group_symop_operation_xyz
x,y,z
-x,-y,z
-x,y,z
x,-y,z
x,1/2+y,1/2+z
-x,1/2-y,1/2+z
-x,1/2+y,1/2+z
x,1/2-y,1/2+z
loop_
_atom_site_type_symbol
_atom_site_label
_atom_site_fract_x
_atom_site_fract_y
_atom_site_fract_z
Si Si1 0.168780 0.786994 0.035550
Si Si2 0.832807 0.708609 0.142476
Si Si3 0.178736 0.417559 0.896930
Si Si4 0.322429 0.918015 0.290364
Si Si5 0.183262 0.844869 0.194301
Si Si6 0.678820 0.342800 0.990128
Si Si7 0.182064 0.079510 0.092315
Si Si8 0.817226 0.919975 0.584528
O O1 0.151881 0.749079 0.089389
O O2 0.276022 0.740421 0.998616
O O3 0.239266 0.866012 0.047789
O O4 0.000000 0.792988 0.010460
O O5 0.755285 0.763547 0.182306
O O6 0.750362 0.632588 0.129369
O O7 0.000000 0.690875 0.164327
O O8 0.221002 0.500000 0.908401
O O9 0.227781 0.396906 0.840151
O O10 0.000000 0.403623 0.903721
O O11 0.271414 0.366087 0.934173
O O12 0.500000 0.904256 0.300918
O O13 0.264564 0.868119 0.245399
O O14 0.290585 0.000000 0.275202
O O15 0.237122 0.896369 0.148384
O O16 0.000000 0.846439 0.200088
O O17 0.500000 0.350889 0.996806
O O18 0.759531 0.395868 0.029601
O O19 0.000000 0.080798 0.091750
O O20 0.246298 0.000000 0.081183
O O21 0.000000 0.914987 0.583089
O O22 0.760308 0.000000 0.596174
#
# Coordination Sequence:
#
# PCOD8178792 Si02
#       8
#     8   8   8   8   8   8   8   8
#     4   8  14  26  41  56  78 107 138 169 198 233
#     4   7  12  23  38  57  78 101 132 167 196 224
#     4  10  20  33  47  60  75 100 135 169 200 238
#     4  10  20  31  41  57  82 106 130 165 203 234
#     4   9  15  25  42  59  78 107 139 166 194 233
#     4  11  20  28  40  58  82 109 135 165 202 241
#     4   8  13  22  40  64  84 105 138 176 205 229
#     4   9  16  27  43  60  79 106 139 170 200 237
#
# _framework density 14.868618
#
# number of rings (size 3 to 8) (size 9 to 14) (size 15 to 20)
#    0.000    3.000    0.000    4.875    0.000    3.750 
#    0.000    5.625    0.000    1.125    0.000    0.000 
#    0.000    1.000    0.000    8.500    0.000    2.375 
#
# Total GULP energy -396459.084226 kJ/mol
# GULP energy per Si atom -12389.346382 kJ/mol
# Density = 1.483478 g / cm^3
# Si number density = 14.868618 Si / 1000 Ang^3
#
#
#
# Elastic Constant Matrix: (Units=GPa)
#
#
# Indices 1 2 3 4 5 6 
#
# 1 29.6357 17.2470 12.6987 0.0000 0.0000 0.0000
# 2 17.2470 122.1027 48.8333 0.0000 0.0000 0.0000
# 3 12.6987 48.8333 64.0451 0.0000 0.0000 0.0000
# 4 0.0000 0.0000 0.0000 26.1282 0.0000 0.0000
# 5 0.0000 0.0000 0.0000 0.0000 1.1194 0.0000
# 6 0.0000 0.0000 0.0000 0.0000 0.0000 11.5601
#
#
#
# Elastic Compliance Matrix: (Units=1/GPa)
#
#
# Indices 1 2 3 4 5 6 
#
# 1 0.037816 -0.003371 -0.004928 0.000000 0.000000 0.000000
# 2 -0.003371 0.012083 -0.008545 0.000000 0.000000 0.000000
# 3 -0.004928 -0.008545 0.023107 0.000000 0.000000 0.000000
# 4 0.000000 0.000000 0.000000 0.038273 0.000000 0.000000
# 5 0.000000 0.000000 0.000000 0.000000 0.893322 0.000000
# 6 0.000000 0.000000 0.000000 0.000000 0.000000 0.086504
#
#
# Mechanical properties :
#
#
# Convention : Reuss Voigt Hill
#
# Bulk Modulus (GPa) = 25.43314 41.48239 33.45776
# Shear Modulus (GPa) = 4.39406 16.89519 10.64463
#
# Velocity S-wave (km/s) = 1.72095 3.37456 2.67856
# Velocity P-wave (km/s) = 4.59252 6.56836 5.66722
#
# Compressibility (1/GPa) = 0.03931877
#
# Stress axis : x y z
#
# Youngs Moduli (GPa) = 26.44360 82.75802 43.27768
#
# Poissons Ratio (x) = 0.27895 0.21328
# Poissons Ratio (y) = 0.08913 0.36981
# Poissons Ratio (z) = 0.13032 0.70717
#
# Static dielectric constant tensor:
#      x y z
#    x 2.686810 0.000000 0.000000 
#    y 0.000000 3.371770 0.000000 
#    z 0.000000 0.000000 2.666290 
# 
# 
# High freq. dielectric constant tensor:
#      x y z
#    x 1.550370 0.000000 0.000000 
#    y 0.000000 1.566900 0.000000 
#    z 0.000000 0.000000 1.534600 
# 
# From -- ./inp_files/22280.got.cif
#   From: 2010.03.12/outbox.cif.g09.slc.cpg/sg38_12_cif.got.tgz:22280.got - 2010.04.14 02:38:36.
