data_PCOD8178439
_publ_section_title
;
Structure prediction by ZEFSAII (Michael W. Deem and Ramdas Pophale) SiO2 
 PCOD8178439
Probable space group: A M M 2
;
_chemical_formula_sum "Si O2"
_cell_formula_units_Z 56
_cell_length_a 9.253825
_cell_length_b 22.200867
_cell_length_c 14.347327
_cell_angle_alpha 90.000000
_cell_angle_beta 90.000000
_cell_angle_gamma 90.000000
_cell_volume 2947.557012
_symmetry_space_group_name_H-M "A M M 2"
_symmetry_group_IT_number 38
_symmetry_cell_setting 'orthorhombic'
loop_
_space_group_symop_operation_xyz
x,y,z
-x,-y,z
-x,y,z
x,-y,z
x,1/2+y,1/2+z
-x,1/2-y,1/2+z
-x,1/2+y,1/2+z
x,1/2-y,1/2+z
loop_
_atom_site_type_symbol
_atom_site_label
_atom_site_fract_x
_atom_site_fract_y
_atom_site_fract_z
Si Si1 0.168688 0.112095 0.078270
Si Si2 0.168528 0.618092 0.016425
Si Si3 0.171838 0.000000 0.409812
Si Si4 0.330912 0.212998 0.401500
Si Si5 0.164394 0.147638 0.720195
Si Si6 0.331286 0.353205 0.401343
Si Si7 0.165396 0.286170 0.719380
Si Si8 0.828857 0.500000 0.699982
O O1 0.202783 0.175347 0.128066
O O2 0.000000 0.104701 0.055068
O O3 0.224648 0.058919 0.145289
O O4 0.256452 0.108435 0.982425
O O5 0.193794 0.609061 0.127068
O O6 0.000000 0.629838 0.995430
O O7 0.227927 0.559090 0.963802
O O8 0.257496 0.676193 0.984304
O O9 0.235418 0.000000 0.304866
O O10 0.000000 0.000000 0.410104
O O11 0.500000 0.200160 0.400894
O O12 0.295272 0.283098 0.416700
O O13 0.265273 0.191051 0.303524
O O14 0.268605 0.124806 0.802160
O O15 0.195941 0.217090 0.694621
O O16 0.000000 0.139848 0.754780
O O17 0.500000 0.366726 0.402201
O O18 0.000000 0.297484 0.749963
O O19 0.000000 0.500000 0.708290
#
# Coordination Sequence:
#
# PCOD8178439 Si02
#       8
#     8   8   4   8   8   8   8   4
#     4  10  19  33  54  77 102 135 174 214 255 300
#     4  10  19  33  55  79 103 135 173 212 255 302
#     4   9  18  34  56  81 106 130 163 209 256 303
#     4  10  20  32  49  76 108 139 170 208 256 308
#     4   9  18  32  51  76 103 133 172 214 255 303
#     4  10  21  35  51  74 105 139 172 210 258 307
#     4   9  17  30  50  75 103 136 172 211 256 305
#     4   9  18  32  52  79 106 132 165 207 254 301
#
# _framework density 18.998784000000001
#
# number of rings (size 3 to 8) (size 9 to 14) (size 15 to 20)
#    0.000    2.429    0.000    2.571    0.000    6.286 
#    0.000    4.286    0.000    3.429    0.000    0.000 
#    0.000    0.000    0.000    0.000    0.000    0.000 
#
# Total GULP energy -347271.332799 kJ/mol
# GULP energy per Si atom -12402.547600 kJ/mol
# Density = 1.895554 g / cm^3
# Si number density = 18.998784 Si / 1000 Ang^3
#
#
#
# Elastic Constant Matrix: (Units=GPa)
#
#
# Indices 1 2 3 4 5 6 
#
# 1 67.2427 27.1774 56.9566 0.0000 0.0000 0.0000
# 2 27.1774 62.3305 56.2600 0.0000 0.0000 0.0000
# 3 56.9566 56.2600 153.3432 0.0000 0.0000 0.0000
# 4 0.0000 0.0000 0.0000 31.9170 0.0000 0.0000
# 5 0.0000 0.0000 0.0000 0.0000 14.6023 0.0000
# 6 0.0000 0.0000 0.0000 0.0000 0.0000 15.0797
#
#
#
# Elastic Compliance Matrix: (Units=1/GPa)
#
#
# Indices 1 2 3 4 5 6 
#
# 1 0.022153 -0.003337 -0.007004 0.000000 0.000000 0.000000
# 2 -0.003337 0.024490 -0.007745 0.000000 0.000000 0.000000
# 3 -0.007004 -0.007745 0.011964 0.000000 0.000000 0.000000
# 4 0.000000 0.000000 0.000000 0.031331 0.000000 0.000000
# 5 0.000000 0.000000 0.000000 0.000000 0.068483 0.000000
# 6 0.000000 0.000000 0.000000 0.000000 0.000000 0.066314
#
#
# Mechanical properties :
#
#
# Convention : Reuss Voigt Hill
#
# Bulk Modulus (GPa) = 44.57560 62.63383 53.60472
# Shear Modulus (GPa) = 18.62987 21.82130 20.22559
#
# Velocity S-wave (km/s) = 3.13482 3.39272 3.26632
# Velocity P-wave (km/s) = 6.05112 6.95602 6.51929
#
# Compressibility (1/GPa) = 0.02243380
#
# Stress axis : x y z
#
# Youngs Moduli (GPa) = 45.14094 40.83338 83.58073
#
# Poissons Ratio (x) = 0.13628 0.58539
# Poissons Ratio (y) = 0.15065 0.64737
# Poissons Ratio (z) = 0.31616 0.31627
#
# Static dielectric constant tensor:
#      x y z
#    x 3.241350 0.000000 0.000000 
#    y 0.000000 3.355350 0.000000 
#    z 0.000000 0.000000 3.523400 
# 
# 
# High freq. dielectric constant tensor:
#      x y z
#    x 1.714450 0.000000 0.000000 
#    y 0.000000 1.719120 0.000000 
#    z 0.000000 0.000000 1.748200 
# 
# From -- ./inp_files/12458.got.cif
#   From: 2010.03.12/outbox.cif.g09.slc.cpg/sg38_7_cif.got.tgz:12458.got - 2010.04.14 02:38:36.
