data_PCOD8178349
_publ_section_title
;
Structure prediction by ZEFSAII (Michael W. Deem and Ramdas Pophale) SiO2 
 PCOD8178349
Probable space group: A M M 2
;
_chemical_formula_sum "Si O2"
_cell_formula_units_Z 64
_cell_length_a 14.438586
_cell_length_b 9.267402
_cell_length_c 24.817706
_cell_angle_alpha 90.000000
_cell_angle_beta 90.000000
_cell_angle_gamma 90.000000
_cell_volume 3320.812091
_symmetry_space_group_name_H-M "A M M 2"
_symmetry_group_IT_number 38
_symmetry_cell_setting 'orthorhombic'
loop_
_space_group_symop_operation_xyz
x,y,z
-x,-y,z
-x,y,z
x,-y,z
x,1/2+y,1/2+z
-x,1/2-y,1/2+z
-x,1/2+y,1/2+z
x,1/2-y,1/2+z
loop_
_atom_site_type_symbol
_atom_site_label
_atom_site_fract_x
_atom_site_fract_y
_atom_site_fract_z
Si Si1 0.394949 0.831814 0.650950
Si Si2 0.599537 0.333768 0.427669
Si Si3 0.775922 0.828192 0.190076
Si Si4 0.891266 0.831432 0.780376
Si Si5 0.361843 0.161593 0.530453
Si Si6 0.797508 0.168863 0.892672
Si Si7 0.153307 0.837811 0.495367
Si Si8 0.100984 0.338787 0.591653
O O1 0.500000 0.806930 0.671271
O O2 0.326808 0.740652 0.689672
O O3 0.386257 0.776310 0.589384
O O4 0.367096 0.000000 0.654649
O O5 0.500000 0.307767 0.397331
O O6 0.613664 0.500000 0.441358
O O7 0.590488 0.255964 0.484838
O O8 0.688176 0.282598 0.392239
O O9 0.837918 0.764407 0.237429
O O10 0.824584 0.780999 0.134358
O O11 0.769734 0.000000 0.196953
O O12 0.845366 0.789163 0.837090
O O13 0.000000 0.792423 0.781272
O O14 0.876495 0.000000 0.767418
O O15 0.253213 0.164934 0.522014
O O16 0.401521 0.000000 0.525599
O O17 0.851323 0.254307 0.939020
O O18 0.807776 0.000000 0.904559
O O19 0.089822 0.759817 0.539059
O O20 0.117749 0.000000 0.485407
O O21 0.129280 0.500000 0.573279
O O22 0.000000 0.339268 0.619986
#
# Coordination Sequence:
#
# PCOD8178349 Si02
#       8
#     8   8   8   8   8   8   8   8
#     4  10  20  35  56  82 115 155 195 233 278 336
#     4   9  17  29  48  76 109 145 185 227 272 327
#     4  11  23  39  60  84 115 148 186 241 295 343
#     4  10  22  41  64  85 106 143 195 244 291 348
#     4   9  17  30  49  75 111 151 187 224 266 320
#     4   9  19  36  56  79 111 147 187 234 283 339
#     4  10  19  32  53  82 115 148 183 229 280 331
#     4  10  21  36  54  78 110 149 186 222 279 350
#
# _framework density 19.272393999999998
#
# number of rings (size 3 to 8) (size 9 to 14) (size 15 to 20)
#    0.000    2.250    1.250    1.500    0.000    4.500 
#    0.000    1.875    0.000    2.250    0.000    0.000 
#    0.000    0.000    0.000    0.000    0.000    0.000 
#
# Total GULP energy -396678.098143 kJ/mol
# GULP energy per Si atom -12396.190567 kJ/mol
# Density = 1.922853 g / cm^3
# Si number density = 19.272394 Si / 1000 Ang^3
#
#
#
# Elastic Constant Matrix: (Units=GPa)
#
#
# Indices 1 2 3 4 5 6 
#
# 1 123.1580 45.8568 60.3108 0.0000 0.0000 0.0000
# 2 45.8568 80.2114 61.0560 0.0000 0.0000 0.0000
# 3 60.3108 61.0560 110.3890 0.0000 0.0000 0.0000
# 4 0.0000 0.0000 0.0000 32.0839 0.0000 0.0000
# 5 0.0000 0.0000 0.0000 0.0000 21.1012 0.0000
# 6 0.0000 0.0000 0.0000 0.0000 0.0000 21.9885
#
#
#
# Elastic Compliance Matrix: (Units=1/GPa)
#
#
# Indices 1 2 3 4 5 6 
#
# 1 0.011515 -0.003099 -0.004577 0.000000 0.000000 0.000000
# 2 -0.003099 0.022367 -0.010678 0.000000 0.000000 0.000000
# 3 -0.004577 -0.010678 0.017465 0.000000 0.000000 0.000000
# 4 0.000000 0.000000 0.000000 0.031168 0.000000 0.000000
# 5 0.000000 0.000000 0.000000 0.000000 0.047391 0.000000
# 6 0.000000 0.000000 0.000000 0.000000 0.000000 0.045478
#
#
# Mechanical properties :
#
#
# Convention : Reuss Voigt Hill
#
# Bulk Modulus (GPa) = 68.31006 72.02285 70.16645
# Shear Modulus (GPa) = 23.04446 24.80371 23.92409
#
# Velocity S-wave (km/s) = 3.46168 3.59138 3.52712
# Velocity P-wave (km/s) = 7.17628 7.39253 7.28521
#
# Compressibility (1/GPa) = 0.01463913
#
# Stress axis : x y z
#
# Youngs Moduli (GPa) = 86.84349 44.70950 57.25602
#
# Poissons Ratio (x) = 0.13856 0.26207
# Poissons Ratio (y) = 0.26913 0.61137
# Poissons Ratio (z) = 0.39749 0.47740
#
# Static dielectric constant tensor:
#      x y z
#    x 3.703550 0.000000 0.000000 
#    y 0.000000 3.532290 0.000000 
#    z 0.000000 0.000000 3.290430 
# 
# 
# High freq. dielectric constant tensor:
#      x y z
#    x 1.765690 0.000000 0.000000 
#    y 0.000000 1.744680 0.000000 
#    z 0.000000 0.000000 1.722450 
# 
# From -- ./inp_files/22923.got.cif
#   From: 2010.03.12/outbox.cif.g09.slc.cpg/sg38_12_cif.got.tgz:22923.got - 2010.04.14 02:38:36.
