data_PCOD8178380
_publ_section_title
;
Structure prediction by ZEFSAII (Michael W. Deem and Ramdas Pophale) SiO2 
 PCOD8178380
Probable space group: A M M 2
;
_chemical_formula_sum "Si O2"
_cell_formula_units_Z 64
_cell_length_a 18.085604
_cell_length_b 8.942774
_cell_length_c 20.499539
_cell_angle_alpha 90.000000
_cell_angle_beta 90.000000
_cell_angle_gamma 90.000000
_cell_volume 3315.502559
_symmetry_space_group_name_H-M "A M M 2"
_symmetry_group_IT_number 38
_symmetry_cell_setting 'orthorhombic'
loop_
_space_group_symop_operation_xyz
x,y,z
-x,-y,z
-x,y,z
x,-y,z
x,1/2+y,1/2+z
-x,1/2-y,1/2+z
-x,1/2+y,1/2+z
x,1/2-y,1/2+z
loop_
_atom_site_type_symbol
_atom_site_label
_atom_site_fract_x
_atom_site_fract_y
_atom_site_fract_z
Si Si1 0.319479 0.176473 0.729780
Si Si2 0.413809 0.828691 0.339475
Si Si3 0.163558 0.166736 0.583554
Si Si4 0.085134 0.828102 0.829061
Si Si5 0.347381 0.326525 0.460036
Si Si6 0.162705 0.323380 0.714431
Si Si7 0.824577 0.826047 0.954535
Si Si8 0.660858 0.334494 0.087664
O O1 0.371510 0.226859 0.787980
O O2 0.241361 0.257918 0.736099
O O3 0.360560 0.216230 0.661198
O O4 0.304507 0.000000 0.734601
O O5 0.500000 0.812960 0.325351
O O6 0.397087 0.770139 0.411762
O O7 0.387672 0.000000 0.333397
O O8 0.134577 0.262314 0.644713
O O9 0.138878 0.240797 0.515596
O O10 0.251293 0.161896 0.586218
O O11 0.130156 0.000000 0.587727
O O12 0.102246 0.724612 0.767391
O O13 0.134162 0.771858 0.889695
O O14 0.000000 0.809437 0.848521
O O15 0.104297 0.000000 0.812007
O O16 0.365152 0.500000 0.450257
O O17 0.261895 0.288704 0.446202
O O18 0.369709 0.280938 0.534011
O O19 0.169031 0.500000 0.710139
O O20 0.836766 0.000000 0.967726
O O21 0.629239 0.500000 0.072323
#
# Coordination Sequence:
#
# PCOD8178380 Si02
#       8
#     8   8   8   8   8   8   8   8
#     4  10  20  36  59  84 109 139 178 222 268 322
#     4  11  24  39  54  76 109 146 183 224 268 315
#     4   9  17  31  53  80 108 138 175 219 266 318
#     4  10  21  37  55  76 108 148 186 226 271 319
#     4  10  19  32  55  82 107 138 177 221 266 318
#     4  11  21  34  56  83 111 142 178 223 270 319
#     4   9  18  33  54  81 108 136 175 222 271 320
#     4   8  16  31  52  79 108 135 168 216 268 315
#
# _framework density 19.303258
#
# number of rings (size 3 to 8) (size 9 to 14) (size 15 to 20)
#    0.000    2.250    0.000    4.125    0.000    6.750 
#    0.000    1.250    0.000    3.000    0.000    0.000 
#    0.000    0.000    0.000    0.000    0.000    0.000 
#
# Total GULP energy -396845.332868 kJ/mol
# GULP energy per Si atom -12401.416652 kJ/mol
# Density = 1.925932 g / cm^3
# Si number density = 19.303258 Si / 1000 Ang^3
#
#
#
# Elastic Constant Matrix: (Units=GPa)
#
#
# Indices 1 2 3 4 5 6 
#
# 1 31.1816 21.2394 14.8565 0.0000 0.0000 0.0000
# 2 21.2394 105.5163 47.4221 0.0000 0.0000 0.0000
# 3 14.8565 47.4221 113.9483 0.0000 0.0000 0.0000
# 4 0.0000 0.0000 0.0000 40.6413 0.0000 0.0000
# 5 0.0000 0.0000 0.0000 0.0000 5.3394 0.0000
# 6 0.0000 0.0000 0.0000 0.0000 0.0000 20.4860
#
#
#
# Elastic Compliance Matrix: (Units=1/GPa)
#
#
# Indices 1 2 3 4 5 6 
#
# 1 0.037591 -0.006598 -0.002155 0.000000 0.000000 0.000000
# 2 -0.006598 0.012816 -0.004473 0.000000 0.000000 0.000000
# 3 -0.002155 -0.004473 0.010919 0.000000 0.000000 0.000000
# 4 0.000000 0.000000 0.000000 0.024605 0.000000 0.000000
# 5 0.000000 0.000000 0.000000 0.000000 0.187287 0.000000
# 6 0.000000 0.000000 0.000000 0.000000 0.000000 0.048814
#
#
# Mechanical properties :
#
#
# Convention : Reuss Voigt Hill
#
# Bulk Modulus (GPa) = 28.67597 46.40915 37.54256
# Shear Modulus (GPa) = 13.88465 24.43524 19.15995
#
# Velocity S-wave (km/s) = 2.68487 3.56175 3.15393
# Velocity P-wave (km/s) = 4.94966 6.40384 5.72312
#
# Compressibility (1/GPa) = 0.03487240
#
# Stress axis : x y z
#
# Youngs Moduli (GPa) = 26.60185 78.02875 91.58718
#
# Poissons Ratio (x) = 0.51485 0.19739
# Poissons Ratio (y) = 0.17552 0.40970
# Poissons Ratio (z) = 0.05733 0.34905
#
# Static dielectric constant tensor:
#      x y z
#    x 3.153980 0.000000 0.000000 
#    y 0.000000 3.605400 0.000000 
#    z 0.000000 0.000000 3.835470 
# 
# 
# High freq. dielectric constant tensor:
#      x y z
#    x 1.710840 0.000000 0.000000 
#    y 0.000000 1.756050 0.000000 
#    z 0.000000 0.000000 1.768540 
# 
# From -- ./inp_files/21367.got.cif
#   From: 2010.03.12/outbox.cif.g09.slc.cpg/sg38_11_cif.got.tgz:21367.got - 2010.04.14 02:38:36.
