data_PCOD8178672
_publ_section_title
;
Structure prediction by ZEFSAII (Michael W. Deem and Ramdas Pophale) SiO2 
 PCOD8178672
Probable space group: A M M 2
;
_chemical_formula_sum "Si O2"
_cell_formula_units_Z 48
_cell_length_a 17.013226
_cell_length_b 9.051413
_cell_length_c 15.798013
_cell_angle_alpha 90.000000
_cell_angle_beta 90.000000
_cell_angle_gamma 90.000000
_cell_volume 2432.795027
_symmetry_space_group_name_H-M "A M M 2"
_symmetry_group_IT_number 38
_symmetry_cell_setting 'orthorhombic'
loop_
_space_group_symop_operation_xyz
x,y,z
-x,-y,z
-x,y,z
x,-y,z
x,1/2+y,1/2+z
-x,1/2-y,1/2+z
-x,1/2+y,1/2+z
x,1/2-y,1/2+z
loop_
_atom_site_type_symbol
_atom_site_label
_atom_site_fract_x
_atom_site_fract_y
_atom_site_fract_z
Si Si1 0.500000 0.174124 0.083440
Si Si2 0.500000 0.325033 0.392276
Si Si3 0.814451 0.674292 0.070212
Si Si4 0.182432 0.174032 0.381595
Si Si5 0.334137 0.167613 0.829926
Si Si6 0.652797 0.833397 0.636049
Si Si7 0.909355 0.825416 0.730941
O O1 0.577242 0.231061 0.129912
O O2 0.500000 0.000000 0.087771
O O3 0.500000 0.233302 0.987871
O O4 0.500000 0.500000 0.386643
O O5 0.578655 0.266307 0.346466
O O6 0.811460 0.500000 0.082269
O O7 0.724432 0.731597 0.079863
O O8 0.869871 0.738667 0.144763
O O9 0.847157 0.714808 0.976914
O O10 0.272051 0.227971 0.376111
O O11 0.127214 0.253539 0.314396
O O12 0.179302 0.000000 0.365477
O O13 0.315080 0.168767 0.731196
O O14 0.327115 0.000000 0.865617
O O15 0.629333 0.000000 0.609322
O O16 0.000000 0.780744 0.726838
O O17 0.897295 0.000000 0.738657
#
# Coordination Sequence:
#
# PCOD8178672 Si02
#       7
#     4   4   8   8   8   8   8
#     4  11  22  33  47  77 118 147 182 239 300 339
#     4   9  19  33  51  79 110 147 194 243 286 331
#     4   9  19  37  60  87 115 152 196 234 279 343
#     4  11  22  36  59  91 124 150 183 239 301 342
#     4  10  19  36  60  80 107 152 203 239 276 338
#     4  10  19  35  58  78 104 149 202 238 271 333
#     4  10  21  41  66  87 112 152 198 235 275 345
#
# _framework density 19.730391999999998
#
# number of rings (size 3 to 8) (size 9 to 14) (size 15 to 20)
#    0.000    2.000    1.667    2.250    0.000    3.000 
#    0.000    5.417    0.000    0.000    0.000    0.000 
#    0.000    0.000    0.000    0.000    0.000    0.000 
#
# Total GULP energy -297578.478664 kJ/mol
# GULP energy per Si atom -12399.103278 kJ/mol
# Density = 1.968548 g / cm^3
# Si number density = 19.730392 Si / 1000 Ang^3
#
#
#
# Elastic Constant Matrix: (Units=GPa)
#
#
# Indices 1 2 3 4 5 6 
#
# 1 139.8594 38.7175 67.5234 0.0000 0.0000 0.0000
# 2 38.7175 42.7041 28.8158 0.0000 0.0000 0.0000
# 3 67.5234 28.8158 126.2002 0.0000 0.0000 0.0000
# 4 0.0000 0.0000 0.0000 25.6995 0.0000 0.0000
# 5 0.0000 0.0000 0.0000 0.0000 23.0114 0.0000
# 6 0.0000 0.0000 0.0000 0.0000 0.0000 23.9356
#
#
#
# Elastic Compliance Matrix: (Units=1/GPa)
#
#
# Indices 1 2 3 4 5 6 
#
# 1 0.011274 -0.007271 -0.004372 0.000000 0.000000 0.000000
# 2 -0.007271 0.032372 -0.003501 0.000000 0.000000 0.000000
# 3 -0.004372 -0.003501 0.011062 0.000000 0.000000 0.000000
# 4 0.000000 0.000000 0.000000 0.038911 0.000000 0.000000
# 5 0.000000 0.000000 0.000000 0.000000 0.043457 0.000000
# 6 0.000000 0.000000 0.000000 0.000000 0.000000 0.041779
#
#
# Mechanical properties :
#
#
# Convention : Reuss Voigt Hill
#
# Bulk Modulus (GPa) = 40.95032 64.31967 52.63500
# Shear Modulus (GPa) = 23.01150 26.10976 24.56063
#
# Velocity S-wave (km/s) = 3.41881 3.64170 3.53202
# Velocity P-wave (km/s) = 6.03195 7.09596 6.58548
#
# Compressibility (1/GPa) = 0.02441983
#
# Stress axis : x y z
#
# Youngs Moduli (GPa) = 88.70319 30.89100 90.39638
#
# Poissons Ratio (x) = 0.22462 0.39518
# Poissons Ratio (y) = 0.64498 0.31649
# Poissons Ratio (z) = 0.38778 0.10815
#
# Static dielectric constant tensor:
#      x y z
#    x 3.671020 0.000000 0.000000 
#    y 0.000000 3.294060 0.000000 
#    z 0.000000 0.000000 3.768580 
# 
# 
# High freq. dielectric constant tensor:
#      x y z
#    x 1.773400 0.000000 0.000000 
#    y 0.000000 1.735130 0.000000 
#    z 0.000000 0.000000 1.781030 
# 
# From -- ./inp_files/14997.got.cif
#   From: 2010.03.12/outbox.cif.g09.slc.cpg/sg38_8_cif.got.tgz:14997.got - 2010.04.14 02:38:36.
