data_PCOD8178043
_publ_section_title
;
Structure prediction by ZEFSAII (Michael W. Deem and Ramdas Pophale) SiO2 
 PCOD8178043
Probable space group: A M M 2
;
_chemical_formula_sum "Si O2"
_cell_formula_units_Z 48
_cell_length_a 15.353820
_cell_length_b 8.965883
_cell_length_c 19.881361
_cell_angle_alpha 90.000000
_cell_angle_beta 90.000000
_cell_angle_gamma 90.000000
_cell_volume 2736.879164
_symmetry_space_group_name_H-M "A M M 2"
_symmetry_group_IT_number 38
_symmetry_cell_setting 'orthorhombic'
loop_
_space_group_symop_operation_xyz
x,y,z
-x,-y,z
-x,y,z
x,-y,z
x,1/2+y,1/2+z
-x,1/2-y,1/2+z
-x,1/2+y,1/2+z
x,1/2-y,1/2+z
loop_
_atom_site_type_symbol
_atom_site_label
_atom_site_fract_x
_atom_site_fract_y
_atom_site_fract_z
Si Si1 0.897675 0.670842 0.034940
Si Si2 0.222323 0.178457 0.929228
Si Si3 0.591647 0.666886 0.438488
Si Si4 0.404619 0.167034 0.778719
Si Si5 0.766794 0.174624 0.286738
Si Si6 0.900191 0.827608 0.170840
O O1 0.868431 0.500000 0.028642
O O2 0.868603 0.731261 0.107436
O O3 0.000000 0.690823 0.025254
O O4 0.854139 0.766410 0.976474
O O5 0.315670 0.238719 0.960336
O O6 0.207751 0.240791 0.854716
O O7 0.223105 0.000000 0.925065
O O8 0.500000 0.748753 0.461330
O O9 0.587235 0.500000 0.467376
O O10 0.594535 0.662846 0.358561
O O11 0.500000 0.224021 0.752861
O O12 0.326304 0.274704 0.755350
O O13 0.387614 0.000000 0.751025
O O14 0.841544 0.216705 0.233982
O O15 0.763022 0.000000 0.301832
O O16 0.000000 0.791355 0.189812
O O17 0.888406 0.000000 0.151346
#
# Coordination Sequence:
#
# PCOD8178043 Si02
#       6
#     8   8   8   8   8   8
#     4  10  21  36  53  72  95 125 162 205 250 294
#     4  10  19  31  50  75 102 132 164 198 240 290
#     4   7  11  22  41  65  92 122 156 191 227 271
#     4   8  14  26  44  66  95 131 166 199 239 287
#     4  10  19  30  48  76 105 130 161 204 248 286
#     4   9  19  36  54  70  93 128 165 199 242 298
#
# _framework density 17.538225000000001
#
# number of rings (size 3 to 8) (size 9 to 14) (size 15 to 20)
#    0.000    3.000    0.000    3.500    0.000    3.333 
#    0.000    1.667    0.000    2.500    0.000    2.333 
#    0.000    0.000    0.000    0.000    0.000    0.000 
#
# Total GULP energy -297326.514363 kJ/mol
# GULP energy per Si atom -12388.604765 kJ/mol
# Density = 1.749831 g / cm^3
# Si number density = 17.538225 Si / 1000 Ang^3
#
#
#
# Elastic Constant Matrix: (Units=GPa)
#
#
# Indices 1 2 3 4 5 6 
#
# 1 104.9845 50.5570 60.7565 0.0000 0.0000 0.0000
# 2 50.5570 77.5424 45.4168 0.0000 0.0000 0.0000
# 3 60.7565 45.4168 75.7522 0.0000 0.0000 0.0000
# 4 0.0000 0.0000 0.0000 24.7348 0.0000 0.0000
# 5 0.0000 0.0000 0.0000 0.0000 0.9766 0.0000
# 6 0.0000 0.0000 0.0000 0.0000 0.0000 28.3622
#
#
#
# Elastic Compliance Matrix: (Units=1/GPa)
#
#
# Indices 1 2 3 4 5 6 
#
# 1 0.019125 -0.005372 -0.012119 0.000000 0.000000 0.000000
# 2 -0.005372 0.021384 -0.008513 0.000000 0.000000 0.000000
# 3 -0.012119 -0.008513 0.028024 0.000000 0.000000 0.000000
# 4 0.000000 0.000000 0.000000 0.040429 0.000000 0.000000
# 5 0.000000 0.000000 0.000000 0.000000 1.023918 0.000000
# 6 0.000000 0.000000 0.000000 0.000000 0.000000 0.035258
#
#
# Mechanical properties :
#
#
# Convention : Reuss Voigt Hill
#
# Bulk Modulus (GPa) = 60.50321 63.52663 62.01492
# Shear Modulus (GPa) = 4.07945 17.58463 10.83204
#
# Velocity S-wave (km/s) = 1.52679 3.16989 2.48790
# Velocity P-wave (km/s) = 6.13848 7.04969 6.60980
#
# Compressibility (1/GPa) = 0.01652805
#
# Stress axis : x y z
#
# Youngs Moduli (GPa) = 52.28650 46.76343 35.68310
#
# Poissons Ratio (x) = 0.25119 0.43244
# Poissons Ratio (y) = 0.28086 0.30376
# Poissons Ratio (z) = 0.63365 0.39808
#
# Static dielectric constant tensor:
#      x y z
#    x 3.951020 0.000000 0.000000 
#    y 0.000000 3.205300 0.000000 
#    z 0.000000 0.000000 2.854080 
# 
# 
# High freq. dielectric constant tensor:
#      x y z
#    x 1.699080 0.000000 0.000000 
#    y 0.000000 1.665650 0.000000 
#    z 0.000000 0.000000 1.633400 
# 
# From -- ./inp_files/18160.got.cif
#   From: 2010.03.12/outbox.cif.g09.slc.cpg/sg38_10_cif.got.tgz:18160.got - 2010.04.14 02:38:36.
