data_PCOD8178399
_publ_section_title
;
Structure prediction by ZEFSAII (Michael W. Deem and Ramdas Pophale) SiO2 
 PCOD8178399
Probable space group: A M M 2
;
_chemical_formula_sum "Si O2"
_cell_formula_units_Z 64
_cell_length_a 13.758096
_cell_length_b 13.588242
_cell_length_c 18.682410
_cell_angle_alpha 90.000000
_cell_angle_beta 90.000000
_cell_angle_gamma 90.000000
_cell_volume 3492.645498
_symmetry_space_group_name_H-M "A M M 2"
_symmetry_group_IT_number 38
_symmetry_cell_setting 'orthorhombic'
loop_
_space_group_symop_operation_xyz
x,y,z
-x,-y,z
-x,y,z
x,-y,z
x,1/2+y,1/2+z
-x,1/2-y,1/2+z
-x,1/2+y,1/2+z
x,1/2-y,1/2+z
loop_
_atom_site_type_symbol
_atom_site_label
_atom_site_fract_x
_atom_site_fract_y
_atom_site_fract_z
Si Si1 0.393994 0.883223 0.689130
Si Si2 0.212235 0.791291 0.465851
Si Si3 0.887275 0.299817 0.108261
Si Si4 0.611513 0.386176 0.025269
Si Si5 0.107327 0.883965 0.336154
Si Si6 0.884434 0.107636 0.179813
Si Si7 0.114547 0.114740 0.899320
Si Si8 0.803905 0.384565 0.248777
O O1 0.500000 0.841370 0.713847
O O2 0.372920 0.852774 0.607365
O O3 0.306382 0.842128 0.738918
O O4 0.397607 0.000000 0.692916
O O5 0.165687 0.838845 0.537515
O O6 0.327245 0.810812 0.475197
O O7 0.180127 0.851058 0.396897
O O8 0.178354 0.677319 0.456407
O O9 0.851020 0.187416 0.121752
O O10 0.866639 0.364801 0.178057
O O11 0.000000 0.304185 0.091641
O O12 0.500000 0.373598 0.002551
O O13 0.644105 0.500000 0.014478
O O14 0.149619 0.853135 0.258079
O O15 0.000000 0.837490 0.349938
O O16 0.097960 0.000000 0.336032
O O17 0.000000 0.099754 0.182783
O O18 0.840279 0.000000 0.160669
O O19 0.144132 0.156721 0.820463
O O20 0.000000 0.132237 0.911896
O O21 0.140452 0.000000 0.909482
O O22 0.798346 0.500000 0.259240
#
# Coordination Sequence:
#
# PCOD8178399 Si02
#       8
#     8   8   8   8   8   8   8   8
#     4   8  14  28  51  76 100 126 160 206 261 316
#     4  12  21  32  50  75 104 134 173 214 261 312
#     4  11  21  29  44  72 100 127 166 217 262 301
#     4   9  18  34  55  79 108 137 164 206 271 338
#     4   9  17  29  46  69  99 132 162 200 258 320
#     4   8  16  32  49  63  85 124 171 211 244 283
#     4  10  22  38  52  68 102 154 194 215 248 304
#     4  10  19  33  51  73 102 137 174 210 257 315
#
# _framework density 18.324217999999998
#
# number of rings (size 3 to 8) (size 9 to 14) (size 15 to 20)
#    0.000    2.375    1.250    4.125    0.000    2.750 
#    0.000    1.875    0.000    1.125    0.000    0.000 
#    0.000    0.500    0.000    0.000    0.000    0.000 
#
# Total GULP energy -396560.974135 kJ/mol
# GULP energy per Si atom -12392.530442 kJ/mol
# Density = 1.828251 g / cm^3
# Si number density = 18.324218 Si / 1000 Ang^3
#
#
#
# Elastic Constant Matrix: (Units=GPa)
#
#
# Indices 1 2 3 4 5 6 
#
# 1 94.3491 26.7427 31.4707 0.0000 0.0000 0.0000
# 2 26.7427 24.8349 11.1912 0.0000 0.0000 0.0000
# 3 31.4707 11.1912 62.8097 0.0000 0.0000 0.0000
# 4 0.0000 0.0000 0.0000 20.4758 0.0000 0.0000
# 5 0.0000 0.0000 0.0000 0.0000 24.4644 0.0000
# 6 0.0000 0.0000 0.0000 0.0000 0.0000 22.4952
#
#
#
# Elastic Compliance Matrix: (Units=1/GPa)
#
#
# Indices 1 2 3 4 5 6 
#
# 1 0.016942 -0.015677 -0.005696 0.000000 0.000000 0.000000
# 2 -0.015677 0.058288 -0.002530 0.000000 0.000000 0.000000
# 3 -0.005696 -0.002530 0.019226 0.000000 0.000000 0.000000
# 4 0.000000 0.000000 0.000000 0.048838 0.000000 0.000000
# 5 0.000000 0.000000 0.000000 0.000000 0.040876 0.000000
# 6 0.000000 0.000000 0.000000 0.000000 0.000000 0.044454
#
#
# Mechanical properties :
#
#
# Convention : Reuss Voigt Hill
#
# Bulk Modulus (GPa) = 21.43660 35.64479 28.54070
# Shear Modulus (GPa) = 17.12445 20.99302 19.05873
#
# Velocity S-wave (km/s) = 3.06032 3.38841 3.22853
# Velocity P-wave (km/s) = 4.92050 5.89940 5.43204
#
# Compressibility (1/GPa) = 0.04664918
#
# Stress axis : x y z
#
# Youngs Moduli (GPa) = 59.02351 17.15627 52.01354
#
# Poissons Ratio (x) = 0.26896 0.29625
# Poissons Ratio (y) = 0.92533 0.13162
# Poissons Ratio (z) = 0.33618 0.04341
#
# Static dielectric constant tensor:
#      x y z
#    x 3.438540 0.000000 0.000000 
#    y 0.000000 3.384640 0.000000 
#    z 0.000000 0.000000 3.400830 
# 
# 
# High freq. dielectric constant tensor:
#      x y z
#    x 1.686940 0.000000 0.000000 
#    y 0.000000 1.697770 0.000000 
#    z 0.000000 0.000000 1.704730 
# 
# From -- ./inp_files/18539.got.cif
#   From: 2010.03.12/outbox.cif.g09.slc.cpg/sg38_10_cif.got.tgz:18539.got - 2010.04.14 02:38:36.
