data_PCOD8178601
_publ_section_title
;
Structure prediction by ZEFSAII (Michael W. Deem and Ramdas Pophale) SiO2 
 PCOD8178601
Probable space group: A M M 2
;
_chemical_formula_sum "Si O2"
_cell_formula_units_Z 48
_cell_length_a 8.394418
_cell_length_b 31.494812
_cell_length_c 9.010610
_cell_angle_alpha 90.000000
_cell_angle_beta 90.000000
_cell_angle_gamma 90.000000
_cell_volume 2382.230629
_symmetry_space_group_name_H-M "A M M 2"
_symmetry_group_IT_number 38
_symmetry_cell_setting 'orthorhombic'
loop_
_space_group_symop_operation_xyz
x,y,z
-x,-y,z
-x,y,z
x,-y,z
x,1/2+y,1/2+z
-x,1/2-y,1/2+z
-x,1/2+y,1/2+z
x,1/2-y,1/2+z
loop_
_atom_site_type_symbol
_atom_site_label
_atom_site_fract_x
_atom_site_fract_y
_atom_site_fract_z
Si Si1 0.815835 0.289662 0.445940
Si Si2 0.178851 0.544739 0.956111
Si Si3 0.684805 0.633063 0.616255
Si Si4 0.682861 0.786760 0.627808
Si Si5 0.821177 0.453868 0.603980
Si Si6 0.810985 0.863666 0.443349
O O1 0.754530 0.335791 0.492769
O O2 0.713314 0.254193 0.528097
O O3 0.795185 0.284962 0.270339
O O4 0.000000 0.283598 0.486641
O O5 0.264470 0.500000 0.009098
O O6 0.175750 0.545028 0.779997
O O7 0.254412 0.590113 0.003703
O O8 0.000000 0.543480 0.018264
O O9 0.500000 0.641664 0.642491
O O10 0.710322 0.585201 0.553105
O O11 0.777105 0.641589 0.769158
O O12 0.500000 0.787201 0.678968
O O13 0.717537 0.828578 0.533420
O O14 0.757809 0.500000 0.545324
O O15 0.000000 0.446176 0.543709
O O16 0.000000 0.859270 0.467507
#
# Coordination Sequence:
#
# PCOD8178601 Si02
#       6
#     8   8   8   8   8   8
#     4  12  25  43  63  83 108 144 187 226 271 334
#     4   7  11  22  44  74 106 140 181 226 264 303
#     4  11  21  34  54  84 118 150 185 232 285 327
#     4  12  25  42  61  85 114 142 177 228 285 332
#     4   8  14  27  48  75 108 147 189 230 272 323
#     4  10  19  34  56  83 114 151 191 228 271 329
#
# _framework density 20.149180999999999
#
# number of rings (size 3 to 8) (size 9 to 14) (size 15 to 20)
#    0.000    2.000    0.000    8.000    0.000    0.333 
#    0.000    0.000    0.000    2.500    0.000    2.333 
#    0.000    0.000    0.000    0.000    0.000    0.000 
#
# Total GULP energy -297398.382270 kJ/mol
# GULP energy per Si atom -12391.599261 kJ/mol
# Density = 2.010332 g / cm^3
# Si number density = 20.149181 Si / 1000 Ang^3
#
#
#
# Elastic Constant Matrix: (Units=GPa)
#
#
# Indices 1 2 3 4 5 6 
#
# 1 78.7795 28.1114 0.1883 0.0000 0.0000 0.0000
# 2 28.1114 157.3282 44.0375 0.0000 0.0000 0.0000
# 3 0.1883 44.0375 53.1223 0.0000 0.0000 0.0000
# 4 0.0000 0.0000 0.0000 16.7715 0.0000 0.0000
# 5 0.0000 0.0000 0.0000 0.0000 22.7339 0.0000
# 6 0.0000 0.0000 0.0000 0.0000 0.0000 20.9258
#
#
#
# Elastic Compliance Matrix: (Units=1/GPa)
#
#
# Indices 1 2 3 4 5 6 
#
# 1 0.013829 -0.003200 0.002604 0.000000 0.000000 0.000000
# 2 -0.003200 0.009017 -0.007464 0.000000 0.000000 0.000000
# 3 0.002604 -0.007464 0.025002 0.000000 0.000000 0.000000
# 4 0.000000 0.000000 0.000000 0.059625 0.000000 0.000000
# 5 0.000000 0.000000 0.000000 0.000000 0.043987 0.000000
# 6 0.000000 0.000000 0.000000 0.000000 0.000000 0.047788
#
#
# Mechanical properties :
#
#
# Convention : Reuss Voigt Hill
#
# Bulk Modulus (GPa) = 31.51689 48.21160 39.86424
# Shear Modulus (GPa) = 22.12932 26.54577 24.33754
#
# Velocity S-wave (km/s) = 3.31762 3.63362 3.47921
# Velocity P-wave (km/s) = 5.50919 6.44853 5.99728
#
# Compressibility (1/GPa) = 0.03172902
#
# Stress axis : x y z
#
# Youngs Moduli (GPa) = 72.31068 110.90170 39.99607
#
# Poissons Ratio (x) = 0.35486 -0.10413
# Poissons Ratio (y) = 0.23138 0.29851
# Poissons Ratio (z) = -0.18826 0.82773
#
# Static dielectric constant tensor:
#      x y z
#    x 3.488350 0.000000 0.000000 
#    y 0.000000 4.590830 0.000000 
#    z 0.000000 0.000000 3.167350 
# 
# 
# High freq. dielectric constant tensor:
#      x y z
#    x 1.769780 0.000000 0.000000 
#    y 0.000000 1.821270 0.000000 
#    z 0.000000 0.000000 1.736390 
# 
# From -- ./inp_files/3790.got.cif
#   From: 2010.03.12/outbox.cif.g09.slc.cpg/sg38_2_cif.got.tgz:3790.got - 2010.04.14 02:38:36.
