data_PCOD8178129
_publ_section_title
;
Structure prediction by ZEFSAII (Michael W. Deem and Ramdas Pophale) SiO2 
 PCOD8178129
Probable space group: A M M 2
;
_chemical_formula_sum "Si O2"
_cell_formula_units_Z 48
_cell_length_a 9.040915
_cell_length_b 30.609977
_cell_length_c 9.257114
_cell_angle_alpha 90.000000
_cell_angle_beta 90.000000
_cell_angle_gamma 90.000000
_cell_volume 2561.834096
_symmetry_space_group_name_H-M "A M M 2"
_symmetry_group_IT_number 38
_symmetry_cell_setting 'orthorhombic'
loop_
_space_group_symop_operation_xyz
x,y,z
-x,-y,z
-x,y,z
x,-y,z
x,1/2+y,1/2+z
-x,1/2-y,1/2+z
-x,1/2+y,1/2+z
x,1/2-y,1/2+z
loop_
_atom_site_type_symbol
_atom_site_label
_atom_site_fract_x
_atom_site_fract_y
_atom_site_fract_z
Si Si1 0.176649 0.790378 0.223140
Si Si2 0.825071 0.127193 0.399871
Si Si3 0.671870 0.949439 0.904437
Si Si4 0.175896 0.206695 0.896604
Si Si5 0.175888 0.878042 0.724846
Si Si6 0.172342 0.049647 0.199988
O O1 0.239782 0.832728 0.306494
O O2 0.237139 0.747474 0.304513
O O3 0.000000 0.790642 0.221161
O O4 0.238073 0.790752 0.059545
O O5 0.764784 0.129760 0.562661
O O6 0.776721 0.081159 0.329547
O O7 0.000000 0.131408 0.402601
O O8 0.500000 0.938002 0.905576
O O9 0.752865 0.922607 0.780158
O O10 0.701912 0.000000 0.870776
O O11 0.737990 0.936398 0.058985
O O12 0.231394 0.162117 0.822906
O O13 0.000000 0.208072 0.897725
O O14 0.000000 0.882939 0.728972
O O15 0.000000 0.055910 0.163441
O O16 0.207747 0.000000 0.247125
#
# Coordination Sequence:
#
# PCOD8178129 Si02
#       6
#     8   8   8   8   8   8
#     4   9  15  24  39  64 100 133 161 198 242 284
#     4   9  17  28  45  72 103 131 162 202 245 289
#     4  10  21  36  52  71  96 127 163 201 243 293
#     4   9  16  25  41  67  99 132 163 198 240 284
#     4  10  19  31  49  74 101 129 163 201 243 289
#     4   9  17  31  51  73  97 127 164 205 247 289
#
# _framework density 18.736577
#
# number of rings (size 3 to 8) (size 9 to 14) (size 15 to 20)
#    0.000    2.667    0.000    2.500    0.000    8.333 
#    0.000    2.500    0.000    2.000    0.000   10.500 
#    0.000    0.000    0.000    0.000    0.000    0.000 
#
# Total GULP energy -297608.074552 kJ/mol
# GULP energy per Si atom -12400.336440 kJ/mol
# Density = 1.869393 g / cm^3
# Si number density = 18.736577 Si / 1000 Ang^3
#
#
#
# Elastic Constant Matrix: (Units=GPa)
#
#
# Indices 1 2 3 4 5 6 
#
# 1 24.4844 26.2597 27.0731 0.0000 0.0000 0.0000
# 2 26.2597 128.9952 93.0330 0.0000 0.0000 0.0000
# 3 27.0731 93.0330 187.9220 0.0000 0.0000 0.0000
# 4 0.0000 0.0000 0.0000 43.4876 0.0000 0.0000
# 5 0.0000 0.0000 0.0000 0.0000 3.2973 0.0000
# 6 0.0000 0.0000 0.0000 0.0000 0.0000 9.6730
#
#
#
# Elastic Compliance Matrix: (Units=1/GPa)
#
#
# Indices 1 2 3 4 5 6 
#
# 1 0.053789 -0.008338 -0.003621 0.000000 0.000000 0.000000
# 2 -0.008338 0.013350 -0.005408 0.000000 0.000000 0.000000
# 3 -0.003621 -0.005408 0.008520 0.000000 0.000000 0.000000
# 4 0.000000 0.000000 0.000000 0.022995 0.000000 0.000000
# 5 0.000000 0.000000 0.000000 0.000000 0.303277 0.000000
# 6 0.000000 0.000000 0.000000 0.000000 0.000000 0.103380
#
#
# Mechanical properties :
#
#
# Convention : Reuss Voigt Hill
#
# Bulk Modulus (GPa) = 24.43500 70.45925 47.44712
# Shear Modulus (GPa) = 9.03036 24.29396 16.66216
#
# Velocity S-wave (km/s) = 2.19775 3.60475 2.98532
# Velocity P-wave (km/s) = 4.41699 7.41704 6.10419
#
# Compressibility (1/GPa) = 0.04092491
#
# Stress axis : x y z
#
# Youngs Moduli (GPa) = 18.59102 74.90768 117.36818
#
# Poissons Ratio (x) = 0.62460 0.42502
# Poissons Ratio (y) = 0.15502 0.63469
# Poissons Ratio (z) = 0.06732 0.40508
#
# Static dielectric constant tensor:
#      x y z
#    x 2.846540 0.000000 0.000000 
#    y 0.000000 3.613090 0.000000 
#    z 0.000000 0.000000 3.642670 
# 
# 
# High freq. dielectric constant tensor:
#      x y z
#    x 1.660800 0.000000 0.000000 
#    y 0.000000 1.743490 0.000000 
#    z 0.000000 0.000000 1.737650 
# 
# From -- ./inp_files/3748.got.cif
#   From: 2010.03.12/outbox.cif.g09.slc.cpg/sg38_2_cif.got.tgz:3748.got - 2010.04.14 02:38:36.
