data_PCOD8178694
_publ_section_title
;
Structure prediction by ZEFSAII (Michael W. Deem and Ramdas Pophale) SiO2 
 PCOD8178694
Probable space group: A M M 2
;
_chemical_formula_sum "Si O2"
_cell_formula_units_Z 56
_cell_length_a 8.917416
_cell_length_b 18.520838
_cell_length_c 17.088156
_cell_angle_alpha 90.000000
_cell_angle_beta 90.000000
_cell_angle_gamma 90.000000
_cell_volume 2822.245961
_symmetry_space_group_name_H-M "A M M 2"
_symmetry_group_IT_number 38
_symmetry_cell_setting 'orthorhombic'
loop_
_space_group_symop_operation_xyz
x,y,z
-x,-y,z
-x,y,z
x,-y,z
x,1/2+y,1/2+z
-x,1/2-y,1/2+z
-x,1/2+y,1/2+z
x,1/2-y,1/2+z
loop_
_atom_site_type_symbol
_atom_site_label
_atom_site_fract_x
_atom_site_fract_y
_atom_site_fract_z
Si Si1 0.821718 0.419726 0.793970
Si Si2 0.672621 0.082795 0.581888
Si Si3 0.322097 0.691949 0.382645
Si Si4 0.177523 0.167954 0.443976
Si Si5 0.672393 0.698639 0.204695
Si Si6 0.823568 0.083447 0.989016
Si Si7 0.177664 0.164884 0.144131
O O1 0.753871 0.500000 0.796441
O O2 0.765367 0.377966 0.870196
O O3 0.758320 0.379870 0.717657
O O4 0.000000 0.422793 0.791581
O O5 0.500000 0.087261 0.554655
O O6 0.774397 0.125803 0.521083
O O7 0.692920 0.119169 0.667235
O O8 0.727002 0.000000 0.587723
O O9 0.500000 0.694554 0.386893
O O10 0.253310 0.753785 0.438136
O O11 0.264199 0.699317 0.293203
O O12 0.263407 0.615369 0.414468
O O13 0.000000 0.178950 0.444956
O O14 0.500000 0.722247 0.205170
O O15 0.760486 0.754178 0.149161
O O16 0.000000 0.093589 0.976519
O O17 0.780394 0.000000 0.998352
O O18 0.766638 0.125546 0.065964
O O19 0.000000 0.168381 0.146311
#
# Coordination Sequence:
#
# PCOD8178694 Si02
#       7
#     8   8   8   8   8   8   8
#     4   9  17  30  52  82 114 147 182 224 277 337
#     4  10  22  40  60  83 115 154 194 240 294 346
#     4  11  23  39  60  85 116 155 199 241 285 341
#     4  11  21  36  59  87 118 151 192 238 288 346
#     4  10  22  39  59  83 113 152 197 241 285 340
#     4  10  22  39  60  88 120 152 190 239 293 346
#     4  10  19  35  59  85 114 150 190 232 285 346
#
# _framework density 19.842352999999999
#
# number of rings (size 3 to 8) (size 9 to 14) (size 15 to 20)
#    0.000    1.857    1.429    2.571    0.000    7.429 
#    0.000    1.429    0.000    2.143    0.000    0.000 
#    0.000    0.000    0.000    0.000    0.000    0.000 
#
# Total GULP energy -347297.673940 kJ/mol
# GULP energy per Si atom -12403.488355 kJ/mol
# Density = 1.979719 g / cm^3
# Si number density = 19.842353 Si / 1000 Ang^3
#
#
#
# Elastic Constant Matrix: (Units=GPa)
#
#
# Indices 1 2 3 4 5 6 
#
# 1 45.2284 37.1867 33.1510 0.0000 0.0000 0.0000
# 2 37.1867 138.3001 66.9080 0.0000 0.0000 0.0000
# 3 33.1510 66.9080 99.0371 0.0000 0.0000 0.0000
# 4 0.0000 0.0000 0.0000 33.1683 0.0000 0.0000
# 5 0.0000 0.0000 0.0000 0.0000 25.9628 0.0000
# 6 0.0000 0.0000 0.0000 0.0000 0.0000 20.8571
#
#
#
# Elastic Compliance Matrix: (Units=1/GPa)
#
#
# Indices 1 2 3 4 5 6 
#
# 1 0.031464 -0.004999 -0.007155 0.000000 0.000000 0.000000
# 2 -0.004999 0.011536 -0.006120 0.000000 0.000000 0.000000
# 3 -0.007155 -0.006120 0.016627 0.000000 0.000000 0.000000
# 4 0.000000 0.000000 0.000000 0.030149 0.000000 0.000000
# 5 0.000000 0.000000 0.000000 0.000000 0.038517 0.000000
# 6 0.000000 0.000000 0.000000 0.000000 0.000000 0.047945
#
#
# Mechanical properties :
#
#
# Convention : Reuss Voigt Hill
#
# Bulk Modulus (GPa) = 43.32918 61.89523 52.61220
# Shear Modulus (GPa) = 22.67793 25.68563 24.18178
#
# Velocity S-wave (km/s) = 3.38436 3.60180 3.49477
# Velocity P-wave (km/s) = 6.09557 6.96839 6.54654
#
# Compressibility (1/GPa) = 0.02307914
#
# Stress axis : x y z
#
# Youngs Moduli (GPa) = 31.78191 86.68884 60.14366
#
# Poissons Ratio (x) = 0.43333 0.43034
# Poissons Ratio (y) = 0.15887 0.36808
# Poissons Ratio (z) = 0.22740 0.53053
#
# Static dielectric constant tensor:
#      x y z
#    x 3.315730 0.000000 0.000000 
#    y 0.000000 3.739710 0.000000 
#    z 0.000000 0.000000 3.758940 
# 
# 
# High freq. dielectric constant tensor:
#      x y z
#    x 1.750530 0.000000 0.000000 
#    y 0.000000 1.784140 0.000000 
#    z 0.000000 0.000000 1.782470 
# 
# From -- ./inp_files/12436.got.cif
#   From: 2010.03.12/outbox.cif.g09.slc.cpg/sg38_7_cif.got.tgz:12436.got - 2010.04.14 02:38:36.
