data_PCOD8178979
_publ_section_title
;
Structure prediction by ZEFSAII (Michael W. Deem and Ramdas Pophale) SiO2 
 PCOD8178979
Probable space group: A M M 2
;
_chemical_formula_sum "Si O2"
_cell_formula_units_Z 64
_cell_length_a 14.242410
_cell_length_b 8.880530
_cell_length_c 28.515268
_cell_angle_alpha 90.000000
_cell_angle_beta 90.000000
_cell_angle_gamma 90.000000
_cell_volume 3606.615353
_symmetry_space_group_name_H-M "A M M 2"
_symmetry_group_IT_number 38
_symmetry_cell_setting 'orthorhombic'
loop_
_space_group_symop_operation_xyz
x,y,z
-x,-y,z
-x,y,z
x,-y,z
x,1/2+y,1/2+z
-x,1/2-y,1/2+z
-x,1/2+y,1/2+z
x,1/2-y,1/2+z
loop_
_atom_site_type_symbol
_atom_site_label
_atom_site_fract_x
_atom_site_fract_y
_atom_site_fract_z
Si Si1 0.757400 0.677596 0.295730
Si Si2 0.750548 0.176658 0.547391
Si Si3 0.603749 0.177550 0.723767
Si Si4 0.108865 0.676799 0.724422
Si Si5 0.747788 0.322275 0.403139
Si Si6 0.892848 0.323094 0.969368
Si Si7 0.606746 0.321239 0.971222
Si Si8 0.757799 0.179177 0.651840
O O1 0.773408 0.500000 0.290339
O O2 0.661027 0.727838 0.270009
O O3 0.845384 0.759341 0.271881
O O4 0.750640 0.728738 0.349301
O O5 0.844844 0.218910 0.518953
O O6 0.660447 0.235423 0.518076
O O7 0.753997 0.247977 0.599252
O O8 0.740915 0.000000 0.553768
O O9 0.500000 0.253142 0.723664
O O10 0.661490 0.228169 0.677669
O O11 0.592056 0.000000 0.723587
O O12 0.126017 0.500000 0.722264
O O13 0.153302 0.751183 0.678221
O O14 0.000000 0.719292 0.725339
O O15 0.741630 0.500000 0.408487
O O16 0.842637 0.263926 0.427287
O O17 0.655066 0.250303 0.425755
O O18 0.883044 0.500000 0.959442
O O19 0.000000 0.269974 0.971789
O O20 0.500000 0.265293 0.974253
O O21 0.614234 0.500000 0.966402
O O22 0.770212 0.000000 0.652400
#
# Coordination Sequence:
#
# PCOD8178979 Si02
#       8
#     8   8   8   8   8   8   8   8
#     4   9  19  34  51  71  94 125 163 200 239 284
#     4   8  15  29  49  73  98 125 162 203 238 278
#     4   8  14  26  45  69  94 117 146 187 231 273
#     4  10  21  35  50  70  97 128 161 199 245 295
#     4  10  20  33  50  73 100 128 162 206 251 294
#     4   9  18  33  51  70  95 128 165 203 244 294
#     4   9  18  33  52  74 102 135 169 204 242 288
#     4   9  17  30  50  74  98 126 160 198 240 284
#
# _framework density 17.745168
#
# number of rings (size 3 to 8) (size 9 to 14) (size 15 to 20)
#    0.000    3.000    0.000    2.250    0.000    4.500 
#    0.000   10.000    0.000    6.000    0.000    0.000 
#    0.000    0.000    0.000    0.000    0.000    0.000 
#
# Total GULP energy -396720.885457 kJ/mol
# GULP energy per Si atom -12397.527671 kJ/mol
# Density = 1.770478 g / cm^3
# Si number density = 17.745168 Si / 1000 Ang^3
#
#
#
# Elastic Constant Matrix: (Units=GPa)
#
#
# Indices 1 2 3 4 5 6 
#
# 1 173.7332 37.1555 88.5780 0.0000 0.0000 0.0000
# 2 37.1555 33.0166 36.1728 0.0000 0.0000 0.0000
# 3 88.5780 36.1728 181.6178 0.0000 0.0000 0.0000
# 4 0.0000 0.0000 0.0000 23.3393 0.0000 0.0000
# 5 0.0000 0.0000 0.0000 0.0000 11.5663 0.0000
# 6 0.0000 0.0000 0.0000 0.0000 0.0000 20.1545
#
#
#
# Elastic Compliance Matrix: (Units=1/GPa)
#
#
# Indices 1 2 3 4 5 6 
#
# 1 0.008637 -0.006529 -0.002912 0.000000 0.000000 0.000000
# 2 -0.006529 0.043678 -0.005515 0.000000 0.000000 0.000000
# 3 -0.002912 -0.005515 0.008025 0.000000 0.000000 0.000000
# 4 0.000000 0.000000 0.000000 0.042846 0.000000 0.000000
# 5 0.000000 0.000000 0.000000 0.000000 0.086458 0.000000
# 6 0.000000 0.000000 0.000000 0.000000 0.000000 0.049617
#
#
# Mechanical properties :
#
#
# Convention : Reuss Voigt Hill
#
# Bulk Modulus (GPa) = 32.86550 79.13116 55.99833
# Shear Modulus (GPa) = 17.90092 26.10943 22.00518
#
# Velocity S-wave (km/s) = 3.17957 3.83999 3.52528
# Velocity P-wave (km/s) = 5.66044 8.02188 6.94230
#
# Compressibility (1/GPa) = 0.03042704
#
# Stress axis : x y z
#
# Youngs Moduli (GPa) = 115.78045 22.89498 124.61593
#
# Poissons Ratio (x) = 0.14949 0.36288
# Poissons Ratio (y) = 0.75598 0.68723
# Poissons Ratio (z) = 0.33715 0.12626
#
# Static dielectric constant tensor:
#      x y z
#    x 3.503880 0.000000 0.000000 
#    y 0.000000 2.999870 0.000000 
#    z 0.000000 0.000000 3.505650 
# 
# 
# High freq. dielectric constant tensor:
#      x y z
#    x 1.691330 0.000000 0.000000 
#    y 0.000000 1.657650 0.000000 
#    z 0.000000 0.000000 1.691650 
# 
# From -- ./inp_files/25074.got.cif
#   From: 2010.03.12/outbox.cif.g09.slc.cpg/sg38_13_cif.got.tgz:25074.got - 2010.04.14 02:38:36.
