data_PCOD8178115
_publ_section_title
;
Structure prediction by ZEFSAII (Michael W. Deem and Ramdas Pophale) SiO2 
 PCOD8178115
Probable space group: A M M 2
;
_chemical_formula_sum "Si O2"
_cell_formula_units_Z 56
_cell_length_a 14.485495
_cell_length_b 12.950875
_cell_length_c 17.455445
_cell_angle_alpha 90.000000
_cell_angle_beta 90.000000
_cell_angle_gamma 90.000000
_cell_volume 3274.638603
_symmetry_space_group_name_H-M "A M M 2"
_symmetry_group_IT_number 38
_symmetry_cell_setting 'orthorhombic'
loop_
_space_group_symop_operation_xyz
x,y,z
-x,-y,z
-x,y,z
x,-y,z
x,1/2+y,1/2+z
-x,1/2-y,1/2+z
-x,1/2+y,1/2+z
x,1/2-y,1/2+z
loop_
_atom_site_type_symbol
_atom_site_label
_atom_site_fract_x
_atom_site_fract_y
_atom_site_fract_z
Si Si1 0.895703 0.115301 0.656600
Si Si2 0.259011 0.383574 0.631896
Si Si3 0.604567 0.122242 0.261514
Si Si4 0.108123 0.118940 0.402115
Si Si5 0.231630 0.300057 0.027041
Si Si6 0.895028 0.678636 0.735693
Si Si7 0.602555 0.121804 0.431797
O O1 0.816432 0.133203 0.593693
O O2 0.883790 0.197567 0.725118
O O3 0.000000 0.126829 0.621087
O O4 0.882837 0.000000 0.690115
O O5 0.286456 0.500000 0.608101
O O6 0.329547 0.333246 0.694408
O O7 0.255019 0.315337 0.555101
O O8 0.158185 0.383166 0.669923
O O9 0.500000 0.156523 0.243096
O O10 0.632572 0.162875 0.346806
O O11 0.614641 0.000000 0.259430
O O12 0.159748 0.199039 0.457159
O O13 0.144655 0.144406 0.317452
O O14 0.000000 0.139708 0.409197
O O15 0.133111 0.000000 0.422687
O O16 0.328159 0.346729 0.998929
O O17 0.000000 0.642517 0.728393
O O18 0.500000 0.164280 0.451751
O O19 0.599006 0.000000 0.426791
#
# Coordination Sequence:
#
# PCOD8178115 Si02
#       7
#     8   8   8   8   8   8   8
#     4   9  17  30  47  67  93 125 158 189 223 269
#     4  10  20  32  46  66  93 124 156 191 231 275
#     4   8  15  30  51  70  87 111 146 187 227 266
#     4  10  19  31  49  71  92 116 151 194 234 272
#     4  11  20  29  45  68  96 124 152 186 231 280
#     4   9  18  31  48  70  92 118 156 196 231 269
#     4   9  17  29  47  72  97 118 144 184 234 280
#
# _framework density 17.101123999999999
#
# number of rings (size 3 to 8) (size 9 to 14) (size 15 to 20)
#    0.000    2.571    0.000    3.857    0.000    4.286 
#    0.000    0.714    0.000    0.857    0.000    0.000 
#    0.000    6.857    0.000    0.000    0.000    0.000 
#
# Total GULP energy -347018.699801 kJ/mol
# GULP energy per Si atom -12393.524993 kJ/mol
# Density = 1.706220 g / cm^3
# Si number density = 17.101124 Si / 1000 Ang^3
#
#
#
# Elastic Constant Matrix: (Units=GPa)
#
#
# Indices 1 2 3 4 5 6 
#
# 1 83.2600 27.4333 42.4259 0.0000 0.0000 0.0000
# 2 27.4333 61.1085 29.8981 0.0000 0.0000 0.0000
# 3 42.4259 29.8981 81.2385 0.0000 0.0000 0.0000
# 4 0.0000 0.0000 0.0000 25.6508 0.0000 0.0000
# 5 0.0000 0.0000 0.0000 0.0000 29.7728 0.0000
# 6 0.0000 0.0000 0.0000 0.0000 0.0000 18.7638
#
#
#
# Elastic Compliance Matrix: (Units=1/GPa)
#
#
# Indices 1 2 3 4 5 6 
#
# 1 0.017148 -0.004045 -0.007467 0.000000 0.000000 0.000000
# 2 -0.004045 0.020912 -0.005584 0.000000 0.000000 0.000000
# 3 -0.007467 -0.005584 0.018264 0.000000 0.000000 0.000000
# 4 0.000000 0.000000 0.000000 0.038985 0.000000 0.000000
# 5 0.000000 0.000000 0.000000 0.000000 0.033588 0.000000
# 6 0.000000 0.000000 0.000000 0.000000 0.000000 0.053294
#
#
# Mechanical properties :
#
#
# Convention : Reuss Voigt Hill
#
# Bulk Modulus (GPa) = 45.18141 47.23573 46.20857
# Shear Modulus (GPa) = 22.34538 23.22747 22.78643
#
# Velocity S-wave (km/s) = 3.61870 3.68943 3.65424
# Velocity P-wave (km/s) = 6.62854 6.76983 6.69955
#
# Compressibility (1/GPa) = 0.02213299
#
# Stress axis : x y z
#
# Youngs Moduli (GPa) = 58.31545 47.81893 54.75300
#
# Poissons Ratio (x) = 0.19343 0.40882
# Poissons Ratio (y) = 0.23589 0.30573
# Poissons Ratio (z) = 0.43542 0.26701
#
# Static dielectric constant tensor:
#      x y z
#    x 3.420570 0.000000 0.000000 
#    y 0.000000 2.997400 0.000000 
#    z 0.000000 0.000000 3.268630 
# 
# 
# High freq. dielectric constant tensor:
#      x y z
#    x 1.672670 0.000000 0.000000 
#    y 0.000000 1.625170 0.000000 
#    z 0.000000 0.000000 1.647470 
# 
# From -- ./inp_files/14634.got.cif
#   From: 2010.03.12/outbox.cif.g09.slc.cpg/sg38_8_cif.got.tgz:14634.got - 2010.04.14 02:38:36.
