data_PCOD8178003
_publ_section_title
;
Structure prediction by ZEFSAII (Michael W. Deem and Ramdas Pophale) SiO2 
 PCOD8178003
Probable space group: A M M 2
;
_chemical_formula_sum "Si O2"
_cell_formula_units_Z 64
_cell_length_a 20.480963
_cell_length_b 9.508001
_cell_length_c 18.430139
_cell_angle_alpha 90.000000
_cell_angle_beta 90.000000
_cell_angle_gamma 90.000000
_cell_volume 3588.956565
_symmetry_space_group_name_H-M "A M M 2"
_symmetry_group_IT_number 38
_symmetry_cell_setting 'orthorhombic'
loop_
_space_group_symop_operation_xyz
x,y,z
-x,-y,z
-x,y,z
x,-y,z
x,1/2+y,1/2+z
-x,1/2-y,1/2+z
-x,1/2+y,1/2+z
x,1/2-y,1/2+z
loop_
_atom_site_type_symbol
_atom_site_label
_atom_site_fract_x
_atom_site_fract_y
_atom_site_fract_z
Si Si1 0.571802 0.657920 0.528870
Si Si2 0.805598 0.336316 0.777428
Si Si3 0.307363 0.663966 0.202316
Si Si4 0.075726 0.338040 0.524880
Si Si5 0.181158 0.837105 0.446475
Si Si6 0.071496 0.666633 0.687606
Si Si7 0.307789 0.662393 0.031981
Si Si8 0.572247 0.842428 0.201239
O O1 0.500000 0.708670 0.501254
O O2 0.585346 0.500000 0.501116
O O3 0.629126 0.757819 0.499340
O O4 0.571811 0.661483 0.615072
O O5 0.793204 0.500000 0.758126
O O6 0.750306 0.241108 0.743188
O O7 0.805703 0.310368 0.862499
O O8 0.874502 0.282641 0.744778
O O9 0.307224 0.500000 0.221830
O O10 0.375345 0.730596 0.230851
O O11 0.298177 0.690524 0.116986
O O12 0.096608 0.500000 0.517046
O O13 0.117161 0.247330 0.468856
O O14 0.089832 0.282516 0.606479
O O15 0.000000 0.317997 0.505290
O O16 0.243570 0.781417 0.491272
O O17 0.168228 0.000000 0.463308
O O18 0.066775 0.500000 0.686068
O O19 0.000000 0.727321 0.710086
O O20 0.319787 0.500000 0.014807
O O21 0.500000 0.801494 0.230355
O O22 0.590852 0.000000 0.227608
#
# Coordination Sequence:
#
# PCOD8178003 Si02
#       8
#     8   8   8   8   8   8   8   8
#     4   8  14  25  43  69  96 120 153 197 240 283
#     4  10  20  33  50  70  94 127 164 200 235 276
#     4  10  19  30  47  70  97 128 159 196 240 285
#     4   9  18  33  53  75  97 122 154 193 237 286
#     4  10  21  34  48  70  99 129 162 199 237 280
#     4   8  15  30  52  75  95 118 155 199 237 277
#     4   9  18  31  46  68  98 128 158 194 239 289
#     4   8  14  26  45  69  96 123 153 194 241 286
#
# _framework density 17.832481000000001
#
# number of rings (size 3 to 8) (size 9 to 14) (size 15 to 20)
#    0.000    3.000    0.000    2.625    0.000    2.750 
#    0.000    3.750    0.000    1.875    0.000    1.750 
#    0.000    0.000    0.000    0.000    0.000    0.000 
#
# Total GULP energy -396690.587982 kJ/mol
# GULP energy per Si atom -12396.580874 kJ/mol
# Density = 1.779189 g / cm^3
# Si number density = 17.832481 Si / 1000 Ang^3
#
#
#
# Elastic Constant Matrix: (Units=GPa)
#
#
# Indices 1 2 3 4 5 6 
#
# 1 150.9892 77.0287 53.6530 0.0000 0.0000 0.0000
# 2 77.0287 82.2264 41.2581 0.0000 0.0000 0.0000
# 3 53.6530 41.2581 51.6638 0.0000 0.0000 0.0000
# 4 0.0000 0.0000 0.0000 15.2419 0.0000 0.0000
# 5 0.0000 0.0000 0.0000 0.0000 -0.3748 0.0000
# 6 0.0000 0.0000 0.0000 0.0000 0.0000 31.4416
#
#
#
# Elastic Compliance Matrix: (Units=1/GPa)
#
#
# Indices 1 2 3 4 5 6 
#
# 1 0.013974 -0.009693 -0.006771 0.000000 0.000000 0.000000
# 2 -0.009693 0.027017 -0.011509 0.000000 0.000000 0.000000
# 3 -0.006771 -0.011509 0.035579 0.000000 0.000000 0.000000
# 4 0.000000 0.000000 0.000000 0.065609 0.000000 0.000000
# 5 0.000000 0.000000 0.000000 0.000000 -2.667851 0.000000
# 6 0.000000 0.000000 0.000000 0.000000 0.000000 0.031805
#
#
# Mechanical properties :
#
#
# Convention : Reuss Voigt Hill
#
# Bulk Modulus (GPa) = 48.48967 69.86211 59.17589
# Shear Modulus (GPa) = -2.05673 16.79102 7.36715
#
# Velocity S-wave (km/s) = -1.07511 3.07188 2.03477
# Velocity P-wave (km/s) = 5.07047 7.20027 6.22710
#
# Compressibility (1/GPa) = 0.02062295
#
# Stress axis : x y z
#
# Youngs Moduli (GPa) = 71.55992 37.01392 28.10664
#
# Poissons Ratio (x) = 0.35879 0.19032
# Poissons Ratio (y) = 0.69366 0.32347
# Poissons Ratio (z) = 0.48456 0.42599
#
# Static dielectric constant tensor:
#      x y z
#    x 3.828270 0.000000 0.000000 
#    y 0.000000 3.210660 0.000000 
#    z 0.000000 0.000000 3.024540 
# 
# 
# High freq. dielectric constant tensor:
#      x y z
#    x 1.705760 0.000000 0.000000 
#    y 0.000000 1.674400 0.000000 
#    z 0.000000 0.000000 1.655970 
# 
# From -- ./inp_files/18943.got.cif
#   From: 2010.03.12/outbox.cif.g09.slc.cpg/sg38_10_cif.got.tgz:18943.got - 2010.04.14 02:38:36.
