data_PCOD8178039
_publ_section_title
;
Structure prediction by ZEFSAII (Michael W. Deem and Ramdas Pophale) SiO2 
 PCOD8178039
Probable space group: A M M 2
;
_chemical_formula_sum "Si O2"
_cell_formula_units_Z 64
_cell_length_a 15.865474
_cell_length_b 9.453188
_cell_length_c 23.127746
_cell_angle_alpha 90.000000
_cell_angle_beta 90.000000
_cell_angle_gamma 90.000000
_cell_volume 3468.683351
_symmetry_space_group_name_H-M "A M M 2"
_symmetry_group_IT_number 38
_symmetry_cell_setting 'orthorhombic'
loop_
_space_group_symop_operation_xyz
x,y,z
-x,-y,z
-x,y,z
x,-y,z
x,1/2+y,1/2+z
-x,1/2-y,1/2+z
-x,1/2+y,1/2+z
x,1/2-y,1/2+z
loop_
_atom_site_type_symbol
_atom_site_label
_atom_site_fract_x
_atom_site_fract_y
_atom_site_fract_z
Si Si1 0.095974 0.837170 0.357620
Si Si2 0.807495 0.161568 0.648286
Si Si3 0.742570 0.833323 0.048840
Si Si4 0.097167 0.346007 0.253383
Si Si5 0.258035 0.663131 0.932228
Si Si6 0.598974 0.164519 0.338162
Si Si7 0.643969 0.664752 0.224729
Si Si8 0.409513 0.656421 0.626094
O O1 0.132645 0.762200 0.300376
O O2 0.165727 0.805160 0.405789
O O3 0.000000 0.788823 0.376133
O O4 0.093871 0.000000 0.341442
O O5 0.810460 0.262516 0.592256
O O6 0.889698 0.198926 0.686445
O O7 0.734799 0.191677 0.695813
O O8 0.804421 0.000000 0.625857
O O9 0.653715 0.791204 0.077116
O O10 0.759806 0.000000 0.043917
O O11 0.740631 0.766198 0.986310
O O12 0.141244 0.500000 0.262787
O O13 0.000000 0.359356 0.265507
O O14 0.263395 0.500000 0.951804
O O15 0.338665 0.698770 0.891865
O O16 0.500000 0.199183 0.352726
O O17 0.633510 0.260550 0.286348
O O18 0.607787 0.000000 0.320915
O O19 0.622203 0.500000 0.231946
O O20 0.580433 0.737736 0.179910
O O21 0.500000 0.650030 0.595293
O O22 0.382249 0.500000 0.648577
#
# Coordination Sequence:
#
# PCOD8178039 Si02
#       8
#     8   8   8   8   8   8   8   8
#     4   9  18  33  54  79 103 129 164 204 247 296
#     4   9  18  33  51  72 101 133 162 197 245 298
#     4  10  21  35  52  73  95 125 168 210 246 289
#     4   9  17  30  51  79 106 130 158 195 242 295
#     4  10  21  37  54  71  97 134 171 207 248 293
#     4  10  21  35  50  71 101 136 169 200 242 298
#     4  10  19  30  48  75 102 128 162 204 248 293
#     4   9  18  33  51  70  95 127 161 201 250 299
#
# _framework density 18.450804999999999
#
# number of rings (size 3 to 8) (size 9 to 14) (size 15 to 20)
#    0.000    2.500    0.000    1.875    0.000    5.000 
#    0.000    0.625    0.000    3.750    0.000    0.000 
#    0.000    0.000    0.000    0.000    0.000    0.000 
#
# Total GULP energy -396466.771469 kJ/mol
# GULP energy per Si atom -12389.586608 kJ/mol
# Density = 1.840881 g / cm^3
# Si number density = 18.450805 Si / 1000 Ang^3
#
#
#
# Elastic Constant Matrix: (Units=GPa)
#
#
# Indices 1 2 3 4 5 6 
#
# 1 56.3546 35.0930 40.6260 0.0000 0.0000 0.0000
# 2 35.0930 104.9078 87.4893 0.0000 0.0000 0.0000
# 3 40.6260 87.4893 139.3570 0.0000 0.0000 0.0000
# 4 0.0000 0.0000 0.0000 37.4739 0.0000 0.0000
# 5 0.0000 0.0000 0.0000 0.0000 15.7078 0.0000
# 6 0.0000 0.0000 0.0000 0.0000 0.0000 13.6965
#
#
#
# Elastic Compliance Matrix: (Units=1/GPa)
#
#
# Indices 1 2 3 4 5 6 
#
# 1 0.023435 -0.004495 -0.004010 0.000000 0.000000 0.000000
# 2 -0.004495 0.020870 -0.011792 0.000000 0.000000 0.000000
# 3 -0.004010 -0.011792 0.015748 0.000000 0.000000 0.000000
# 4 0.000000 0.000000 0.000000 0.026685 0.000000 0.000000
# 5 0.000000 0.000000 0.000000 0.000000 0.063662 0.000000
# 6 0.000000 0.000000 0.000000 0.000000 0.000000 0.073011
#
#
# Mechanical properties :
#
#
# Convention : Reuss Voigt Hill
#
# Bulk Modulus (GPa) = 51.39068 69.67068 60.53068
# Shear Modulus (GPa) = 18.48493 22.53638 20.51066
#
# Velocity S-wave (km/s) = 3.16863 3.49869 3.33774
# Velocity P-wave (km/s) = 6.42653 7.35957 6.90882
#
# Compressibility (1/GPa) = 0.01945878
#
# Stress axis : x y z
#
# Youngs Moduli (GPa) = 42.67198 47.91617 63.50170
#
# Poissons Ratio (x) = 0.21540 0.25461
# Poissons Ratio (y) = 0.19183 0.74879
# Poissons Ratio (z) = 0.17109 0.56501
#
# Static dielectric constant tensor:
#      x y z
#    x 3.632880 0.000000 0.000000 
#    y 0.000000 3.662850 0.000000 
#    z 0.000000 0.000000 3.247560 
# 
# 
# High freq. dielectric constant tensor:
#      x y z
#    x 1.716200 0.000000 0.000000 
#    y 0.000000 1.719000 0.000000 
#    z 0.000000 0.000000 1.701010 
# 
# From -- ./inp_files/21382.got.cif
#   From: 2010.03.12/outbox.cif.g09.slc.cpg/sg38_11_cif.got.tgz:21382.got - 2010.04.14 02:38:36.
