data_PCOD8178203
_publ_section_title
;
Structure prediction by ZEFSAII (Michael W. Deem and Ramdas Pophale) SiO2 
 PCOD8178203
Probable space group: A M M 2
;
_chemical_formula_sum "Si O2"
_cell_formula_units_Z 64
_cell_length_a 9.433271
_cell_length_b 28.418420
_cell_length_c 12.584015
_cell_angle_alpha 90.000000
_cell_angle_beta 90.000000
_cell_angle_gamma 90.000000
_cell_volume 3373.505844
_symmetry_space_group_name_H-M "A M M 2"
_symmetry_group_IT_number 38
_symmetry_cell_setting 'orthorhombic'
loop_
_space_group_symop_operation_xyz
x,y,z
-x,-y,z
-x,y,z
x,-y,z
x,1/2+y,1/2+z
-x,1/2-y,1/2+z
-x,1/2+y,1/2+z
x,1/2-y,1/2+z
loop_
_atom_site_type_symbol
_atom_site_label
_atom_site_fract_x
_atom_site_fract_y
_atom_site_fract_z
Si Si1 0.657096 0.703438 0.050720
Si Si2 0.334672 0.596913 0.982677
Si Si3 0.834994 0.612607 0.578670
Si Si4 0.167332 0.055054 0.285026
Si Si5 0.660982 0.949220 0.927879
Si Si6 0.166161 0.210197 0.982564
Si Si7 0.340769 0.178550 0.786923
Si Si8 0.336399 0.418329 0.209157
O O1 0.500000 0.717775 0.008242
O O2 0.654253 0.706729 0.177473
O O3 0.695560 0.652221 0.002305
O O4 0.777612 0.739947 0.020579
O O5 0.500000 0.587591 0.957500
O O6 0.243929 0.575546 0.887908
O O7 0.280266 0.569518 0.090628
O O8 0.779628 0.587858 0.686768
O O9 0.763153 0.588957 0.477156
O O10 0.800364 0.668398 0.568692
O O11 0.000000 0.602582 0.567861
O O12 0.000000 0.060377 0.301522
O O13 0.207613 0.000000 0.265971
O O14 0.500000 0.932327 0.947099
O O15 0.686420 0.957235 0.800297
O O16 0.688506 0.000000 0.981174
O O17 0.238097 0.202885 0.869601
O O18 0.000000 0.214076 0.964136
O O19 0.500000 0.174492 0.835458
O O20 0.269586 0.128272 0.761196
O O21 0.500000 0.405356 0.187326
#
# Coordination Sequence:
#
# PCOD8178203 Si02
#       8
#     8   8   8   8   8   8   8   8
#     4   9  20  37  57  83 112 148 190 232 285 345
#     4   9  19  37  60  84 110 143 188 235 282 337
#     4  10  22  39  55  75 109 152 192 230 279 339
#     4  10  22  40  59  79 112 159 200 237 288 344
#     4  10  19  31  53  84 110 135 174 223 275 331
#     4  11  22  34  54  84 113 146 190 237 287 341
#     4   9  17  34  57  76 104 144 180 222 277 336
#     4   8  15  31  54  79 107 138 170 216 278 333
#
# _framework density 18.971361000000002
#
# number of rings (size 3 to 8) (size 9 to 14) (size 15 to 20)
#    0.000    2.500    1.250    2.250    0.000    4.500 
#    0.000    6.250    0.000    0.000    0.000    0.000 
#    0.000    0.000    0.000    0.000    0.000    0.000 
#
# Total GULP energy -396436.751230 kJ/mol
# GULP energy per Si atom -12388.648476 kJ/mol
# Density = 1.892818 g / cm^3
# Si number density = 18.971361 Si / 1000 Ang^3
#
#
#
# Elastic Constant Matrix: (Units=GPa)
#
#
# Indices 1 2 3 4 5 6 
#
# 1 56.2117 34.8918 38.3117 0.0000 0.0000 0.0000
# 2 34.8918 78.7257 34.9638 0.0000 0.0000 0.0000
# 3 38.3117 34.9638 104.1944 0.0000 0.0000 0.0000
# 4 0.0000 0.0000 0.0000 23.9467 0.0000 0.0000
# 5 0.0000 0.0000 0.0000 0.0000 18.6331 0.0000
# 6 0.0000 0.0000 0.0000 0.0000 0.0000 27.1237
#
#
#
# Elastic Compliance Matrix: (Units=1/GPa)
#
#
# Indices 1 2 3 4 5 6 
#
# 1 0.028673 -0.009431 -0.007378 0.000000 0.000000 0.000000
# 2 -0.009431 0.018029 -0.002582 0.000000 0.000000 0.000000
# 3 -0.007378 -0.002582 0.013177 0.000000 0.000000 0.000000
# 4 0.000000 0.000000 0.000000 0.041759 0.000000 0.000000
# 5 0.000000 0.000000 0.000000 0.000000 0.053668 0.000000
# 6 0.000000 0.000000 0.000000 0.000000 0.000000 0.036868
#
#
# Mechanical properties :
#
#
# Convention : Reuss Voigt Hill
#
# Bulk Modulus (GPa) = 47.40266 50.60738 49.00502
# Shear Modulus (GPa) = 21.00943 22.67165 21.84054
#
# Velocity S-wave (km/s) = 3.33142 3.46069 3.39667
# Velocity P-wave (km/s) = 6.31177 6.53469 6.42420
#
# Compressibility (1/GPa) = 0.02109586
#
# Stress axis : x y z
#
# Youngs Moduli (GPa) = 34.87656 55.46601 75.89123
#
# Poissons Ratio (x) = 0.52311 0.55992
# Poissons Ratio (y) = 0.32893 0.19596
# Poissons Ratio (z) = 0.25732 0.14322
#
# Static dielectric constant tensor:
#      x y z
#    x 3.280500 0.000000 0.000000 
#    y 0.000000 3.525200 0.000000 
#    z 0.000000 0.000000 3.548160 
# 
# 
# High freq. dielectric constant tensor:
#      x y z
#    x 1.715210 0.000000 0.000000 
#    y 0.000000 1.737700 0.000000 
#    z 0.000000 0.000000 1.740830 
# 
# From -- ./inp_files/8614.got.cif
#   From: 2010.03.12/outbox.cif.g09.slc.cpg/sg38_5_cif.got.tgz:8614.got - 2010.04.14 02:38:36.
