data_PCOD8178542
_publ_section_title
;
Structure prediction by ZEFSAII (Michael W. Deem and Ramdas Pophale) SiO2 
 PCOD8178542
Probable space group: A M M 2
;
_chemical_formula_sum "Si O2"
_cell_formula_units_Z 48
_cell_length_a 19.035131
_cell_length_b 8.498137
_cell_length_c 14.900888
_cell_angle_alpha 90.000000
_cell_angle_beta 90.000000
_cell_angle_gamma 90.000000
_cell_volume 2410.414596
_symmetry_space_group_name_H-M "A M M 2"
_symmetry_group_IT_number 38
_symmetry_cell_setting 'orthorhombic'
loop_
_space_group_symop_operation_xyz
x,y,z
-x,-y,z
-x,y,z
x,-y,z
x,1/2+y,1/2+z
-x,1/2-y,1/2+z
-x,1/2+y,1/2+z
x,1/2-y,1/2+z
loop_
_atom_site_type_symbol
_atom_site_label
_atom_site_fract_x
_atom_site_fract_y
_atom_site_fract_z
Si Si1 0.000000 0.186809 0.340001
Si Si2 0.396116 0.314483 0.438907
Si Si3 0.500000 0.685774 0.286337
Si Si4 0.847832 0.183001 0.591177
Si Si5 0.235512 0.182825 0.931466
Si Si6 0.500000 0.685755 0.081719
Si Si7 0.851355 0.183299 0.273270
Si Si8 0.000000 0.313844 0.038993
O O1 0.930269 0.246869 0.290530
O O2 0.000000 0.259312 0.439568
O O3 0.000000 0.000000 0.346825
O O4 0.404554 0.500000 0.449879
O O5 0.432407 0.259036 0.345287
O O6 0.315758 0.260537 0.435940
O O7 0.431066 0.239435 0.527385
O O8 0.500000 0.500000 0.276617
O O9 0.500000 0.756725 0.184527
O O10 0.800361 0.287132 0.526538
O O11 0.820137 0.216444 0.691096
O O12 0.928918 0.243070 0.587812
O O13 0.840537 0.000000 0.565560
O O14 0.196836 0.289238 0.858846
O O15 0.229941 0.000000 0.905570
O O16 0.500000 0.500000 0.088182
O O17 0.851571 0.000000 0.249244
O O18 0.000000 0.500000 0.034168
#
# Coordination Sequence:
#
# PCOD8178542 Si02
#       8
#     4   8   4   8   8   4   8   4
#     4   9  17  34  58  81 108 146 190 241 300 349
#     4   9  20  39  59  80 115 155 186 224 277 333
#     4   8  16  35  60  83 108 143 179 216 266 322
#     4  11  22  38  59  82 113 151 194 244 295 350
#     4  11  23  39  58  84 116 154 198 238 285 344
#     4  10  19  33  60  93 116 141 187 230 270 330
#     4  11  22  38  59  83 114 150 192 243 297 352
#     4   9  17  34  58  81 106 146 194 241 298 349
#
# _framework density 19.913588000000001
#
# number of rings (size 3 to 8) (size 9 to 14) (size 15 to 20)
#    0.000    2.000    1.667    2.750    0.000    2.667 
#    0.000    8.333    0.000    0.000    0.000    0.000 
#    0.000    0.000    0.000    0.000    0.000    0.000 
#
# Total GULP energy -297579.900927 kJ/mol
# GULP energy per Si atom -12399.162539 kJ/mol
# Density = 1.986826 g / cm^3
# Si number density = 19.913588 Si / 1000 Ang^3
#
#
#
# Elastic Constant Matrix: (Units=GPa)
#
#
# Indices 1 2 3 4 5 6 
#
# 1 151.4316 24.5542 55.6966 0.0000 0.0000 0.0000
# 2 24.5542 38.2218 15.6865 0.0000 0.0000 0.0000
# 3 55.6966 15.6865 154.2727 0.0000 0.0000 0.0000
# 4 0.0000 0.0000 0.0000 30.7236 0.0000 0.0000
# 5 0.0000 0.0000 0.0000 0.0000 -114.0803 0.0000
# 6 0.0000 0.0000 0.0000 0.0000 0.0000 25.1937
#
#
#
# Elastic Compliance Matrix: (Units=1/GPa)
#
#
# Indices 1 2 3 4 5 6 
#
# 1 0.008225 -0.004242 -0.002538 0.000000 0.000000 0.000000
# 2 -0.004242 0.029490 -0.001467 0.000000 0.000000 0.000000
# 3 -0.002538 -0.001467 0.007548 0.000000 0.000000 0.000000
# 4 0.000000 0.000000 0.000000 0.032548 0.000000 0.000000
# 5 0.000000 0.000000 0.000000 0.000000 -0.008766 0.000000
# 6 0.000000 0.000000 0.000000 0.000000 0.000000 0.039693
#
#
# Mechanical properties :
#
#
# Convention : Reuss Voigt Hill
#
# Bulk Modulus (GPa) = 34.76055 59.53341 47.14698
# Shear Modulus (GPa) = 37.08591 4.89998 20.99295
#
# Velocity S-wave (km/s) = 4.32017 1.57034 3.25037
# Velocity P-wave (km/s) = 6.50989 5.76617 6.14929
#
# Compressibility (1/GPa) = 0.02876824
#
# Stress axis : x y z
#
# Youngs Moduli (GPa) = 121.58028 33.90932 132.49381
#
# Poissons Ratio (x) = 0.14385 0.33628
# Poissons Ratio (y) = 0.51577 0.19437
# Poissons Ratio (z) = 0.30858 0.04975
#
# Static dielectric constant tensor:
#      x y z
#    x 3.924540 0.000000 0.000000 
#    y 0.000000 3.277510 0.000000 
#    z 0.000000 0.000000 3.724990 
# 
# 
# High freq. dielectric constant tensor:
#      x y z
#    x 1.774230 0.000000 0.000000 
#    y 0.000000 1.754640 0.000000 
#    z 0.000000 0.000000 1.788170 
# 
# From -- ./inp_files/15118.got.cif
#   From: 2010.03.12/outbox.cif.g09.slc.cpg/sg38_8_cif.got.tgz:15118.got - 2010.04.14 02:38:36.
