data_PCOD8178040
_publ_section_title
;
Structure prediction by ZEFSAII (Michael W. Deem and Ramdas Pophale) SiO2 
 PCOD8178040
Probable space group: A M M 2
;
_chemical_formula_sum "Si O2"
_cell_formula_units_Z 64
_cell_length_a 13.892432
_cell_length_b 13.904222
_cell_length_c 18.749147
_cell_angle_alpha 90.000000
_cell_angle_beta 90.000000
_cell_angle_gamma 90.000000
_cell_volume 3621.650081
_symmetry_space_group_name_H-M "A M M 2"
_symmetry_group_IT_number 38
_symmetry_cell_setting 'orthorhombic'
loop_
_space_group_symop_operation_xyz
x,y,z
-x,-y,z
-x,y,z
x,-y,z
x,1/2+y,1/2+z
-x,1/2-y,1/2+z
-x,1/2+y,1/2+z
x,1/2-y,1/2+z
loop_
_atom_site_type_symbol
_atom_site_label
_atom_site_fract_x
_atom_site_fract_y
_atom_site_fract_z
Si Si1 0.395913 0.113836 0.563330
Si Si2 0.887185 0.605570 0.548307
Si Si3 0.203502 0.386897 0.996779
Si Si4 0.893673 0.886374 0.642363
Si Si5 0.114532 0.770823 0.916407
Si Si6 0.112192 0.112330 0.208894
Si Si7 0.611126 0.112439 0.725703
Si Si8 0.791096 0.288622 0.271664
O O1 0.500000 0.156665 0.539919
O O2 0.314594 0.146379 0.507248
O O3 0.370860 0.144959 0.643956
O O4 0.401661 0.000000 0.564604
O O5 0.839678 0.500000 0.540999
O O6 0.846127 0.671899 0.485518
O O7 0.866528 0.646136 0.627598
O O8 0.000000 0.595366 0.537388
O O9 0.193999 0.500000 0.984375
O O10 0.156122 0.336866 0.927770
O O11 0.148093 0.351188 0.067287
O O12 0.833182 0.853590 0.709384
O O13 0.000000 0.841704 0.648958
O O14 0.895352 0.000000 0.643152
O O15 0.160838 0.818383 0.846519
O O16 0.000000 0.769215 0.908686
O O17 0.183101 0.176111 0.258007
O O18 0.000000 0.131025 0.228602
O O19 0.136838 0.000000 0.219449
O O20 0.500000 0.129417 0.747231
O O21 0.677582 0.183918 0.773739
O O22 0.638565 0.000000 0.737162
#
# Coordination Sequence:
#
# PCOD8178040 Si02
#       8
#     8   8   8   8   8   8   8   8
#     4   8  14  28  52  79 101 122 158 209 261 312
#     4   8  16  32  49  63  86 127 174 211 241 280
#     4  10  19  33  51  73 102 137 173 208 257 317
#     4  10  19  30  48  75 103 130 165 215 271 322
#     4  11  23  33  44  70 108 144 171 201 252 310
#     4   9  18  33  52  71  95 136 187 225 248 283
#     4   9  18  34  56  82 109 133 162 210 275 338
#     4  12  21  32  50  75 104 134 174 215 261 311
#
# _framework density 17.671502
#
# number of rings (size 3 to 8) (size 9 to 14) (size 15 to 20)
#    0.000    2.375    1.250    4.125    0.000    3.250 
#    0.000    1.875    0.000    0.375    0.000    0.000 
#    0.000    0.000    0.000    0.000    0.000    0.000 
#
# Total GULP energy -396602.728565 kJ/mol
# GULP energy per Si atom -12393.835268 kJ/mol
# Density = 1.763128 g / cm^3
# Si number density = 17.671502 Si / 1000 Ang^3
#
#
#
# Elastic Constant Matrix: (Units=GPa)
#
#
# Indices 1 2 3 4 5 6 
#
# 1 99.0659 30.6100 26.5949 0.0000 0.0000 0.0000
# 2 30.6100 45.9321 17.5225 0.0000 0.0000 0.0000
# 3 26.5949 17.5225 56.4867 0.0000 0.0000 0.0000
# 4 0.0000 0.0000 0.0000 15.6577 0.0000 0.0000
# 5 0.0000 0.0000 0.0000 0.0000 20.0021 0.0000
# 6 0.0000 0.0000 0.0000 0.0000 0.0000 24.9086
#
#
#
# Elastic Compliance Matrix: (Units=1/GPa)
#
#
# Indices 1 2 3 4 5 6 
#
# 1 0.013477 -0.007442 -0.004037 0.000000 0.000000 0.000000
# 2 -0.007442 0.028802 -0.005431 0.000000 0.000000 0.000000
# 3 -0.004037 -0.005431 0.021289 0.000000 0.000000 0.000000
# 4 0.000000 0.000000 0.000000 0.063866 0.000000 0.000000
# 5 0.000000 0.000000 0.000000 0.000000 0.049995 0.000000
# 6 0.000000 0.000000 0.000000 0.000000 0.000000 0.040147
#
#
# Mechanical properties :
#
#
# Convention : Reuss Voigt Hill
#
# Bulk Modulus (GPa) = 33.61425 38.99327 36.30376
# Shear Modulus (GPa) = 19.13424 20.56417 19.84921
#
# Velocity S-wave (km/s) = 3.29412 3.41499 3.35510
# Velocity P-wave (km/s) = 5.79063 6.13703 5.96634
#
# Compressibility (1/GPa) = 0.02974929
#
# Stress axis : x y z
#
# Youngs Moduli (GPa) = 74.19848 34.71949 46.97334
#
# Poissons Ratio (x) = 0.25837 0.18963
# Poissons Ratio (y) = 0.55215 0.25511
# Poissons Ratio (z) = 0.29954 0.18856
#
# Static dielectric constant tensor:
#      x y z
#    x 3.673320 0.000000 0.000000 
#    y 0.000000 3.278010 0.000000 
#    z 0.000000 0.000000 3.152140 
# 
# 
# High freq. dielectric constant tensor:
#      x y z
#    x 1.665430 0.000000 0.000000 
#    y 0.000000 1.671430 0.000000 
#    z 0.000000 0.000000 1.666030 
# 
# From -- ./inp_files/18531.got.cif
#   From: 2010.03.12/outbox.cif.g09.slc.cpg/sg38_10_cif.got.tgz:18531.got - 2010.04.14 02:38:36.
