data_PCOD8178525
_publ_section_title
;
Structure prediction by ZEFSAII (Michael W. Deem and Ramdas Pophale) SiO2 
 PCOD8178525
Probable space group: A M M 2
;
_chemical_formula_sum "Si O2"
_cell_formula_units_Z 64
_cell_length_a 9.116023
_cell_length_b 24.700477
_cell_length_c 15.093290
_cell_angle_alpha 90.000000
_cell_angle_beta 90.000000
_cell_angle_gamma 90.000000
_cell_volume 3398.557867
_symmetry_space_group_name_H-M "A M M 2"
_symmetry_group_IT_number 38
_symmetry_cell_setting 'orthorhombic'
loop_
_space_group_symop_operation_xyz
x,y,z
-x,-y,z
-x,y,z
x,-y,z
x,1/2+y,1/2+z
-x,1/2-y,1/2+z
-x,1/2+y,1/2+z
x,1/2-y,1/2+z
loop_
_atom_site_type_symbol
_atom_site_label
_atom_site_fract_x
_atom_site_fract_y
_atom_site_fract_z
Si Si1 0.669915 0.884424 0.772290
Si Si2 0.165916 0.238658 0.003432
Si Si3 0.173569 0.858049 0.460454
Si Si4 0.668525 0.146306 0.092649
Si Si5 0.674534 0.439510 0.452993
Si Si6 0.670191 0.667488 0.787681
Si Si7 0.168381 0.721649 0.301550
Si Si8 0.667060 0.437334 0.087700
O O1 0.500000 0.868341 0.783165
O O2 0.728341 0.914758 0.859844
O O3 0.762097 0.830239 0.753849
O O4 0.696071 0.924228 0.690200
O O5 0.259163 0.203985 0.071773
O O6 0.000000 0.237571 0.037466
O O7 0.223510 0.300488 0.001517
O O8 0.180527 0.212630 0.906522
O O9 0.250436 0.866056 0.365202
O O10 0.221586 0.905272 0.525631
O O11 0.000000 0.859133 0.444934
O O12 0.500000 0.153221 0.066865
O O13 0.688877 0.133453 0.196703
O O14 0.735616 0.097370 0.033972
O O15 0.500000 0.442376 0.454914
O O16 0.739884 0.500000 0.463650
O O17 0.500000 0.675519 0.811927
O O18 0.743156 0.725654 0.772415
O O19 0.000000 0.728368 0.271439
O O20 0.500000 0.422443 0.061943
O O21 0.699268 0.500000 0.072396
#
# Coordination Sequence:
#
# PCOD8178525 Si02
#       8
#     8   8   8   8   8   8   8   8
#     4  10  19  33  56  84 113 149 187 228 279 338
#     4   9  19  34  52  77 110 146 182 224 277 333
#     4  10  22  40  59  82 110 149 193 236 291 347
#     4  10  20  33  54  84 113 145 187 229 277 331
#     4   9  17  32  55  82 113 147 183 225 272 328
#     4  10  21  36  55  82 115 149 188 237 285 337
#     4  10  20  34  52  79 114 152 188 226 277 337
#     4  10  22  39  59  85 114 147 193 245 291 338
#
# _framework density 18.831517999999999
#
# number of rings (size 3 to 8) (size 9 to 14) (size 15 to 20)
#    0.000    2.250    1.250    2.250    1.750    5.750 
#    0.000    0.625    0.000    4.500    0.000    0.000 
#    0.000    0.000    0.000    0.000    0.000    0.000 
#
# Total GULP energy -396848.025108 kJ/mol
# GULP energy per Si atom -12401.500785 kJ/mol
# Density = 1.878866 g / cm^3
# Si number density = 18.831518 Si / 1000 Ang^3
#
#
#
# Elastic Constant Matrix: (Units=GPa)
#
#
# Indices 1 2 3 4 5 6 
#
# 1 76.4959 38.6047 44.0034 0.0000 0.0000 0.0000
# 2 38.6047 100.1425 54.7648 0.0000 0.0000 0.0000
# 3 44.0034 54.7648 109.1502 0.0000 0.0000 0.0000
# 4 0.0000 0.0000 0.0000 29.6875 0.0000 0.0000
# 5 0.0000 0.0000 0.0000 0.0000 19.0216 0.0000
# 6 0.0000 0.0000 0.0000 0.0000 0.0000 18.2005
#
#
#
# Elastic Compliance Matrix: (Units=1/GPa)
#
#
# Indices 1 2 3 4 5 6 
#
# 1 0.018183 -0.004135 -0.005255 0.000000 0.000000 0.000000
# 2 -0.004135 0.014702 -0.005710 0.000000 0.000000 0.000000
# 3 -0.005255 -0.005710 0.014145 0.000000 0.000000 0.000000
# 4 0.000000 0.000000 0.000000 0.033684 0.000000 0.000000
# 5 0.000000 0.000000 0.000000 0.000000 0.052572 0.000000
# 6 0.000000 0.000000 0.000000 0.000000 0.000000 0.054943
#
#
# Mechanical properties :
#
#
# Convention : Reuss Voigt Hill
#
# Bulk Modulus (GPa) = 59.41968 62.28160 60.85064
# Shear Modulus (GPa) = 22.31744 23.27631 22.79688
#
# Velocity S-wave (km/s) = 3.44628 3.51954 3.48310
# Velocity P-wave (km/s) = 6.88895 7.04706 6.96845
#
# Compressibility (1/GPa) = 0.01682944
#
# Stress axis : x y z
#
# Youngs Moduli (GPa) = 54.99745 68.01647 70.69592
#
# Poissons Ratio (x) = 0.28127 0.37153
# Poissons Ratio (y) = 0.22743 0.40364
# Poissons Ratio (z) = 0.28903 0.38834
#
# Static dielectric constant tensor:
#      x y z
#    x 3.320240 0.000000 0.000000 
#    y 0.000000 3.391150 0.000000 
#    z 0.000000 0.000000 3.455150 
# 
# 
# High freq. dielectric constant tensor:
#      x y z
#    x 1.717880 0.000000 0.000000 
#    y 0.000000 1.720140 0.000000 
#    z 0.000000 0.000000 1.734800 
# 
# From -- ./inp_files/12732.got.cif
#   From: 2010.03.12/outbox.cif.g09.slc.cpg/sg38_7_cif.got.tgz:12732.got - 2010.04.14 02:38:36.
