data_PCOD8178472
_publ_section_title
;
Structure prediction by ZEFSAII (Michael W. Deem and Ramdas Pophale) SiO2 
 PCOD8178472
Probable space group: A M M 2
;
_chemical_formula_sum "Si O2"
_cell_formula_units_Z 48
_cell_length_a 12.572416
_cell_length_b 23.905014
_cell_length_c 7.861880
_cell_angle_alpha 90.000000
_cell_angle_beta 90.000000
_cell_angle_gamma 90.000000
_cell_volume 2362.839137
_symmetry_space_group_name_H-M "A M M 2"
_symmetry_group_IT_number 38
_symmetry_cell_setting 'orthorhombic'
loop_
_space_group_symop_operation_xyz
x,y,z
-x,-y,z
-x,y,z
x,-y,z
x,1/2+y,1/2+z
-x,1/2-y,1/2+z
-x,1/2+y,1/2+z
x,1/2-y,1/2+z
loop_
_atom_site_type_symbol
_atom_site_label
_atom_site_fract_x
_atom_site_fract_y
_atom_site_fract_z
Si Si1 0.739853 0.436995 0.159540
Si Si2 0.376216 0.675162 0.162202
Si Si3 0.880846 0.916774 0.972991
Si Si4 0.880910 0.702008 0.576526
Si Si5 0.738428 0.272780 0.864549
Si Si6 0.117545 0.564047 0.852018
O O1 0.693358 0.500000 0.121666
O O2 0.650123 0.390345 0.196433
O O3 0.811654 0.444563 0.326820
O O4 0.805643 0.411568 0.998752
O O5 0.500000 0.683473 0.193458
O O6 0.315592 0.716583 0.290819
O O7 0.348304 0.691689 0.967876
O O8 0.000000 0.941596 0.959693
O O9 0.882040 0.849994 0.947361
O O10 0.834568 0.930066 0.161769
O O11 0.795172 0.687969 0.724976
O O12 0.838270 0.756443 0.481996
O O13 0.000000 0.713932 0.646711
O O14 0.103866 0.500000 0.901463
O O15 0.000000 0.593398 0.857259
#
# Coordination Sequence:
#
# PCOD8178472 Si02
#       6
#     8   8   8   8   8   8
#     4  11  22  37  58  86 121 156 197 249 302 362
#     4  11  23  41  62  85 110 153 208 258 305 343
#     4  10  19  33  54  84 120 159 197 235 287 360
#     4  10  19  33  55  87 124 155 185 230 298 370
#     4  10  21  38  60  86 118 151 198 247 300 354
#     4   9  18  32  52  80 115 155 195 233 282 352
#
# _framework density 20.314543
#
# number of rings (size 3 to 8) (size 9 to 14) (size 15 to 20)
#    0.000    1.833    1.667    3.000    0.000    2.000 
#    0.000    1.667    0.000    0.000    0.000    2.333 
#    0.000    0.000    0.000    0.000    0.000    0.000 
#
# Total GULP energy -297437.189093 kJ/mol
# GULP energy per Si atom -12393.216212 kJ/mol
# Density = 2.026831 g / cm^3
# Si number density = 20.314543 Si / 1000 Ang^3
#
#
#
# Elastic Constant Matrix: (Units=GPa)
#
#
# Indices 1 2 3 4 5 6 
#
# 1 97.7782 30.0591 29.9145 0.0000 0.0000 0.0000
# 2 30.0591 80.0467 11.7816 0.0000 0.0000 0.0000
# 3 29.9145 11.7816 97.3941 0.0000 0.0000 0.0000
# 4 0.0000 0.0000 0.0000 24.6315 0.0000 0.0000
# 5 0.0000 0.0000 0.0000 0.0000 19.9729 0.0000
# 6 0.0000 0.0000 0.0000 0.0000 0.0000 14.0429
#
#
#
# Elastic Compliance Matrix: (Units=1/GPa)
#
#
# Indices 1 2 3 4 5 6 
#
# 1 0.012547 -0.004220 -0.003343 0.000000 0.000000 0.000000
# 2 -0.004220 0.014138 -0.000414 0.000000 0.000000 0.000000
# 3 -0.003343 -0.000414 0.011345 0.000000 0.000000 0.000000
# 4 0.000000 0.000000 0.000000 0.040598 0.000000 0.000000
# 5 0.000000 0.000000 0.000000 0.000000 0.050068 0.000000
# 6 0.000000 0.000000 0.000000 0.000000 0.000000 0.071211
#
#
# Mechanical properties :
#
#
# Convention : Reuss Voigt Hill
#
# Bulk Modulus (GPa) = 45.29902 46.52546 45.91224
# Shear Modulus (GPa) = 22.39939 25.29369 23.84654
#
# Velocity S-wave (km/s) = 3.32419 3.53243 3.42989
# Velocity P-wave (km/s) = 6.08940 6.29203 6.19155
#
# Compressibility (1/GPa) = 0.02207553
#
# Stress axis : x y z
#
# Youngs Moduli (GPa) = 79.69809 70.73011 88.14760
#
# Poissons Ratio (x) = 0.29846 0.29472
# Poissons Ratio (y) = 0.33630 0.03651
# Poissons Ratio (z) = 0.26647 0.02930
#
# Static dielectric constant tensor:
#      x y z
#    x 3.427950 0.000000 0.000000 
#    y 0.000000 3.595910 0.000000 
#    z 0.000000 0.000000 3.767040 
# 
# 
# High freq. dielectric constant tensor:
#      x y z
#    x 1.757080 0.000000 0.000000 
#    y 0.000000 1.799730 0.000000 
#    z 0.000000 0.000000 1.796980 
# 
# From -- ./inp_files/4622.got.cif
#   From: 2010.03.12/outbox.cif.g09.slc.cpg/sg38_3_cif.got.tgz:4622.got - 2010.04.14 02:38:36.
