data_PCOD8178141
_publ_section_title
;
Structure prediction by ZEFSAII (Michael W. Deem and Ramdas Pophale) SiO2 
 PCOD8178141
Probable space group: A M M 2
;
_chemical_formula_sum "Si O2"
_cell_formula_units_Z 64
_cell_length_a 9.106987
_cell_length_b 26.898060
_cell_length_c 14.646828
_cell_angle_alpha 90.000000
_cell_angle_beta 90.000000
_cell_angle_gamma 90.000000
_cell_volume 3587.891128
_symmetry_space_group_name_H-M "A M M 2"
_symmetry_group_IT_number 38
_symmetry_cell_setting 'orthorhombic'
loop_
_space_group_symop_operation_xyz
x,y,z
-x,-y,z
-x,y,z
x,-y,z
x,1/2+y,1/2+z
-x,1/2-y,1/2+z
-x,1/2+y,1/2+z
x,1/2-y,1/2+z
loop_
_atom_site_type_symbol
_atom_site_label
_atom_site_fract_x
_atom_site_fract_y
_atom_site_fract_z
Si Si1 0.173429 0.132774 0.518680
Si Si2 0.830363 0.943458 0.206889
Si Si3 0.831302 0.170081 0.874674
Si Si4 0.671494 0.282730 0.695529
Si Si5 0.169288 0.357586 0.572101
Si Si6 0.169446 0.284142 0.876989
Si Si7 0.327864 0.832292 0.693979
Si Si8 0.330540 0.441631 0.890138
O O1 0.215962 0.182531 0.463091
O O2 0.244616 0.135711 0.618319
O O3 0.240019 0.084883 0.469447
O O4 0.000000 0.126100 0.528423
O O5 0.790624 0.909678 0.119824
O O6 0.733231 0.925602 0.291992
O O7 0.000000 0.937615 0.235401
O O8 0.793430 0.000000 0.179141
O O9 0.793934 0.227150 0.900323
O O10 0.728640 0.150358 0.793391
O O11 0.000000 0.165340 0.843232
O O12 0.798371 0.137048 0.964217
O O13 0.500000 0.291136 0.702394
O O14 0.733490 0.313095 0.610738
O O15 0.741309 0.302874 0.789150
O O16 0.712665 0.225346 0.680161
O O17 0.000000 0.343059 0.588138
O O18 0.000000 0.292202 0.852965
O O19 0.500000 0.842561 0.686962
O O20 0.500000 0.425537 0.894250
O O21 0.309915 0.500000 0.905286
#
# Coordination Sequence:
#
# PCOD8178141 Si02
#       8
#     8   8   8   8   8   8   8   8
#     4  11  21  33  53  77  99 129 169 208 247 294
#     4   9  18  33  52  75 103 132 163 202 248 298
#     4   9  18  33  50  68  94 130 170 207 244 289
#     4  10  20  31  46  71 102 133 164 201 244 293
#     4  10  19  31  50  73  97 129 168 207 249 297
#     4   9  18  31  47  69  98 130 163 201 244 292
#     4  10  21  35  49  69  99 133 167 204 247 292
#     4  10  21  36  53  75 104 134 162 198 247 299
#
# _framework density 17.837776000000002
#
# number of rings (size 3 to 8) (size 9 to 14) (size 15 to 20)
#    0.000    2.250    0.000    3.000    0.000    8.250 
#    0.000    2.500    0.000    0.750    0.000    1.750 
#    0.000    0.000    0.000    0.000    0.000    0.000 
#
# Total GULP energy -396923.973597 kJ/mol
# GULP energy per Si atom -12403.874175 kJ/mol
# Density = 1.779718 g / cm^3
# Si number density = 17.837776 Si / 1000 Ang^3
#
#
#
# Elastic Constant Matrix: (Units=GPa)
#
#
# Indices 1 2 3 4 5 6 
#
# 1 79.0958 37.5466 58.3470 0.0000 0.0000 0.0000
# 2 37.5466 58.3548 53.8145 0.0000 0.0000 0.0000
# 3 58.3470 53.8145 132.8693 0.0000 0.0000 0.0000
# 4 0.0000 0.0000 0.0000 28.6084 0.0000 0.0000
# 5 0.0000 0.0000 0.0000 0.0000 10.1424 0.0000
# 6 0.0000 0.0000 0.0000 0.0000 0.0000 23.0845
#
#
#
# Elastic Compliance Matrix: (Units=1/GPa)
#
#
# Indices 1 2 3 4 5 6 
#
# 1 0.020757 -0.007900 -0.005915 0.000000 0.000000 0.000000
# 2 -0.007900 0.030360 -0.008827 0.000000 0.000000 0.000000
# 3 -0.005915 -0.008827 0.013699 0.000000 0.000000 0.000000
# 4 0.000000 0.000000 0.000000 0.034955 0.000000 0.000000
# 5 0.000000 0.000000 0.000000 0.000000 0.098596 0.000000
# 6 0.000000 0.000000 0.000000 0.000000 0.000000 0.043319
#
#
# Mechanical properties :
#
#
# Convention : Reuss Voigt Hill
#
# Bulk Modulus (GPa) = 51.20207 63.30402 57.25305
# Shear Modulus (GPa) = 17.03692 20.40785 18.72238
#
# Velocity S-wave (km/s) = 3.09383 3.38609 3.24325
# Velocity P-wave (km/s) = 6.44430 7.13115 6.79641
#
# Compressibility (1/GPa) = 0.01953046
#
# Stress axis : x y z
#
# Youngs Moduli (GPa) = 48.17750 32.93798 72.99887
#
# Poissons Ratio (x) = 0.26022 0.43179
# Poissons Ratio (y) = 0.38062 0.64437
# Poissons Ratio (z) = 0.28497 0.29075
#
# Static dielectric constant tensor:
#      x y z
#    x 3.328330 0.000000 0.000000 
#    y 0.000000 3.180480 0.000000 
#    z 0.000000 0.000000 3.306360 
# 
# 
# High freq. dielectric constant tensor:
#      x y z
#    x 1.694850 0.000000 0.000000 
#    y 0.000000 1.666880 0.000000 
#    z 0.000000 0.000000 1.689180 
# 
# From -- ./inp_files/8546.got.cif
#   From: 2010.03.12/outbox.cif.g09.slc.cpg/sg38_5_cif.got.tgz:8546.got - 2010.04.14 02:38:36.
