data_PCOD8178912
_publ_section_title
;
Structure prediction by ZEFSAII (Michael W. Deem and Ramdas Pophale) SiO2 
 PCOD8178912
Probable space group: A M M 2
;
_chemical_formula_sum "Si O2"
_cell_formula_units_Z 56
_cell_length_a 8.981722
_cell_length_b 23.715775
_cell_length_c 13.637201
_cell_angle_alpha 90.000000
_cell_angle_beta 90.000000
_cell_angle_gamma 90.000000
_cell_volume 2904.839703
_symmetry_space_group_name_H-M "A M M 2"
_symmetry_group_IT_number 38
_symmetry_cell_setting 'orthorhombic'
loop_
_space_group_symop_operation_xyz
x,y,z
-x,-y,z
-x,y,z
x,-y,z
x,1/2+y,1/2+z
-x,1/2-y,1/2+z
-x,1/2+y,1/2+z
x,1/2-y,1/2+z
loop_
_atom_site_type_symbol
_atom_site_label
_atom_site_fract_x
_atom_site_fract_y
_atom_site_fract_z
Si Si1 0.672492 0.173566 0.096080
Si Si2 0.167517 0.785079 0.603387
Si Si3 0.165367 0.217760 0.371688
Si Si4 0.677368 0.500000 0.885077
Si Si5 0.328942 0.828133 0.875735
Si Si6 0.177310 0.500000 0.098004
Si Si7 0.673015 0.392013 0.187678
Si Si8 0.327785 0.612933 0.784686
O O1 0.500000 0.191467 0.096318
O O2 0.764286 0.226004 0.142178
O O3 0.700839 0.120252 0.167810
O O4 0.723593 0.156118 0.986191
O O5 0.165164 0.778949 0.487687
O O6 0.272282 0.837138 0.630096
O O7 0.000000 0.793667 0.644594
O O8 0.238886 0.275250 0.330723
O O9 0.252780 0.162350 0.344300
O O10 0.000000 0.214241 0.328044
O O11 0.500000 0.500000 0.899733
O O12 0.734659 0.446612 0.822442
O O13 0.754622 0.500000 0.990069
O O14 0.500000 0.809381 0.876287
O O15 0.304451 0.881667 0.804477
O O16 0.230190 0.554603 0.157230
O O17 0.000000 0.500000 0.090512
O O18 0.500000 0.402780 0.162033
O O19 0.500000 0.616472 0.810030
#
# Coordination Sequence:
#
# PCOD8178912 Si02
#       8
#     8   8   8   4   8   4   8   8
#     4   9  18  34  54  79 110 142 176 218 265 316
#     4  10  20  33  51  80 113 145 179 218 266 318
#     4  10  20  32  50  78 111 143 176 216 265 317
#     4  10  22  40  59  80 106 138 177 222 265 312
#     4   9  19  35  55  79 108 140 175 215 262 314
#     4  12  26  42  59  80 106 138 175 218 265 316
#     4  11  22  37  57  80 106 141 181 221 265 313
#     4  10  20  34  54  78 105 139 179 220 266 314
#
# _framework density 19.278172000000001
#
# number of rings (size 3 to 8) (size 9 to 14) (size 15 to 20)
#    0.000    2.000    0.000    3.643    0.000    9.714 
#    0.000    0.714    0.000    3.429    0.000    1.000 
#    0.000    0.000    0.000    0.000    0.000    0.000 
#
# Total GULP energy -347191.812858 kJ/mol
# GULP energy per Si atom -12399.707602 kJ/mol
# Density = 1.923429 g / cm^3
# Si number density = 19.278172 Si / 1000 Ang^3
#
#
#
# Elastic Constant Matrix: (Units=GPa)
#
#
# Indices 1 2 3 4 5 6 
#
# 1 49.1267 36.2678 36.3600 0.0000 0.0000 0.0000
# 2 36.2678 134.7026 69.6339 0.0000 0.0000 0.0000
# 3 36.3600 69.6339 75.5168 0.0000 0.0000 0.0000
# 4 0.0000 0.0000 0.0000 30.3334 0.0000 0.0000
# 5 0.0000 0.0000 0.0000 0.0000 18.2050 0.0000
# 6 0.0000 0.0000 0.0000 0.0000 0.0000 13.4585
#
#
#
# Elastic Compliance Matrix: (Units=1/GPa)
#
#
# Indices 1 2 3 4 5 6 
#
# 1 0.031732 -0.001234 -0.014141 0.000000 0.000000 0.000000
# 2 -0.001234 0.014234 -0.012531 0.000000 0.000000 0.000000
# 3 -0.014141 -0.012531 0.031606 0.000000 0.000000 0.000000
# 4 0.000000 0.000000 0.000000 0.032967 0.000000 0.000000
# 5 0.000000 0.000000 0.000000 0.000000 0.054930 0.000000
# 6 0.000000 0.000000 0.000000 0.000000 0.000000 0.074303
#
#
# Mechanical properties :
#
#
# Convention : Reuss Voigt Hill
#
# Bulk Modulus (GPa) = 45.95501 60.42995 53.19248
# Shear Modulus (GPa) = 16.51058 20.20500 18.35779
#
# Velocity S-wave (km/s) = 2.92967 3.24091 3.08922
# Velocity P-wave (km/s) = 5.94420 6.73937 6.35424
#
# Compressibility (1/GPa) = 0.02176041
#
# Stress axis : x y z
#
# Youngs Moduli (GPa) = 31.51350 70.25573 31.63993
#
# Poissons Ratio (x) = 0.08666 0.44743
# Poissons Ratio (y) = 0.03887 0.39648
# Poissons Ratio (z) = 0.44564 0.88037
#
# Static dielectric constant tensor:
#      x y z
#    x 3.694030 0.000000 0.000000 
#    y 0.000000 3.477070 0.000000 
#    z 0.000000 0.000000 3.796450 
# 
# 
# High freq. dielectric constant tensor:
#      x y z
#    x 1.751270 0.000000 0.000000 
#    y 0.000000 1.731790 0.000000 
#    z 0.000000 0.000000 1.766200 
# 
# From -- ./inp_files/12456.got.cif
#   From: 2010.03.12/outbox.cif.g09.slc.cpg/sg38_7_cif.got.tgz:12456.got - 2010.04.14 02:38:36.
