data_PCOD8178763
_publ_section_title
;
Structure prediction by ZEFSAII (Michael W. Deem and Ramdas Pophale) SiO2 
 PCOD8178763
Probable space group: A M M 2
;
_chemical_formula_sum "Si O2"
_cell_formula_units_Z 48
_cell_length_a 15.148767
_cell_length_b 16.878046
_cell_length_c 9.683764
_cell_angle_alpha 90.000000
_cell_angle_beta 90.000000
_cell_angle_gamma 90.000000
_cell_volume 2475.960141
_symmetry_space_group_name_H-M "A M M 2"
_symmetry_group_IT_number 38
_symmetry_cell_setting 'orthorhombic'
loop_
_space_group_symop_operation_xyz
x,y,z
-x,-y,z
-x,y,z
x,-y,z
x,1/2+y,1/2+z
-x,1/2-y,1/2+z
-x,1/2+y,1/2+z
x,1/2-y,1/2+z
loop_
_atom_site_type_symbol
_atom_site_label
_atom_site_fract_x
_atom_site_fract_y
_atom_site_fract_z
Si Si1 0.844226 0.293503 0.203300
Si Si2 0.707831 0.594045 0.336114
Si Si3 0.400354 0.847167 0.599262
Si Si4 0.280240 0.909868 0.364993
Si Si5 0.313540 0.188569 0.110436
Si Si6 0.903692 0.667577 0.914749
O O1 0.796037 0.369822 0.268343
O O2 0.775960 0.237554 0.122944
O O3 0.893239 0.248856 0.327903
O O4 0.909206 0.318524 0.079958
O O5 0.716420 0.500000 0.336711
O O6 0.621407 0.624373 0.254231
O O7 0.695140 0.624551 0.490841
O O8 0.500000 0.871289 0.560896
O O9 0.329635 0.894186 0.507563
O O10 0.391465 0.751922 0.583449
O O11 0.331023 0.856921 0.252970
O O12 0.176143 0.890999 0.376609
O O13 0.289509 0.000000 0.320261
O O14 0.000000 0.631220 0.874930
#
# Coordination Sequence:
#
# PCOD8178763 Si02
#       6
#     8   8   8   8   8   8
#     4  10  19  37  57  89 115 155 198 243 294 343
#     4  11  21  36  60  88 120 153 192 245 302 353
#     4  11  23  40  63  88 118 156 200 246 294 353
#     4  11  23  39  60  90 124 156 193 245 306 351
#     4  10  20  39  61  83 114 155 201 238 286 353
#     4  11  21  36  62  89 120 160 207 247 285 348
#
# _framework density 19.386420000000001
#
# number of rings (size 3 to 8) (size 9 to 14) (size 15 to 20)
#    0.000    1.333    5.000    3.500    0.000    4.333 
#    0.000    0.000    0.000    4.500    0.000    0.000 
#    0.000    0.000    0.000    0.000    0.000    0.000 
#
# Total GULP energy -297545.895824 kJ/mol
# GULP energy per Si atom -12397.745659 kJ/mol
# Density = 1.934230 g / cm^3
# Si number density = 19.386420 Si / 1000 Ang^3
#
#
#
# Elastic Constant Matrix: (Units=GPa)
#
#
# Indices 1 2 3 4 5 6 
#
# 1 110.7474 28.8639 15.9822 0.0000 0.0000 0.0000
# 2 28.8639 114.5685 19.2520 0.0000 0.0000 0.0000
# 3 15.9822 19.2520 85.3240 0.0000 0.0000 0.0000
# 4 0.0000 0.0000 0.0000 30.1362 0.0000 0.0000
# 5 0.0000 0.0000 0.0000 0.0000 10.5951 0.0000
# 6 0.0000 0.0000 0.0000 0.0000 0.0000 8.1623
#
#
#
# Elastic Compliance Matrix: (Units=1/GPa)
#
#
# Indices 1 2 3 4 5 6 
#
# 1 0.009807 -0.002247 -0.001330 0.000000 0.000000 0.000000
# 2 -0.002247 0.009587 -0.001742 0.000000 0.000000 0.000000
# 3 -0.001330 -0.001742 0.012362 0.000000 0.000000 0.000000
# 4 0.000000 0.000000 0.000000 0.033183 0.000000 0.000000
# 5 0.000000 0.000000 0.000000 0.000000 0.094383 0.000000
# 6 0.000000 0.000000 0.000000 0.000000 0.000000 0.122515
#
#
# Mechanical properties :
#
#
# Convention : Reuss Voigt Hill
#
# Bulk Modulus (GPa) = 47.35351 48.75957 48.05654
# Shear Modulus (GPa) = 16.69360 26.21484 21.45422
#
# Velocity S-wave (km/s) = 2.93763 3.68125 3.33026
# Velocity P-wave (km/s) = 5.99878 6.57836 6.29524
#
# Compressibility (1/GPa) = 0.02111776
#
# Stress axis : x y z
#
# Youngs Moduli (GPa) = 101.96595 104.30411 80.89128
#
# Poissons Ratio (x) = 0.23440 0.10758
# Poissons Ratio (y) = 0.22915 0.14094
# Poissons Ratio (z) = 0.13561 0.18173
#
# Static dielectric constant tensor:
#      x y z
#    x 3.369830 0.000000 0.000000 
#    y 0.000000 3.464000 0.000000 
#    z 0.000000 0.000000 3.671910 
# 
# 
# High freq. dielectric constant tensor:
#      x y z
#    x 1.737210 0.000000 0.000000 
#    y 0.000000 1.744160 0.000000 
#    z 0.000000 0.000000 1.769680 
# 
# From -- ./inp_files/5453.got.cif
#   From: 2010.03.12/outbox.cif.g09.slc.cpg/sg38_3_cif.got.tgz:5453.got - 2010.04.14 02:38:36.
