data_PCOD8178277
_publ_section_title
;
Structure prediction by ZEFSAII (Michael W. Deem and Ramdas Pophale) SiO2 
 PCOD8178277
Probable space group: A M M 2
;
_chemical_formula_sum "Si O2"
_cell_formula_units_Z 48
_cell_length_a 9.445398
_cell_length_b 7.874081
_cell_length_c 34.433027
_cell_angle_alpha 90.000000
_cell_angle_beta 90.000000
_cell_angle_gamma 90.000000
_cell_volume 2560.916060
_symmetry_space_group_name_H-M "A M M 2"
_symmetry_group_IT_number 38
_symmetry_cell_setting 'orthorhombic'
loop_
_space_group_symop_operation_xyz
x,y,z
-x,-y,z
-x,y,z
x,-y,z
x,1/2+y,1/2+z
-x,1/2-y,1/2+z
-x,1/2+y,1/2+z
x,1/2-y,1/2+z
loop_
_atom_site_type_symbol
_atom_site_label
_atom_site_fract_x
_atom_site_fract_y
_atom_site_fract_z
Si Si1 0.166425 0.304433 0.551480
Si Si2 0.337099 0.807196 0.288851
Si Si3 0.341667 0.699435 0.625736
Si Si4 0.661234 0.803811 0.707479
Si Si5 0.168283 0.500000 0.910346
Si Si6 0.836924 0.810570 0.858485
Si Si7 0.832393 0.000000 0.496977
O O1 0.206459 0.500000 0.540248
O O2 0.243764 0.240785 0.590400
O O3 0.217350 0.173932 0.518084
O O4 0.000000 0.289134 0.559023
O O5 0.500000 0.744232 0.289105
O O6 0.273365 0.790342 0.245119
O O7 0.248573 0.693279 0.318362
O O8 0.323970 0.000000 0.302808
O O9 0.500000 0.778951 0.620994
O O10 0.352555 0.500000 0.625801
O O11 0.266777 0.758126 0.666184
O O12 0.500000 0.741991 0.702942
O O13 0.675477 0.000000 0.716504
O O14 0.222303 0.329606 0.888624
O O15 0.000000 0.500000 0.912572
O O16 0.233268 0.500000 0.953686
O O17 0.000000 0.770976 0.848789
O O18 0.819921 0.000000 0.876502
O O19 0.000000 0.000000 0.494611
#
# Coordination Sequence:
#
# PCOD8178277 Si02
#       7
#     8   8   8   8   4   8   4
#     4   9  18  32  50  73 100 129 163 205 251 298
#     4  10  19  32  52  75 101 136 175 212 255 304
#     4   9  17  30  48  69  95 129 168 206 247 295
#     4   9  17  28  44  69  98 129 169 212 246 287
#     4   9  18  34  53  77 105 131 167 213 255 303
#     4  10  20  34  54  78 104 135 169 209 258 308
#     4   9  18  32  53  77 101 131 167 207 251 301
#
# _framework density 18.743292
#
# number of rings (size 3 to 8) (size 9 to 14) (size 15 to 20)
#    0.000    2.667    0.833    1.000    1.167    3.667 
#    0.000    4.167    0.000    5.000    0.000    2.333 
#    0.000    0.000    0.000    0.000    0.000    0.000 
#
# Total GULP energy -297473.596124 kJ/mol
# GULP energy per Si atom -12394.733172 kJ/mol
# Density = 1.870063 g / cm^3
# Si number density = 18.743292 Si / 1000 Ang^3
#
#
#
# Elastic Constant Matrix: (Units=GPa)
#
#
# Indices 1 2 3 4 5 6 
#
# 1 32.6952 22.4817 36.2201 0.0000 0.0000 0.0000
# 2 22.4817 99.6554 67.3867 0.0000 0.0000 0.0000
# 3 36.2201 67.3867 164.1438 0.0000 0.0000 0.0000
# 4 0.0000 0.0000 0.0000 29.9739 0.0000 0.0000
# 5 0.0000 0.0000 0.0000 0.0000 11.9238 0.0000
# 6 0.0000 0.0000 0.0000 0.0000 0.0000 16.0092
#
#
#
# Elastic Compliance Matrix: (Units=1/GPa)
#
#
# Indices 1 2 3 4 5 6 
#
# 1 0.041845 -0.004425 -0.007417 0.000000 0.000000 0.000000
# 2 -0.004425 0.014358 -0.004918 0.000000 0.000000 0.000000
# 3 -0.007417 -0.004918 0.009748 0.000000 0.000000 0.000000
# 4 0.000000 0.000000 0.000000 0.033362 0.000000 0.000000
# 5 0.000000 0.000000 0.000000 0.000000 0.083866 0.000000
# 6 0.000000 0.000000 0.000000 0.000000 0.000000 0.062464
#
#
# Mechanical properties :
#
#
# Convention : Reuss Voigt Hill
#
# Bulk Modulus (GPa) = 30.83441 60.96348 45.89894
# Shear Modulus (GPa) = 17.24293 22.94177 20.09235
#
# Velocity S-wave (km/s) = 3.03636 3.50237 3.27766
# Velocity P-wave (km/s) = 5.36463 6.99654 6.23421
#
# Compressibility (1/GPa) = 0.03243130
#
# Stress axis : x y z
#
# Youngs Moduli (GPa) = 23.89792 69.64522 102.58496
#
# Poissons Ratio (x) = 0.30815 0.76088
# Poissons Ratio (y) = 0.10574 0.50455
# Poissons Ratio (z) = 0.17725 0.34254
#
# Static dielectric constant tensor:
#      x y z
#    x 3.216970 0.000000 0.000000 
#    y 0.000000 3.497300 0.000000 
#    z 0.000000 0.000000 3.646430 
# 
# 
# High freq. dielectric constant tensor:
#      x y z
#    x 1.674780 0.000000 0.000000 
#    y 0.000000 1.738870 0.000000 
#    z 0.000000 0.000000 1.730210 
# 
# From -- ./inp_files/24358.got.cif
#   From: 2010.03.12/outbox.cif.g09.slc.cpg/sg38_13_cif.got.tgz:24358.got - 2010.04.14 02:38:36.
