data_PCOD8178046
_publ_section_title
;
Structure prediction by ZEFSAII (Michael W. Deem and Ramdas Pophale) SiO2 
 PCOD8178046
Probable space group: A M M 2
;
_chemical_formula_sum "Si O2"
_cell_formula_units_Z 56
_cell_length_a 15.298288
_cell_length_b 9.195418
_cell_length_c 20.085579
_cell_angle_alpha 90.000000
_cell_angle_beta 90.000000
_cell_angle_gamma 90.000000
_cell_volume 2825.521810
_symmetry_space_group_name_H-M "A M M 2"
_symmetry_group_IT_number 38
_symmetry_cell_setting 'orthorhombic'
loop_
_space_group_symop_operation_xyz
x,y,z
-x,-y,z
-x,y,z
x,-y,z
x,1/2+y,1/2+z
-x,1/2-y,1/2+z
-x,1/2+y,1/2+z
x,1/2-y,1/2+z
loop_
_atom_site_type_symbol
_atom_site_label
_atom_site_fract_x
_atom_site_fract_y
_atom_site_fract_z
Si Si1 0.171454 0.831839 0.887540
Si Si2 0.403252 0.666231 0.711281
Si Si3 0.098387 0.334140 0.769685
Si Si4 0.222905 0.329775 0.649933
Si Si5 0.779365 0.171608 0.518205
Si Si6 0.593819 0.335111 0.969892
Si Si7 0.366421 0.333755 0.343337
O O1 0.102718 0.763007 0.836256
O O2 0.263461 0.812457 0.851175
O O3 0.148742 0.000000 0.901593
O O4 0.169023 0.745283 0.957194
O O5 0.500000 0.686549 0.678094
O O6 0.388560 0.500000 0.733420
O O7 0.325192 0.710463 0.661243
O O8 0.399565 0.763510 0.776127
O O9 0.121412 0.500000 0.789098
O O10 0.165617 0.279485 0.713217
O O11 0.000000 0.321789 0.741342
O O12 0.210006 0.500000 0.635255
O O13 0.186979 0.239740 0.587056
O O14 0.675914 0.212259 0.514793
O O15 0.797368 0.000000 0.517381
O O16 0.500000 0.320285 0.008387
O O17 0.609746 0.500000 0.946256
O O18 0.584760 0.238054 0.904818
O O19 0.394309 0.500000 0.341654
#
# Coordination Sequence:
#
# PCOD8178046 Si02
#       7
#     8   8   8   8   8   8   8
#     4  10  20  36  59  86 115 147 186 232 286 342
#     4  10  20  33  51  76 109 153 197 233 279 339
#     4  10  21  39  65  92 115 145 186 232 286 345
#     4  10  21  38  57  81 117 154 189 235 287 340
#     4  10  21  36  57  81 111 153 196 237 286 339
#     4   9  18  32  49  71 103 145 192 238 285 337
#     4  10  19  30  48  77 110 143 184 236 286 331
#
# _framework density 19.819347
#
# number of rings (size 3 to 8) (size 9 to 14) (size 15 to 20)
#    0.000    2.143    1.429    1.714    0.000    6.000 
#    0.000    0.714    0.000    2.571    0.000    0.000 
#    0.000    0.000    0.000    0.000    0.000    0.000 
#
# Total GULP energy -347140.516297 kJ/mol
# GULP energy per Si atom -12397.875582 kJ/mol
# Density = 1.977424 g / cm^3
# Si number density = 19.819347 Si / 1000 Ang^3
#
#
#
# Elastic Constant Matrix: (Units=GPa)
#
#
# Indices 1 2 3 4 5 6 
#
# 1 72.6487 25.9043 34.2309 0.0000 0.0000 0.0000
# 2 25.9043 89.7234 59.6397 0.0000 0.0000 0.0000
# 3 34.2309 59.6397 122.3556 0.0000 0.0000 0.0000
# 4 0.0000 0.0000 0.0000 32.9010 0.0000 0.0000
# 5 0.0000 0.0000 0.0000 0.0000 5.0417 0.0000
# 6 0.0000 0.0000 0.0000 0.0000 0.0000 18.9948
#
#
#
# Elastic Compliance Matrix: (Units=1/GPa)
#
#
# Indices 1 2 3 4 5 6 
#
# 1 0.016215 -0.002465 -0.003335 0.000000 0.000000 0.000000
# 2 -0.002465 0.016862 -0.007529 0.000000 0.000000 0.000000
# 3 -0.003335 -0.007529 0.012776 0.000000 0.000000 0.000000
# 4 0.000000 0.000000 0.000000 0.030394 0.000000 0.000000
# 5 0.000000 0.000000 0.000000 0.000000 0.198344 0.000000
# 6 0.000000 0.000000 0.000000 0.000000 0.000000 0.052646
#
#
# Mechanical properties :
#
#
# Convention : Reuss Voigt Hill
#
# Bulk Modulus (GPa) = 52.09794 58.25303 55.17549
# Shear Modulus (GPa) = 13.87756 22.38437 18.13096
#
# Velocity S-wave (km/s) = 2.64901 3.36433 3.02787
# Velocity P-wave (km/s) = 5.97493 6.67439 6.33432
#
# Compressibility (1/GPa) = 0.01919462
#
# Stress axis : x y z
#
# Youngs Moduli (GPa) = 61.67078 59.30576 78.27190
#
# Poissons Ratio (x) = 0.14617 0.26104
# Poissons Ratio (y) = 0.15200 0.58934
# Poissons Ratio (z) = 0.20568 0.44654
#
# Static dielectric constant tensor:
#      x y z
#    x 3.651970 0.000000 0.000000 
#    y 0.000000 3.573340 0.000000 
#    z 0.000000 0.000000 3.323480 
# 
# 
# High freq. dielectric constant tensor:
#      x y z
#    x 1.766090 0.000000 0.000000 
#    y 0.000000 1.773650 0.000000 
#    z 0.000000 0.000000 1.753680 
# 
# From -- ./inp_files/21027.got.cif
#   From: 2010.03.12/outbox.cif.g09.slc.cpg/sg38_11_cif.got.tgz:21027.got - 2010.04.14 02:38:36.
