data_PCOD8178150
_publ_section_title
;
Structure prediction by ZEFSAII (Michael W. Deem and Ramdas Pophale) SiO2 
 PCOD8178150
Probable space group: A M M 2
;
_chemical_formula_sum "Si O2"
_cell_formula_units_Z 64
_cell_length_a 18.823616
_cell_length_b 8.974009
_cell_length_c 20.896926
_cell_angle_alpha 90.000000
_cell_angle_beta 90.000000
_cell_angle_gamma 90.000000
_cell_volume 3529.977687
_symmetry_space_group_name_H-M "A M M 2"
_symmetry_group_IT_number 38
_symmetry_cell_setting 'orthorhombic'
loop_
_space_group_symop_operation_xyz
x,y,z
-x,-y,z
-x,y,z
x,-y,z
x,1/2+y,1/2+z
-x,1/2-y,1/2+z
-x,1/2+y,1/2+z
x,1/2-y,1/2+z
loop_
_atom_site_type_symbol
_atom_site_label
_atom_site_fract_x
_atom_site_fract_y
_atom_site_fract_z
Si Si1 0.667675 0.671442 0.648670
Si Si2 0.315916 0.668895 0.508960
Si Si3 0.172292 0.170503 0.505435
Si Si4 0.580342 0.822620 0.756587
Si Si5 0.834896 0.323691 0.380551
Si Si6 0.325892 0.828160 0.870908
Si Si7 0.920479 0.677260 0.259192
Si Si8 0.180741 0.825183 0.646246
O O1 0.667508 0.500000 0.670451
O O2 0.639855 0.687054 0.574700
O O3 0.613392 0.763943 0.691050
O O4 0.747263 0.733031 0.655497
O O5 0.283215 0.500000 0.506517
O O6 0.255155 0.791793 0.509449
O O7 0.359750 0.694041 0.442566
O O8 0.135210 0.265746 0.449057
O O9 0.143191 0.203913 0.577099
O O10 0.161645 0.000000 0.486724
O O11 0.500000 0.764035 0.762479
O O12 0.624096 0.754007 0.817035
O O13 0.582221 0.000000 0.755483
O O14 0.836299 0.500000 0.382364
O O15 0.754462 0.263236 0.369213
O O16 0.884463 0.261378 0.324067
O O17 0.321096 0.000000 0.852485
O O18 0.922581 0.500000 0.260388
O O19 0.874993 0.732406 0.198739
O O20 0.000000 0.742776 0.254180
O O21 0.199102 0.000000 0.654637
#
# Coordination Sequence:
#
# PCOD8178150 Si02
#       8
#     8   8   8   8   8   8   8   8
#     4  10  19  31  50  74  98 124 154 192 239 288
#     4   8  15  29  48  69  92 119 153 194 235 272
#     4   9  16  26  44  71  97 119 148 190 238 283
#     4  10  20  33  49  69  95 127 160 194 232 276
#     4   9  16  28  48  69  91 120 153 194 237 277
#     4   8  14  28  49  69  88 115 155 195 228 267
#     4   9  17  30  49  71  93 123 166 206 234 268
#     4   9  17  31  51  72  94 122 159 201 237 275
#
# _framework density 18.130427000000001
#
# number of rings (size 3 to 8) (size 9 to 14) (size 15 to 20)
#    0.000    3.000    0.000    2.250    0.000    3.250 
#    0.000    6.875    0.000    4.500    0.000    0.000 
#    0.000    0.000    0.000    0.000    0.000    0.000 
#
# Total GULP energy -396475.377782 kJ/mol
# GULP energy per Si atom -12389.855556 kJ/mol
# Density = 1.808916 g / cm^3
# Si number density = 18.130427 Si / 1000 Ang^3
#
#
#
# Elastic Constant Matrix: (Units=GPa)
#
#
# Indices 1 2 3 4 5 6 
#
# 1 86.1010 18.7409 64.0666 0.0000 0.0000 0.0000
# 2 18.7409 21.6211 27.6359 0.0000 0.0000 0.0000
# 3 64.0666 27.6359 165.5619 0.0000 0.0000 0.0000
# 4 0.0000 0.0000 0.0000 26.9480 0.0000 0.0000
# 5 0.0000 0.0000 0.0000 0.0000 7.7131 0.0000
# 6 0.0000 0.0000 0.0000 0.0000 0.0000 11.6630
#
#
#
# Elastic Compliance Matrix: (Units=1/GPa)
#
#
# Indices 1 2 3 4 5 6 
#
# 1 0.017391 -0.008228 -0.005356 0.000000 0.000000 0.000000
# 2 -0.008228 0.062688 -0.007280 0.000000 0.000000 0.000000
# 3 -0.005356 -0.007280 0.009328 0.000000 0.000000 0.000000
# 4 0.000000 0.000000 0.000000 0.037109 0.000000 0.000000
# 5 0.000000 0.000000 0.000000 0.000000 0.129650 0.000000
# 6 0.000000 0.000000 0.000000 0.000000 0.000000 0.085741
#
#
# Mechanical properties :
#
#
# Convention : Reuss Voigt Hill
#
# Bulk Modulus (GPa) = 20.97380 54.90785 37.94083
# Shear Modulus (GPa) = 12.51480 20.12087 16.31783
#
# Velocity S-wave (km/s) = 2.63014 3.33496 3.00330
# Velocity P-wave (km/s) = 4.56256 6.72160 5.74442
#
# Compressibility (1/GPa) = 0.04767853
#
# Stress axis : x y z
#
# Youngs Moduli (GPa) = 57.50250 15.95198 107.20533
#
# Poissons Ratio (x) = 0.13125 0.57421
# Poissons Ratio (y) = 0.47311 0.78047
# Poissons Ratio (z) = 0.30799 0.11613
#
# Static dielectric constant tensor:
#      x y z
#    x 3.143610 0.000000 0.000000 
#    y 0.000000 3.069500 0.000000 
#    z 0.000000 0.000000 3.889010 
# 
# 
# High freq. dielectric constant tensor:
#      x y z
#    x 1.656410 0.000000 0.000000 
#    y 0.000000 1.672220 0.000000 
#    z 0.000000 0.000000 1.730540 
# 
# From -- ./inp_files/21381.got.cif
#   From: 2010.03.12/outbox.cif.g09.slc.cpg/sg38_11_cif.got.tgz:21381.got - 2010.04.14 02:38:36.
