data_PCOD8178504
_publ_section_title
;
Structure prediction by ZEFSAII (Michael W. Deem and Ramdas Pophale) SiO2 
 PCOD8178504
Probable space group: A M M 2
;
_chemical_formula_sum "Si O2"
_cell_formula_units_Z 64
_cell_length_a 18.624561
_cell_length_b 18.347364
_cell_length_c 9.524937
_cell_angle_alpha 90.000000
_cell_angle_beta 90.000000
_cell_angle_gamma 90.000000
_cell_volume 3254.781462
_symmetry_space_group_name_H-M "A M M 2"
_symmetry_group_IT_number 38
_symmetry_cell_setting 'orthorhombic'
loop_
_space_group_symop_operation_xyz
x,y,z
-x,-y,z
-x,y,z
x,-y,z
x,1/2+y,1/2+z
-x,1/2-y,1/2+z
-x,1/2+y,1/2+z
x,1/2-y,1/2+z
loop_
_atom_site_type_symbol
_atom_site_label
_atom_site_fract_x
_atom_site_fract_y
_atom_site_fract_z
Si Si1 0.324612 0.833018 0.543280
Si Si2 0.672240 0.335093 0.534486
Si Si3 0.189773 0.086051 0.913452
Si Si4 0.915724 0.179885 0.413250
Si Si5 0.184326 0.414065 0.089569
Si Si6 0.577864 0.671071 0.281181
Si Si7 0.579941 0.839296 0.280799
Si Si8 0.915356 0.177428 0.087701
O O1 0.300950 0.748327 0.550587
O O2 0.253850 0.879492 0.515188
O O3 0.359441 0.863346 0.686745
O O4 0.387732 0.848815 0.434026
O O5 0.737020 0.381158 0.473101
O O6 0.601188 0.338207 0.440222
O O7 0.641273 0.371399 0.676999
O O8 0.176678 0.111443 0.752151
O O9 0.195508 0.000000 0.921530
O O10 0.124073 0.110167 0.012791
O O11 0.882560 0.111338 0.495248
O O12 0.890093 0.185369 0.250408
O O13 0.892563 0.251514 0.499355
O O14 0.000000 0.168323 0.417802
O O15 0.189710 0.500000 0.079625
O O16 0.500000 0.633403 0.260319
O O17 0.571297 0.755293 0.238063
O O18 0.500000 0.875963 0.273319
O O19 0.000000 0.163006 0.078946
#
# Coordination Sequence:
#
# PCOD8178504 Si02
#       8
#     8   8   8   8   8   8   8   8
#     4  10  19  33  55  82 113 149 191 246 299 355
#     4  10  19  33  55  82 113 149 191 246 299 355
#     4  11  24  40  58  83 120 163 205 247 290 344
#     4  10  22  41  67  96 123 152 190 238 290 348
#     4  11  24  40  58  83 120 163 205 247 290 344
#     4   9  16  30  53  79 110 145 186 241 299 352
#     4   9  18  30  51  85 112 139 188 247 309 362
#     4  10  22  41  67  96 123 152 190 238 290 348
#
# _framework density 19.663378999999999
#
# number of rings (size 3 to 8) (size 9 to 14) (size 15 to 20)
#    0.000    2.000    1.250    2.250    1.750    5.500 
#    0.000    2.500    0.000    4.500    0.000    0.000 
#    0.000    0.000    0.000    0.000    0.000    0.000 
#
# Total GULP energy -396671.997237 kJ/mol
# GULP energy per Si atom -12395.999914 kJ/mol
# Density = 1.961862 g / cm^3
# Si number density = 19.663379 Si / 1000 Ang^3
#
#
#
# Elastic Constant Matrix: (Units=GPa)
#
#
# Indices 1 2 3 4 5 6 
#
# 1 79.6164 38.5335 45.1758 0.0000 0.0000 0.0000
# 2 38.5335 67.6537 40.2173 0.0000 0.0000 0.0000
# 3 45.1758 40.2173 120.6347 0.0000 0.0000 0.0000
# 4 0.0000 0.0000 0.0000 24.2640 0.0000 0.0000
# 5 0.0000 0.0000 0.0000 0.0000 25.0067 0.0000
# 6 0.0000 0.0000 0.0000 0.0000 0.0000 2.2815
#
#
#
# Elastic Compliance Matrix: (Units=1/GPa)
#
#
# Indices 1 2 3 4 5 6 
#
# 1 0.019032 -0.008235 -0.004382 0.000000 0.000000 0.000000
# 2 -0.008235 0.021998 -0.004250 0.000000 0.000000 0.000000
# 3 -0.004382 -0.004250 0.011347 0.000000 0.000000 0.000000
# 4 0.000000 0.000000 0.000000 0.041213 0.000000 0.000000
# 5 0.000000 0.000000 0.000000 0.000000 0.039989 0.000000
# 6 0.000000 0.000000 0.000000 0.000000 0.000000 0.438299
#
#
# Mechanical properties :
#
#
# Convention : Reuss Voigt Hill
#
# Bulk Modulus (GPa) = 53.63726 57.30645 55.47186
# Shear Modulus (GPa) = 8.17224 19.90899 14.04061
#
# Velocity S-wave (km/s) = 2.04086 3.18542 2.67507
# Velocity P-wave (km/s) = 5.73502 6.53729 6.14925
#
# Compressibility (1/GPa) = 0.01864375
#
# Stress axis : x y z
#
# Youngs Moduli (GPa) = 52.54193 45.45849 88.12775
#
# Poissons Ratio (x) = 0.37437 0.38616
# Poissons Ratio (y) = 0.43271 0.37452
# Poissons Ratio (z) = 0.23023 0.19318
#
# Static dielectric constant tensor:
#      x y z
#    x 3.598770 0.000000 0.000000 
#    y 0.000000 3.177940 0.000000 
#    z 0.000000 0.000000 3.839180 
# 
# 
# High freq. dielectric constant tensor:
#      x y z
#    x 1.779230 0.000000 0.000000 
#    y 0.000000 1.719300 0.000000 
#    z 0.000000 0.000000 1.784470 
# 
# From -- ./inp_files/6472.got.cif
#   From: 2010.03.12/outbox.cif.g09.slc.cpg/sg38_4_cif.got.tgz:6472.got - 2010.04.14 02:38:36.
