data_PCOD8178356
_publ_section_title
;
Structure prediction by ZEFSAII (Michael W. Deem and Ramdas Pophale) SiO2 
 PCOD8178356
Probable space group: A M M 2
;
_chemical_formula_sum "Si O2"
_cell_formula_units_Z 56
_cell_length_a 14.287863
_cell_length_b 22.039473
_cell_length_c 8.729685
_cell_angle_alpha 90.000000
_cell_angle_beta 90.000000
_cell_angle_gamma 90.000000
_cell_volume 2748.951363
_symmetry_space_group_name_H-M "A M M 2"
_symmetry_group_IT_number 38
_symmetry_cell_setting 'orthorhombic'
loop_
_space_group_symop_operation_xyz
x,y,z
-x,-y,z
-x,y,z
x,-y,z
x,1/2+y,1/2+z
-x,1/2-y,1/2+z
-x,1/2+y,1/2+z
x,1/2-y,1/2+z
loop_
_atom_site_type_symbol
_atom_site_label
_atom_site_fract_x
_atom_site_fract_y
_atom_site_fract_z
Si Si1 0.106786 0.719401 0.823810
Si Si2 0.106591 0.858083 0.769537
Si Si3 0.282871 0.432060 0.744461
Si Si4 0.609132 0.789786 0.739695
Si Si5 0.246141 0.854675 0.527446
Si Si6 0.608225 0.831197 0.076983
Si Si7 0.896328 0.609842 0.610056
O O1 0.134147 0.787228 0.778359
O O2 0.114576 0.678885 0.670446
O O3 0.000000 0.717007 0.890971
O O4 0.182438 0.696226 0.945716
O O5 0.176526 0.888551 0.646995
O O6 0.000000 0.866465 0.714933
O O7 0.123660 0.890620 0.930224
O O8 0.324368 0.500000 0.746862
O O9 0.336902 0.392132 0.618543
O O10 0.174316 0.434872 0.695498
O O11 0.290175 0.403794 0.913057
O O12 0.500000 0.804320 0.713253
O O13 0.665557 0.827590 0.615300
O O14 0.628445 0.718447 0.709329
O O15 0.641492 0.805700 0.911943
O O16 0.500000 0.848266 0.069802
O O17 0.000000 0.585242 0.645414
#
# Coordination Sequence:
#
# PCOD8178356 Si02
#       7
#     8   8   8   8   8   8   8
#     4   9  18  31  50  83 123 158 193 238 291 356
#     4  10  19  32  53  85 120 153 193 244 300 360
#     4  11  25  42  59  83 115 160 211 249 288 346
#     4  10  22  39  64  97 127 150 186 238 302 372
#     4  11  22  33  58  86 122 161 196 237 301 349
#     4  10  22  42  66  92 121 152 188 239 300 360
#     4   9  19  35  55  80 113 156 202 244 292 344
#
# _framework density 20.371404999999999
#
# number of rings (size 3 to 8) (size 9 to 14) (size 15 to 20)
#    0.000    2.000    0.000    3.000    8.000    5.143 
#    0.000    2.857    0.000    1.714    0.000    0.000 
#    0.000    0.000    0.000    0.000    0.000    0.000 
#
# Total GULP energy -347227.947604 kJ/mol
# GULP energy per Si atom -12400.998129 kJ/mol
# Density = 2.032504 g / cm^3
# Si number density = 20.371405 Si / 1000 Ang^3
#
#
#
# Elastic Constant Matrix: (Units=GPa)
#
#
# Indices 1 2 3 4 5 6 
#
# 1 74.8632 39.8330 48.1143 0.0000 0.0000 0.0000
# 2 39.8330 94.8283 43.3748 0.0000 0.0000 0.0000
# 3 48.1143 43.3748 112.8060 0.0000 0.0000 0.0000
# 4 0.0000 0.0000 0.0000 15.3655 0.0000 0.0000
# 5 0.0000 0.0000 0.0000 0.0000 39.7273 0.0000
# 6 0.0000 0.0000 0.0000 0.0000 0.0000 14.4822
#
#
#
# Elastic Compliance Matrix: (Units=1/GPa)
#
#
# Indices 1 2 3 4 5 6 
#
# 1 0.020611 -0.005626 -0.006628 0.000000 0.000000 0.000000
# 2 -0.005626 0.014332 -0.003111 0.000000 0.000000 0.000000
# 3 -0.006628 -0.003111 0.012888 0.000000 0.000000 0.000000
# 4 0.000000 0.000000 0.000000 0.065081 0.000000 0.000000
# 5 0.000000 0.000000 0.000000 0.000000 0.025172 0.000000
# 6 0.000000 0.000000 0.000000 0.000000 0.000000 0.069050
#
#
# Mechanical properties :
#
#
# Convention : Reuss Voigt Hill
#
# Bulk Modulus (GPa) = 58.47706 60.57130 59.52418
# Shear Modulus (GPa) = 20.52856 23.99334 22.26095
#
# Velocity S-wave (km/s) = 3.17790 3.43563 3.30927
# Velocity P-wave (km/s) = 6.49870 6.74804 6.62455
#
# Compressibility (1/GPa) = 0.01710072
#
# Stress axis : x y z
#
# Youngs Moduli (GPa) = 48.51821 69.77578 77.59270
#
# Poissons Ratio (x) = 0.39257 0.51426
# Poissons Ratio (y) = 0.27297 0.24139
# Poissons Ratio (z) = 0.32156 0.21707
#
# Static dielectric constant tensor:
#      x y z
#    x 3.852450 0.000000 0.000000 
#    y 0.000000 3.190040 0.000000 
#    z 0.000000 0.000000 3.852120 
# 
# 
# High freq. dielectric constant tensor:
#      x y z
#    x 1.809300 0.000000 0.000000 
#    y 0.000000 1.743120 0.000000 
#    z 0.000000 0.000000 1.807860 
# 
# From -- ./inp_files/5686.got.cif
#   From: 2010.03.12/outbox.cif.g09.slc.cpg/sg38_3_cif.got.tgz:5686.got - 2010.04.14 02:38:36.
