data_PCOD8178050
_publ_section_title
;
Structure prediction by ZEFSAII (Michael W. Deem and Ramdas Pophale) SiO2 
 PCOD8178050
Probable space group: A M M 2
;
_chemical_formula_sum "Si O2"
_cell_formula_units_Z 56
_cell_length_a 33.912256
_cell_length_b 16.536625
_cell_length_c 5.093476
_cell_angle_alpha 90.000000
_cell_angle_beta 90.000000
_cell_angle_gamma 90.000000
_cell_volume 2856.392106
_symmetry_space_group_name_H-M "A M M 2"
_symmetry_group_IT_number 38
_symmetry_cell_setting 'orthorhombic'
loop_
_space_group_symop_operation_xyz
x,y,z
-x,-y,z
-x,y,z
x,-y,z
x,1/2+y,1/2+z
-x,1/2-y,1/2+z
-x,1/2+y,1/2+z
x,1/2-y,1/2+z
loop_
_atom_site_type_symbol
_atom_site_label
_atom_site_fract_x
_atom_site_fract_y
_atom_site_fract_z
Si Si1 0.202065 0.906006 0.417010
Si Si2 0.125357 0.196336 0.348155
Si Si3 0.251471 0.594728 0.425094
Si Si4 0.455962 0.095889 0.400187
Si Si5 0.957888 0.802575 0.454849
Si Si6 0.329424 0.696411 0.417925
Si Si7 0.592318 0.595936 0.403696
O O1 0.159628 0.866626 0.397414
O O2 0.220513 0.885405 0.697059
O O3 0.195281 0.000000 0.372793
O O4 0.231958 0.873925 0.194388
O O5 0.128546 0.270436 0.552850
O O6 0.082976 0.149692 0.392832
O O7 0.262158 0.500000 0.435081
O O8 0.290780 0.643767 0.370212
O O9 0.500000 0.132853 0.383826
O O10 0.435790 0.123710 0.668072
O O11 0.458773 0.000000 0.383149
O O12 0.429139 0.128469 0.163911
O O13 0.957005 0.773817 0.756176
O O14 0.000000 0.850063 0.409674
O O15 0.330454 0.730331 0.712315
O O16 0.365854 0.637465 0.370786
O O17 0.599108 0.500000 0.407910
#
# Coordination Sequence:
#
# PCOD8178050 Si02
#       7
#     8   8   8   8   8   8   8
#     4  10  21  36  54  76 104 134 165 209 261 312
#     4  10  19  30  49  75 101 132 170 212 254 302
#     4  10  22  40  58  76 101 137 176 209 253 312
#     4   9  17  31  56  87 110 134 177 223 252 285
#     4   8  14  25  41  64  94 127 165 207 248 291
#     4  12  25  39  57  81 109 138 172 217 261 301
#     4  10  20  36  58  81 109 143 175 211 256 306
#
# _framework density 19.605153999999999
#
# number of rings (size 3 to 8) (size 9 to 14) (size 15 to 20)
#    0.000    2.143    0.000    3.429    0.000    5.143 
#    0.000    5.714    0.000    9.000    0.000    0.000 
#    0.000   14.857    0.000    0.000    0.000    2.286 
#
# Total GULP energy -347097.651652 kJ/mol
# GULP energy per Si atom -12396.344702 kJ/mol
# Density = 1.956053 g / cm^3
# Si number density = 19.605154 Si / 1000 Ang^3
#
#
#
# Elastic Constant Matrix: (Units=GPa)
#
#
# Indices 1 2 3 4 5 6 
#
# 1 154.6296 47.7985 3.0318 0.0000 0.0000 0.0000
# 2 47.7985 31.7579 16.5371 0.0000 0.0000 0.0000
# 3 3.0318 16.5371 82.8606 0.0000 0.0000 0.0000
# 4 0.0000 0.0000 0.0000 15.5545 0.0000 0.0000
# 5 0.0000 0.0000 0.0000 0.0000 18.2920 0.0000
# 6 0.0000 0.0000 0.0000 0.0000 0.0000 26.3706
#
#
#
# Elastic Compliance Matrix: (Units=1/GPa)
#
#
# Indices 1 2 3 4 5 6 
#
# 1 0.013114 -0.021748 0.003861 0.000000 0.000000 0.000000
# 2 -0.021748 0.071207 -0.013416 0.000000 0.000000 0.000000
# 3 0.003861 -0.013416 0.014605 0.000000 0.000000 0.000000
# 4 0.000000 0.000000 0.000000 0.064290 0.000000 0.000000
# 5 0.000000 0.000000 0.000000 0.000000 0.054669 0.000000
# 6 0.000000 0.000000 0.000000 0.000000 0.000000 0.037921
#
#
# Mechanical properties :
#
#
# Convention : Reuss Voigt Hill
#
# Bulk Modulus (GPa) = 27.53343 44.88699 36.21021
# Shear Modulus (GPa) = 15.12775 25.50214 20.31495
#
# Velocity S-wave (km/s) = 2.78082 3.61056 3.22250
# Velocity P-wave (km/s) = 4.93813 6.35033 5.68822
#
# Compressibility (1/GPa) = 0.03631949
#
# Stress axis : x y z
#
# Youngs Moduli (GPa) = 76.25382 14.04354 68.47132
#
# Poissons Ratio (x) = 0.30542 -0.26434
# Poissons Ratio (y) = 1.65838 0.91858
# Poissons Ratio (z) = -0.29439 0.18840
#
# Static dielectric constant tensor:
#      x y z
#    x 4.025740 0.000000 0.000000 
#    y 0.000000 3.089360 0.000000 
#    z 0.000000 0.000000 3.871810 
# 
# 
# High freq. dielectric constant tensor:
#      x y z
#    x 1.791950 0.000000 0.000000 
#    y 0.000000 1.707660 0.000000 
#    z 0.000000 0.000000 1.786530 
# 
# From -- ./inp_files/2282.got.cif
#   From: 2010.03.12/outbox.cif.g09.slc.cpg/sg38_2_cif.got.tgz:2282.got - 2010.04.14 02:38:36.
