data_PCOD8178663
_publ_section_title
;
Structure prediction by ZEFSAII (Michael W. Deem and Ramdas Pophale) SiO2 
 PCOD8178663
Probable space group: A M M 2
;
_chemical_formula_sum "Si O2"
_cell_formula_units_Z 48
_cell_length_a 8.674646
_cell_length_b 16.523604
_cell_length_c 18.574336
_cell_angle_alpha 90.000000
_cell_angle_beta 90.000000
_cell_angle_gamma 90.000000
_cell_volume 2662.378740
_symmetry_space_group_name_H-M "A M M 2"
_symmetry_group_IT_number 38
_symmetry_cell_setting 'orthorhombic'
loop_
_space_group_symop_operation_xyz
x,y,z
-x,-y,z
-x,y,z
x,-y,z
x,1/2+y,1/2+z
-x,1/2-y,1/2+z
-x,1/2+y,1/2+z
x,1/2-y,1/2+z
loop_
_atom_site_type_symbol
_atom_site_label
_atom_site_fract_x
_atom_site_fract_y
_atom_site_fract_z
Si Si1 0.678809 0.683813 0.764010
Si Si2 0.820196 0.500000 0.539265
Si Si3 0.818159 0.764243 0.484376
Si Si4 0.821151 0.500000 0.370021
Si Si5 0.683463 0.661454 0.604771
Si Si6 0.679345 0.834151 0.856190
Si Si7 0.316930 0.407695 0.902337
O O1 0.500000 0.664564 0.757600
O O2 0.752508 0.668675 0.685800
O O3 0.708697 0.776218 0.787961
O O4 0.746846 0.623114 0.824807
O O5 0.790119 0.500000 0.454686
O O6 0.741176 0.578096 0.572198
O O7 0.000000 0.500000 0.557813
O O8 0.746972 0.737812 0.560432
O O9 0.771169 0.698326 0.425009
O O10 0.756741 0.853562 0.465198
O O11 0.000000 0.765803 0.491065
O O12 0.741663 0.421946 0.334452
O O13 0.000000 0.500000 0.350535
O O14 0.500000 0.664065 0.603648
O O15 0.500000 0.837147 0.877116
O O16 0.500000 0.396683 0.905972
O O17 0.265737 0.500000 0.914017
#
# Coordination Sequence:
#
# PCOD8178663 Si02
#       7
#     8   4   8   4   8   8   8
#     4   8  18  34  55  82 107 133 172 223 265 307
#     4  11  23  35  49  79 118 143 170 213 266 316
#     4  11  21  34  52  77 111 143 176 218 266 316
#     4  11  21  33  53  81 114 139 170 219 268 314
#     4  11  21  35  57  80 107 142 181 216 261 316
#     4  10  19  35  57  79 103 138 183 222 262 310
#     4   9  18  35  59  82 105 135 178 224 265 310
#
# _framework density 18.02899
#
# number of rings (size 3 to 8) (size 9 to 14) (size 15 to 20)
#    0.000    2.000    1.667    4.000    1.167    1.000 
#    0.000    8.333    1.833    0.000    0.000    0.000 
#    0.000    0.000    0.000    0.000    0.000    0.000 
#
# Total GULP energy -297613.229955 kJ/mol
# GULP energy per Si atom -12400.551248 kJ/mol
# Density = 1.798796 g / cm^3
# Si number density = 18.028990 Si / 1000 Ang^3
#
#
#
# Elastic Constant Matrix: (Units=GPa)
#
#
# Indices 1 2 3 4 5 6 
#
# 1 81.8256 47.7813 35.9002 0.0000 0.0000 0.0000
# 2 47.7813 148.1209 47.0869 0.0000 0.0000 0.0000
# 3 35.9002 47.0869 86.8089 0.0000 0.0000 0.0000
# 4 0.0000 0.0000 0.0000 12.8287 0.0000 0.0000
# 5 0.0000 0.0000 0.0000 0.0000 5.9915 0.0000
# 6 0.0000 0.0000 0.0000 0.0000 0.0000 19.8528
#
#
#
# Elastic Compliance Matrix: (Units=1/GPa)
#
#
# Indices 1 2 3 4 5 6 
#
# 1 0.016545 -0.003821 -0.004770 0.000000 0.000000 0.000000
# 2 -0.003821 0.009040 -0.003324 0.000000 0.000000 0.000000
# 3 -0.004770 -0.003324 0.015295 0.000000 0.000000 0.000000
# 4 0.000000 0.000000 0.000000 0.077950 0.000000 0.000000
# 5 0.000000 0.000000 0.000000 0.000000 0.166902 0.000000
# 6 0.000000 0.000000 0.000000 0.000000 0.000000 0.050371
#
#
# Mechanical properties :
#
#
# Convention : Reuss Voigt Hill
#
# Bulk Modulus (GPa) = 58.64449 64.25470 61.44959
# Shear Modulus (GPa) = 13.67556 20.13374 16.90465
#
# Velocity S-wave (km/s) = 2.75713 3.34539 3.06541
# Velocity P-wave (km/s) = 6.53714 7.11613 6.83277
#
# Compressibility (1/GPa) = 0.01705190
#
# Stress axis : x y z
#
# Youngs Moduli (GPa) = 60.44149 110.61566 65.38148
#
# Poissons Ratio (x) = 0.42264 0.31185
# Poissons Ratio (y) = 0.23094 0.21730
# Poissons Ratio (z) = 0.28829 0.36763
#
# Static dielectric constant tensor:
#      x y z
#    x 3.229880 0.000000 0.000000 
#    y 0.000000 3.462460 0.000000 
#    z 0.000000 0.000000 3.426700 
# 
# 
# High freq. dielectric constant tensor:
#      x y z
#    x 1.692350 0.000000 0.000000 
#    y 0.000000 1.704550 0.000000 
#    z 0.000000 0.000000 1.681780 
# 
# From -- ./inp_files/16678.got.cif
#   From: 2010.03.12/outbox.cif.g09.slc.cpg/sg38_9_cif.got.tgz:16678.got - 2010.04.14 02:38:36.
