data_PCOD8178631
_publ_section_title
;
Structure prediction by ZEFSAII (Michael W. Deem and Ramdas Pophale) SiO2 
 PCOD8178631
Probable space group: A M M 2
;
_chemical_formula_sum "Si O2"
_cell_formula_units_Z 64
_cell_length_a 24.130279
_cell_length_b 9.063155
_cell_length_c 15.141596
_cell_angle_alpha 90.000000
_cell_angle_beta 90.000000
_cell_angle_gamma 90.000000
_cell_volume 3311.413425
_symmetry_space_group_name_H-M "A M M 2"
_symmetry_group_IT_number 38
_symmetry_cell_setting 'orthorhombic'
loop_
_space_group_symop_operation_xyz
x,y,z
-x,-y,z
-x,y,z
x,-y,z
x,1/2+y,1/2+z
-x,1/2-y,1/2+z
-x,1/2+y,1/2+z
x,1/2-y,1/2+z
loop_
_atom_site_type_symbol
_atom_site_label
_atom_site_fract_x
_atom_site_fract_y
_atom_site_fract_z
Si Si1 0.861545 0.670992 0.158300
Si Si2 0.436506 0.671762 0.234979
Si Si3 0.634170 0.326810 0.593143
Si Si4 0.644507 0.827566 0.891203
Si Si5 0.244627 0.832888 0.396971
Si Si6 0.255227 0.666698 0.104933
Si Si7 0.867044 0.828615 0.855656
Si Si8 0.063144 0.824642 0.501819
O O1 0.854323 0.500000 0.134715
O O2 0.799261 0.737506 0.151393
O O3 0.887086 0.694430 0.254914
O O4 0.903492 0.739318 0.086312
O O5 0.500000 0.714606 0.251488
O O6 0.428968 0.500000 0.214730
O O7 0.415633 0.758647 0.149218
O O8 0.404102 0.716762 0.324009
O O9 0.633860 0.500000 0.606576
O O10 0.625843 0.282933 0.490352
O O11 0.692227 0.265298 0.630453
O O12 0.698773 0.738341 0.861139
O O13 0.658949 0.000000 0.887496
O O14 0.243331 0.829907 0.501743
O O15 0.194063 0.736454 0.362655
O O16 0.239675 0.000000 0.361521
O O17 0.267550 0.500000 0.137561
O O18 0.911507 0.743703 0.913837
O O19 0.865442 0.000000 0.882107
O O20 0.000000 0.772239 0.511284
O O21 0.067335 0.000000 0.494887
#
# Coordination Sequence:
#
# PCOD8178631 Si02
#       8
#     8   8   8   8   8   8   8   8
#     4   9  19  36  57  83 111 151 194 228 275 339
#     4  10  22  40  60  81 110 154 200 232 272 342
#     4  10  21  36  56  86 117 145 184 237 293 334
#     4   9  20  38  58  82 114 151 190 232 284 340
#     4  10  19  34  58  85 116 150 189 233 282 339
#     4   9  17  34  58  80 111 151 191 228 273 341
#     4  11  22  35  57  88 118 147 187 237 287 336
#     4  10  21  41  64  82 110 154 198 236 279 337
#
# _framework density 19.327095
#
# number of rings (size 3 to 8) (size 9 to 14) (size 15 to 20)
#    0.000    2.250    1.250    1.125    1.750    3.000 
#    0.000    4.375    0.000    0.000    0.000    0.000 
#    0.000    0.000    0.000    0.000    0.000    0.000 
#
# Total GULP energy -396844.677557 kJ/mol
# GULP energy per Si atom -12401.396174 kJ/mol
# Density = 1.928311 g / cm^3
# Si number density = 19.327095 Si / 1000 Ang^3
#
#
#
# Elastic Constant Matrix: (Units=GPa)
#
#
# Indices 1 2 3 4 5 6 
#
# 1 142.5878 46.9811 57.3328 0.0000 0.0000 0.0000
# 2 46.9811 48.4619 32.4430 0.0000 0.0000 0.0000
# 3 57.3328 32.4430 81.0040 0.0000 0.0000 0.0000
# 4 0.0000 0.0000 0.0000 28.0782 0.0000 0.0000
# 5 0.0000 0.0000 0.0000 0.0000 24.4038 0.0000
# 6 0.0000 0.0000 0.0000 0.0000 0.0000 27.7569
#
#
#
# Elastic Compliance Matrix: (Units=1/GPa)
#
#
# Indices 1 2 3 4 5 6 
#
# 1 0.011663 -0.007898 -0.005091 0.000000 0.000000 0.000000
# 2 -0.007898 0.033543 -0.007844 0.000000 0.000000 0.000000
# 3 -0.005091 -0.007844 0.019090 0.000000 0.000000 0.000000
# 4 0.000000 0.000000 0.000000 0.035615 0.000000 0.000000
# 5 0.000000 0.000000 0.000000 0.000000 0.040977 0.000000
# 6 0.000000 0.000000 0.000000 0.000000 0.000000 0.036027
#
#
# Mechanical properties :
#
#
# Convention : Reuss Voigt Hill
#
# Bulk Modulus (GPa) = 44.19179 60.61863 52.40521
# Shear Modulus (GPa) = 22.11167 25.06755 23.58961
#
# Velocity S-wave (km/s) = 3.38609 3.60532 3.49742
# Velocity P-wave (km/s) = 6.18080 6.98311 6.59417
#
# Compressibility (1/GPa) = 0.02262864
#
# Stress axis : x y z
#
# Youngs Moduli (GPa) = 85.74363 29.81274 52.38245
#
# Poissons Ratio (x) = 0.23546 0.26670
# Poissons Ratio (y) = 0.67719 0.41090
# Poissons Ratio (z) = 0.43655 0.23386
#
# Static dielectric constant tensor:
#      x y z
#    x 3.600710 0.000000 0.000000 
#    y 0.000000 3.437960 0.000000 
#    z 0.000000 0.000000 3.608420 
# 
# 
# High freq. dielectric constant tensor:
#      x y z
#    x 1.751850 0.000000 0.000000 
#    y 0.000000 1.737070 0.000000 
#    z 0.000000 0.000000 1.757400 
# 
# From -- ./inp_files/15769.got.cif
#   From: 2010.03.12/outbox.cif.g09.slc.cpg/sg38_8_cif.got.tgz:15769.got - 2010.04.14 02:38:36.
