data_PCOD8178948
_publ_section_title
;
Structure prediction by ZEFSAII (Michael W. Deem and Ramdas Pophale) SiO2 
 PCOD8178948
Probable space group: A M M 2
;
_chemical_formula_sum "Si O2"
_cell_formula_units_Z 48
_cell_length_a 9.032216
_cell_length_b 8.854497
_cell_length_c 31.306146
_cell_angle_alpha 90.000000
_cell_angle_beta 90.000000
_cell_angle_gamma 90.000000
_cell_volume 2503.731863
_symmetry_space_group_name_H-M "A M M 2"
_symmetry_group_IT_number 38
_symmetry_cell_setting 'orthorhombic'
loop_
_space_group_symop_operation_xyz
x,y,z
-x,-y,z
-x,y,z
x,-y,z
x,1/2+y,1/2+z
-x,1/2-y,1/2+z
-x,1/2+y,1/2+z
x,1/2-y,1/2+z
loop_
_atom_site_type_symbol
_atom_site_label
_atom_site_fract_x
_atom_site_fract_y
_atom_site_fract_z
Si Si1 0.667585 0.179264 0.591960
Si Si2 0.167279 0.820012 0.507911
Si Si3 0.167270 0.680172 0.840135
Si Si4 0.827793 0.323218 0.671409
Si Si5 0.667277 0.680090 0.924073
Si Si6 0.667011 0.320241 0.756571
O O1 0.500000 0.241368 0.593755
O O2 0.744766 0.241434 0.549051
O O3 0.758598 0.236279 0.632047
O O4 0.668827 0.000000 0.592130
O O5 0.247418 0.757429 0.465571
O O6 0.000000 0.757360 0.509257
O O7 0.166873 0.000000 0.507486
O O8 0.167846 0.500000 0.839891
O O9 0.251029 0.742016 0.881939
O O10 0.249900 0.743796 0.798272
O O11 0.000000 0.741953 0.840399
O O12 0.799068 0.500000 0.665194
O O13 0.751323 0.262659 0.714511
O O14 0.000000 0.284719 0.674435
O O15 0.500000 0.742112 0.924589
O O16 0.667438 0.500000 0.924166
O O17 0.500000 0.257153 0.755965
O O18 0.667258 0.500000 0.757948
#
# Coordination Sequence:
#
# PCOD8178948 Si02
#       6
#     8   8   8   8   8   8
#     4  10  20  33  49  69  93 122 156 193 233 277
#     4   9  16  26  40  58  82 113 147 183 225 271
#     4   9  15  22  33  51  77 109 144 180 219 266
#     4  10  20  33  49  69  93 122 156 193 233 277
#     4   9  15  22  33  51  77 109 144 180 219 266
#     4   9  16  26  40  58  82 113 147 183 225 271
#
# _framework density 19.171382000000001
#
# number of rings (size 3 to 8) (size 9 to 14) (size 15 to 20)
#    0.000    2.667    0.000    3.000    0.000   10.000 
#    0.000    0.000    0.000    0.000    0.000    0.000 
#    0.000    1.333    0.000    5.000    0.000   11.000 
#
# Total GULP energy -297601.375508 kJ/mol
# GULP energy per Si atom -12400.057313 kJ/mol
# Density = 1.912775 g / cm^3
# Si number density = 19.171382 Si / 1000 Ang^3
#
#
#
# Elastic Constant Matrix: (Units=GPa)
#
#
# Indices 1 2 3 4 5 6 
#
# 1 165.9256 8.8402 83.1265 0.0000 0.0000 0.0000
# 2 8.8402 2.8497 8.2278 0.0000 0.0000 0.0000
# 3 83.1265 8.2278 189.7331 0.0000 0.0000 0.0000
# 4 0.0000 0.0000 0.0000 17.0713 0.0000 0.0000
# 5 0.0000 0.0000 0.0000 0.0000 49.0136 0.0000
# 6 0.0000 0.0000 0.0000 0.0000 0.0000 12.5127
#
#
#
# Elastic Compliance Matrix: (Units=1/GPa)
#
#
# Indices 1 2 3 4 5 6 
#
# 1 0.008438 -0.017721 -0.002928 0.000000 0.000000 0.000000
# 2 -0.017721 0.438353 -0.011245 0.000000 0.000000 0.000000
# 3 -0.002928 -0.011245 0.007041 0.000000 0.000000 0.000000
# 4 0.000000 0.000000 0.000000 0.058578 0.000000 0.000000
# 5 0.000000 0.000000 0.000000 0.000000 0.020403 0.000000
# 6 0.000000 0.000000 0.000000 0.000000 0.000000 0.079919
#
#
# Mechanical properties :
#
#
# Convention : Reuss Voigt Hill
#
# Bulk Modulus (GPa) = 2.56382 62.09974 32.33178
# Shear Modulus (GPa) = 6.19935 32.94043 19.56989
#
# Velocity S-wave (km/s) = 1.80019 4.14962 3.19844
# Velocity P-wave (km/s) = 2.37931 7.44455 5.52641
#
# Compressibility (1/GPa) = 0.39004333
#
# Stress axis : x y z
#
# Youngs Moduli (GPa) = 118.51078 2.28126 142.02067
#
# Poissons Ratio (x) = 0.04043 0.41590
# Poissons Ratio (y) = 2.10013 1.59706
# Poissons Ratio (z) = 0.34705 0.02565
#
# Static dielectric constant tensor:
#      x y z
#    x 3.840990 0.000000 0.000000 
#    y 0.000000 2.692460 0.000000 
#    z 0.000000 0.000000 3.750350 
# 
# 
# High freq. dielectric constant tensor:
#      x y z
#    x 1.768780 0.000000 0.000000 
#    y 0.000000 1.656860 0.000000 
#    z 0.000000 0.000000 1.767470 
# 
# From -- ./inp_files/23337.got.cif
#   From: 2010.03.12/outbox.cif.g09.slc.cpg/sg38_12_cif.got.tgz:23337.got - 2010.04.14 02:38:36.
