data_PCOD8178240
_publ_section_title
;
Structure prediction by ZEFSAII (Michael W. Deem and Ramdas Pophale) SiO2 
 PCOD8178240
Probable space group: A M M 2
;
_chemical_formula_sum "Si O2"
_cell_formula_units_Z 64
_cell_length_a 8.697836
_cell_length_b 29.767855
_cell_length_c 14.351586
_cell_angle_alpha 90.000000
_cell_angle_beta 90.000000
_cell_angle_gamma 90.000000
_cell_volume 3715.854105
_symmetry_space_group_name_H-M "A M M 2"
_symmetry_group_IT_number 38
_symmetry_cell_setting 'orthorhombic'
loop_
_space_group_symop_operation_xyz
x,y,z
-x,-y,z
-x,y,z
x,-y,z
x,1/2+y,1/2+z
-x,1/2-y,1/2+z
-x,1/2+y,1/2+z
x,1/2-y,1/2+z
loop_
_atom_site_type_symbol
_atom_site_label
_atom_site_fract_x
_atom_site_fract_y
_atom_site_fract_z
Si Si1 0.173806 0.277419 0.339960
Si Si2 0.171016 0.673123 0.830558
Si Si3 0.677523 0.364455 0.658817
Si Si4 0.680161 0.800922 0.655546
Si Si5 0.818443 0.284234 0.550166
Si Si6 0.677982 0.551273 0.921490
Si Si7 0.178452 0.129587 0.523486
Si Si8 0.180802 0.050612 0.223907
O O1 0.177382 0.225586 0.313089
O O2 0.279616 0.302745 0.265155
O O3 0.240477 0.284389 0.443653
O O4 0.000000 0.296110 0.333531
O O5 0.297629 0.650012 0.765839
O O6 0.208696 0.663095 0.937494
O O7 0.000000 0.654897 0.804518
O O8 0.500000 0.361086 0.631341
O O9 0.776017 0.332522 0.592070
O O10 0.735918 0.415979 0.650874
O O11 0.500000 0.802245 0.640990
O O12 0.742199 0.755777 0.607788
O O13 0.753168 0.845907 0.613166
O O14 0.000000 0.276172 0.554335
O O15 0.500000 0.560144 0.898871
O O16 0.706489 0.500000 0.952172
O O17 0.735116 0.582486 0.006044
O O18 0.775973 0.563556 0.829873
O O19 0.000000 0.119721 0.539947
O O20 0.000000 0.055142 0.211650
O O21 0.237382 0.000000 0.202042
#
# Coordination Sequence:
#
# PCOD8178240 Si02
#       8
#     8   8   8   8   8   8   8   8
#     4  10  21  38  56  72  99 140 182 222 260 304
#     4  10  19  32  51  73 102 141 181 217 254 302
#     4  12  23  33  50  78 108 140 176 217 266 314
#     4  12  24  35  52  78 108 138 174 221 268 313
#     4  11  22  38  56  74 102 140 182 220 258 312
#     4  10  20  33  50  76 109 139 171 218 270 314
#     4  11  21  35  54  75 103 143 185 217 255 313
#     4  10  20  34  52  74 103 141 180 215 257 314
#
# _framework density 17.223496999999998
#
# number of rings (size 3 to 8) (size 9 to 14) (size 15 to 20)
#    0.000    1.250    3.750    3.750    0.000    3.000 
#    0.000    0.000    0.000    0.000    0.000    0.875 
#    0.000    1.000    0.000    0.000    0.000    0.000 
#
# Total GULP energy -396886.618710 kJ/mol
# GULP energy per Si atom -12402.706835 kJ/mol
# Density = 1.718430 g / cm^3
# Si number density = 17.223497 Si / 1000 Ang^3
#
#
#
# Elastic Constant Matrix: (Units=GPa)
#
#
# Indices 1 2 3 4 5 6 
#
# 1 71.3676 18.1582 19.2219 0.0000 0.0000 0.0000
# 2 18.1582 84.7106 22.7471 0.0000 0.0000 0.0000
# 3 19.2219 22.7471 66.2019 0.0000 0.0000 0.0000
# 4 0.0000 0.0000 0.0000 25.9278 0.0000 0.0000
# 5 0.0000 0.0000 0.0000 0.0000 14.8610 0.0000
# 6 0.0000 0.0000 0.0000 0.0000 0.0000 26.8173
#
#
#
# Elastic Compliance Matrix: (Units=1/GPa)
#
#
# Indices 1 2 3 4 5 6 
#
# 1 0.015613 -0.002346 -0.003727 0.000000 0.000000 0.000000
# 2 -0.002346 0.013357 -0.003908 0.000000 0.000000 0.000000
# 3 -0.003727 -0.003908 0.017530 0.000000 0.000000 0.000000
# 4 0.000000 0.000000 0.000000 0.038569 0.000000 0.000000
# 5 0.000000 0.000000 0.000000 0.000000 0.067290 0.000000
# 6 0.000000 0.000000 0.000000 0.000000 0.000000 0.037289
#
#
# Mechanical properties :
#
#
# Convention : Reuss Voigt Hill
#
# Bulk Modulus (GPa) = 37.68251 38.05938 37.87095
# Shear Modulus (GPa) = 22.88775 24.33142 23.60959
#
# Velocity S-wave (km/s) = 3.64932 3.76265 3.70642
# Velocity P-wave (km/s) = 6.29942 6.40485 6.35235
#
# Compressibility (1/GPa) = 0.02653751
#
# Stress axis : x y z
#
# Youngs Moduli (GPa) = 64.05059 74.86560 57.04363
#
# Poissons Ratio (x) = 0.17562 0.21261
# Poissons Ratio (y) = 0.15025 0.22295
# Poissons Ratio (z) = 0.23873 0.29261
#
# Static dielectric constant tensor:
#      x y z
#    x 3.241090 0.000000 0.000000 
#    y 0.000000 3.298540 0.000000 
#    z 0.000000 0.000000 3.078480 
# 
# 
# High freq. dielectric constant tensor:
#      x y z
#    x 1.673870 0.000000 0.000000 
#    y 0.000000 1.661330 0.000000 
#    z 0.000000 0.000000 1.634770 
# 
# From -- ./inp_files/13133.got.cif
#   From: 2010.03.12/outbox.cif.g09.slc.cpg/sg38_7_cif.got.tgz:13133.got - 2010.04.14 02:38:36.
