data_PCOD8178842
_publ_section_title
;
Structure prediction by ZEFSAII (Michael W. Deem and Ramdas Pophale) SiO2 
 PCOD8178842
Probable space group: A M M 2
;
_chemical_formula_sum "Si O2"
_cell_formula_units_Z 48
_cell_length_a 9.350707
_cell_length_b 9.507858
_cell_length_c 30.982294
_cell_angle_alpha 90.000000
_cell_angle_beta 90.000000
_cell_angle_gamma 90.000000
_cell_volume 2754.486870
_symmetry_space_group_name_H-M "A M M 2"
_symmetry_group_IT_number 38
_symmetry_cell_setting 'orthorhombic'
loop_
_space_group_symop_operation_xyz
x,y,z
-x,-y,z
-x,y,z
x,-y,z
x,1/2+y,1/2+z
-x,1/2-y,1/2+z
-x,1/2+y,1/2+z
x,1/2-y,1/2+z
loop_
_atom_site_type_symbol
_atom_site_label
_atom_site_fract_x
_atom_site_fract_y
_atom_site_fract_z
Si Si1 0.830396 0.844396 0.825450
Si Si2 0.333997 0.834842 0.492746
Si Si3 0.829149 0.158163 0.247613
Si Si4 0.170285 0.157091 0.668975
Si Si5 0.835235 0.664654 0.422516
Si Si6 0.159002 0.167165 0.574307
O O1 0.769190 0.734551 0.790560
O O2 0.787762 0.797494 0.873702
O O3 0.000000 0.851701 0.822203
O O4 0.768439 0.000000 0.815378
O O5 0.500000 0.798347 0.494552
O O6 0.264846 0.755220 0.452921
O O7 0.264700 0.777986 0.537196
O O8 0.305741 0.000000 0.486803
O O9 0.769148 0.238906 0.205541
O O10 0.000000 0.158420 0.247532
O O11 0.768984 0.000000 0.247054
O O12 0.216082 0.215043 0.621583
O O13 0.000000 0.150757 0.670788
O O14 0.231584 0.000000 0.677235
O O15 0.812706 0.500000 0.431544
O O16 0.000000 0.706690 0.430466
O O17 0.000000 0.228333 0.565328
O O18 0.151702 0.000000 0.574585
#
# Coordination Sequence:
#
# PCOD8178842 Si02
#       6
#     8   8   8   8   8   8
#     4   8  14  25  40  58  83 115 148 180 216 262
#     4  10  20  32  47  69  95 122 153 190 234 281
#     4   9  15  21  32  56  89 116 137 170 219 268
#     4   8  13  22  37  55  77 110 148 180 214 259
#     4   9  18  32  49  69  92 120 156 195 233 273
#     4   8  14  26  44  64  86 116 154 190 222 261
#
# _framework density 17.426113000000001
#
# number of rings (size 3 to 8) (size 9 to 14) (size 15 to 20)
#    0.000    3.333    0.000    3.000    0.000    4.000 
#    0.000    2.500    0.000    3.000    0.000    1.167 
#    0.000    6.667    0.000    0.000    0.000    0.000 
#
# Total GULP energy -297457.116446 kJ/mol
# GULP energy per Si atom -12394.046519 kJ/mol
# Density = 1.738645 g / cm^3
# Si number density = 17.426113 Si / 1000 Ang^3
#
#
#
# Elastic Constant Matrix: (Units=GPa)
#
#
# Indices 1 2 3 4 5 6 
#
# 1 51.4606 32.7943 53.1437 0.0000 0.0000 0.0000
# 2 32.7943 89.2031 83.4456 0.0000 0.0000 0.0000
# 3 53.1437 83.4456 182.4207 0.0000 0.0000 0.0000
# 4 0.0000 0.0000 0.0000 29.0078 0.0000 0.0000
# 5 0.0000 0.0000 0.0000 0.0000 0.4694 0.0000
# 6 0.0000 0.0000 0.0000 0.0000 0.0000 13.4346
#
#
#
# Elastic Compliance Matrix: (Units=1/GPa)
#
#
# Indices 1 2 3 4 5 6 
#
# 1 0.028929 -0.004810 -0.006228 0.000000 0.000000 0.000000
# 2 -0.004810 0.020395 -0.007928 0.000000 0.000000 0.000000
# 3 -0.006228 -0.007928 0.010923 0.000000 0.000000 0.000000
# 4 0.000000 0.000000 0.000000 0.034473 0.000000 0.000000
# 5 0.000000 0.000000 0.000000 0.000000 2.130460 0.000000
# 6 0.000000 0.000000 0.000000 0.000000 0.000000 0.074435
#
#
# Mechanical properties :
#
#
# Convention : Reuss Voigt Hill
#
# Bulk Modulus (GPa) = 44.81168 73.53905 59.17537
# Shear Modulus (GPa) = 2.13221 18.82908 10.48065
#
# Velocity S-wave (km/s) = 1.10735 3.29068 2.45507
# Velocity P-wave (km/s) = 5.23508 7.53194 6.48599
#
# Compressibility (1/GPa) = 0.02231561
#
# Stress axis : x y z
#
# Youngs Moduli (GPa) = 34.56785 49.03133 91.55201
#
# Poissons Ratio (x) = 0.23582 0.57014
# Poissons Ratio (y) = 0.16626 0.72585
# Poissons Ratio (z) = 0.21527 0.38873
#
# Static dielectric constant tensor:
#      x y z
#    x 2.738900 0.000000 0.000000 
#    y 0.000000 3.202960 0.000000 
#    z 0.000000 0.000000 3.647330 
# 
# 
# High freq. dielectric constant tensor:
#      x y z
#    x 1.610540 0.000000 0.000000 
#    y 0.000000 1.654190 0.000000 
#    z 0.000000 0.000000 1.692820 
# 
# From -- ./inp_files/24828.got.cif
#   From: 2010.03.12/outbox.cif.g09.slc.cpg/sg38_13_cif.got.tgz:24828.got - 2010.04.14 02:38:36.
