data_PCOD8178256
_publ_section_title
;
Structure prediction by ZEFSAII (Michael W. Deem and Ramdas Pophale) SiO2 
 PCOD8178256
Probable space group: A M M 2
;
_chemical_formula_sum "Si O2"
_cell_formula_units_Z 40
_cell_length_a 9.251121
_cell_length_b 7.812132
_cell_length_c 29.065692
_cell_angle_alpha 90.000000
_cell_angle_beta 90.000000
_cell_angle_gamma 90.000000
_cell_volume 2100.605999
_symmetry_space_group_name_H-M "A M M 2"
_symmetry_group_IT_number 38
_symmetry_cell_setting 'orthorhombic'
loop_
_space_group_symop_operation_xyz
x,y,z
-x,-y,z
-x,y,z
x,-y,z
x,1/2+y,1/2+z
-x,1/2-y,1/2+z
-x,1/2+y,1/2+z
x,1/2-y,1/2+z
loop_
_atom_site_type_symbol
_atom_site_label
_atom_site_fract_x
_atom_site_fract_y
_atom_site_fract_z
Si Si1 0.665590 0.797974 0.705020
Si Si2 0.328307 0.000000 0.440165
Si Si3 0.328315 0.309224 0.604986
Si Si4 0.333723 0.690493 0.377984
Si Si5 0.672900 0.500000 0.043369
Si Si6 0.163821 0.695548 0.792833
O O1 0.500000 0.739172 0.711800
O O2 0.727062 0.734765 0.656072
O O3 0.762143 0.710623 0.743538
O O4 0.679596 0.000000 0.708217
O O5 0.272608 0.829387 0.414151
O O6 0.264352 0.000000 0.491646
O O7 0.500000 0.000000 0.442808
O O8 0.500000 0.297915 0.604985
O O9 0.275885 0.500000 0.590798
O O10 0.267147 0.169863 0.568949
O O11 0.500000 0.732252 0.366233
O O12 0.318139 0.500000 0.399486
O O13 0.246866 0.692784 0.330471
O O14 0.500000 0.500000 0.043429
O O15 0.169070 0.500000 0.809146
O O16 0.000000 0.762652 0.789145
#
# Coordination Sequence:
#
# PCOD8178256 Si02
#       6
#     8   4   8   8   4   8
#     4  10  19  32  51  76 106 140 178 217 259 313
#     4   9  18  32  51  75 107 141 175 223 268 305
#     4   9  16  27  45  71 105 141 174 211 256 307
#     4  10  20  35  55  78 105 140 179 216 263 320
#     4   9  16  28  46  73 107 139 173 215 262 311
#     4  11  23  36  51  75 106 140 178 220 268 318
#
# _framework density 19.042123
#
# number of rings (size 3 to 8) (size 9 to 14) (size 15 to 20)
#    0.000    2.200    2.000    1.800    0.000    6.000 
#    0.000    4.000    0.000    0.000    0.000    2.800 
#    0.000    0.000    0.000    0.000    0.000    0.000 
#
# Total GULP energy -247998.823289 kJ/mol
# GULP energy per Si atom -12399.941164 kJ/mol
# Density = 1.899878 g / cm^3
# Si number density = 19.042123 Si / 1000 Ang^3
#
#
#
# Elastic Constant Matrix: (Units=GPa)
#
#
# Indices 1 2 3 4 5 6 
#
# 1 51.3144 25.3838 34.5657 0.0000 0.0000 0.0000
# 2 25.3838 126.7799 63.6422 0.0000 0.0000 0.0000
# 3 34.5657 63.6422 151.2416 0.0000 0.0000 0.0000
# 4 0.0000 0.0000 0.0000 30.5658 0.0000 0.0000
# 5 0.0000 0.0000 0.0000 0.0000 -1.4151 0.0000
# 6 0.0000 0.0000 0.0000 0.0000 0.0000 12.7577
#
#
#
# Elastic Compliance Matrix: (Units=1/GPa)
#
#
# Indices 1 2 3 4 5 6 
#
# 1 0.023674 -0.002566 -0.004331 0.000000 0.000000 0.000000
# 2 -0.002566 0.010278 -0.003739 0.000000 0.000000 0.000000
# 3 -0.004331 -0.003739 0.009175 0.000000 0.000000 0.000000
# 4 0.000000 0.000000 0.000000 0.032716 0.000000 0.000000
# 5 0.000000 0.000000 0.000000 0.000000 -0.706649 0.000000
# 6 0.000000 0.000000 0.000000 0.000000 0.000000 0.078384
#
#
# Mechanical properties :
#
#
# Convention : Reuss Voigt Hill
#
# Bulk Modulus (GPa) = 45.75300 64.05770 54.90535
# Shear Modulus (GPa) = -9.54446 22.09795 6.27675
#
# Velocity S-wave (km/s) = -2.24124 3.41027 1.81753
# Velocity P-wave (km/s) = 4.16916 7.01567 5.77068
#
# Compressibility (1/GPa) = 0.02185649
#
# Stress axis : x y z
#
# Youngs Moduli (GPa) = 42.23973 97.29356 108.99243
#
# Poissons Ratio (x) = 0.24965 0.47204
# Poissons Ratio (y) = 0.10839 0.40748
# Poissons Ratio (z) = 0.18294 0.36374
#
# Static dielectric constant tensor:
#      x y z
#    x 3.020340 0.000000 0.000000 
#    y 0.000000 3.686000 0.000000 
#    z 0.000000 0.000000 3.547070 
# 
# 
# High freq. dielectric constant tensor:
#      x y z
#    x 1.682320 0.000000 0.000000 
#    y 0.000000 1.759220 0.000000 
#    z 0.000000 0.000000 1.737340 
# 
# From -- ./inp_files/23201.got.cif
#   From: 2010.03.12/outbox.cif.g09.slc.cpg/sg38_12_cif.got.tgz:23201.got - 2010.04.14 02:38:36.
