data_PCOD8178594
_publ_section_title
;
Structure prediction by ZEFSAII (Michael W. Deem and Ramdas Pophale) SiO2 
 PCOD8178594
Probable space group: A M M 2
;
_chemical_formula_sum "Si O2"
_cell_formula_units_Z 56
_cell_length_a 8.638618
_cell_length_b 24.412383
_cell_length_c 14.504462
_cell_angle_alpha 90.000000
_cell_angle_beta 90.000000
_cell_angle_gamma 90.000000
_cell_volume 3058.835130
_symmetry_space_group_name_H-M "A M M 2"
_symmetry_group_IT_number 38
_symmetry_cell_setting 'orthorhombic'
loop_
_space_group_symop_operation_xyz
x,y,z
-x,-y,z
-x,y,z
x,-y,z
x,1/2+y,1/2+z
-x,1/2-y,1/2+z
-x,1/2+y,1/2+z
x,1/2-y,1/2+z
loop_
_atom_site_type_symbol
_atom_site_label
_atom_site_fract_x
_atom_site_fract_y
_atom_site_fract_z
Si Si1 0.685173 0.180900 0.725200
Si Si2 0.326529 0.338460 0.906478
Si Si3 0.818914 0.386878 0.075567
Si Si4 0.315917 0.709951 0.621479
Si Si5 0.682710 0.000000 0.279343
Si Si6 0.180032 0.612183 0.737371
Si Si7 0.325806 0.286715 0.417965
Si Si8 0.180087 0.000000 0.482371
O O1 0.500000 0.178353 0.722244
O O2 0.758996 0.126914 0.678248
O O3 0.746738 0.236070 0.673974
O O4 0.746725 0.179798 0.831727
O O5 0.500000 0.362087 0.891960
O O6 0.206564 0.371817 0.843929
O O7 0.323690 0.275193 0.880892
O O8 0.274191 0.344518 0.011601
O O9 0.000000 0.376086 0.067864
O O10 0.775439 0.448304 0.045675
O O11 0.500000 0.713787 0.616924
O O12 0.268218 0.654686 0.672604
O O13 0.242595 0.707043 0.517432
O O14 0.751620 0.948272 0.224342
O O15 0.500000 0.000000 0.270075
O O16 0.725707 0.000000 0.387542
O O17 0.000000 0.612630 0.713736
O O18 0.500000 0.307164 0.432545
O O19 0.000000 0.000000 0.455078
#
# Coordination Sequence:
#
# PCOD8178594 Si02
#       8
#     8   8   8   8   4   8   8   4
#     4  10  19  34  56  81 111 147 189 233 276 326
#     4  11  19  33  55  81 111 149 189 223 267 331
#     4  11  22  35  52  79 114 149 184 229 285 332
#     4  10  19  35  57  80 109 148 191 228 274 334
#     4  12  24  38  60  83 106 147 192 225 270 338
#     4  12  24  37  53  82 119 149 180 230 284 331
#     4   9  18  33  54  80 111 147 186 233 273 317
#     4  10  22  38  54  77 114 149 180 231 286 330
#
# _framework density 18.307621999999999
#
# number of rings (size 3 to 8) (size 9 to 14) (size 15 to 20)
#    0.000    1.429    4.286    2.786    0.000    1.143 
#    0.000    0.714    0.000    0.857    0.000    5.000 
#    0.000    0.000    0.000    0.000    0.000    0.000 
#
# Total GULP energy -347130.295885 kJ/mol
# GULP energy per Si atom -12397.510567 kJ/mol
# Density = 1.826595 g / cm^3
# Si number density = 18.307622 Si / 1000 Ang^3
#
#
#
# Elastic Constant Matrix: (Units=GPa)
#
#
# Indices 1 2 3 4 5 6 
#
# 1 40.8555 10.8023 16.2301 0.0000 0.0000 0.0000
# 2 10.8023 68.8825 28.1138 0.0000 0.0000 0.0000
# 3 16.2301 28.1138 94.3505 0.0000 0.0000 0.0000
# 4 0.0000 0.0000 0.0000 28.7232 0.0000 0.0000
# 5 0.0000 0.0000 0.0000 0.0000 18.3051 0.0000
# 6 0.0000 0.0000 0.0000 0.0000 0.0000 18.0042
#
#
#
# Elastic Compliance Matrix: (Units=1/GPa)
#
#
# Indices 1 2 3 4 5 6 
#
# 1 0.026684 -0.002631 -0.003806 0.000000 0.000000 0.000000
# 2 -0.002631 0.016787 -0.004549 0.000000 0.000000 0.000000
# 3 -0.003806 -0.004549 0.012609 0.000000 0.000000 0.000000
# 4 0.000000 0.000000 0.000000 0.034815 0.000000 0.000000
# 5 0.000000 0.000000 0.000000 0.000000 0.054630 0.000000
# 6 0.000000 0.000000 0.000000 0.000000 0.000000 0.055542
#
#
# Mechanical properties :
#
#
# Convention : Reuss Voigt Hill
#
# Bulk Modulus (GPa) = 29.31980 34.93123 32.12552
# Shear Modulus (GPa) = 21.33016 22.93599 22.13307
#
# Velocity S-wave (km/s) = 3.41705 3.54335 3.48077
# Velocity P-wave (km/s) = 5.62301 5.98849 5.80862
#
# Compressibility (1/GPa) = 0.03410664
#
# Stress axis : x y z
#
# Youngs Moduli (GPa) = 37.47527 59.57026 79.30774
#
# Poissons Ratio (x) = 0.15674 0.30186
# Poissons Ratio (y) = 0.09861 0.36080
# Poissons Ratio (z) = 0.14264 0.27101
#
# Static dielectric constant tensor:
#      x y z
#    x 3.172080 0.000000 0.000000 
#    y 0.000000 3.332980 0.000000 
#    z 0.000000 0.000000 3.511550 
# 
# 
# High freq. dielectric constant tensor:
#      x y z
#    x 1.694570 0.000000 0.000000 
#    y 0.000000 1.695660 0.000000 
#    z 0.000000 0.000000 1.706390 
# 
# From -- ./inp_files/12515.got.cif
#   From: 2010.03.12/outbox.cif.g09.slc.cpg/sg38_7_cif.got.tgz:12515.got - 2010.04.14 02:38:36.
