data_PCOD8178335
_publ_section_title
;
Structure prediction by ZEFSAII (Michael W. Deem and Ramdas Pophale) SiO2 
 PCOD8178335
Probable space group: A M M 2
;
_chemical_formula_sum "Si O2"
_cell_formula_units_Z 64
_cell_length_a 19.828493
_cell_length_b 8.984492
_cell_length_c 20.015198
_cell_angle_alpha 90.000000
_cell_angle_beta 90.000000
_cell_angle_gamma 90.000000
_cell_volume 3565.686242
_symmetry_space_group_name_H-M "A M M 2"
_symmetry_group_IT_number 38
_symmetry_cell_setting 'orthorhombic'
loop_
_space_group_symop_operation_xyz
x,y,z
-x,-y,z
-x,y,z
x,-y,z
x,1/2+y,1/2+z
-x,1/2-y,1/2+z
-x,1/2+y,1/2+z
x,1/2-y,1/2+z
loop_
_atom_site_type_symbol
_atom_site_label
_atom_site_fract_x
_atom_site_fract_y
_atom_site_fract_z
Si Si1 0.185537 0.325383 0.098750
Si Si2 0.826870 0.176435 0.962578
Si Si3 0.705320 0.172109 0.771723
Si Si4 0.077928 0.328763 0.858706
Si Si5 0.660791 0.670360 0.129530
Si Si6 0.318913 0.325453 0.418012
Si Si7 0.161561 0.327903 0.731417
Si Si8 0.424426 0.323424 0.523541
O O1 0.172907 0.500000 0.094334
O O2 0.264613 0.285814 0.104740
O O3 0.147015 0.263575 0.163874
O O4 0.154587 0.247391 0.033803
O O5 0.882135 0.223447 0.908952
O O6 0.753814 0.238772 0.939515
O O7 0.827164 0.000000 0.969156
O O8 0.655592 0.199675 0.709213
O O9 0.666354 0.211808 0.840304
O O10 0.770638 0.274449 0.767710
O O11 0.729874 0.000000 0.771629
O O12 0.091524 0.500000 0.878435
O O13 0.100396 0.300085 0.782423
O O14 0.000000 0.286511 0.864203
O O15 0.644802 0.500000 0.112057
O O16 0.605609 0.772828 0.094374
O O17 0.317927 0.500000 0.430404
O O18 0.378328 0.256203 0.463641
O O19 0.169520 0.500000 0.712327
O O20 0.500000 0.260179 0.515096
O O21 0.425355 0.500000 0.522131
#
# Coordination Sequence:
#
# PCOD8178335 Si02
#       8
#     8   8   8   8   8   8   8   8
#     4  10  20  34  54  80 110 140 176 225 277 324
#     4  11  20  33  57  84 110 142 182 229 273 320
#     4   9  17  32  52  76 105 135 169 218 273 318
#     4  10  22  39  56  78 113 150 181 220 272 328
#     4   9  18  31  50  75 103 134 171 215 266 321
#     4   9  17  31  52  78 106 135 175 223 267 315
#     4  10  19  32  53  80 106 137 180 224 267 319
#     4  10  20  34  52  74 104 143 181 220 271 326
#
# _framework density 17.948858999999999
#
# number of rings (size 3 to 8) (size 9 to 14) (size 15 to 20)
#    0.000    2.250    2.500    1.875    0.000    3.000 
#    0.000    1.875    0.000    4.500    0.000    0.000 
#    0.000    0.000    0.000    0.000    0.000    0.000 
#
# Total GULP energy -396808.400603 kJ/mol
# GULP energy per Si atom -12400.262519 kJ/mol
# Density = 1.790801 g / cm^3
# Si number density = 17.948859 Si / 1000 Ang^3
#
#
#
# Elastic Constant Matrix: (Units=GPa)
#
#
# Indices 1 2 3 4 5 6 
#
# 1 97.3878 35.7551 57.8627 0.0000 0.0000 0.0000
# 2 35.7551 64.2246 46.0971 0.0000 0.0000 0.0000
# 3 57.8627 46.0971 142.8465 0.0000 0.0000 0.0000
# 4 0.0000 0.0000 0.0000 30.8451 0.0000 0.0000
# 5 0.0000 0.0000 0.0000 0.0000 25.3149 0.0000
# 6 0.0000 0.0000 0.0000 0.0000 0.0000 21.8937
#
#
#
# Elastic Compliance Matrix: (Units=1/GPa)
#
#
# Indices 1 2 3 4 5 6 
#
# 1 0.014698 -0.005088 -0.004312 0.000000 0.000000 0.000000
# 2 -0.005088 0.022025 -0.005047 0.000000 0.000000 0.000000
# 3 -0.004312 -0.005047 0.010376 0.000000 0.000000 0.000000
# 4 0.000000 0.000000 0.000000 0.032420 0.000000 0.000000
# 5 0.000000 0.000000 0.000000 0.000000 0.039502 0.000000
# 6 0.000000 0.000000 0.000000 0.000000 0.000000 0.045675
#
#
# Mechanical properties :
#
#
# Convention : Reuss Voigt Hill
#
# Bulk Modulus (GPa) = 54.92664 64.87653 59.90158
# Shear Modulus (GPa) = 25.04282 26.59367 25.81825
#
# Velocity S-wave (km/s) = 3.73933 3.85338 3.79678
# Velocity P-wave (km/s) = 7.02223 7.48477 7.25718
#
# Compressibility (1/GPa) = 0.01820610
#
# Stress axis : x y z
#
# Youngs Moduli (GPa) = 68.03609 45.40275 96.37912
#
# Poissons Ratio (x) = 0.23100 0.41557
# Poissons Ratio (y) = 0.34616 0.48639
# Poissons Ratio (z) = 0.29336 0.22913
#
# Static dielectric constant tensor:
#      x y z
#    x 3.181660 0.000000 0.000000 
#    y 0.000000 3.189490 0.000000 
#    z 0.000000 0.000000 3.508760 
# 
# 
# High freq. dielectric constant tensor:
#      x y z
#    x 1.663160 0.000000 0.000000 
#    y 0.000000 1.685500 0.000000 
#    z 0.000000 0.000000 1.710630 
# 
# From -- ./inp_files/21429.got.cif
#   From: 2010.03.12/outbox.cif.g09.slc.cpg/sg38_11_cif.got.tgz:21429.got - 2010.04.14 02:38:36.
