data_PCOD8178571
_publ_section_title
;
Structure prediction by ZEFSAII (Michael W. Deem and Ramdas Pophale) SiO2 
 PCOD8178571
Probable space group: A M M 2
;
_chemical_formula_sum "Si O2"
_cell_formula_units_Z 64
_cell_length_a 9.385558
_cell_length_b 23.767979
_cell_length_c 15.314962
_cell_angle_alpha 90.000000
_cell_angle_beta 90.000000
_cell_angle_gamma 90.000000
_cell_volume 3416.396565
_symmetry_space_group_name_H-M "A M M 2"
_symmetry_group_IT_number 38
_symmetry_cell_setting 'orthorhombic'
loop_
_space_group_symop_operation_xyz
x,y,z
-x,-y,z
-x,y,z
x,-y,z
x,1/2+y,1/2+z
-x,1/2-y,1/2+z
-x,1/2+y,1/2+z
x,1/2-y,1/2+z
loop_
_atom_site_type_symbol
_atom_site_label
_atom_site_fract_x
_atom_site_fract_y
_atom_site_fract_z
Si Si1 0.334635 0.361870 0.789190
Si Si2 0.662270 0.374052 0.592615
Si Si3 0.835259 0.364880 0.283650
Si Si4 0.165863 0.758382 0.351433
Si Si5 0.665274 0.865153 0.613101
Si Si6 0.330910 0.437050 0.949035
Si Si7 0.336262 0.751428 0.027808
Si Si8 0.833635 0.064768 0.948435
O O1 0.500000 0.345933 0.804872
O O2 0.312474 0.388858 0.693952
O O3 0.242044 0.305716 0.794515
O O4 0.279343 0.406474 0.860675
O O5 0.500000 0.385565 0.565277
O O6 0.701081 0.308806 0.577500
O O7 0.759725 0.414997 0.536662
O O8 0.809504 0.299508 0.300932
O O9 0.749815 0.384151 0.198612
O O10 0.775844 0.399988 0.366043
O O11 0.000000 0.379085 0.267781
O O12 0.233048 0.755169 0.446615
O O13 0.000000 0.772500 0.361839
O O14 0.500000 0.877700 0.629716
O O15 0.724074 0.901939 0.532192
O O16 0.692345 0.799464 0.594369
O O17 0.500000 0.439519 0.949770
O O18 0.266388 0.500000 0.951695
O O19 0.500000 0.749769 0.995048
O O20 0.000000 0.075616 0.961210
O O21 0.797369 0.000000 0.931676
#
# Coordination Sequence:
#
# PCOD8178571 Si02
#       8
#     8   8   8   8   8   8   8   8
#     4  10  20  37  59  84 115 148 181 225 281 336
#     4  10  21  35  58  87 112 142 185 236 283 331
#     4  10  22  38  55  81 112 145 185 227 277 331
#     4  11  21  34  56  84 112 147 185 225 273 331
#     4  10  20  35  57  84 111 145 185 225 275 331
#     4   9  18  34  56  81 110 145 184 225 272 325
#     4  10  19  34  55  82 113 146 181 224 283 337
#     4  10  22  41  60  77 109 155 193 230 280 333
#
# _framework density 18.733188999999999
#
# number of rings (size 3 to 8) (size 9 to 14) (size 15 to 20)
#    0.000    2.000    2.500    1.125    0.000    4.750 
#    0.000    1.250    0.000    1.125    0.000    0.000 
#    0.000    0.000    0.000    0.000    0.000    0.000 
#
# Total GULP energy -396908.319124 kJ/mol
# GULP energy per Si atom -12403.384973 kJ/mol
# Density = 1.869055 g / cm^3
# Si number density = 18.733189 Si / 1000 Ang^3
#
#
#
# Elastic Constant Matrix: (Units=GPa)
#
#
# Indices 1 2 3 4 5 6 
#
# 1 59.7105 39.7801 52.0919 0.0000 0.0000 0.0000
# 2 39.7801 93.3457 45.3533 0.0000 0.0000 0.0000
# 3 52.0919 45.3533 137.2021 0.0000 0.0000 0.0000
# 4 0.0000 0.0000 0.0000 14.3346 0.0000 0.0000
# 5 0.0000 0.0000 0.0000 0.0000 18.2523 0.0000
# 6 0.0000 0.0000 0.0000 0.0000 0.0000 23.7970
#
#
#
# Elastic Compliance Matrix: (Units=1/GPa)
#
#
# Indices 1 2 3 4 5 6 
#
# 1 0.029907 -0.008611 -0.008508 0.000000 0.000000 0.000000
# 2 -0.008611 0.015242 -0.001769 0.000000 0.000000 0.000000
# 3 -0.008508 -0.001769 0.011104 0.000000 0.000000 0.000000
# 4 0.000000 0.000000 0.000000 0.069761 0.000000 0.000000
# 5 0.000000 0.000000 0.000000 0.000000 0.054788 0.000000
# 6 0.000000 0.000000 0.000000 0.000000 0.000000 0.042022
#
#
# Mechanical properties :
#
#
# Convention : Reuss Voigt Hill
#
# Bulk Modulus (GPa) = 54.12512 62.74544 58.43528
# Shear Modulus (GPa) = 18.74345 21.47900 20.11123
#
# Velocity S-wave (km/s) = 3.16658 3.38978 3.28008
# Velocity P-wave (km/s) = 6.50576 6.99198 6.75325
#
# Compressibility (1/GPa) = 0.01847571
#
# Stress axis : x y z
#
# Youngs Moduli (GPa) = 33.43664 65.60768 90.06035
#
# Poissons Ratio (x) = 0.56497 0.76627
# Poissons Ratio (y) = 0.28793 0.15931
# Poissons Ratio (z) = 0.28449 0.11605
#
# Static dielectric constant tensor:
#      x y z
#    x 3.277950 0.000000 0.000000 
#    y 0.000000 3.581520 0.000000 
#    z 0.000000 0.000000 3.476820 
# 
# 
# High freq. dielectric constant tensor:
#      x y z
#    x 1.706880 0.000000 0.000000 
#    y 0.000000 1.727590 0.000000 
#    z 0.000000 0.000000 1.736040 
# 
# From -- ./inp_files/12771.got.cif
#   From: 2010.03.12/outbox.cif.g09.slc.cpg/sg38_7_cif.got.tgz:12771.got - 2010.04.14 02:38:36.
