data_PCOD8178414
_publ_section_title
;
Structure prediction by ZEFSAII (Michael W. Deem and Ramdas Pophale) SiO2 
 PCOD8178414
Probable space group: A M M 2
;
_chemical_formula_sum "Si O2"
_cell_formula_units_Z 64
_cell_length_a 8.679928
_cell_length_b 30.167621
_cell_length_c 14.656916
_cell_angle_alpha 90.000000
_cell_angle_beta 90.000000
_cell_angle_gamma 90.000000
_cell_volume 3837.954175
_symmetry_space_group_name_H-M "A M M 2"
_symmetry_group_IT_number 38
_symmetry_cell_setting 'orthorhombic'
loop_
_space_group_symop_operation_xyz
x,y,z
-x,-y,z
-x,y,z
x,-y,z
x,1/2+y,1/2+z
-x,1/2-y,1/2+z
-x,1/2+y,1/2+z
x,1/2-y,1/2+z
loop_
_atom_site_type_symbol
_atom_site_label
_atom_site_fract_x
_atom_site_fract_y
_atom_site_fract_z
Si Si1 0.181370 0.949358 0.855270
Si Si2 0.682123 0.364030 0.637787
Si Si3 0.326582 0.277333 0.973854
Si Si4 0.327284 0.174248 0.955216
Si Si5 0.682959 0.867707 0.773397
Si Si6 0.819732 0.708883 0.165055
Si Si7 0.681343 0.450899 0.550045
Si Si8 0.316603 0.207793 0.274419
O O1 0.259293 0.918685 0.777153
O O2 0.000000 0.942921 0.852067
O O3 0.229066 0.000000 0.834160
O O4 0.240472 0.935638 0.955846
O O5 0.500000 0.357116 0.639028
O O6 0.756200 0.341638 0.547534
O O7 0.725001 0.416481 0.631994
O O8 0.746680 0.337011 0.724662
O O9 0.500000 0.293536 0.998140
O O10 0.327963 0.226273 0.949348
O O11 0.263917 0.298928 0.879510
O O12 0.214679 0.286611 0.057680
O O13 0.500000 0.154748 0.956756
O O14 0.248027 0.154904 0.865047
O O15 0.500000 0.865812 0.763843
O O16 0.755292 0.839620 0.691105
O O17 0.745917 0.748270 0.224606
O O18 0.000000 0.710636 0.181275
O O19 0.500000 0.450341 0.532161
O O20 0.737959 0.500000 0.579507
O O21 0.500000 0.212632 0.270409
#
# Coordination Sequence:
#
# PCOD8178414 Si02
#       8
#     8   8   8   8   8   8   8   8
#     4  10  20  32  46  70 104 134 161 201 252 298
#     4   9  15  26  45  71  96 123 163 208 244 285
#     4  10  19  34  51  67  91 129 173 208 242 291
#     4   9  15  25  47  72  94 120 160 207 242 279
#     4  11  20  34  53  73  96 132 175 206 240 292
#     4  12  24  34  47  72 103 130 160 203 257 305
#     4   9  16  27  45  69  98 133 169 203 244 298
#     4  10  19  33  53  71  92 129 174 211 246 296
#
# _framework density 16.675550999999999
#
# number of rings (size 3 to 8) (size 9 to 14) (size 15 to 20)
#    0.000    2.000    3.750    1.875    0.000    1.250 
#    0.000    1.875    0.000    0.000    0.000    0.875 
#    0.000    3.000    0.000    0.000    0.000    0.000 
#
# Total GULP energy -396539.904064 kJ/mol
# GULP energy per Si atom -12391.872002 kJ/mol
# Density = 1.663760 g / cm^3
# Si number density = 16.675551 Si / 1000 Ang^3
#
#
#
# Elastic Constant Matrix: (Units=GPa)
#
#
# Indices 1 2 3 4 5 6 
#
# 1 49.6424 22.8660 28.4103 0.0000 0.0000 0.0000
# 2 22.8660 91.4620 37.2215 0.0000 0.0000 0.0000
# 3 28.4103 37.2215 79.6054 0.0000 0.0000 0.0000
# 4 0.0000 0.0000 0.0000 27.6915 0.0000 0.0000
# 5 0.0000 0.0000 0.0000 0.0000 10.8552 0.0000
# 6 0.0000 0.0000 0.0000 0.0000 0.0000 17.1791
#
#
#
# Elastic Compliance Matrix: (Units=1/GPa)
#
#
# Indices 1 2 3 4 5 6 
#
# 1 0.026135 -0.003381 -0.007746 0.000000 0.000000 0.000000
# 2 -0.003381 0.013940 -0.005311 0.000000 0.000000 0.000000
# 3 -0.007746 -0.005311 0.017810 0.000000 0.000000 0.000000
# 4 0.000000 0.000000 0.000000 0.036112 0.000000 0.000000
# 5 0.000000 0.000000 0.000000 0.000000 0.092122 0.000000
# 6 0.000000 0.000000 0.000000 0.000000 0.000000 0.058210
#
#
# Mechanical properties :
#
#
# Convention : Reuss Voigt Hill
#
# Bulk Modulus (GPa) = 39.98856 44.18950 42.08903
# Shear Modulus (GPa) = 17.51048 19.95929 18.73489
#
# Velocity S-wave (km/s) = 3.24399 3.46341 3.35549
# Velocity P-wave (km/s) = 6.16958 6.52309 6.34880
#
# Compressibility (1/GPa) = 0.02500715
#
# Stress axis : x y z
#
# Youngs Moduli (GPa) = 38.26329 71.73391 56.14838
#
# Poissons Ratio (x) = 0.24256 0.43493
# Poissons Ratio (y) = 0.12939 0.29823
# Poissons Ratio (z) = 0.29639 0.38101
#
# Static dielectric constant tensor:
#      x y z
#    x 2.921750 0.000000 0.000000 
#    y 0.000000 3.329010 0.000000 
#    z 0.000000 0.000000 3.188510 
# 
# 
# High freq. dielectric constant tensor:
#      x y z
#    x 1.619600 0.000000 0.000000 
#    y 0.000000 1.640520 0.000000 
#    z 0.000000 0.000000 1.618790 
# 
# From -- ./inp_files/13086.got.cif
#   From: 2010.03.12/outbox.cif.g09.slc.cpg/sg38_7_cif.got.tgz:13086.got - 2010.04.14 02:38:36.
