data_PCOD8178966
_publ_section_title
;
Structure prediction by ZEFSAII (Michael W. Deem and Ramdas Pophale) SiO2 
 PCOD8178966
Probable space group: A M M 2
;
_chemical_formula_sum "Si O2"
_cell_formula_units_Z 64
_cell_length_a 9.335933
_cell_length_b 19.976721
_cell_length_c 19.804499
_cell_angle_alpha 90.000000
_cell_angle_beta 90.000000
_cell_angle_gamma 90.000000
_cell_volume 3693.565380
_symmetry_space_group_name_H-M "A M M 2"
_symmetry_group_IT_number 38
_symmetry_cell_setting 'orthorhombic'
loop_
_space_group_symop_operation_xyz
x,y,z
-x,-y,z
-x,y,z
x,-y,z
x,1/2+y,1/2+z
-x,1/2-y,1/2+z
-x,1/2+y,1/2+z
x,1/2-y,1/2+z
loop_
_atom_site_type_symbol
_atom_site_label
_atom_site_fract_x
_atom_site_fract_y
_atom_site_fract_z
Si Si1 0.835430 0.578361 0.542460
Si Si2 0.665746 0.817157 0.288011
Si Si3 0.332147 0.680001 0.632637
Si Si4 0.832258 0.313840 0.290098
Si Si5 0.830444 0.926316 0.889907
Si Si6 0.166575 0.187425 0.635252
Si Si7 0.832951 0.423826 0.029331
Si Si8 0.666692 0.923885 0.397510
O O1 0.814016 0.500000 0.556563
O O2 0.731598 0.618585 0.591333
O O3 0.790341 0.595880 0.465758
O O4 0.000000 0.599043 0.555772
O O5 0.500000 0.799065 0.297202
O O6 0.700937 0.835139 0.210839
O O7 0.755887 0.753929 0.313104
O O8 0.711824 0.880232 0.333067
O O9 0.500000 0.685951 0.617901
O O10 0.257861 0.749201 0.610282
O O11 0.768609 0.373518 0.336054
O O12 0.797474 0.330938 0.212486
O O13 0.000000 0.304178 0.302539
O O14 0.000000 0.930611 0.883248
O O15 0.765677 0.000000 0.874221
O O16 0.211289 0.123009 0.591705
O O17 0.000000 0.205522 0.626245
O O18 0.789182 0.500000 0.047773
O O19 0.000000 0.418392 0.013602
O O20 0.750958 0.398324 0.963087
O O21 0.500000 0.916724 0.413872
O O22 0.708885 0.000000 0.380109
#
# Coordination Sequence:
#
# PCOD8178966 Si02
#       8
#     8   8   8   8   8   8   8   8
#     4   9  18  33  51  71  98 129 157 190 236 285
#     4   9  19  34  49  67  94 125 155 193 239 280
#     4  10  20  33  50  71  95 125 161 199 235 276
#     4   9  17  30  50  73  94 121 158 194 227 271
#     4   8  15  29  49  72  96 122 154 191 230 274
#     4   9  18  32  49  70  98 128 156 192 237 281
#     4   9  18  32  49  71  98 125 155 194 238 280
#     4   9  18  33  51  69  91 122 158 193 232 281
#
# _framework density 17.32743
#
# number of rings (size 3 to 8) (size 9 to 14) (size 15 to 20)
#    0.000    3.000    0.000    1.125    0.000    3.750 
#    0.000    8.125    0.000    2.625    0.000    3.500 
#    0.000    0.000    0.000    0.000    0.000    0.000 
#
# Total GULP energy -396806.055696 kJ/mol
# GULP energy per Si atom -12400.189240 kJ/mol
# Density = 1.728799 g / cm^3
# Si number density = 17.327430 Si / 1000 Ang^3
#
#
#
# Elastic Constant Matrix: (Units=GPa)
#
#
# Indices 1 2 3 4 5 6 
#
# 1 49.3933 49.4085 43.6546 0.0000 0.0000 0.0000
# 2 49.4085 117.7773 82.8194 0.0000 0.0000 0.0000
# 3 43.6546 82.8194 104.2257 0.0000 0.0000 0.0000
# 4 0.0000 0.0000 0.0000 35.4996 0.0000 0.0000
# 5 0.0000 0.0000 0.0000 0.0000 24.1100 0.0000
# 6 0.0000 0.0000 0.0000 0.0000 0.0000 20.8045
#
#
#
# Elastic Compliance Matrix: (Units=1/GPa)
#
#
# Indices 1 2 3 4 5 6 
#
# 1 0.037120 -0.010514 -0.007193 0.000000 0.000000 0.000000
# 2 -0.010514 0.022221 -0.013253 0.000000 0.000000 0.000000
# 3 -0.007193 -0.013253 0.023138 0.000000 0.000000 0.000000
# 4 0.000000 0.000000 0.000000 0.028169 0.000000 0.000000
# 5 0.000000 0.000000 0.000000 0.000000 0.041477 0.000000
# 6 0.000000 0.000000 0.000000 0.000000 0.000000 0.048067
#
#
# Mechanical properties :
#
#
# Convention : Reuss Voigt Hill
#
# Bulk Modulus (GPa) = 48.64064 69.24014 58.94039
# Shear Modulus (GPa) = 18.58970 22.45040 20.52005
#
# Velocity S-wave (km/s) = 3.27899 3.60343 3.44503
# Velocity P-wave (km/s) = 6.51676 7.57361 7.06497
#
# Compressibility (1/GPa) = 0.02055894
#
# Stress axis : x y z
#
# Youngs Moduli (GPa) = 26.93933 45.00262 43.21809
#
# Poissons Ratio (x) = 0.47318 0.31086
# Poissons Ratio (y) = 0.28325 0.57278
# Poissons Ratio (z) = 0.19377 0.59643
#
# Static dielectric constant tensor:
#      x y z
#    x 3.078050 0.000000 0.000000 
#    y 0.000000 3.389080 0.000000 
#    z 0.000000 0.000000 3.302160 
# 
# 
# High freq. dielectric constant tensor:
#      x y z
#    x 1.652980 0.000000 0.000000 
#    y 0.000000 1.672090 0.000000 
#    z 0.000000 0.000000 1.669670 
# 
# From -- ./inp_files/17166.got.cif
#   From: 2010.03.12/outbox.cif.g09.slc.cpg/sg38_9_cif.got.tgz:17166.got - 2010.04.14 02:38:36.
