data_PCOD8178828
_publ_section_title
;
Structure prediction by ZEFSAII (Michael W. Deem and Ramdas Pophale) SiO2 
 PCOD8178828
Probable space group: A M M 2
;
_chemical_formula_sum "Si O2"
_cell_formula_units_Z 56
_cell_length_a 15.289558
_cell_length_b 9.241846
_cell_length_c 24.965476
_cell_angle_alpha 90.000000
_cell_angle_beta 90.000000
_cell_angle_gamma 90.000000
_cell_volume 3527.715141
_symmetry_space_group_name_H-M "A M M 2"
_symmetry_group_IT_number 38
_symmetry_cell_setting 'orthorhombic'
loop_
_space_group_symop_operation_xyz
x,y,z
-x,-y,z
-x,y,z
x,-y,z
x,1/2+y,1/2+z
-x,1/2-y,1/2+z
-x,1/2+y,1/2+z
x,1/2-y,1/2+z
loop_
_atom_site_type_symbol
_atom_site_label
_atom_site_fract_x
_atom_site_fract_y
_atom_site_fract_z
Si Si1 0.738575 0.832705 0.687790
Si Si2 0.093203 0.836229 0.802975
Si Si3 0.603941 0.163439 0.996813
Si Si4 0.397694 0.668220 0.892672
Si Si5 0.718340 0.665106 0.312554
Si Si6 0.095672 0.831782 0.195016
Si Si7 0.600254 0.831111 0.600784
O O1 0.718349 0.796078 0.749567
O O2 0.824697 0.749885 0.665571
O O3 0.655354 0.784819 0.652756
O O4 0.758446 0.000000 0.679859
O O5 0.182640 0.810713 0.836623
O O6 0.091213 0.722108 0.755646
O O7 0.000000 0.820556 0.835438
O O8 0.099913 0.000000 0.779096
O O9 0.500000 0.165724 0.996492
O O10 0.638518 0.247829 0.944648
O O11 0.640462 0.000000 0.995666
O O12 0.637715 0.243492 0.050008
O O13 0.500000 0.696612 0.883728
O O14 0.377344 0.500000 0.900453
O O15 0.348063 0.726791 0.840708
O O16 0.687195 0.500000 0.321918
O O17 0.000000 0.802866 0.167820
O O18 0.117844 0.000000 0.195170
O O19 0.500000 0.789837 0.613081
O O20 0.609296 0.000000 0.587285
#
# Coordination Sequence:
#
# PCOD8178828 Si02
#       7
#     8   8   8   8   8   8   8
#     4   9  18  30  44  64  90 121 151 176 211 260
#     4   8  14  26  43  61  83 112 144 177 214 258
#     4   9  17  30  48  67  84 106 142 186 225 258
#     4  10  20  32  45  62  86 117 150 183 219 256
#     4   9  17  28  43  65  91 118 148 179 212 255
#     4   9  16  25  39  60  85 113 145 182 220 253
#     4   9  17  30  47  66  89 116 146 180 216 256
#
# _framework density 15.874299000000001
#
# number of rings (size 3 to 8) (size 9 to 14) (size 15 to 20)
#    0.000    3.000    0.000    2.143    0.000    6.857 
#    0.000    1.429    0.000    1.714    0.000    1.000 
#    0.000    5.714    0.000    0.000    0.000    0.000 
#
# Total GULP energy -346937.617531 kJ/mol
# GULP energy per Si atom -12390.629198 kJ/mol
# Density = 1.583817 g / cm^3
# Si number density = 15.874299 Si / 1000 Ang^3
#
#
#
# Elastic Constant Matrix: (Units=GPa)
#
#
# Indices 1 2 3 4 5 6 
#
# 1 93.9734 53.9042 48.7308 0.0000 0.0000 0.0000
# 2 53.9042 82.7777 44.2838 0.0000 0.0000 0.0000
# 3 48.7308 44.2838 70.1913 0.0000 0.0000 0.0000
# 4 0.0000 0.0000 0.0000 23.5646 0.0000 0.0000
# 5 0.0000 0.0000 0.0000 0.0000 2.5688 0.0000
# 6 0.0000 0.0000 0.0000 0.0000 0.0000 24.4467
#
#
#
# Elastic Compliance Matrix: (Units=1/GPa)
#
#
# Indices 1 2 3 4 5 6 
#
# 1 0.019857 -0.008386 -0.008495 0.000000 0.000000 0.000000
# 2 -0.008386 0.021777 -0.007917 0.000000 0.000000 0.000000
# 3 -0.008495 -0.007917 0.025139 0.000000 0.000000 0.000000
# 4 0.000000 0.000000 0.000000 0.042436 0.000000 0.000000
# 5 0.000000 0.000000 0.000000 0.000000 0.389283 0.000000
# 6 0.000000 0.000000 0.000000 0.000000 0.000000 0.040905
#
#
# Mechanical properties :
#
#
# Convention : Reuss Voigt Hill
#
# Bulk Modulus (GPa) = 58.21742 60.08668 59.15205
# Shear Modulus (GPa) = 8.40732 16.78427 12.59580
#
# Velocity S-wave (km/s) = 2.30384 3.25518 2.81992
# Velocity P-wave (km/s) = 6.62046 7.21540 6.92432
#
# Compressibility (1/GPa) = 0.01717699
#
# Stress axis : x y z
#
# Youngs Moduli (GPa) = 50.36074 45.92038 39.77840
#
# Poissons Ratio (x) = 0.38509 0.33791
# Poissons Ratio (y) = 0.42233 0.31493
# Poissons Ratio (z) = 0.42781 0.36355
#
# Static dielectric constant tensor:
#      x y z
#    x 3.289750 0.000000 0.000000 
#    y 0.000000 3.084770 0.000000 
#    z 0.000000 0.000000 2.744970 
# 
# 
# High freq. dielectric constant tensor:
#      x y z
#    x 1.607180 0.000000 0.000000 
#    y 0.000000 1.617980 0.000000 
#    z 0.000000 0.000000 1.564680 
# 
# From -- ./inp_files/21314.got.cif
#   From: 2010.03.12/outbox.cif.g09.slc.cpg/sg38_11_cif.got.tgz:21314.got - 2010.04.14 02:38:36.
