data_PCOD8178289
_publ_section_title
;
Structure prediction by ZEFSAII (Michael W. Deem and Ramdas Pophale) SiO2 
 PCOD8178289
Probable space group: A M M 2
;
_chemical_formula_sum "Si O2"
_cell_formula_units_Z 56
_cell_length_a 19.345510
_cell_length_b 9.525497
_cell_length_c 16.013457
_cell_angle_alpha 90.000000
_cell_angle_beta 90.000000
_cell_angle_gamma 90.000000
_cell_volume 2950.889356
_symmetry_space_group_name_H-M "A M M 2"
_symmetry_group_IT_number 38
_symmetry_cell_setting 'orthorhombic'
loop_
_space_group_symop_operation_xyz
x,y,z
-x,-y,z
-x,y,z
x,-y,z
x,1/2+y,1/2+z
-x,1/2-y,1/2+z
-x,1/2+y,1/2+z
x,1/2-y,1/2+z
loop_
_atom_site_type_symbol
_atom_site_label
_atom_site_fract_x
_atom_site_fract_y
_atom_site_fract_z
Si Si1 0.837883 0.664357 0.400440
Si Si2 0.919500 0.162415 0.065949
Si Si3 0.280649 0.337508 0.963353
Si Si4 0.711803 0.663338 0.145011
Si Si5 0.144619 0.662162 0.215377
Si Si6 0.424249 0.835315 0.726830
Si Si7 0.424695 0.842557 0.389644
O O1 0.821271 0.500000 0.405034
O O2 0.883761 0.714031 0.479601
O O3 0.765420 0.747466 0.399804
O O4 0.876354 0.697118 0.311662
O O5 0.896402 0.246024 0.148311
O O6 0.000000 0.188342 0.052394
O O7 0.902290 0.000000 0.082250
O O8 0.260249 0.500000 0.951424
O O9 0.362563 0.312431 0.952975
O O10 0.264068 0.277221 0.055574
O O11 0.697819 0.500000 0.131486
O O12 0.773114 0.693220 0.210126
O O13 0.638744 0.730949 0.173359
O O14 0.128843 0.500000 0.193972
O O15 0.500000 0.804121 0.686038
O O16 0.419842 0.768522 0.816911
O O17 0.413125 0.000000 0.739353
O O18 0.500000 0.827635 0.434874
O O19 0.417091 0.000000 0.352701
#
# Coordination Sequence:
#
# PCOD8178289 Si02
#       7
#     8   8   8   8   8   8   8
#     4  10  21  37  59  85 113 145 181 224 274 324
#     4  10  22  40  59  83 116 146 175 218 271 327
#     4  10  19  32  52  76 106 143 183 227 272 322
#     4   9  17  30  49  75 105 134 175 228 268 308
#     4  10  20  36  59  84 111 146 186 226 267 318
#     4   9  17  30  49  71  97 134 179 226 273 320
#     4   9  18  31  46  68 100 137 177 223 274 324
#
# _framework density 18.977329999999998
#
# number of rings (size 3 to 8) (size 9 to 14) (size 15 to 20)
#    0.000    2.429    1.429    0.857    0.000    3.714 
#    0.000    5.714    0.000    0.000    0.000    4.000 
#    0.000    0.000    0.000    0.000    0.000    0.000 
#
# Total GULP energy -346990.558404 kJ/mol
# GULP energy per Si atom -12392.519943 kJ/mol
# Density = 1.893414 g / cm^3
# Si number density = 18.977330 Si / 1000 Ang^3
#
#
#
# Elastic Constant Matrix: (Units=GPa)
#
#
# Indices 1 2 3 4 5 6 
#
# 1 96.2413 36.5793 47.4632 0.0000 0.0000 0.0000
# 2 36.5793 43.5741 39.3830 0.0000 0.0000 0.0000
# 3 47.4632 39.3830 119.0490 0.0000 0.0000 0.0000
# 4 0.0000 0.0000 0.0000 24.7956 0.0000 0.0000
# 5 0.0000 0.0000 0.0000 0.0000 27.5013 0.0000
# 6 0.0000 0.0000 0.0000 0.0000 0.0000 25.8656
#
#
#
# Elastic Compliance Matrix: (Units=1/GPa)
#
#
# Indices 1 2 3 4 5 6 
#
# 1 0.015861 -0.010841 -0.002737 0.000000 0.000000 0.000000
# 2 -0.010841 0.040147 -0.008959 0.000000 0.000000 0.000000
# 3 -0.002737 -0.008959 0.012455 0.000000 0.000000 0.000000
# 4 0.000000 0.000000 0.000000 0.040330 0.000000 0.000000
# 5 0.000000 0.000000 0.000000 0.000000 0.036362 0.000000
# 6 0.000000 0.000000 0.000000 0.000000 0.000000 0.038661
#
#
# Mechanical properties :
#
#
# Convention : Reuss Voigt Hill
#
# Bulk Modulus (GPa) = 42.75544 56.19059 49.47301
# Shear Modulus (GPa) = 21.12492 24.66175 22.89333
#
# Velocity S-wave (km/s) = 3.34003 3.60882 3.47703
# Velocity P-wave (km/s) = 6.11989 6.85845 6.49967
#
# Compressibility (1/GPa) = 0.02338884
#
# Stress axis : x y z
#
# Youngs Moduli (GPa) = 63.04842 24.90815 80.28883
#
# Poissons Ratio (x) = 0.27002 0.21977
# Poissons Ratio (y) = 0.68350 0.71933
# Poissons Ratio (z) = 0.17258 0.22316
#
# Static dielectric constant tensor:
#      x y z
#    x 3.640730 0.000000 0.000000 
#    y 0.000000 3.276340 0.000000 
#    z 0.000000 0.000000 3.525400 
# 
# 
# High freq. dielectric constant tensor:
#      x y z
#    x 1.744850 0.000000 0.000000 
#    y 0.000000 1.714000 0.000000 
#    z 0.000000 0.000000 1.732840 
# 
# From -- ./inp_files/15456.got.cif
#   From: 2010.03.12/outbox.cif.g09.slc.cpg/sg38_8_cif.got.tgz:15456.got - 2010.04.14 02:38:36.
