data_PCOD8178236
_publ_section_title
;
Structure prediction by ZEFSAII (Michael W. Deem and Ramdas Pophale) SiO2 
 PCOD8178236
Probable space group: A M M 2
;
_chemical_formula_sum "Si O2"
_cell_formula_units_Z 64
_cell_length_a 8.924337
_cell_length_b 30.076669
_cell_length_c 14.344666
_cell_angle_alpha 90.000000
_cell_angle_beta 90.000000
_cell_angle_gamma 90.000000
_cell_volume 3850.313913
_symmetry_space_group_name_H-M "A M M 2"
_symmetry_group_IT_number 38
_symmetry_cell_setting 'orthorhombic'
loop_
_space_group_symop_operation_xyz
x,y,z
-x,-y,z
-x,y,z
x,-y,z
x,1/2+y,1/2+z
-x,1/2-y,1/2+z
-x,1/2+y,1/2+z
x,1/2-y,1/2+z
loop_
_atom_site_type_symbol
_atom_site_label
_atom_site_fract_x
_atom_site_fract_y
_atom_site_fract_z
Si Si1 0.329100 0.266182 0.420460
Si Si2 0.327614 0.197205 0.723501
Si Si3 0.675216 0.286919 0.627218
Si Si4 0.828947 0.824313 0.412776
Si Si5 0.827755 0.127791 0.604121
Si Si6 0.824638 0.449873 0.807959
Si Si7 0.673439 0.449240 0.005567
Si Si8 0.324000 0.631927 0.746632
O O1 0.500000 0.247718 0.424414
O O2 0.311363 0.300440 0.335405
O O3 0.287967 0.290039 0.517664
O O4 0.213919 0.226840 0.403113
O O5 0.500000 0.191391 0.693118
O O6 0.259943 0.241894 0.674548
O O7 0.237354 0.153456 0.693471
O O8 0.500000 0.287082 0.648887
O O9 0.742964 0.331362 0.674970
O O10 0.805658 0.838731 0.518571
O O11 0.717349 0.853262 0.350781
O O12 0.000000 0.831165 0.379806
O O13 0.738951 0.081999 0.586836
O O14 0.000000 0.115790 0.622194
O O15 0.786144 0.500000 0.776294
O O16 0.752404 0.416416 0.731843
O O17 0.000000 0.441307 0.813472
O O18 0.760789 0.439878 0.910220
O O19 0.500000 0.438289 0.988316
O O20 0.696263 0.500000 0.038240
O O21 0.500000 0.626077 0.734975
#
# Coordination Sequence:
#
# PCOD8178236 Si02
#       8
#     8   8   8   8   8   8   8   8
#     4  10  19  34  51  68  96 131 168 209 249 288
#     4  10  19  32  51  71  94 130 170 205 245 289
#     4   9  18  31  49  73  96 124 165 207 247 287
#     4  11  21  30  44  69 100 132 166 202 244 288
#     4  11  22  33  47  71 102 135 166 200 246 291
#     4  10  20  33  48  70 101 132 161 198 246 295
#     4  10  20  33  51  74  98 128 165 202 241 291
#     4  11  20  32  50  72  97 131 170 203 241 290
#
# _framework density 16.622021
#
# number of rings (size 3 to 8) (size 9 to 14) (size 15 to 20)
#    0.000    1.750    3.750    1.875    0.000    3.000 
#    0.000    1.250    0.000    0.000    0.000    0.875 
#    0.000    3.000    0.000    0.000    0.000    0.000 
#
# Total GULP energy -396804.868280 kJ/mol
# GULP energy per Si atom -12400.152134 kJ/mol
# Density = 1.658419 g / cm^3
# Si number density = 16.622021 Si / 1000 Ang^3
#
#
#
# Elastic Constant Matrix: (Units=GPa)
#
#
# Indices 1 2 3 4 5 6 
#
# 1 56.8892 41.4784 24.3442 0.0000 0.0000 0.0000
# 2 41.4784 113.4287 33.2235 0.0000 0.0000 0.0000
# 3 24.3442 33.2235 70.5055 0.0000 0.0000 0.0000
# 4 0.0000 0.0000 0.0000 26.8762 0.0000 0.0000
# 5 0.0000 0.0000 0.0000 0.0000 13.4504 0.0000
# 6 0.0000 0.0000 0.0000 0.0000 0.0000 26.6244
#
#
#
# Elastic Compliance Matrix: (Units=1/GPa)
#
#
# Indices 1 2 3 4 5 6 
#
# 1 0.025462 -0.007814 -0.005109 0.000000 0.000000 0.000000
# 2 -0.007814 0.012626 -0.003251 0.000000 0.000000 0.000000
# 3 -0.005109 -0.003251 0.017480 0.000000 0.000000 0.000000
# 4 0.000000 0.000000 0.000000 0.037208 0.000000 0.000000
# 5 0.000000 0.000000 0.000000 0.000000 0.074347 0.000000
# 6 0.000000 0.000000 0.000000 0.000000 0.000000 0.037560
#
#
# Mechanical properties :
#
#
# Convention : Reuss Voigt Hill
#
# Bulk Modulus (GPa) = 43.07121 48.76840 45.91980
# Shear Modulus (GPa) = 20.42726 22.84203 21.63464
#
# Velocity S-wave (km/s) = 3.50941 3.71105 3.61163
# Velocity P-wave (km/s) = 6.51073 6.91128 6.71400
#
# Compressibility (1/GPa) = 0.02321737
#
# Stress axis : x y z
#
# Youngs Moduli (GPa) = 39.27438 79.20165 57.20962
#
# Poissons Ratio (x) = 0.61891 0.29230
# Poissons Ratio (y) = 0.30690 0.18602
# Poissons Ratio (z) = 0.20066 0.25752
#
# Static dielectric constant tensor:
#      x y z
#    x 3.096320 0.000000 0.000000 
#    y 0.000000 3.296080 0.000000 
#    z 0.000000 0.000000 2.959480 
# 
# 
# High freq. dielectric constant tensor:
#      x y z
#    x 1.639490 0.000000 0.000000 
#    y 0.000000 1.636800 0.000000 
#    z 0.000000 0.000000 1.607570 
# 
# From -- ./inp_files/13056.got.cif
#   From: 2010.03.12/outbox.cif.g09.slc.cpg/sg38_7_cif.got.tgz:13056.got - 2010.04.14 02:38:36.
