data_PCOD8178699
_publ_section_title
;
Structure prediction by ZEFSAII (Michael W. Deem and Ramdas Pophale) SiO2 
 PCOD8178699
Probable space group: A M M 2
;
_chemical_formula_sum "Si O2"
_cell_formula_units_Z 48
_cell_length_a 8.823608
_cell_length_b 18.221906
_cell_length_c 15.076772
_cell_angle_alpha 90.000000
_cell_angle_beta 90.000000
_cell_angle_gamma 90.000000
_cell_volume 2424.087962
_symmetry_space_group_name_H-M "A M M 2"
_symmetry_group_IT_number 38
_symmetry_cell_setting 'orthorhombic'
loop_
_space_group_symop_operation_xyz
x,y,z
-x,-y,z
-x,y,z
x,-y,z
x,1/2+y,1/2+z
-x,1/2-y,1/2+z
-x,1/2+y,1/2+z
x,1/2-y,1/2+z
loop_
_atom_site_type_symbol
_atom_site_label
_atom_site_fract_x
_atom_site_fract_y
_atom_site_fract_z
Si Si1 0.674837 0.745940 0.942070
Si Si2 0.823209 0.891338 0.979471
Si Si3 0.678505 0.500000 0.350753
Si Si4 0.178661 0.500000 0.160861
Si Si5 0.679517 0.772827 0.242008
Si Si6 0.325553 0.079104 0.156075
Si Si7 0.675395 0.146773 0.605244
O O1 0.500000 0.771216 0.939974
O O2 0.776529 0.807096 0.988385
O O3 0.738500 0.735137 0.842584
O O4 0.693054 0.674748 0.004108
O O5 0.741953 0.926311 0.894608
O O6 0.000000 0.901301 0.966275
O O7 0.770546 0.932086 0.067453
O O8 0.500000 0.500000 0.358263
O O9 0.726978 0.500000 0.250068
O O10 0.224778 0.426607 0.108067
O O11 0.000000 0.500000 0.178404
O O12 0.500000 0.774438 0.240761
O O13 0.741445 0.852609 0.211371
O O14 0.735962 0.707309 0.177105
O O15 0.500000 0.095156 0.130556
O O16 0.312643 0.000000 0.207209
O O17 0.500000 0.128753 0.626260
#
# Coordination Sequence:
#
# PCOD8178699 Si02
#       7
#     8   8   4   4   8   8   8
#     4  10  20  37  62  88 116 158 208 252 295 356
#     4  12  23  35  56  89 124 154 193 245 306 368
#     4  12  24  40  62  87 118 157 200 249 304 366
#     4  12  26  42  60  87 122 155 198 253 316 368
#     4   9  18  35  60  91 117 147 200 254 292 344
#     4  10  19  35  59  86 119 157 195 242 300 357
#     4  10  20  38  62  87 120 160 205 249 299 362
#
# _framework density 19.801262000000001
#
# number of rings (size 3 to 8) (size 9 to 14) (size 15 to 20)
#    0.000    1.500    2.500    4.000    0.000    2.000 
#    1.500    0.833    0.000    0.000    0.000    0.000 
#    0.000    0.000    0.000    0.000    0.000    0.000 
#
# Total GULP energy -297559.499469 kJ/mol
# GULP energy per Si atom -12398.312478 kJ/mol
# Density = 1.975619 g / cm^3
# Si number density = 19.801262 Si / 1000 Ang^3
#
#
#
# Elastic Constant Matrix: (Units=GPa)
#
#
# Indices 1 2 3 4 5 6 
#
# 1 96.4265 34.8291 18.3927 0.0000 0.0000 0.0000
# 2 34.8291 140.7394 37.4870 0.0000 0.0000 0.0000
# 3 18.3927 37.4870 96.7285 0.0000 0.0000 0.0000
# 4 0.0000 0.0000 0.0000 29.5811 0.0000 0.0000
# 5 0.0000 0.0000 0.0000 0.0000 9.7078 0.0000
# 6 0.0000 0.0000 0.0000 0.0000 0.0000 13.4764
#
#
#
# Elastic Compliance Matrix: (Units=1/GPa)
#
#
# Indices 1 2 3 4 5 6 
#
# 1 0.011514 -0.002527 -0.001210 0.000000 0.000000 0.000000
# 2 -0.002527 0.008478 -0.002805 0.000000 0.000000 0.000000
# 3 -0.001210 -0.002805 0.011655 0.000000 0.000000 0.000000
# 4 0.000000 0.000000 0.000000 0.033805 0.000000 0.000000
# 5 0.000000 0.000000 0.000000 0.000000 0.103010 0.000000
# 6 0.000000 0.000000 0.000000 0.000000 0.000000 0.074204
#
#
# Mechanical properties :
#
#
# Convention : Reuss Voigt Hill
#
# Bulk Modulus (GPa) = 53.87048 57.25689 55.56369
# Shear Modulus (GPa) = 19.08846 26.76544 22.92695
#
# Velocity S-wave (km/s) = 3.10821 3.68054 3.40642
# Velocity P-wave (km/s) = 6.33608 6.85860 6.60251
#
# Compressibility (1/GPa) = 0.01856304
#
# Stress axis : x y z
#
# Youngs Moduli (GPa) = 86.84931 117.95406 85.79724
#
# Poissons Ratio (x) = 0.29809 0.10381
# Poissons Ratio (y) = 0.21948 0.24067
# Poissons Ratio (z) = 0.10509 0.33087
#
# Static dielectric constant tensor:
#      x y z
#    x 3.300380 0.000000 0.000000 
#    y 0.000000 3.877010 0.000000 
#    z 0.000000 0.000000 3.666990 
# 
# 
# High freq. dielectric constant tensor:
#      x y z
#    x 1.742850 0.000000 0.000000 
#    y 0.000000 1.785900 0.000000 
#    z 0.000000 0.000000 1.763630 
# 
# From -- ./inp_files/12095.got.cif
#   From: 2010.03.12/outbox.cif.g09.slc.cpg/sg38_7_cif.got.tgz:12095.got - 2010.04.14 02:38:36.
