data_PCOD8178627
_publ_section_title
;
Structure prediction by ZEFSAII (Michael W. Deem and Ramdas Pophale) SiO2 
 PCOD8178627
Probable space group: A M M 2
;
_chemical_formula_sum "Si O2"
_cell_formula_units_Z 56
_cell_length_a 13.212608
_cell_length_b 22.948087
_cell_length_c 9.892364
_cell_angle_alpha 90.000000
_cell_angle_beta 90.000000
_cell_angle_gamma 90.000000
_cell_volume 2999.405105
_symmetry_space_group_name_H-M "A M M 2"
_symmetry_group_IT_number 38
_symmetry_cell_setting 'orthorhombic'
loop_
_space_group_symop_operation_xyz
x,y,z
-x,-y,z
-x,y,z
x,-y,z
x,1/2+y,1/2+z
-x,1/2-y,1/2+z
-x,1/2+y,1/2+z
x,1/2-y,1/2+z
loop_
_atom_site_type_symbol
_atom_site_label
_atom_site_fract_x
_atom_site_fract_y
_atom_site_fract_z
Si Si1 0.611153 0.340429 0.651180
Si Si2 0.230913 0.753588 0.034258
Si Si3 0.319182 0.434861 0.460030
Si Si4 0.380643 0.065070 0.666875
Si Si5 0.111626 0.565197 0.371039
Si Si6 0.116391 0.808785 0.777494
Si Si7 0.385035 0.841575 0.454093
O O1 0.500000 0.310308 0.630995
O O2 0.705106 0.299489 0.620215
O O3 0.613956 0.396652 0.557321
O O4 0.620127 0.364868 0.802119
O O5 0.167641 0.785072 0.915858
O O6 0.313253 0.713705 0.962183
O O7 0.162501 0.718084 0.140394
O O8 0.361379 0.500000 0.474962
O O9 0.331405 0.412794 0.305883
O O10 0.197769 0.430598 0.487821
O O11 0.500000 0.067281 0.683570
O O12 0.342670 0.107532 0.549399
O O13 0.343760 0.000000 0.630999
O O14 0.122981 0.500000 0.300768
O O15 0.125047 0.620299 0.269121
O O16 0.000000 0.569689 0.438611
O O17 0.000000 0.789088 0.783187
O O18 0.500000 0.824025 0.494450
#
# Coordination Sequence:
#
# PCOD8178627 Si02
#       7
#     8   8   8   8   8   8   8
#     4  11  23  37  54  82 117 156 196 238 292 353
#     4  12  22  41  56  84 118 150 192 244 293 347
#     4  10  19  34  57  86 115 149 193 246 294 342
#     4   9  18  33  54  81 112 149 193 239 289 345
#     4   9  18  34  57  86 115 145 188 240 292 343
#     4  11  23  39  64  89 115 153 195 243 297 355
#     4  10  22  37  55  79 113 156 195 233 289 352
#
# _framework density 18.670368
#
# number of rings (size 3 to 8) (size 9 to 14) (size 15 to 20)
#    0.000    1.714    2.857    2.143    0.000    1.429 
#    0.000    1.429    0.000    0.000    0.000    0.000 
#    0.000    5.714    0.000    0.000    0.000    0.000 
#
# Total GULP energy -346957.099723 kJ/mol
# GULP energy per Si atom -12391.324990 kJ/mol
# Density = 1.862787 g / cm^3
# Si number density = 18.670368 Si / 1000 Ang^3
#
#
#
# Elastic Constant Matrix: (Units=GPa)
#
#
# Indices 1 2 3 4 5 6 
#
# 1 76.2383 30.3870 44.7023 0.0000 0.0000 0.0000
# 2 30.3870 101.3206 60.6530 0.0000 0.0000 0.0000
# 3 44.7023 60.6530 94.0540 0.0000 0.0000 0.0000
# 4 0.0000 0.0000 0.0000 18.7395 0.0000 0.0000
# 5 0.0000 0.0000 0.0000 0.0000 23.3776 0.0000
# 6 0.0000 0.0000 0.0000 0.0000 0.0000 26.6217
#
#
#
# Elastic Compliance Matrix: (Units=1/GPa)
#
#
# Indices 1 2 3 4 5 6 
#
# 1 0.018197 -0.000456 -0.008355 0.000000 0.000000 0.000000
# 2 -0.000456 0.016087 -0.010157 0.000000 0.000000 0.000000
# 3 -0.008355 -0.010157 0.021153 0.000000 0.000000 0.000000
# 4 0.000000 0.000000 0.000000 0.053363 0.000000 0.000000
# 5 0.000000 0.000000 0.000000 0.000000 0.042776 0.000000
# 6 0.000000 0.000000 0.000000 0.000000 0.000000 0.037563
#
#
# Mechanical properties :
#
#
# Convention : Reuss Voigt Hill
#
# Bulk Modulus (GPa) = 57.13903 60.34417 58.74160
# Shear Modulus (GPa) = 21.46756 22.80581 22.13669
#
# Velocity S-wave (km/s) = 3.39458 3.49878 3.44708
# Velocity P-wave (km/s) = 6.78489 6.97947 6.88287
#
# Compressibility (1/GPa) = 0.01750117
#
# Stress axis : x y z
#
# Youngs Moduli (GPa) = 54.95293 62.16272 47.27436
#
# Poissons Ratio (x) = 0.02836 0.39496
# Poissons Ratio (y) = 0.02507 0.48017
# Poissons Ratio (z) = 0.45912 0.63139
#
# Static dielectric constant tensor:
#      x y z
#    x 3.723340 0.000000 0.000000 
#    y 0.000000 3.623130 0.000000 
#    z 0.000000 0.000000 3.235200 
# 
# 
# High freq. dielectric constant tensor:
#      x y z
#    x 1.742490 0.000000 0.000000 
#    y 0.000000 1.731420 0.000000 
#    z 0.000000 0.000000 1.696550 
# 
# From -- ./inp_files/5703.got.cif
#   From: 2010.03.12/outbox.cif.g09.slc.cpg/sg38_3_cif.got.tgz:5703.got - 2010.04.14 02:38:36.
