data_PCOD8178126
_publ_section_title
;
Structure prediction by ZEFSAII (Michael W. Deem and Ramdas Pophale) SiO2 
 PCOD8178126
Probable space group: A M M 2
;
_chemical_formula_sum "Si O2"
_cell_formula_units_Z 64
_cell_length_a 8.956319
_cell_length_b 22.958133
_cell_length_c 15.709361
_cell_angle_alpha 90.000000
_cell_angle_beta 90.000000
_cell_angle_gamma 90.000000
_cell_volume 3230.164508
_symmetry_space_group_name_H-M "A M M 2"
_symmetry_group_IT_number 38
_symmetry_cell_setting 'orthorhombic'
loop_
_space_group_symop_operation_xyz
x,y,z
-x,-y,z
-x,y,z
x,-y,z
x,1/2+y,1/2+z
-x,1/2-y,1/2+z
-x,1/2+y,1/2+z
x,1/2-y,1/2+z
loop_
_atom_site_type_symbol
_atom_site_label
_atom_site_fract_x
_atom_site_fract_y
_atom_site_fract_z
Si Si1 0.827650 0.935945 0.190860
Si Si2 0.666079 0.568968 0.172317
Si Si3 0.823762 0.684076 0.612799
Si Si4 0.826513 0.065273 0.843729
Si Si5 0.175464 0.318428 0.426805
Si Si6 0.177774 0.727071 0.791110
Si Si7 0.834278 0.068638 0.510179
Si Si8 0.675392 0.610859 0.847744
O O1 0.778972 0.883714 0.128309
O O2 0.727862 0.933991 0.275454
O O3 0.000000 0.927460 0.217979
O O4 0.804241 0.000000 0.148156
O O5 0.500000 0.595704 0.166511
O O6 0.658893 0.500000 0.163184
O O7 0.736988 0.586424 0.261709
O O8 0.768817 0.595446 0.097616
O O9 0.757244 0.701398 0.519354
O O10 0.765106 0.724768 0.691546
O O11 0.000000 0.689570 0.607647
O O12 0.789700 0.112660 0.916383
O O13 0.000000 0.066124 0.819206
O O14 0.779444 0.000000 0.874010
O O15 0.240001 0.282049 0.345865
O O16 0.000000 0.307476 0.428104
O O17 0.237839 0.671107 0.839313
O O18 0.000000 0.725309 0.790514
O O19 0.716896 0.083911 0.437801
O O20 0.000000 0.095156 0.493780
O O21 0.847659 0.000000 0.518454
O O22 0.500000 0.621377 0.841692
#
# Coordination Sequence:
#
# PCOD8178126 Si02
#       8
#     8   8   8   8   8   8   8   8
#     4   9  17  30  50  76 106 139 174 212 262 324
#     4   9  17  30  47  68 100 139 173 208 254 310
#     4   8  15  29  50  75 103 132 171 225 271 310
#     4   9  17  30  49  75 106 135 167 214 271 329
#     4   9  17  31  53  80 105 135 180 227 272 320
#     4   9  18  35  54  72 100 137 181 227 269 316
#     4  10  19  31  49  73 102 137 179 224 268 315
#     4  11  21  32  48  71 103 139 178 222 271 323
#
# _framework density 19.813231999999999
#
# number of rings (size 3 to 8) (size 9 to 14) (size 15 to 20)
#    0.000    2.750    0.000    3.000    0.000    4.500 
#    2.250    3.125    0.000    6.000    0.000    3.500 
#    0.000    0.000    0.000    0.000    0.000    0.000 
#
# Total GULP energy -396481.872183 kJ/mol
# GULP energy per Si atom -12390.058506 kJ/mol
# Density = 1.976814 g / cm^3
# Si number density = 19.813232 Si / 1000 Ang^3
#
#
#
# Elastic Constant Matrix: (Units=GPa)
#
#
# Indices 1 2 3 4 5 6 
#
# 1 35.4927 7.0692 21.3475 0.0000 0.0000 0.0000
# 2 7.0692 81.6676 51.4617 0.0000 0.0000 0.0000
# 3 21.3475 51.4617 150.9333 0.0000 0.0000 0.0000
# 4 0.0000 0.0000 0.0000 21.9904 0.0000 0.0000
# 5 0.0000 0.0000 0.0000 0.0000 9.1928 0.0000
# 6 0.0000 0.0000 0.0000 0.0000 0.0000 9.9659
#
#
#
# Elastic Compliance Matrix: (Units=1/GPa)
#
#
# Indices 1 2 3 4 5 6 
#
# 1 0.030795 0.000101 -0.004390 0.000000 0.000000 0.000000
# 2 0.000101 0.015596 -0.005332 0.000000 0.000000 0.000000
# 3 -0.004390 -0.005332 0.009064 0.000000 0.000000 0.000000
# 4 0.000000 0.000000 0.000000 0.045474 0.000000 0.000000
# 5 0.000000 0.000000 0.000000 0.000000 0.108781 0.000000
# 6 0.000000 0.000000 0.000000 0.000000 0.000000 0.100342
#
#
# Mechanical properties :
#
#
# Convention : Reuss Voigt Hill
#
# Bulk Modulus (GPa) = 27.61431 47.53895 37.57663
# Shear Modulus (GPa) = 14.64705 20.77749 17.71227
#
# Velocity S-wave (km/s) = 2.72188 3.24183 2.99316
# Velocity P-wave (km/s) = 4.88321 6.16913 5.56345
#
# Compressibility (1/GPa) = 0.03621311
#
# Stress axis : x y z
#
# Youngs Moduli (GPa) = 32.47268 64.12001 110.32402
#
# Poissons Ratio (x) = -0.00645 0.48431
# Poissons Ratio (y) = -0.00327 0.58821
# Poissons Ratio (z) = 0.14255 0.34187
#
# Static dielectric constant tensor:
#      x y z
#    x 3.366340 0.000000 0.000000 
#    y 0.000000 3.540260 0.000000 
#    z 0.000000 0.000000 3.893630 
# 
# 
# High freq. dielectric constant tensor:
#      x y z
#    x 1.736200 0.000000 0.000000 
#    y 0.000000 1.752450 0.000000 
#    z 0.000000 0.000000 1.775200 
# 
# From -- ./inp_files/12744.got.cif
#   From: 2010.03.12/outbox.cif.g09.slc.cpg/sg38_7_cif.got.tgz:12744.got - 2010.04.14 02:38:36.
