data_PCOD8178364
_publ_section_title
;
Structure prediction by ZEFSAII (Michael W. Deem and Ramdas Pophale) SiO2 
 PCOD8178364
Probable space group: A M M 2
;
_chemical_formula_sum "Si O2"
_cell_formula_units_Z 48
_cell_length_a 18.642652
_cell_length_b 18.101077
_cell_length_c 7.897044
_cell_angle_alpha 90.000000
_cell_angle_beta 90.000000
_cell_angle_gamma 90.000000
_cell_volume 2664.873918
_symmetry_space_group_name_H-M "A M M 2"
_symmetry_group_IT_number 38
_symmetry_cell_setting 'orthorhombic'
loop_
_space_group_symop_operation_xyz
x,y,z
-x,-y,z
-x,y,z
x,-y,z
x,1/2+y,1/2+z
-x,1/2-y,1/2+z
-x,1/2+y,1/2+z
x,1/2-y,1/2+z
loop_
_atom_site_type_symbol
_atom_site_label
_atom_site_fract_x
_atom_site_fract_y
_atom_site_fract_z
Si Si1 0.082464 0.912823 0.679480
Si Si2 0.324581 0.414898 0.490593
Si Si3 0.675418 0.585102 0.868367
Si Si4 0.580098 0.587770 0.179482
Si Si5 0.194163 0.669748 0.993930
Si Si6 0.194162 0.830252 0.865034
O O1 0.121306 0.879141 0.511671
O O2 0.121304 0.879138 0.847289
O O3 0.000000 0.888802 0.679474
O O4 0.092064 0.000000 0.679488
O O5 0.305998 0.500000 0.451034
O O6 0.357910 0.406218 0.679480
O O7 0.380134 0.384480 0.350230
O O8 0.250791 0.369262 0.487816
O O9 0.694003 0.500000 0.907926
O O10 0.749206 0.630740 0.871146
O O11 0.619864 0.615519 0.008729
O O12 0.500000 0.621485 0.179483
O O13 0.576101 0.500000 0.179484
O O14 0.171779 0.750000 0.929483
O O15 0.230898 0.676521 0.179482
#
# Coordination Sequence:
#
# PCOD8178364 Si02
#       6
#     8   8   8   8   8   8
#     4   9  19  35  57  81 112 155 190 225 283 344
#     4  10  19  32  54  81 109 146 191 236 281 335
#     4  10  19  32  54  81 109 146 191 236 281 335
#     4   9  17  31  51  79 113 146 186 237 284 331
#     4  10  20  33  54  80 110 145 188 233 280 327
#     4  10  20  33  54  80 110 145 188 233 280 327
#
# _framework density 18.01211
#
# number of rings (size 3 to 8) (size 9 to 14) (size 15 to 20)
#    1.000    1.333    1.667    2.000    0.000    1.333 
#    0.000    3.333    0.000    1.000    0.000    7.000 
#    0.000    0.000    0.000    0.000    0.000    0.000 
#
# Total GULP energy -297411.554870 kJ/mol
# GULP energy per Si atom -12392.148120 kJ/mol
# Density = 1.797111 g / cm^3
# Si number density = 18.012110 Si / 1000 Ang^3
#
#
#
# Elastic Constant Matrix: (Units=GPa)
#
#
# Indices 1 2 3 4 5 6 
#
# 1 141.3572 50.5733 51.5165 0.0000 0.0000 0.0000
# 2 50.5733 80.0810 27.6127 0.0000 0.0000 0.0000
# 3 51.5165 27.6127 113.9591 0.0000 0.0000 0.0000
# 4 0.0000 0.0000 0.0000 27.5173 0.0000 0.0000
# 5 0.0000 0.0000 0.0000 0.0000 14.8036 0.0000
# 6 0.0000 0.0000 0.0000 0.0000 0.0000 7.5254
#
#
#
# Elastic Compliance Matrix: (Units=1/GPa)
#
#
# Indices 1 2 3 4 5 6 
#
# 1 0.010173 -0.005280 -0.003319 0.000000 0.000000 0.000000
# 2 -0.005280 0.016366 -0.001579 0.000000 0.000000 0.000000
# 3 -0.003319 -0.001579 0.010658 0.000000 0.000000 0.000000
# 4 0.000000 0.000000 0.000000 0.036341 0.000000 0.000000
# 5 0.000000 0.000000 0.000000 0.000000 0.067551 0.000000
# 6 0.000000 0.000000 0.000000 0.000000 0.000000 0.132883
#
#
# Mechanical properties :
#
#
# Convention : Reuss Voigt Hill
#
# Bulk Modulus (GPa) = 59.37858 66.08915 62.73387
# Shear Modulus (GPa) = 16.66985 23.68223 20.17604
#
# Velocity S-wave (km/s) = 3.04547 3.62994 3.35048
# Velocity P-wave (km/s) = 6.73825 7.37156 7.06201
#
# Compressibility (1/GPa) = 0.01684109
#
# Stress axis : x y z
#
# Youngs Moduli (GPa) = 98.29907 61.10176 93.82429
#
# Poissons Ratio (x) = 0.32261 0.31145
# Poissons Ratio (y) = 0.51901 0.14812
# Poissons Ratio (z) = 0.32630 0.09646
#
# Static dielectric constant tensor:
#      x y z
#    x 3.193430 0.000000 0.000000 
#    y 0.000000 3.077110 0.000000 
#    z 0.000000 0.000000 3.311210 
# 
# 
# High freq. dielectric constant tensor:
#      x y z
#    x 1.679360 0.000000 0.000000 
#    y 0.000000 1.681600 0.000000 
#    z 0.000000 0.000000 1.695320 
# 
# From -- ./inp_files/6792.got.cif
#   From: 2010.03.12/outbox.cif.g09.slc.cpg/sg38_4_cif.got.tgz:6792.got - 2010.04.14 02:38:36.
