data_PCOD8178675
_publ_section_title
;
Structure prediction by ZEFSAII (Michael W. Deem and Ramdas Pophale) SiO2 
 PCOD8178675
Probable space group: A M M 2
;
_chemical_formula_sum "Si O2"
_cell_formula_units_Z 48
_cell_length_a 9.120597
_cell_length_b 30.505810
_cell_length_c 9.173582
_cell_angle_alpha 90.000000
_cell_angle_beta 90.000000
_cell_angle_gamma 90.000000
_cell_volume 2552.376721
_symmetry_space_group_name_H-M "A M M 2"
_symmetry_group_IT_number 38
_symmetry_cell_setting 'orthorhombic'
loop_
_space_group_symop_operation_xyz
x,y,z
-x,-y,z
-x,y,z
x,-y,z
x,1/2+y,1/2+z
-x,1/2-y,1/2+z
-x,1/2+y,1/2+z
x,1/2-y,1/2+z
loop_
_atom_site_type_symbol
_atom_site_label
_atom_site_fract_x
_atom_site_fract_y
_atom_site_fract_z
Si Si1 0.827169 0.872604 0.859570
Si Si2 0.327753 0.871094 0.553062
Si Si3 0.825049 0.294906 0.879889
Si Si4 0.171140 0.450455 0.564793
Si Si5 0.330044 0.549230 0.855959
Si Si6 0.826727 0.790650 0.049133
O O1 0.739019 0.867446 0.712094
O O2 0.000000 0.868997 0.826635
O O3 0.784628 0.919007 0.931757
O O4 0.772967 0.834189 0.966874
O O5 0.500000 0.861458 0.559394
O O6 0.250762 0.837009 0.447107
O O7 0.293174 0.919517 0.491464
O O8 0.768587 0.290568 0.714187
O O9 0.000000 0.300254 0.889474
O O10 0.768022 0.252199 0.965909
O O11 0.219295 0.500000 0.523981
O O12 0.247520 0.434090 0.712064
O O13 0.000000 0.447145 0.595801
O O14 0.500000 0.550620 0.816770
O O15 0.279399 0.500000 0.898425
O O16 0.000000 0.789372 0.050472
#
# Coordination Sequence:
#
# PCOD8178675 Si02
#       6
#     8   8   8   8   8   8
#     4  10  20  35  54  77 107 141 175 211 255 308
#     4  11  23  36  51  76 107 138 176 218 258 302
#     4  10  19  35  58  80 103 133 171 213 259 309
#     4   9  18  33  55  83 109 132 167 217 266 309
#     4   9  19  36  55  74 101 139 178 213 254 310
#     4   9  18  33  57  83 103 132 175 214 250 308
#
# _framework density 18.806001999999999
#
# number of rings (size 3 to 8) (size 9 to 14) (size 15 to 20)
#    0.000    2.333    0.000    2.500    0.000    6.667 
#    0.000    4.167    0.000    0.000    0.000    0.000 
#    0.000    0.000    0.000    0.000    0.000    0.000 
#
# Total GULP energy -297639.671476 kJ/mol
# GULP energy per Si atom -12401.652978 kJ/mol
# Density = 1.876320 g / cm^3
# Si number density = 18.806002 Si / 1000 Ang^3
#
#
#
# Elastic Constant Matrix: (Units=GPa)
#
#
# Indices 1 2 3 4 5 6 
#
# 1 42.2038 38.4811 45.7342 0.0000 0.0000 0.0000
# 2 38.4811 122.6714 79.7266 0.0000 0.0000 0.0000
# 3 45.7342 79.7266 171.9001 0.0000 0.0000 0.0000
# 4 0.0000 0.0000 0.0000 37.2586 0.0000 0.0000
# 5 0.0000 0.0000 0.0000 0.0000 18.5716 0.0000
# 6 0.0000 0.0000 0.0000 0.0000 0.0000 22.7978
#
#
#
# Elastic Compliance Matrix: (Units=1/GPa)
#
#
# Indices 1 2 3 4 5 6 
#
# 1 0.037656 -0.007589 -0.006499 0.000000 0.000000 0.000000
# 2 -0.007589 0.013199 -0.004103 0.000000 0.000000 0.000000
# 3 -0.006499 -0.004103 0.009449 0.000000 0.000000 0.000000
# 4 0.000000 0.000000 0.000000 0.026839 0.000000 0.000000
# 5 0.000000 0.000000 0.000000 0.000000 0.053846 0.000000
# 6 0.000000 0.000000 0.000000 0.000000 0.000000 0.043864
#
#
# Mechanical properties :
#
#
# Convention : Reuss Voigt Hill
#
# Bulk Modulus (GPa) = 41.79923 73.85102 57.82512
# Shear Modulus (GPa) = 21.81424 27.24784 24.53104
#
# Velocity S-wave (km/s) = 3.40952 3.81056 3.61560
# Velocity P-wave (km/s) = 6.14610 7.66261 6.94587
#
# Compressibility (1/GPa) = 0.02392388
#
# Stress axis : x y z
#
# Youngs Moduli (GPa) = 26.55589 75.76505 105.83028
#
# Poissons Ratio (x) = 0.57496 0.68778
# Poissons Ratio (y) = 0.20153 0.43417
# Poissons Ratio (z) = 0.17258 0.31083
#
# Static dielectric constant tensor:
#      x y z
#    x 3.214000 0.000000 0.000000 
#    y 0.000000 3.837820 0.000000 
#    z 0.000000 0.000000 3.561120 
# 
# 
# High freq. dielectric constant tensor:
#      x y z
#    x 1.705290 0.000000 0.000000 
#    y 0.000000 1.746950 0.000000 
#    z 0.000000 0.000000 1.736030 
# 
# From -- ./inp_files/3745.got.cif
#   From: 2010.03.12/outbox.cif.g09.slc.cpg/sg38_2_cif.got.tgz:3745.got - 2010.04.14 02:38:36.
