data_PCOD8178703
_publ_section_title
;
Structure prediction by ZEFSAII (Michael W. Deem and Ramdas Pophale) SiO2 
 PCOD8178703
Probable space group: A M M 2
;
_chemical_formula_sum "Si O2"
_cell_formula_units_Z 64
_cell_length_a 18.375456
_cell_length_b 13.778739
_cell_length_c 12.264099
_cell_angle_alpha 90.000000
_cell_angle_beta 90.000000
_cell_angle_gamma 90.000000
_cell_volume 3105.154734
_symmetry_space_group_name_H-M "A M M 2"
_symmetry_group_IT_number 38
_symmetry_cell_setting 'orthorhombic'
loop_
_space_group_symop_operation_xyz
x,y,z
-x,-y,z
-x,y,z
x,-y,z
x,1/2+y,1/2+z
-x,1/2-y,1/2+z
-x,1/2+y,1/2+z
x,1/2-y,1/2+z
loop_
_atom_site_type_symbol
_atom_site_label
_atom_site_fract_x
_atom_site_fract_y
_atom_site_fract_z
Si Si1 0.829545 0.112629 0.505550
Si Si2 0.420066 0.892816 0.619853
Si Si3 0.914739 0.787000 0.927601
Si Si4 0.704876 0.888615 0.902372
Si Si5 0.814058 0.111447 0.092565
Si Si6 0.323998 0.389750 0.914444
Si Si7 0.417011 0.228604 0.831216
Si Si8 0.189739 0.793871 0.735355
O O1 0.896314 0.176349 0.461353
O O2 0.760034 0.141688 0.430287
O O3 0.814333 0.135768 0.631590
O O4 0.849103 0.000000 0.493554
O O5 0.500000 0.887725 0.564678
O O6 0.359265 0.872230 0.531778
O O7 0.414127 0.811238 0.710032
O O8 0.408168 0.000000 0.671976
O O9 0.882044 0.810736 0.808798
O O10 0.000000 0.802181 0.920902
O O11 0.883820 0.859999 0.019518
O O12 0.622313 0.848637 0.912708
O O13 0.740642 0.823562 0.806791
O O14 0.707340 0.000000 0.866149
O O15 0.742866 0.873553 0.018385
O O16 0.805803 0.180848 0.197663
O O17 0.821808 0.000000 0.132425
O O18 0.329531 0.500000 0.874678
O O19 0.369820 0.327413 0.828313
O O20 0.500000 0.244995 0.870838
#
# Coordination Sequence:
#
# PCOD8178703 Si02
#       8
#     8   8   8   8   8   8   8   8
#     4  10  21  37  58  83 108 139 184 233 276 320
#     4   9  18  32  51  78 109 140 179 228 279 329
#     4  10  22  38  55  81 117 147 174 216 271 331
#     4  10  20  36  56  80 111 144 181 229 280 326
#     4   9  20  38  60  84 110 143 184 227 270 323
#     4  10  20  36  58  80 105 142 186 231 278 327
#     4  11  21  32  52  82 112 144 184 228 275 329
#     4  10  19  35  60  84 108 142 187 227 271 323
#
# _framework density 20.610889
#
# number of rings (size 3 to 8) (size 9 to 14) (size 15 to 20)
#    0.000    2.125    0.000    4.125    0.000    6.000 
#    0.000    0.625    0.000    1.500    0.000    3.500 
#    0.000    0.000    0.000    0.000    0.000    0.000 
#
# Total GULP energy -396734.620705 kJ/mol
# GULP energy per Si atom -12397.956897 kJ/mol
# Density = 2.056398 g / cm^3
# Si number density = 20.610889 Si / 1000 Ang^3
#
#
#
# Elastic Constant Matrix: (Units=GPa)
#
#
# Indices 1 2 3 4 5 6 
#
# 1 69.0004 23.9185 1.6380 0.0000 0.0000 0.0000
# 2 23.9185 125.2022 24.6148 0.0000 0.0000 0.0000
# 3 1.6380 24.6148 49.5649 0.0000 0.0000 0.0000
# 4 0.0000 0.0000 0.0000 29.6128 0.0000 0.0000
# 5 0.0000 0.0000 0.0000 0.0000 18.5739 0.0000
# 6 0.0000 0.0000 0.0000 0.0000 0.0000 26.1538
#
#
#
# Elastic Compliance Matrix: (Units=1/GPa)
#
#
# Indices 1 2 3 4 5 6 
#
# 1 0.015571 -0.003184 0.001067 0.000000 0.000000 0.000000
# 2 -0.003184 0.009503 -0.004614 0.000000 0.000000 0.000000
# 3 0.001067 -0.004614 0.022432 0.000000 0.000000 0.000000
# 4 0.000000 0.000000 0.000000 0.033769 0.000000 0.000000
# 5 0.000000 0.000000 0.000000 0.000000 0.053839 0.000000
# 6 0.000000 0.000000 0.000000 0.000000 0.000000 0.038235
#
#
# Mechanical properties :
#
#
# Convention : Reuss Voigt Hill
#
# Bulk Modulus (GPa) = 29.37513 38.23447 33.80480
# Shear Modulus (GPa) = 25.23224 27.77452 26.50338
#
# Velocity S-wave (km/s) = 3.50268 3.67490 3.58982
# Velocity P-wave (km/s) = 5.53548 6.04958 5.79823
#
# Compressibility (1/GPa) = 0.03404240
#
# Stress axis : x y z
#
# Youngs Moduli (GPa) = 64.22110 105.23512 44.57988
#
# Poissons Ratio (x) = 0.33512 -0.04756
# Poissons Ratio (y) = 0.20451 0.20569
# Poissons Ratio (z) = -0.06851 0.48554
#
# Static dielectric constant tensor:
#      x y z
#    x 3.799170 0.000000 0.000000 
#    y 0.000000 3.928260 0.000000 
#    z 0.000000 0.000000 3.531330 
# 
# 
# High freq. dielectric constant tensor:
#      x y z
#    x 1.799110 0.000000 0.000000 
#    y 0.000000 1.817350 0.000000 
#    z 0.000000 0.000000 1.792940 
# 
# From -- ./inp_files/10630.got.cif
#   From: 2010.03.12/outbox.cif.g09.slc.cpg/sg38_6_cif.got.tgz:10630.got - 2010.04.14 02:38:36.
