data_PCOD8178704
_publ_section_title
;
Structure prediction by ZEFSAII (Michael W. Deem and Ramdas Pophale) SiO2 
 PCOD8178704
Probable space group: A M M 2
;
_chemical_formula_sum "Si O2"
_cell_formula_units_Z 48
_cell_length_a 8.365738
_cell_length_b 18.886788
_cell_length_c 15.257082
_cell_angle_alpha 90.000000
_cell_angle_beta 90.000000
_cell_angle_gamma 90.000000
_cell_volume 2410.648251
_symmetry_space_group_name_H-M "A M M 2"
_symmetry_group_IT_number 38
_symmetry_cell_setting 'orthorhombic'
loop_
_space_group_symop_operation_xyz
x,y,z
-x,-y,z
-x,y,z
x,-y,z
x,1/2+y,1/2+z
-x,1/2-y,1/2+z
-x,1/2+y,1/2+z
x,1/2-y,1/2+z
loop_
_atom_site_type_symbol
_atom_site_label
_atom_site_fract_x
_atom_site_fract_y
_atom_site_fract_z
Si Si1 0.810337 0.324251 0.378880
Si Si2 0.812525 0.329925 0.059580
Si Si3 0.685448 0.668878 0.870910
Si Si4 0.685805 0.177799 0.065447
Si Si5 0.190075 0.578999 0.221641
Si Si6 0.185301 0.918495 0.214838
O O1 0.735934 0.249232 0.352587
O O2 0.749629 0.351648 0.472831
O O3 0.749307 0.380769 0.308023
O O4 0.000000 0.316110 0.380177
O O5 0.778699 0.249679 0.089528
O O6 0.747409 0.381410 0.135143
O O7 0.000000 0.339009 0.043001
O O8 0.720661 0.351062 0.971317
O O9 0.500000 0.659272 0.849978
O O10 0.783805 0.616576 0.808828
O O11 0.500000 0.195845 0.056993
O O12 0.712948 0.119656 0.139688
O O13 0.261316 0.500000 0.222690
O O14 0.000000 0.577756 0.221009
O O15 0.000000 0.911369 0.190799
O O16 0.239328 0.000000 0.218971
#
# Coordination Sequence:
#
# PCOD8178704 Si02
#       6
#     8   8   8   8   8   8
#     4  10  19  35  60  85 112 149 193 233 272 328
#     4  10  19  35  60  85 112 149 193 233 272 328
#     4  11  22  37  58  84 115 146 183 234 286 334
#     4  11  22  37  58  84 115 146 183 234 286 334
#     4   9  19  34  54  82 112 143 182 229 274 316
#     4  11  24  41  60  82 110 147 190 233 282 346
#
# _framework density 19.911656000000001
#
# number of rings (size 3 to 8) (size 9 to 14) (size 15 to 20)
#    0.000    1.667    0.000    7.500    0.000    4.000 
#    0.000    5.833    0.000    7.000    0.000    0.000 
#    0.000    0.000    0.000    0.000    0.000    0.000 
#
# Total GULP energy -297707.435353 kJ/mol
# GULP energy per Si atom -12404.476473 kJ/mol
# Density = 1.986634 g / cm^3
# Si number density = 19.911656 Si / 1000 Ang^3
#
#
#
# Elastic Constant Matrix: (Units=GPa)
#
#
# Indices 1 2 3 4 5 6 
#
# 1 59.3946 6.5224 10.8542 0.0000 0.0000 0.0000
# 2 6.5224 127.9642 91.4741 0.0000 0.0000 0.0000
# 3 10.8542 91.4741 141.7368 0.0000 0.0000 0.0000
# 4 0.0000 0.0000 0.0000 14.2050 0.0000 0.0000
# 5 0.0000 0.0000 0.0000 0.0000 16.7932 0.0000
# 6 0.0000 0.0000 0.0000 0.0000 0.0000 6.5136
#
#
#
# Elastic Compliance Matrix: (Units=1/GPa)
#
#
# Indices 1 2 3 4 5 6 
#
# 1 0.017077 0.000120 -0.001385 0.000000 0.000000 0.000000
# 2 0.000120 0.014509 -0.009373 0.000000 0.000000 0.000000
# 3 -0.001385 -0.009373 0.013210 0.000000 0.000000 0.000000
# 4 0.000000 0.000000 0.000000 0.070398 0.000000 0.000000
# 5 0.000000 0.000000 0.000000 0.000000 0.059548 0.000000
# 6 0.000000 0.000000 0.000000 0.000000 0.000000 0.153524
#
#
# Mechanical properties :
#
#
# Convention : Reuss Voigt Hill
#
# Bulk Modulus (GPa) = 42.51811 60.75524 51.63668
# Shear Modulus (GPa) = 13.99067 22.18536 18.08801
#
# Velocity S-wave (km/s) = 2.65361 3.34157 3.01726
# Velocity P-wave (km/s) = 5.54874 6.74290 6.17476
#
# Compressibility (1/GPa) = 0.02351939
#
# Stress axis : x y z
#
# Youngs Moduli (GPa) = 58.55997 68.92474 75.69830
#
# Poissons Ratio (x) = -0.00824 0.10483
# Poissons Ratio (y) = -0.00700 0.70950
# Poissons Ratio (z) = 0.08110 0.64601
#
# Static dielectric constant tensor:
#      x y z
#    x 3.484080 0.000000 0.000000 
#    y 0.000000 3.687340 0.000000 
#    z 0.000000 0.000000 3.774440 
# 
# 
# High freq. dielectric constant tensor:
#      x y z
#    x 1.772890 0.000000 0.000000 
#    y 0.000000 1.770060 0.000000 
#    z 0.000000 0.000000 1.790670 
# 
# From -- ./inp_files/12051.got.cif
#   From: 2010.03.12/outbox.cif.g09.slc.cpg/sg38_7_cif.got.tgz:12051.got - 2010.04.14 02:38:36.
