data_PCOD8178545
_publ_section_title
;
Structure prediction by ZEFSAII (Michael W. Deem and Ramdas Pophale) SiO2 
 PCOD8178545
Probable space group: A M M 2
;
_chemical_formula_sum "Si O2"
_cell_formula_units_Z 48
_cell_length_a 19.027328
_cell_length_b 8.469310
_cell_length_c 14.770606
_cell_angle_alpha 90.000000
_cell_angle_beta 90.000000
_cell_angle_gamma 90.000000
_cell_volume 2380.258627
_symmetry_space_group_name_H-M "A M M 2"
_symmetry_group_IT_number 38
_symmetry_cell_setting 'orthorhombic'
loop_
_space_group_symop_operation_xyz
x,y,z
-x,-y,z
-x,y,z
x,-y,z
x,1/2+y,1/2+z
-x,1/2-y,1/2+z
-x,1/2+y,1/2+z
x,1/2-y,1/2+z
loop_
_atom_site_type_symbol
_atom_site_label
_atom_site_fract_x
_atom_site_fract_y
_atom_site_fract_z
Si Si1 0.000000 0.813784 0.649020
Si Si2 0.000000 0.813255 0.443845
Si Si3 0.646193 0.182136 0.627798
Si Si4 0.500000 0.320957 0.901390
Si Si5 0.500000 0.820743 0.187213
Si Si6 0.351828 0.681779 0.442849
Si Si7 0.734668 0.183028 0.285242
Si Si8 0.895267 0.313882 0.791879
O O1 0.000000 0.741571 0.546010
O O2 0.930594 0.759941 0.702658
O O3 0.000000 0.000000 0.642500
O O4 0.932105 0.756474 0.385454
O O5 0.000000 0.000000 0.452790
O O6 0.567604 0.229196 0.653252
O O7 0.674117 0.287222 0.544695
O O8 0.698671 0.209828 0.710117
O O9 0.647426 0.000000 0.599987
O O10 0.500000 0.500000 0.938607
O O11 0.500000 0.320555 0.794339
O O12 0.433137 0.228922 0.938735
O O13 0.500000 0.000000 0.149985
O O14 0.341734 0.500000 0.415598
O O15 0.305408 0.791909 0.378967
O O16 0.814703 0.239334 0.295944
O O17 0.728924 0.000000 0.257795
O O18 0.903854 0.500000 0.782667
#
# Coordination Sequence:
#
# PCOD8178545 Si02
#       8
#     4   4   8   4   4   8   8   8
#     4  10  19  33  60  93 122 151 197 244 280 338
#     4   8  16  35  60  87 116 153 191 228 280 340
#     4  12  25  41  62  87 119 159 203 250 305 364
#     4  11  22  39  64  88 117 155 199 251 306 364
#     4  11  22  39  64  88 117 153 199 255 306 362
#     4  12  25  41  62  88 120 157 201 252 306 363
#     4  11  23  41  62  88 121 159 203 251 301 358
#     4   9  20  39  61  84 119 160 195 235 292 352
#
# _framework density 20.165876000000001
#
# number of rings (size 3 to 8) (size 9 to 14) (size 15 to 20)
#    0.000    1.333    1.667    5.250    0.000    3.333 
#    0.000    5.000    0.000    0.000    0.000    0.000 
#    0.000    0.000    0.000    0.000    0.000    0.000 
#
# Total GULP energy -297678.264251 kJ/mol
# GULP energy per Si atom -12403.261010 kJ/mol
# Density = 2.011998 g / cm^3
# Si number density = 20.165876 Si / 1000 Ang^3
#
#
#
# Elastic Constant Matrix: (Units=GPa)
#
#
# Indices 1 2 3 4 5 6 
#
# 1 147.4599 22.7156 55.5760 0.0000 0.0000 0.0000
# 2 22.7156 73.6179 13.5529 0.0000 0.0000 0.0000
# 3 55.5760 13.5529 140.8147 0.0000 0.0000 0.0000
# 4 0.0000 0.0000 0.0000 32.1711 0.0000 0.0000
# 5 0.0000 0.0000 0.0000 0.0000 33.8625 0.0000
# 6 0.0000 0.0000 0.0000 0.0000 0.0000 37.9691
#
#
#
# Elastic Compliance Matrix: (Units=1/GPa)
#
#
# Indices 1 2 3 4 5 6 
#
# 1 0.008240 -0.001979 -0.003062 0.000000 0.000000 0.000000
# 2 -0.001979 0.014304 -0.000596 0.000000 0.000000 0.000000
# 3 -0.003062 -0.000596 0.008367 0.000000 0.000000 0.000000
# 4 0.000000 0.000000 0.000000 0.031084 0.000000 0.000000
# 5 0.000000 0.000000 0.000000 0.000000 0.029531 0.000000
# 6 0.000000 0.000000 0.000000 0.000000 0.000000 0.026337
#
#
# Mechanical properties :
#
#
# Convention : Reuss Voigt Hill
#
# Bulk Modulus (GPa) = 50.91981 60.62017 55.76999
# Shear Modulus (GPa) = 36.85067 38.80374 37.82720
#
# Velocity S-wave (km/s) = 4.27942 4.39136 4.33575
# Velocity P-wave (km/s) = 7.05147 7.47249 7.26503
#
# Compressibility (1/GPa) = 0.01963872
#
# Stress axis : x y z
#
# Youngs Moduli (GPa) = 121.35469 69.91085 119.51332
#
# Poissons Ratio (x) = 0.13835 0.36592
# Poissons Ratio (y) = 0.24016 0.07119
# Poissons Ratio (z) = 0.37156 0.04164
#
# Static dielectric constant tensor:
#      x y z
#    x 3.759010 0.000000 0.000000 
#    y 0.000000 3.600130 0.000000 
#    z 0.000000 0.000000 3.909400 
# 
# 
# High freq. dielectric constant tensor:
#      x y z
#    x 1.783720 0.000000 0.000000 
#    y 0.000000 1.785320 0.000000 
#    z 0.000000 0.000000 1.801030 
# 
# From -- ./inp_files/15096.got.cif
#   From: 2010.03.12/outbox.cif.g09.slc.cpg/sg38_8_cif.got.tgz:15096.got - 2010.04.14 02:38:36.
