data_PCOD8178066
_publ_section_title
;
Structure prediction by ZEFSAII (Michael W. Deem and Ramdas Pophale) SiO2 
 PCOD8178066
Probable space group: A M M 2
;
_chemical_formula_sum "Si O2"
_cell_formula_units_Z 56
_cell_length_a 9.034973
_cell_length_b 32.111219
_cell_length_c 13.620289
_cell_angle_alpha 90.000000
_cell_angle_beta 90.000000
_cell_angle_gamma 90.000000
_cell_volume 3951.572680
_symmetry_space_group_name_H-M "A M M 2"
_symmetry_group_IT_number 38
_symmetry_cell_setting 'orthorhombic'
loop_
_space_group_symop_operation_xyz
x,y,z
-x,-y,z
-x,y,z
x,-y,z
x,1/2+y,1/2+z
-x,1/2-y,1/2+z
-x,1/2+y,1/2+z
x,1/2-y,1/2+z
loop_
_atom_site_type_symbol
_atom_site_label
_atom_site_fract_x
_atom_site_fract_y
_atom_site_fract_z
Si Si1 0.327299 0.618730 0.024940
Si Si2 0.174437 0.237473 0.826204
Si Si3 0.830828 0.624040 0.835834
Si Si4 0.330149 0.189632 0.666311
Si Si5 0.672195 0.187045 0.219008
Si Si6 0.331176 0.765530 0.026729
Si Si7 0.169572 0.046563 0.447385
O O1 0.500000 0.617663 0.000267
O O2 0.296917 0.643212 0.126246
O O3 0.243378 0.642635 0.935585
O O4 0.263786 0.571200 0.031274
O O5 0.225367 0.198662 0.758698
O O6 0.250918 0.279594 0.789911
O O7 0.000000 0.242637 0.819268
O O8 0.220200 0.227582 0.937317
O O9 0.742932 0.641711 0.741649
O O10 0.818279 0.573271 0.845062
O O11 0.000000 0.638792 0.829501
O O12 0.500000 0.194501 0.700779
O O13 0.297846 0.221625 0.578293
O O14 0.500000 0.186966 0.244734
O O15 0.699060 0.197632 0.105164
O O16 0.500000 0.767186 0.988783
O O17 0.000000 0.045026 0.482738
O O18 0.232465 0.000000 0.431311
#
# Coordination Sequence:
#
# PCOD8178066 Si02
#       7
#     8   8   8   8   8   8   8
#     4   9  16  26  43  64  84 111 144 175 205 248
#     4  11  21  29  42  61  82 108 141 182 216 249
#     4   9  17  27  42  62  85 112 139 171 207 252
#     4   9  18  31  44  58  80 111 144 176 213 253
#     4  10  19  31  45  59  79 110 145 177 213 253
#     4   9  18  31  44  57  79 111 143 177 214 252
#     4   8  16  29  42  61  91 120 140 168 214 258
#
# _framework density 14.171574
#
# number of rings (size 3 to 8) (size 9 to 14) (size 15 to 20)
#    0.857    1.857    0.000    3.857    0.000    5.429 
#    0.000    0.000    0.000    0.000    0.000    0.000 
#    0.000    1.143    0.000    8.571    0.000    4.429 
#
# Total GULP energy -346939.465621 kJ/mol
# GULP energy per Si atom -12390.695201 kJ/mol
# Density = 1.413932 g / cm^3
# Si number density = 14.171574 Si / 1000 Ang^3
#
#
#
# Elastic Constant Matrix: (Units=GPa)
#
#
# Indices 1 2 3 4 5 6 
#
# 1 99.2232 42.7255 45.6851 0.0000 0.0000 0.0000
# 2 42.7255 89.0119 36.1781 0.0000 0.0000 0.0000
# 3 45.6851 36.1781 68.0471 0.0000 0.0000 0.0000
# 4 0.0000 0.0000 0.0000 17.2437 0.0000 0.0000
# 5 0.0000 0.0000 0.0000 0.0000 18.1670 0.0000
# 6 0.0000 0.0000 0.0000 0.0000 0.0000 21.0017
#
#
#
# Elastic Compliance Matrix: (Units=1/GPa)
#
#
# Indices 1 2 3 4 5 6 
#
# 1 0.015703 -0.004149 -0.008337 0.000000 0.000000 0.000000
# 2 -0.004149 0.015428 -0.005417 0.000000 0.000000 0.000000
# 3 -0.008337 -0.005417 0.023173 0.000000 0.000000 0.000000
# 4 0.000000 0.000000 0.000000 0.057992 0.000000 0.000000
# 5 0.000000 0.000000 0.000000 0.000000 0.055045 0.000000
# 6 0.000000 0.000000 0.000000 0.000000 0.000000 0.047615
#
#
# Mechanical properties :
#
#
# Convention : Reuss Voigt Hill
#
# Bulk Modulus (GPa) = 54.05900 56.16218 55.11059
# Shear Modulus (GPa) = 19.46073 20.06204 19.76139
#
# Velocity S-wave (km/s) = 3.70972 3.76660 3.73827
# Velocity P-wave (km/s) = 7.52185 7.65719 7.58982
#
# Compressibility (1/GPa) = 0.01849831
#
# Stress axis : x y z
#
# Youngs Moduli (GPa) = 63.68017 64.81895 43.15417
#
# Poissons Ratio (x) = 0.26894 0.35977
# Poissons Ratio (y) = 0.26422 0.23375
# Poissons Ratio (z) = 0.53090 0.35110
#
# Static dielectric constant tensor:
#      x y z
#    x 2.831460 0.000000 0.000000 
#    y 0.000000 2.713620 0.000000 
#    z 0.000000 0.000000 2.580130 
# 
# 
# High freq. dielectric constant tensor:
#      x y z
#    x 1.554050 0.000000 0.000000 
#    y 0.000000 1.515920 0.000000 
#    z 0.000000 0.000000 1.511230 
# 
# From -- ./inp_files/12983.got.cif
#   From: 2010.03.12/outbox.cif.g09.slc.cpg/sg38_7_cif.got.tgz:12983.got - 2010.04.14 02:38:36.
