data_PCOD8178422
_publ_section_title
;
Structure prediction by ZEFSAII (Michael W. Deem and Ramdas Pophale) SiO2 
 PCOD8178422
Probable space group: A M M 2
;
_chemical_formula_sum "Si O2"
_cell_formula_units_Z 64
_cell_length_a 9.027939
_cell_length_b 19.661669
_cell_length_c 20.741573
_cell_angle_alpha 90.000000
_cell_angle_beta 90.000000
_cell_angle_gamma 90.000000
_cell_volume 3681.719400
_symmetry_space_group_name_H-M "A M M 2"
_symmetry_group_IT_number 38
_symmetry_cell_setting 'orthorhombic'
loop_
_space_group_symop_operation_xyz
x,y,z
-x,-y,z
-x,y,z
x,-y,z
x,1/2+y,1/2+z
-x,1/2-y,1/2+z
-x,1/2+y,1/2+z
x,1/2-y,1/2+z
loop_
_atom_site_type_symbol
_atom_site_label
_atom_site_fract_x
_atom_site_fract_y
_atom_site_fract_z
Si Si1 0.672649 0.576333 0.604520
Si Si2 0.171062 0.701695 0.552868
Si Si3 0.324246 0.215813 0.296156
Si Si4 0.827759 0.204063 0.908814
Si Si5 0.672651 0.422771 0.359559
Si Si6 0.831113 0.075097 0.726951
Si Si7 0.675474 0.073682 0.249139
Si Si8 0.171989 0.215514 0.674981
O O1 0.500000 0.592152 0.603110
O O2 0.705250 0.500000 0.579677
O O3 0.749665 0.629268 0.557386
O O4 0.736652 0.585734 0.676870
O O5 0.198867 0.731556 0.481376
O O6 0.229596 0.755078 0.606622
O O7 0.000000 0.687479 0.564340
O O8 0.500000 0.224287 0.298005
O O9 0.256513 0.246101 0.360739
O O10 0.275072 0.136235 0.294248
O O11 0.265524 0.253004 0.232830
O O12 0.764095 0.127669 0.905042
O O13 0.000000 0.202921 0.890338
O O14 0.500000 0.404984 0.364392
O O15 0.704730 0.500000 0.381772
O O16 0.721992 0.411306 0.286136
O O17 0.803048 0.133650 0.673733
O O18 0.000000 0.079528 0.752690
O O19 0.800851 0.000000 0.696734
O O20 0.500000 0.070797 0.244195
O O21 0.733580 0.000000 0.275520
O O22 0.000000 0.233105 0.686486
#
# Coordination Sequence:
#
# PCOD8178422 Si02
#       8
#     8   8   8   8   8   8   8   8
#     4   9  17  31  51  74 102 135 169 208 254 302
#     4  10  22  36  50  71 103 141 176 209 255 304
#     4  11  20  32  55  81 101 130 172 215 258 303
#     4  11  23  37  50  69 104 146 178 211 253 306
#     4  10  20  33  50  74 103 133 171 217 257 300
#     4   9  17  30  51  77 102 130 164 203 255 314
#     4   8  15  29  50  77 105 130 160 203 256 308
#     4  10  19  33  53  76 102 132 167 211 257 303
#
# _framework density 17.383182999999999
#
# number of rings (size 3 to 8) (size 9 to 14) (size 15 to 20)
#    0.000    2.250    2.500    1.875    0.000    2.500 
#    0.000    2.500    0.000    2.250    0.000    1.750 
#    0.000    0.000    0.000    0.000    0.000    0.000 
#
# Total GULP energy -396658.200300 kJ/mol
# GULP energy per Si atom -12395.568759 kJ/mol
# Density = 1.734362 g / cm^3
# Si number density = 17.383183 Si / 1000 Ang^3
#
#
#
# Elastic Constant Matrix: (Units=GPa)
#
#
# Indices 1 2 3 4 5 6 
#
# 1 60.4345 41.4813 40.1401 0.0000 0.0000 0.0000
# 2 41.4813 128.4891 65.1950 0.0000 0.0000 0.0000
# 3 40.1401 65.1950 100.5330 0.0000 0.0000 0.0000
# 4 0.0000 0.0000 0.0000 24.0793 0.0000 0.0000
# 5 0.0000 0.0000 0.0000 0.0000 14.8407 0.0000
# 6 0.0000 0.0000 0.0000 0.0000 0.0000 21.5030
#
#
#
# Elastic Compliance Matrix: (Units=1/GPa)
#
#
# Indices 1 2 3 4 5 6 
#
# 1 0.024016 -0.004304 -0.006798 0.000000 0.000000 0.000000
# 2 -0.004304 0.012371 -0.006304 0.000000 0.000000 0.000000
# 3 -0.006798 -0.006304 0.016749 0.000000 0.000000 0.000000
# 4 0.000000 0.000000 0.000000 0.041529 0.000000 0.000000
# 5 0.000000 0.000000 0.000000 0.000000 0.067382 0.000000
# 6 0.000000 0.000000 0.000000 0.000000 0.000000 0.046505
#
#
# Mechanical properties :
#
#
# Convention : Reuss Voigt Hill
#
# Bulk Modulus (GPa) = 54.57159 64.78771 59.67965
# Shear Modulus (GPa) = 20.04224 21.59395 20.81810
#
# Velocity S-wave (km/s) = 3.39922 3.52836 3.46439
# Velocity P-wave (km/s) = 6.84600 7.34509 7.09993
#
# Compressibility (1/GPa) = 0.01832455
#
# Stress axis : x y z
#
# Youngs Moduli (GPa) = 41.63854 80.83486 59.70446
#
# Poissons Ratio (x) = 0.34793 0.40586
# Poissons Ratio (y) = 0.17922 0.37637
# Poissons Ratio (z) = 0.28305 0.50957
#
# Static dielectric constant tensor:
#      x y z
#    x 3.174920 0.000000 0.000000 
#    y 0.000000 3.671280 0.000000 
#    z 0.000000 0.000000 3.080590 
# 
# 
# High freq. dielectric constant tensor:
#      x y z
#    x 1.665140 0.000000 0.000000 
#    y 0.000000 1.679680 0.000000 
#    z 0.000000 0.000000 1.642300 
# 
# From -- ./inp_files/17195.got.cif
#   From: 2010.03.12/outbox.cif.g09.slc.cpg/sg38_9_cif.got.tgz:17195.got - 2010.04.14 02:38:36.
