data_PCOD8178839
_publ_section_title
;
Structure prediction by ZEFSAII (Michael W. Deem and Ramdas Pophale) SiO2 
 PCOD8178839
Probable space group: A M M 2
;
_chemical_formula_sum "Si O2"
_cell_formula_units_Z 64
_cell_length_a 8.842391
_cell_length_b 14.541410
_cell_length_c 28.479638
_cell_angle_alpha 90.000000
_cell_angle_beta 90.000000
_cell_angle_gamma 90.000000
_cell_volume 3661.935575
_symmetry_space_group_name_H-M "A M M 2"
_symmetry_group_IT_number 38
_symmetry_cell_setting 'orthorhombic'
loop_
_space_group_symop_operation_xyz
x,y,z
-x,-y,z
-x,y,z
x,-y,z
x,1/2+y,1/2+z
-x,1/2-y,1/2+z
-x,1/2+y,1/2+z
x,1/2-y,1/2+z
loop_
_atom_site_type_symbol
_atom_site_label
_atom_site_fract_x
_atom_site_fract_y
_atom_site_fract_z
Si Si1 0.822279 0.716036 0.064530
Si Si2 0.179918 0.396325 0.150971
Si Si3 0.321991 0.104067 0.377926
Si Si4 0.324913 0.606114 0.419857
Si Si5 0.821124 0.724367 0.339904
Si Si6 0.173790 0.606347 0.975290
Si Si7 0.179896 0.103014 0.754988
Si Si8 0.175358 0.897330 0.018081
O O1 0.750742 0.674250 0.112371
O O2 0.000000 0.698126 0.066453
O O3 0.758797 0.663208 0.018927
O O4 0.784128 0.824611 0.059340
O O5 0.233665 0.500000 0.138952
O O6 0.237567 0.367752 0.202991
O O7 0.000000 0.392709 0.150543
O O8 0.500000 0.113483 0.374332
O O9 0.246130 0.172742 0.340595
O O10 0.271371 0.132958 0.430028
O O11 0.268428 0.000000 0.366604
O O12 0.500000 0.632223 0.414480
O O13 0.294554 0.500000 0.407196
O O14 0.226973 0.668302 0.385639
O O15 0.274525 0.626445 0.472855
O O16 0.755653 0.673692 0.293558
O O17 0.000000 0.730927 0.338374
O O18 0.190156 0.500000 0.988395
O O19 0.000000 0.632512 0.964500
O O20 0.000000 0.103409 0.756296
O O21 0.238211 0.000000 0.766719
O O22 0.000000 0.888003 0.003549
O O23 0.211228 0.000000 0.036942
#
# Coordination Sequence:
#
# PCOD8178839 Si02
#       8
#     8   8   8   8   8   8   8   8
#     4   9  15  23  39  62  87 116 148 181 219 263
#     4   8  13  23  40  63  91 117 140 173 220 271
#     4  10  21  35  48  64  90 124 159 193 228 267
#     4  10  20  32  46  67  95 125 157 192 230 274
#     4  11  20  30  48  70  92 120 154 191 231 277
#     4   9  16  26  42  66  92 115 144 183 225 268
#     4   8  15  27  43  66  94 119 143 177 226 279
#     4   9  17  28  41  60  89 123 155 186 221 262
#
# _framework density 17.477096
#
# number of rings (size 3 to 8) (size 9 to 14) (size 15 to 20)
#    0.000    2.750    0.000    3.375    0.000    4.500 
#    0.000    0.000    0.000    0.750    0.000    7.000 
#    0.000    8.000    0.000    0.000    0.000    0.000 
#
# Total GULP energy -396686.500161 kJ/mol
# GULP energy per Si atom -12396.453130 kJ/mol
# Density = 1.743732 g / cm^3
# Si number density = 17.477096 Si / 1000 Ang^3
#
#
#
# Elastic Constant Matrix: (Units=GPa)
#
#
# Indices 1 2 3 4 5 6 
#
# 1 34.5192 24.3332 21.3454 0.0000 0.0000 0.0000
# 2 24.3332 128.5759 90.0622 0.0000 0.0000 0.0000
# 3 21.3454 90.0622 114.3988 0.0000 0.0000 0.0000
# 4 0.0000 0.0000 0.0000 33.2042 0.0000 0.0000
# 5 0.0000 0.0000 0.0000 0.0000 0.5226 0.0000
# 6 0.0000 0.0000 0.0000 0.0000 0.0000 18.6336
#
#
#
# Elastic Compliance Matrix: (Units=1/GPa)
#
#
# Indices 1 2 3 4 5 6 
#
# 1 0.033837 -0.004417 -0.002836 0.000000 0.000000 0.000000
# 2 -0.004417 0.017916 -0.013280 0.000000 0.000000 0.000000
# 3 -0.002836 -0.013280 0.019726 0.000000 0.000000 0.000000
# 4 0.000000 0.000000 0.000000 0.030117 0.000000 0.000000
# 5 0.000000 0.000000 0.000000 0.000000 1.913689 0.000000
# 6 0.000000 0.000000 0.000000 0.000000 0.000000 0.053667
#
#
# Mechanical properties :
#
#
# Convention : Reuss Voigt Hill
#
# Bulk Modulus (GPa) = 32.88257 60.99727 46.93992
# Shear Modulus (GPa) = 2.35832 19.92228 11.14030
#
# Velocity S-wave (km/s) = 1.16289 3.37991 2.52746
# Velocity P-wave (km/s) = 4.54517 7.08582 5.95262
#
# Compressibility (1/GPa) = 0.03041125
#
# Stress axis : x y z
#
# Youngs Moduli (GPa) = 29.55361 55.81684 50.69548
#
# Poissons Ratio (x) = 0.24655 0.14378
# Poissons Ratio (y) = 0.13054 0.67325
# Poissons Ratio (z) = 0.08382 0.74126
#
# Static dielectric constant tensor:
#      x y z
#    x 2.910560 0.000000 0.000000 
#    y 0.000000 3.519010 0.000000 
#    z 0.000000 0.000000 3.383240 
# 
# 
# High freq. dielectric constant tensor:
#      x y z
#    x 1.639340 0.000000 0.000000 
#    y 0.000000 1.681940 0.000000 
#    z 0.000000 0.000000 1.656600 
# 
# From -- ./inp_files/24754.got.cif
#   From: 2010.03.12/outbox.cif.g09.slc.cpg/sg38_13_cif.got.tgz:24754.got - 2010.04.14 02:38:36.
