data_PCOD8178213
_publ_section_title
;
Structure prediction by ZEFSAII (Michael W. Deem and Ramdas Pophale) SiO2 
 PCOD8178213
Probable space group: A M M 2
;
_chemical_formula_sum "Si O2"
_cell_formula_units_Z 64
_cell_length_a 16.744392
_cell_length_b 24.046070
_cell_length_c 8.950015
_cell_angle_alpha 90.000000
_cell_angle_beta 90.000000
_cell_angle_gamma 90.000000
_cell_volume 3603.605598
_symmetry_space_group_name_H-M "A M M 2"
_symmetry_group_IT_number 38
_symmetry_cell_setting 'orthorhombic'
loop_
_space_group_symop_operation_xyz
x,y,z
-x,-y,z
-x,y,z
x,-y,z
x,1/2+y,1/2+z
-x,1/2-y,1/2+z
-x,1/2+y,1/2+z
x,1/2-y,1/2+z
loop_
_atom_site_type_symbol
_atom_site_label
_atom_site_fract_x
_atom_site_fract_y
_atom_site_fract_z
Si Si1 0.698846 0.235800 0.574850
Si Si2 0.767824 0.872508 0.501180
Si Si3 0.329270 0.938344 0.722821
Si Si4 0.586734 0.381245 0.480914
Si Si5 0.090596 0.064799 0.648135
Si Si6 0.588328 0.235371 0.839210
Si Si7 0.739565 0.639163 0.651770
Si Si8 0.822850 0.561738 0.434349
O O1 0.768107 0.189236 0.576387
O O2 0.625074 0.219541 0.681025
O O3 0.656426 0.226167 0.413328
O O4 0.738627 0.295868 0.604681
O O5 0.692381 0.905655 0.571058
O O6 0.852554 0.899898 0.539375
O O7 0.756872 0.870271 0.324133
O O8 0.398464 0.910272 0.821101
O O9 0.251831 0.939483 0.824868
O O10 0.357227 0.000000 0.677634
O O11 0.500000 0.401894 0.541545
O O12 0.581732 0.315927 0.451661
O O13 0.655544 0.390695 0.605124
O O14 0.103660 0.077910 0.824975
O O15 0.000000 0.080250 0.606960
O O16 0.109085 0.000000 0.618560
O O17 0.500000 0.262626 0.818590
O O18 0.810937 0.608186 0.561966
O O19 0.835068 0.500000 0.506134
#
# Coordination Sequence:
#
# PCOD8178213 Si02
#       8
#     8   8   8   8   8   8   8   8
#     4  11  20  33  49  77 106 145 183 225 277 320
#     4  11  20  33  53  80 111 140 175 220 277 329
#     4   9  17  31  51  72  95 132 179 218 260 319
#     4   9  18  33  50  69  99 139 185 230 268 313
#     4   9  19  37  62  88 109 134 172 219 270 325
#     4  10  19  32  49  72 102 138 186 235 275 307
#     4  10  21  33  51  79 108 143 182 222 268 321
#     4   8  16  32  55  78 103 133 168 209 255 317
#
# _framework density 17.759989999999998
#
# number of rings (size 3 to 8) (size 9 to 14) (size 15 to 20)
#    0.000    2.375    2.500    1.500    1.750    1.750 
#    0.000    1.250    0.000    4.500    0.000    0.000 
#    0.000    0.000    0.000    0.000    0.000    0.000 
#
# Total GULP energy -396488.364731 kJ/mol
# GULP energy per Si atom -12390.261398 kJ/mol
# Density = 1.771957 g / cm^3
# Si number density = 17.759990 Si / 1000 Ang^3
#
#
#
# Elastic Constant Matrix: (Units=GPa)
#
#
# Indices 1 2 3 4 5 6 
#
# 1 96.4418 47.4063 41.7118 0.0000 0.0000 0.0000
# 2 47.4063 91.8206 52.7612 0.0000 0.0000 0.0000
# 3 41.7118 52.7612 97.3853 0.0000 0.0000 0.0000
# 4 0.0000 0.0000 0.0000 19.8938 0.0000 0.0000
# 5 0.0000 0.0000 0.0000 0.0000 18.6638 0.0000
# 6 0.0000 0.0000 0.0000 0.0000 0.0000 20.6272
#
#
#
# Elastic Compliance Matrix: (Units=1/GPa)
#
#
# Indices 1 2 3 4 5 6 
#
# 1 0.014526 -0.005699 -0.003134 0.000000 0.000000 0.000000
# 2 -0.005699 0.018049 -0.007338 0.000000 0.000000 0.000000
# 3 -0.003134 -0.007338 0.015587 0.000000 0.000000 0.000000
# 4 0.000000 0.000000 0.000000 0.050267 0.000000 0.000000
# 5 0.000000 0.000000 0.000000 0.000000 0.053580 0.000000
# 6 0.000000 0.000000 0.000000 0.000000 0.000000 0.048480
#
#
# Mechanical properties :
#
#
# Convention : Reuss Voigt Hill
#
# Bulk Modulus (GPa) = 63.21098 63.26737 63.23917
# Shear Modulus (GPa) = 20.99934 21.42151 21.21043
#
# Velocity S-wave (km/s) = 3.44233 3.47676 3.45959
# Velocity P-wave (km/s) = 7.17416 7.19847 7.18633
#
# Compressibility (1/GPa) = 0.01582004
#
# Stress axis : x y z
#
# Youngs Moduli (GPa) = 68.84358 55.40345 64.15797
#
# Poissons Ratio (x) = 0.31572 0.20109
# Poissons Ratio (y) = 0.39231 0.47079
# Poissons Ratio (z) = 0.21577 0.40655
#
# Static dielectric constant tensor:
#      x y z
#    x 3.343110 0.000000 0.000000 
#    y 0.000000 3.417210 0.000000 
#    z 0.000000 0.000000 3.259910 
# 
# 
# High freq. dielectric constant tensor:
#      x y z
#    x 1.660820 0.000000 0.000000 
#    y 0.000000 1.681360 0.000000 
#    z 0.000000 0.000000 1.680570 
# 
# From -- ./inp_files/6583.got.cif
#   From: 2010.03.12/outbox.cif.g09.slc.cpg/sg38_4_cif.got.tgz:6583.got - 2010.04.14 02:38:36.
