data_PCOD8178886
_publ_section_title
;
Structure prediction by ZEFSAII (Michael W. Deem and Ramdas Pophale) SiO2 
 PCOD8178886
Probable space group: A M M 2
;
_chemical_formula_sum "Si O2"
_cell_formula_units_Z 56
_cell_length_a 15.233316
_cell_length_b 8.935032
_cell_length_c 20.303160
_cell_angle_alpha 90.000000
_cell_angle_beta 90.000000
_cell_angle_gamma 90.000000
_cell_volume 2763.466476
_symmetry_space_group_name_H-M "A M M 2"
_symmetry_group_IT_number 38
_symmetry_cell_setting 'orthorhombic'
loop_
_space_group_symop_operation_xyz
x,y,z
-x,-y,z
-x,y,z
x,-y,z
x,1/2+y,1/2+z
-x,1/2-y,1/2+z
-x,1/2+y,1/2+z
x,1/2-y,1/2+z
loop_
_atom_site_type_symbol
_atom_site_label
_atom_site_fract_x
_atom_site_fract_y
_atom_site_fract_z
Si Si1 0.597488 0.828024 0.784760
Si Si2 0.779903 0.822298 0.609273
Si Si3 0.595056 0.322560 0.059885
Si Si4 0.631630 0.331081 0.915117
Si Si5 0.899466 0.170904 0.001578
Si Si6 0.830366 0.667890 0.882177
Si Si7 0.768175 0.677156 0.741174
O O1 0.500000 0.807988 0.753976
O O2 0.593443 0.778977 0.860559
O O3 0.666954 0.729534 0.744646
O O4 0.627521 0.000000 0.780061
O O5 0.679614 0.761932 0.599441
O O6 0.841118 0.771214 0.549675
O O7 0.814248 0.751062 0.677682
O O8 0.784620 0.000000 0.613763
O O9 0.500000 0.270823 0.089762
O O10 0.601923 0.500000 0.060313
O O11 0.598584 0.267590 0.984552
O O12 0.597579 0.500000 0.901440
O O13 0.736298 0.331263 0.916754
O O14 0.892238 0.225947 0.925738
O O15 0.000000 0.185756 0.023947
O O16 0.867317 0.000000 0.005657
O O17 0.869550 0.500000 0.881893
O O18 0.821185 0.727374 0.806857
O O19 0.769193 0.500000 0.734776
#
# Coordination Sequence:
#
# PCOD8178886 Si02
#       7
#     8   8   8   8   8   8   8
#     4  10  20  32  48  76 113 153 202 254 298 345
#     4  11  22  39  61  88 123 161 202 245 296 355
#     4   9  17  30  51  80 115 155 197 240 289 346
#     4   9  16  30  52  78 110 149 193 241 296 353
#     4  11  24  41  64  93 122 153 192 241 298 359
#     4   9  18  36  61  88 114 145 191 242 293 353
#     4  10  22  39  59  83 115 157 201 244 299 359
#
# _framework density 20.264402
#
# number of rings (size 3 to 8) (size 9 to 14) (size 15 to 20)
#    0.000    2.143    1.429    3.000    0.000    6.286 
#    0.000    2.143    0.000    3.000    0.000    0.000 
#    0.000    0.000    0.000    0.000    0.000    0.000 
#
# Total GULP energy -347103.564301 kJ/mol
# GULP energy per Si atom -12396.555868 kJ/mol
# Density = 2.021828 g / cm^3
# Si number density = 20.264402 Si / 1000 Ang^3
#
#
#
# Elastic Constant Matrix: (Units=GPa)
#
#
# Indices 1 2 3 4 5 6 
#
# 1 64.5586 28.0530 34.9161 0.0000 0.0000 0.0000
# 2 28.0530 84.0176 43.9510 0.0000 0.0000 0.0000
# 3 34.9161 43.9510 120.9089 0.0000 0.0000 0.0000
# 4 0.0000 0.0000 0.0000 32.0577 0.0000 0.0000
# 5 0.0000 0.0000 0.0000 0.0000 3.9441 0.0000
# 6 0.0000 0.0000 0.0000 0.0000 0.0000 25.1844
#
#
#
# Elastic Compliance Matrix: (Units=1/GPa)
#
#
# Indices 1 2 3 4 5 6 
#
# 1 0.019605 -0.004426 -0.004053 0.000000 0.000000 0.000000
# 2 -0.004426 0.015696 -0.004428 0.000000 0.000000 0.000000
# 3 -0.004053 -0.004428 0.011050 0.000000 0.000000 0.000000
# 4 0.000000 0.000000 0.000000 0.031194 0.000000 0.000000
# 5 0.000000 0.000000 0.000000 0.000000 0.253542 0.000000
# 6 0.000000 0.000000 0.000000 0.000000 0.000000 0.039707
#
#
# Mechanical properties :
#
#
# Convention : Reuss Voigt Hill
#
# Bulk Modulus (GPa) = 48.68723 53.70283 51.19503
# Shear Modulus (GPa) = 12.39302 23.07491 17.73396
#
# Velocity S-wave (km/s) = 2.47567 3.37811 2.96147
# Velocity P-wave (km/s) = 5.67891 6.46329 6.08376
#
# Compressibility (1/GPa) = 0.02053927
#
# Stress axis : x y z
#
# Youngs Moduli (GPa) = 51.00767 63.70973 90.49414
#
# Poissons Ratio (x) = 0.28198 0.36674
# Poissons Ratio (y) = 0.22576 0.40066
# Poissons Ratio (z) = 0.20672 0.28208
#
# Static dielectric constant tensor:
#      x y z
#    x 3.560020 0.000000 0.000000 
#    y 0.000000 3.505170 0.000000 
#    z 0.000000 0.000000 3.737800 
# 
# 
# High freq. dielectric constant tensor:
#      x y z
#    x 1.774910 0.000000 0.000000 
#    y 0.000000 1.774320 0.000000 
#    z 0.000000 0.000000 1.794100 
# 
# From -- ./inp_files/21025.got.cif
#   From: 2010.03.12/outbox.cif.g09.slc.cpg/sg38_11_cif.got.tgz:21025.got - 2010.04.14 02:38:36.
