data_PCOD8178182
_publ_section_title
;
Structure prediction by ZEFSAII (Michael W. Deem and Ramdas Pophale) SiO2 
 PCOD8178182
Probable space group: A M M 2
;
_chemical_formula_sum "Si O2"
_cell_formula_units_Z 64
_cell_length_a 20.736746
_cell_length_b 8.698564
_cell_length_c 18.865078
_cell_angle_alpha 90.000000
_cell_angle_beta 90.000000
_cell_angle_gamma 90.000000
_cell_volume 3402.881114
_symmetry_space_group_name_H-M "A M M 2"
_symmetry_group_IT_number 38
_symmetry_cell_setting 'orthorhombic'
loop_
_space_group_symop_operation_xyz
x,y,z
-x,-y,z
-x,y,z
x,-y,z
x,1/2+y,1/2+z
-x,1/2-y,1/2+z
-x,1/2+y,1/2+z
x,1/2-y,1/2+z
loop_
_atom_site_type_symbol
_atom_site_label
_atom_site_fract_x
_atom_site_fract_y
_atom_site_fract_z
Si Si1 0.931037 0.674157 0.622810
Si Si2 0.206287 0.816697 0.485446
Si Si3 0.316163 0.320228 0.234576
Si Si4 0.573101 0.680709 0.129206
Si Si5 0.067799 0.678283 0.975519
Si Si6 0.677189 0.680018 0.886692
Si Si7 0.209102 0.177773 0.140208
Si Si8 0.572945 0.819180 0.982496
O O1 0.927049 0.500000 0.592005
O O2 0.931450 0.795336 0.559559
O O3 0.865346 0.702458 0.667511
O O4 0.000000 0.693204 0.665373
O O5 0.137867 0.763055 0.448508
O O6 0.261340 0.764060 0.431553
O O7 0.217077 0.728278 0.558833
O O8 0.206672 0.000000 0.499523
O O9 0.318188 0.500000 0.252132
O O10 0.380673 0.267695 0.193047
O O11 0.312430 0.224298 0.305913
O O12 0.253425 0.284055 0.188455
O O13 0.500000 0.735941 0.146074
O O14 0.576256 0.500000 0.118063
O O15 0.599853 0.755040 0.056882
O O16 0.063600 0.500000 0.959260
O O17 0.000000 0.753061 0.944546
O O18 0.667826 0.500000 0.893524
O O19 0.613502 0.760138 0.916297
O O20 0.229897 0.000000 0.147755
O O21 0.500000 0.760915 0.971252
O O22 0.576897 0.000000 0.985222
#
# Coordination Sequence:
#
# PCOD8178182 Si02
#       8
#     8   8   8   8   8   8   8   8
#     4   8  14  25  42  67  98 128 160 202 251 299
#     4   9  18  32  50  74 103 133 167 209 256 304
#     4  11  23  37  53  74 103 138 173 213 259 304
#     4   9  19  37  59  80 102 130 165 205 250 300
#     4   8  13  23  42  68  96 125 159 201 249 300
#     4  11  23  37  53  74 103 139 176 214 254 299
#     4  10  19  31  51  77 103 133 170 211 254 305
#     4  10  21  37  58  83 108 133 164 204 249 300
#
# _framework density 18.807593000000001
#
# number of rings (size 3 to 8) (size 9 to 14) (size 15 to 20)
#    0.000    2.500    0.000    2.250    0.000    6.750 
#    0.000    1.250    0.000    0.750    0.000    3.500 
#    0.000    0.000    0.000    0.000    0.000    0.000 
#
# Total GULP energy -396467.837354 kJ/mol
# GULP energy per Si atom -12389.619917 kJ/mol
# Density = 1.876479 g / cm^3
# Si number density = 18.807593 Si / 1000 Ang^3
#
#
#
# Elastic Constant Matrix: (Units=GPa)
#
#
# Indices 1 2 3 4 5 6 
#
# 1 133.6776 18.5046 49.2587 0.0000 0.0000 0.0000
# 2 18.5046 19.1180 6.8739 0.0000 0.0000 0.0000
# 3 49.2587 6.8739 71.9123 0.0000 0.0000 0.0000
# 4 0.0000 0.0000 0.0000 24.8673 0.0000 0.0000
# 5 0.0000 0.0000 0.0000 0.0000 4.7895 0.0000
# 6 0.0000 0.0000 0.0000 0.0000 0.0000 19.8721
#
#
#
# Elastic Compliance Matrix: (Units=1/GPa)
#
#
# Indices 1 2 3 4 5 6 
#
# 1 0.011157 -0.008338 -0.006846 0.000000 0.000000 0.000000
# 2 -0.008338 0.060400 -0.000062 0.000000 0.000000 0.000000
# 3 -0.006846 -0.000062 0.018601 0.000000 0.000000 0.000000
# 4 0.000000 0.000000 0.000000 0.040213 0.000000 0.000000
# 5 0.000000 0.000000 0.000000 0.000000 0.208789 0.000000
# 6 0.000000 0.000000 0.000000 0.000000 0.000000 0.050322
#
#
# Mechanical properties :
#
#
# Convention : Reuss Voigt Hill
#
# Bulk Modulus (GPa) = 16.75983 41.55357 29.15670
# Shear Modulus (GPa) = 11.36720 19.91052 15.63886
#
# Velocity S-wave (km/s) = 2.46111 3.25721 2.88673
# Velocity P-wave (km/s) = 4.12391 6.02394 5.16210
#
# Compressibility (1/GPa) = 0.05966647
#
# Stress axis : x y z
#
# Youngs Moduli (GPa) = 89.62631 16.55641 53.76084
#
# Poissons Ratio (x) = 0.13805 0.36803
# Poissons Ratio (y) = 0.74731 0.00333
# Poissons Ratio (z) = 0.61355 0.00103
#
# Static dielectric constant tensor:
#      x y z
#    x 4.208930 0.000000 0.000000 
#    y 0.000000 3.407300 0.000000 
#    z 0.000000 0.000000 3.034360 
# 
# 
# High freq. dielectric constant tensor:
#      x y z
#    x 1.762490 0.000000 0.000000 
#    y 0.000000 1.728100 0.000000 
#    z 0.000000 0.000000 1.679490 
# 
# From -- ./inp_files/18863.got.cif
#   From: 2010.03.12/outbox.cif.g09.slc.cpg/sg38_10_cif.got.tgz:18863.got - 2010.04.14 02:38:36.
