data_PCOD8178716
_publ_section_title
;
Structure prediction by ZEFSAII (Michael W. Deem and Ramdas Pophale) SiO2 
 PCOD8178716
Probable space group: A M M 2
;
_chemical_formula_sum "Si O2"
_cell_formula_units_Z 64
_cell_length_a 9.098531
_cell_length_b 24.582416
_cell_length_c 15.048350
_cell_angle_alpha 90.000000
_cell_angle_beta 90.000000
_cell_angle_gamma 90.000000
_cell_volume 3365.772259
_symmetry_space_group_name_H-M "A M M 2"
_symmetry_group_IT_number 38
_symmetry_cell_setting 'orthorhombic'
loop_
_space_group_symop_operation_xyz
x,y,z
-x,-y,z
-x,y,z
x,-y,z
x,1/2+y,1/2+z
-x,1/2-y,1/2+z
-x,1/2+y,1/2+z
x,1/2-y,1/2+z
loop_
_atom_site_type_symbol
_atom_site_label
_atom_site_fract_x
_atom_site_fract_y
_atom_site_fract_z
Si Si1 0.830075 0.063497 0.342900
Si Si2 0.172567 0.100592 0.148516
Si Si3 0.667520 0.938157 0.978204
Si Si4 0.827187 0.218861 0.191215
Si Si5 0.168649 0.856922 0.853818
Si Si6 0.172079 0.836261 0.650565
Si Si7 0.828234 0.766084 0.387476
Si Si8 0.325744 0.859395 0.481341
O O1 0.775504 0.078180 0.243870
O O2 0.733951 0.095598 0.413940
O O3 0.000000 0.080886 0.353749
O O4 0.807388 0.000000 0.360381
O O5 0.252003 0.067679 0.072037
O O6 0.214938 0.164477 0.137787
O O7 0.000000 0.091626 0.136957
O O8 0.500000 0.921356 0.993132
O O9 0.683736 0.000000 0.945977
O O10 0.732193 0.901170 0.900986
O O11 0.770182 0.273463 0.143391
O O12 0.768992 0.213734 0.291822
O O13 0.000000 0.226465 0.201405
O O14 0.204872 0.857769 0.749347
O O15 0.200826 0.798141 0.897126
O O16 0.000000 0.872563 0.870265
O O17 0.265036 0.871972 0.580535
O O18 0.000000 0.841165 0.627831
O O19 0.733340 0.799123 0.458569
O O20 0.000000 0.779346 0.402307
O O21 0.500000 0.861012 0.480634
#
# Coordination Sequence:
#
# PCOD8178716 Si02
#       8
#     8   8   8   8   8   8   8   8
#     4  10  21  39  63  86 111 150 198 246 290 332
#     4  10  19  35  61  89 113 146 194 242 283 332
#     4  11  25  41  56  80 119 160 191 230 291 352
#     4   8  15  31  57  85 111 143 184 230 282 331
#     4   9  20  39  65  89 107 142 197 250 293 331
#     4   9  19  37  60  85 115 150 191 242 290 336
#     4   9  17  35  59  83 113 147 186 234 285 337
#     4  12  24  35  53  86 123 159 192 228 283 347
#
# _framework density 19.014953999999999
#
# number of rings (size 3 to 8) (size 9 to 14) (size 15 to 20)
#    0.000    2.250    1.250    3.375    1.750    3.250 
#    0.000    2.500    0.000    0.750    0.000    0.000 
#    0.000    0.000    0.000    0.000    0.000    0.000 
#
# Total GULP energy -396769.927495 kJ/mol
# GULP energy per Si atom -12399.060234 kJ/mol
# Density = 1.897168 g / cm^3
# Si number density = 19.014954 Si / 1000 Ang^3
#
#
#
# Elastic Constant Matrix: (Units=GPa)
#
#
# Indices 1 2 3 4 5 6 
#
# 1 95.2613 53.7266 61.5902 0.0000 0.0000 0.0000
# 2 53.7266 90.8559 55.6974 0.0000 0.0000 0.0000
# 3 61.5902 55.6974 114.3113 0.0000 0.0000 0.0000
# 4 0.0000 0.0000 0.0000 26.1722 0.0000 0.0000
# 5 0.0000 0.0000 0.0000 0.0000 2.7911 0.0000
# 6 0.0000 0.0000 0.0000 0.0000 0.0000 22.2223
#
#
#
# Elastic Compliance Matrix: (Units=1/GPa)
#
#
# Indices 1 2 3 4 5 6 
#
# 1 0.018780 -0.006990 -0.006712 0.000000 0.000000 0.000000
# 2 -0.006990 0.018296 -0.005148 0.000000 0.000000 0.000000
# 3 -0.006712 -0.005148 0.014873 0.000000 0.000000 0.000000
# 4 0.000000 0.000000 0.000000 0.038208 0.000000 0.000000
# 5 0.000000 0.000000 0.000000 0.000000 0.358285 0.000000
# 6 0.000000 0.000000 0.000000 0.000000 0.000000 0.045000
#
#
# Mechanical properties :
#
#
# Convention : Reuss Voigt Hill
#
# Bulk Modulus (GPa) = 70.19059 71.38409 70.78734
# Shear Modulus (GPa) = 9.33022 18.86475 14.09748
#
# Velocity S-wave (km/s) = 2.21753 3.15318 2.72580
# Velocity P-wave (km/s) = 6.59925 7.13297 6.87129
#
# Compressibility (1/GPa) = 0.01424692
#
# Stress axis : x y z
#
# Youngs Moduli (GPa) = 53.24884 54.65633 67.23516
#
# Poissons Ratio (x) = 0.38206 0.45131
# Poissons Ratio (y) = 0.37222 0.34615
# Poissons Ratio (z) = 0.35743 0.28139
#
# Static dielectric constant tensor:
#      x y z
#    x 3.203730 0.000000 0.000000 
#    y 0.000000 3.486930 0.000000 
#    z 0.000000 0.000000 3.486850 
# 
# 
# High freq. dielectric constant tensor:
#      x y z
#    x 1.710400 0.000000 0.000000 
#    y 0.000000 1.736130 0.000000 
#    z 0.000000 0.000000 1.745350 
# 
# From -- ./inp_files/12808.got.cif
#   From: 2010.03.12/outbox.cif.g09.slc.cpg/sg38_7_cif.got.tgz:12808.got - 2010.04.14 02:38:36.
