data_PCOD8178496
_publ_section_title
;
Structure prediction by ZEFSAII (Michael W. Deem and Ramdas Pophale) SiO2 
 PCOD8178496
Probable space group: A M M 2
;
_chemical_formula_sum "Si O2"
_cell_formula_units_Z 52
_cell_length_a 18.013724
_cell_length_b 10.896474
_cell_length_c 13.675005
_cell_angle_alpha 90.000000
_cell_angle_beta 90.000000
_cell_angle_gamma 90.000000
_cell_volume 2684.213060
_symmetry_space_group_name_H-M "A M M 2"
_symmetry_group_IT_number 38
_symmetry_cell_setting 'orthorhombic'
loop_
_space_group_symop_operation_xyz
x,y,z
-x,-y,z
-x,y,z
x,-y,z
x,1/2+y,1/2+z
-x,1/2-y,1/2+z
-x,1/2+y,1/2+z
x,1/2-y,1/2+z
loop_
_atom_site_type_symbol
_atom_site_label
_atom_site_fract_x
_atom_site_fract_y
_atom_site_fract_z
Si Si1 0.709012 0.767810 0.724720
Si Si2 0.083842 0.233276 0.963169
Si Si3 0.314677 0.362276 0.433152
Si Si4 0.085158 0.000000 0.488559
Si Si5 0.088235 0.000000 0.838336
Si Si6 0.799751 0.000000 0.662779
Si Si7 0.414190 0.642759 0.604138
Si Si8 0.808803 0.635989 0.597512
O O1 0.697519 0.773907 0.840948
O O2 0.743444 0.886672 0.672269
O O3 0.630149 0.731853 0.677355
O O4 0.770759 0.663602 0.701739
O O5 0.000000 0.198754 0.983561
O O6 0.115052 0.125437 0.892826
O O7 0.092651 0.374095 0.923832
O O8 0.123680 0.226293 0.069501
O O9 0.315127 0.500000 0.390280
O O10 0.391183 0.332901 0.490784
O O11 0.251050 0.344427 0.512293
O O12 0.154321 0.000000 0.562484
O O13 0.000000 0.000000 0.534199
O O14 0.135031 0.000000 0.741275
O O15 0.000000 0.000000 0.816964
O O16 0.500000 0.675001 0.616387
O O17 0.396930 0.500000 0.629708
O O18 0.841257 0.500000 0.600419
#
# Coordination Sequence:
#
# PCOD8178496 Si02
#       8
#     8   8   8   4   4   4   8   8
#     4  11  20  32  57  89 114 142 189 239 287 345
#     4  10  19  33  55  81 108 149 200 247 292 345
#     4   9  18  33  56  84 108 142 188 233 279 342
#     4  10  21  36  54  80 117 157 196 241 303 354
#     4  10  21  36  60  84 109 154 212 252 288 348
#     4  12  21  34  55  84 118 151 186 241 300 346
#     4   9  20  40  63  83 111 149 188 233 290 356
#     4  10  19  34  56  79 114 151 195 243 286 344
#
# _framework density 19.372530999999999
#
# number of rings (size 3 to 8) (size 9 to 14) (size 15 to 20)
#    0.000    2.000    3.077    2.538    0.000    0.615 
#    0.000    0.385   27.077    0.000    0.000    5.385 
#    0.000    0.000    0.000    0.000    0.000    0.000 
#
# Total GULP energy -322104.516601 kJ/mol
# GULP energy per Si atom -12388.635254 kJ/mol
# Density = 1.932844 g / cm^3
# Si number density = 19.372531 Si / 1000 Ang^3
#
#
#
# Elastic Constant Matrix: (Units=GPa)
#
#
# Indices 1 2 3 4 5 6 
#
# 1 46.4642 28.8375 6.5849 0.0000 0.0000 0.0000
# 2 28.8375 116.9826 31.6763 0.0000 0.0000 0.0000
# 3 6.5849 31.6763 75.9346 0.0000 0.0000 0.0000
# 4 0.0000 0.0000 0.0000 27.8155 0.0000 0.0000
# 5 0.0000 0.0000 0.0000 0.0000 21.6505 0.0000
# 6 0.0000 0.0000 0.0000 0.0000 0.0000 31.9491
#
#
#
# Elastic Compliance Matrix: (Units=1/GPa)
#
#
# Indices 1 2 3 4 5 6 
#
# 1 0.025424 -0.006392 0.000462 0.000000 0.000000 0.000000
# 2 -0.006392 0.011244 -0.004136 0.000000 0.000000 0.000000
# 3 0.000462 -0.004136 0.014855 0.000000 0.000000 0.000000
# 4 0.000000 0.000000 0.000000 0.035951 0.000000 0.000000
# 5 0.000000 0.000000 0.000000 0.000000 0.046188 0.000000
# 6 0.000000 0.000000 0.000000 0.000000 0.000000 0.031300
#
#
# Mechanical properties :
#
#
# Convention : Reuss Voigt Hill
#
# Bulk Modulus (GPa) = 31.85805 41.50874 36.68339
# Shear Modulus (GPa) = 25.56788 27.76854 26.66821
#
# Velocity S-wave (km/s) = 3.63685 3.79013 3.71428
# Velocity P-wave (km/s) = 5.84091 6.37390 6.11321
#
# Compressibility (1/GPa) = 0.03138924
#
# Stress axis : x y z
#
# Youngs Moduli (GPa) = 39.33327 88.93613 67.31929
#
# Poissons Ratio (x) = 0.56851 -0.03109
# Poissons Ratio (y) = 0.25143 0.27844
# Poissons Ratio (z) = -0.01817 0.36785
#
# Static dielectric constant tensor:
#      x y z
#    x 3.674880 0.000000 0.000000 
#    y 0.000000 3.813390 0.000000 
#    z 0.000000 0.000000 3.292120 
# 
# 
# High freq. dielectric constant tensor:
#      x y z
#    x 1.758560 0.000000 0.000000 
#    y 0.000000 1.759750 0.000000 
#    z 0.000000 0.000000 1.721870 
# 
# From -- ./inp_files/15203.got.cif
#   From: 2010.03.12/outbox.cif.g09.slc.cpg/sg38_8_cif.got.tgz:15203.got - 2010.04.14 02:38:36.
