data_PCOD8178366
_publ_section_title
;
Structure prediction by ZEFSAII (Michael W. Deem and Ramdas Pophale) SiO2 
 PCOD8178366
Probable space group: A M M 2
;
_chemical_formula_sum "Si O2"
_cell_formula_units_Z 64
_cell_length_a 8.926888
_cell_length_b 29.133988
_cell_length_c 12.601758
_cell_angle_alpha 90.000000
_cell_angle_beta 90.000000
_cell_angle_gamma 90.000000
_cell_volume 3277.412896
_symmetry_space_group_name_H-M "A M M 2"
_symmetry_group_IT_number 38
_symmetry_cell_setting 'orthorhombic'
loop_
_space_group_symop_operation_xyz
x,y,z
-x,-y,z
-x,y,z
x,-y,z
x,1/2+y,1/2+z
-x,1/2-y,1/2+z
-x,1/2+y,1/2+z
x,1/2-y,1/2+z
loop_
_atom_site_type_symbol
_atom_site_label
_atom_site_fract_x
_atom_site_fract_y
_atom_site_fract_z
Si Si1 0.670289 0.699277 0.029730
Si Si2 0.176971 0.606225 0.969943
Si Si3 0.822800 0.611703 0.561795
Si Si4 0.178221 0.052490 0.262430
Si Si5 0.669785 0.949833 0.893201
Si Si6 0.326171 0.200679 0.986373
Si Si7 0.332418 0.165564 0.756537
Si Si8 0.172916 0.422124 0.198970
O O1 0.500000 0.696406 0.988722
O O2 0.679345 0.698912 0.156741
O O3 0.755210 0.657290 0.972866
O O4 0.742408 0.748566 0.002489
O O5 0.237025 0.577414 0.869324
O O6 0.000000 0.612584 0.965104
O O7 0.222530 0.577242 0.075293
O O8 0.763203 0.582611 0.662901
O O9 0.772041 0.585904 0.455439
O O10 0.756530 0.663091 0.560247
O O11 0.000000 0.615033 0.563902
O O12 0.000000 0.050934 0.262469
O O13 0.240366 0.000000 0.256430
O O14 0.500000 0.931484 0.895165
O O15 0.727215 0.955630 0.771569
O O16 0.680261 0.000000 0.946586
O O17 0.500000 0.199124 0.018830
O O18 0.299561 0.192969 0.862568
O O19 0.500000 0.143217 0.759991
O O20 0.202881 0.128140 0.746036
O O21 0.000000 0.435750 0.210691
#
# Coordination Sequence:
#
# PCOD8178366 Si02
#       8
#     8   8   8   8   8   8   8   8
#     4   9  19  34  53  80 111 149 193 233 278 336
#     4   9  19  36  58  83 112 146 187 233 283 334
#     4  11  22  36  57  83 110 144 191 239 282 333
#     4   9  19  37  59  82 113 153 191 233 291 349
#     4  11  23  37  54  78 110 145 178 220 279 339
#     4  10  20  34  54  79 110 150 192 231 282 341
#     4   9  17  32  52  72 105 147 180 221 279 332
#     4  10  19  32  54  82 107 136 179 227 273 326
#
# _framework density 19.527598000000001
#
# number of rings (size 3 to 8) (size 9 to 14) (size 15 to 20)
#    0.000    2.250    1.250    1.500    0.000    4.000 
#    0.000    3.750    0.000    1.875    0.000    0.000 
#    0.000    0.000    0.000    0.000    0.000    0.000 
#
# Total GULP energy -396631.705143 kJ/mol
# GULP energy per Si atom -12394.740786 kJ/mol
# Density = 1.948315 g / cm^3
# Si number density = 19.527598 Si / 1000 Ang^3
#
#
#
# Elastic Constant Matrix: (Units=GPa)
#
#
# Indices 1 2 3 4 5 6 
#
# 1 45.0927 24.0608 25.0619 0.0000 0.0000 0.0000
# 2 24.0608 129.8405 57.5678 0.0000 0.0000 0.0000
# 3 25.0619 57.5678 117.2516 0.0000 0.0000 0.0000
# 4 0.0000 0.0000 0.0000 28.6870 0.0000 0.0000
# 5 0.0000 0.0000 0.0000 0.0000 20.4622 0.0000
# 6 0.0000 0.0000 0.0000 0.0000 0.0000 38.6174
#
#
#
# Elastic Compliance Matrix: (Units=1/GPa)
#
#
# Indices 1 2 3 4 5 6 
#
# 1 0.026058 -0.003016 -0.004089 0.000000 0.000000 0.000000
# 2 -0.003016 0.010194 -0.004360 0.000000 0.000000 0.000000
# 3 -0.004089 -0.004360 0.011544 0.000000 0.000000 0.000000
# 4 0.000000 0.000000 0.000000 0.034859 0.000000 0.000000
# 5 0.000000 0.000000 0.000000 0.000000 0.048871 0.000000
# 6 0.000000 0.000000 0.000000 0.000000 0.000000 0.025895
#
#
# Mechanical properties :
#
#
# Convention : Reuss Voigt Hill
#
# Bulk Modulus (GPa) = 40.21688 56.17398 48.19543
# Shear Modulus (GPa) = 26.50556 29.91961 28.21258
#
# Velocity S-wave (km/s) = 3.68820 3.91854 3.80512
# Velocity P-wave (km/s) = 6.22710 7.02155 6.63622
#
# Compressibility (1/GPa) = 0.02486518
#
# Stress axis : x y z
#
# Youngs Moduli (GPa) = 38.37522 98.09802 86.62869
#
# Poissons Ratio (x) = 0.29585 0.35424
# Poissons Ratio (y) = 0.11574 0.37773
# Poissons Ratio (z) = 0.15692 0.42774
#
# Static dielectric constant tensor:
#      x y z
#    x 3.385050 0.000000 0.000000 
#    y 0.000000 3.622250 0.000000 
#    z 0.000000 0.000000 3.780840 
# 
# 
# High freq. dielectric constant tensor:
#      x y z
#    x 1.739340 0.000000 0.000000 
#    y 0.000000 1.762450 0.000000 
#    z 0.000000 0.000000 1.764080 
# 
# From -- ./inp_files/8608.got.cif
#   From: 2010.03.12/outbox.cif.g09.slc.cpg/sg38_5_cif.got.tgz:8608.got - 2010.04.14 02:38:36.
