data_PCOD8178961
_publ_section_title
;
Structure prediction by ZEFSAII (Michael W. Deem and Ramdas Pophale) SiO2 
 PCOD8178961
Probable space group: A M M 2
;
_chemical_formula_sum "Si O2"
_cell_formula_units_Z 64
_cell_length_a 8.645625
_cell_length_b 14.420729
_cell_length_c 28.012625
_cell_angle_alpha 90.000000
_cell_angle_beta 90.000000
_cell_angle_gamma 90.000000
_cell_volume 3492.508062
_symmetry_space_group_name_H-M "A M M 2"
_symmetry_group_IT_number 38
_symmetry_cell_setting 'orthorhombic'
loop_
_space_group_symop_operation_xyz
x,y,z
-x,-y,z
-x,y,z
x,-y,z
x,1/2+y,1/2+z
-x,1/2-y,1/2+z
-x,1/2+y,1/2+z
x,1/2-y,1/2+z
loop_
_atom_site_type_symbol
_atom_site_label
_atom_site_fract_x
_atom_site_fract_y
_atom_site_fract_z
Si Si1 0.319051 0.105970 0.320790
Si Si2 0.820510 0.279626 0.362806
Si Si3 0.319196 0.789715 0.133646
Si Si4 0.317679 0.399828 0.173084
Si Si5 0.320624 0.894285 0.947065
Si Si6 0.176654 0.392880 0.721790
Si Si7 0.677329 0.607748 0.280019
Si Si8 0.180027 0.893479 0.047246
O O1 0.500000 0.116628 0.329561
O O2 0.229328 0.172138 0.357713
O O3 0.281264 0.137059 0.266633
O O4 0.263698 0.000000 0.329395
O O5 0.722660 0.325578 0.404832
O O6 0.787208 0.333030 0.313859
O O7 0.000000 0.285831 0.375597
O O8 0.500000 0.804139 0.143290
O O9 0.272288 0.680666 0.135878
O O10 0.224414 0.840370 0.174396
O O11 0.276244 0.827552 0.081971
O O12 0.500000 0.410225 0.177185
O O13 0.248406 0.500000 0.156503
O O14 0.259815 0.374778 0.226420
O O15 0.500000 0.882929 0.959729
O O16 0.283002 0.000000 0.931558
O O17 0.222080 0.866371 0.993383
O O18 0.200435 0.500000 0.709902
O O19 0.000000 0.369937 0.734852
O O20 0.500000 0.641475 0.286381
O O21 0.690406 0.500000 0.293711
O O22 0.000000 0.876621 0.056080
O O23 0.226076 0.000000 0.057475
#
# Coordination Sequence:
#
# PCOD8178961 Si02
#       8
#     8   8   8   8   8   8   8   8
#     4  10  21  37  55  74 100 137 180 222 259 300
#     4  12  23  33  51  78 108 140 171 208 257 313
#     4  11  20  30  51  78 102 135 177 215 252 304
#     4   8  16  31  49  70  98 133 173 215 254 289
#     4  10  21  38  59  81 105 133 168 211 256 307
#     4  10  20  33  49  73 107 141 171 209 259 310
#     4   9  17  31  51  74 103 140 180 219 256 298
#     4  10  21  37  55  76 105 136 164 204 261 316
#
# _framework density 18.324939000000001
#
# number of rings (size 3 to 8) (size 9 to 14) (size 15 to 20)
#    0.000    2.000    0.000    5.250    0.000    7.250 
#    0.000    0.625    0.000    3.750    0.000    1.750 
#    0.000    0.000    0.000    0.000    0.000    0.000 
#
# Total GULP energy -396849.064025 kJ/mol
# GULP energy per Si atom -12401.533251 kJ/mol
# Density = 1.828323 g / cm^3
# Si number density = 18.324939 Si / 1000 Ang^3
#
#
#
# Elastic Constant Matrix: (Units=GPa)
#
#
# Indices 1 2 3 4 5 6 
#
# 1 50.1622 23.7193 8.3263 0.0000 0.0000 0.0000
# 2 23.7193 97.8880 57.6350 0.0000 0.0000 0.0000
# 3 8.3263 57.6350 75.2828 0.0000 0.0000 0.0000
# 4 0.0000 0.0000 0.0000 30.7442 0.0000 0.0000
# 5 0.0000 0.0000 0.0000 0.0000 26.7200 0.0000
# 6 0.0000 0.0000 0.0000 0.0000 0.0000 21.3886
#
#
#
# Elastic Compliance Matrix: (Units=1/GPa)
#
#
# Indices 1 2 3 4 5 6 
#
# 1 0.022912 -0.007392 0.003125 0.000000 0.000000 0.000000
# 2 -0.007392 0.020984 -0.015248 0.000000 0.000000 0.000000
# 3 0.003125 -0.015248 0.024611 0.000000 0.000000 0.000000
# 4 0.000000 0.000000 0.000000 0.032526 0.000000 0.000000
# 5 0.000000 0.000000 0.000000 0.000000 0.037425 0.000000
# 6 0.000000 0.000000 0.000000 0.000000 0.000000 0.046754
#
#
# Mechanical properties :
#
#
# Convention : Reuss Voigt Hill
#
# Bulk Modulus (GPa) = 33.92344 44.74381 39.33362
# Shear Modulus (GPa) = 21.36131 24.68071 23.02101
#
# Velocity S-wave (km/s) = 3.41793 3.67391 3.54823
# Velocity P-wave (km/s) = 5.84198 6.51665 6.18851
#
# Compressibility (1/GPa) = 0.02947814
#
# Stress axis : x y z
#
# Youngs Moduli (GPa) = 43.64561 47.65427 40.63222
#
# Poissons Ratio (x) = 0.35224 -0.12697
# Poissons Ratio (y) = 0.32261 0.61955
# Poissons Ratio (z) = -0.13638 0.72662
#
# Static dielectric constant tensor:
#      x y z
#    x 3.306640 0.000000 0.000000 
#    y 0.000000 3.784370 0.000000 
#    z 0.000000 0.000000 3.199890 
# 
# 
# High freq. dielectric constant tensor:
#      x y z
#    x 1.707880 0.000000 0.000000 
#    y 0.000000 1.714260 0.000000 
#    z 0.000000 0.000000 1.688870 
# 
# From -- ./inp_files/22147.got.cif
#   From: 2010.03.12/outbox.cif.g09.slc.cpg/sg38_12_cif.got.tgz:22147.got - 2010.04.14 02:38:36.
