data_PCOD8178692
_publ_section_title
;
Structure prediction by ZEFSAII (Michael W. Deem and Ramdas Pophale) SiO2 
 PCOD8178692
Probable space group: A M M 2
;
_chemical_formula_sum "Si O2"
_cell_formula_units_Z 48
_cell_length_a 16.885365
_cell_length_b 9.064777
_cell_length_c 15.966987
_cell_angle_alpha 90.000000
_cell_angle_beta 90.000000
_cell_angle_gamma 90.000000
_cell_volume 2443.940055
_symmetry_space_group_name_H-M "A M M 2"
_symmetry_group_IT_number 38
_symmetry_cell_setting 'orthorhombic'
loop_
_space_group_symop_operation_xyz
x,y,z
-x,-y,z
-x,y,z
x,-y,z
x,1/2+y,1/2+z
-x,1/2-y,1/2+z
-x,1/2+y,1/2+z
x,1/2-y,1/2+z
loop_
_atom_site_type_symbol
_atom_site_label
_atom_site_fract_x
_atom_site_fract_y
_atom_site_fract_z
Si Si1 0.848252 0.669074 0.508470
Si Si2 0.321536 0.328580 0.759507
Si Si3 0.408979 0.174713 0.423056
Si Si4 0.000000 0.326380 0.079729
Si Si5 0.838025 0.168395 0.342748
Si Si6 0.000000 0.668509 0.750941
Si Si7 0.678830 0.171273 0.074941
O O1 0.875853 0.500000 0.506478
O O2 0.921618 0.767094 0.536051
O O3 0.820200 0.719918 0.417303
O O4 0.773628 0.690818 0.569400
O O5 0.341120 0.500000 0.757295
O O6 0.371296 0.259232 0.836957
O O7 0.227999 0.300913 0.772461
O O8 0.345398 0.266431 0.667477
O O9 0.500000 0.222561 0.425211
O O10 0.366293 0.238157 0.504448
O O11 0.397676 0.000000 0.425882
O O12 0.000000 0.500000 0.070008
O O13 0.000000 0.281973 0.175836
O O14 0.923989 0.201353 0.306537
O O15 0.831826 0.000000 0.375322
O O16 0.000000 0.500000 0.717043
O O17 0.655980 0.000000 0.064246
#
# Coordination Sequence:
#
# PCOD8178692 Si02
#       7
#     8   8   8   4   8   4   8
#     4  11  22  37  58  85 119 153 196 250 300 346
#     4   9  18  35  59  84 115 156 199 237 286 354
#     4  10  21  38  60  86 118 155 196 246 299 354
#     4  12  25  38  55  81 115 159 205 243 292 353
#     4  10  19  35  59  84 114 154 197 240 293 359
#     4  10  21  36  55  81 113 149 195 251 298 343
#     4  10  21  38  62  90 118 155 197 243 297 354
#
# _framework density 19.640416999999999
#
# number of rings (size 3 to 8) (size 9 to 14) (size 15 to 20)
#    0.000    1.833    1.667    2.750    0.000    5.667 
#    0.000    3.333    0.000    0.000    0.000    0.000 
#    0.000    0.000    0.000    0.000    0.000    0.000 
#
# Total GULP energy -297580.968990 kJ/mol
# GULP energy per Si atom -12399.207041 kJ/mol
# Density = 1.959571 g / cm^3
# Si number density = 19.640417 Si / 1000 Ang^3
#
#
#
# Elastic Constant Matrix: (Units=GPa)
#
#
# Indices 1 2 3 4 5 6 
#
# 1 109.6838 34.0483 53.5734 0.0000 0.0000 0.0000
# 2 34.0483 71.1005 41.3093 0.0000 0.0000 0.0000
# 3 53.5734 41.3093 157.5049 0.0000 0.0000 0.0000
# 4 0.0000 0.0000 0.0000 31.7303 0.0000 0.0000
# 5 0.0000 0.0000 0.0000 0.0000 20.0628 0.0000
# 6 0.0000 0.0000 0.0000 0.0000 0.0000 28.3566
#
#
#
# Elastic Compliance Matrix: (Units=1/GPa)
#
#
# Indices 1 2 3 4 5 6 
#
# 1 0.011789 -0.003912 -0.002984 0.000000 0.000000 0.000000
# 2 -0.003912 0.017891 -0.003362 0.000000 0.000000 0.000000
# 3 -0.002984 -0.003362 0.008246 0.000000 0.000000 0.000000
# 4 0.000000 0.000000 0.000000 0.031516 0.000000 0.000000
# 5 0.000000 0.000000 0.000000 0.000000 0.049843 0.000000
# 6 0.000000 0.000000 0.000000 0.000000 0.000000 0.035265
#
#
# Mechanical properties :
#
#
# Convention : Reuss Voigt Hill
#
# Bulk Modulus (GPa) = 57.43609 66.23902 61.83756
# Shear Modulus (GPa) = 27.64444 29.98716 28.81580
#
# Velocity S-wave (km/s) = 3.75577 3.91168 3.83452
# Velocity P-wave (km/s) = 6.93650 7.36211 7.15248
#
# Compressibility (1/GPa) = 0.01741066
#
# Stress axis : x y z
#
# Youngs Moduli (GPa) = 84.82593 55.89382 121.27611
#
# Poissons Ratio (x) = 0.21864 0.36187
# Poissons Ratio (y) = 0.33182 0.40771
# Poissons Ratio (z) = 0.25311 0.18790
#
# Static dielectric constant tensor:
#      x y z
#    x 3.565270 0.000000 0.000000 
#    y 0.000000 3.390160 0.000000 
#    z 0.000000 0.000000 3.827690 
# 
# 
# High freq. dielectric constant tensor:
#      x y z
#    x 1.771720 0.000000 0.000000 
#    y 0.000000 1.737940 0.000000 
#    z 0.000000 0.000000 1.778600 
# 
# From -- ./inp_files/15002.got.cif
#   From: 2010.03.12/outbox.cif.g09.slc.cpg/sg38_8_cif.got.tgz:15002.got - 2010.04.14 02:38:36.
