data_PCOD8178435
_publ_section_title
;
Structure prediction by ZEFSAII (Michael W. Deem and Ramdas Pophale) SiO2 
 PCOD8178435
Probable space group: A M M 2
;
_chemical_formula_sum "Si O2"
_cell_formula_units_Z 56
_cell_length_a 19.757510
_cell_length_b 8.799535
_cell_length_c 16.132204
_cell_angle_alpha 90.000000
_cell_angle_beta 90.000000
_cell_angle_gamma 90.000000
_cell_volume 2804.694990
_symmetry_space_group_name_H-M "A M M 2"
_symmetry_group_IT_number 38
_symmetry_cell_setting 'orthorhombic'
loop_
_space_group_symop_operation_xyz
x,y,z
-x,-y,z
-x,y,z
x,-y,z
x,1/2+y,1/2+z
-x,1/2-y,1/2+z
-x,1/2+y,1/2+z
x,1/2-y,1/2+z
loop_
_atom_site_type_symbol
_atom_site_label
_atom_site_fract_x
_atom_site_fract_y
_atom_site_fract_z
Si Si1 0.710116 0.820997 0.120260
Si Si2 0.846655 0.819528 0.048667
Si Si3 0.923008 0.319707 0.711100
Si Si4 0.156511 0.178406 0.864502
Si Si5 0.425715 0.826575 0.380450
Si Si6 0.714640 0.675782 0.806404
Si Si7 0.427032 0.321180 0.552689
O O1 0.769858 0.757908 0.061439
O O2 0.732487 0.780809 0.212726
O O3 0.637161 0.745447 0.099381
O O4 0.702064 0.000000 0.108671
O O5 0.893620 0.755645 0.123433
O O6 0.846020 0.000000 0.055278
O O7 0.871461 0.771858 0.956156
O O8 0.917303 0.500000 0.712248
O O9 0.883937 0.260916 0.791812
O O10 0.000000 0.263411 0.717169
O O11 0.235966 0.222937 0.862873
O O12 0.148393 0.000000 0.852000
O O13 0.500000 0.805000 0.337355
O O14 0.364790 0.786266 0.318308
O O15 0.418807 0.712571 0.456206
O O16 0.418504 0.000000 0.412049
O O17 0.729853 0.500000 0.825329
O O18 0.500000 0.255382 0.584368
O O19 0.427222 0.500000 0.566463
#
# Coordination Sequence:
#
# PCOD8178435 Si02
#       7
#     8   8   8   8   8   8   8
#     4   9  16  29  51  74  99 134 181 230 266 313
#     4   9  18  34  57  82 109 146 187 224 268 326
#     4  10  21  40  64  86 112 149 189 223 266 335
#     4  11  22  36  59  89 118 146 183 234 284 328
#     4   9  18  31  47  71 103 139 180 229 283 333
#     4  10  19  33  54  76 106 147 189 232 277 333
#     4   9  17  29  47  71  98 133 179 230 279 327
#
# _framework density 19.966519999999999
#
# number of rings (size 3 to 8) (size 9 to 14) (size 15 to 20)
#    0.000    2.429    1.429    1.286    0.000    3.143 
#    0.000    6.429    0.000    0.000    0.000    4.000 
#    0.000    0.000    0.000    0.000    0.000    0.000 
#
# Total GULP energy -346936.439012 kJ/mol
# GULP energy per Si atom -12390.587108 kJ/mol
# Density = 1.992107 g / cm^3
# Si number density = 19.966520 Si / 1000 Ang^3
#
#
#
# Elastic Constant Matrix: (Units=GPa)
#
#
# Indices 1 2 3 4 5 6 
#
# 1 142.5332 17.1646 64.7744 0.0000 0.0000 0.0000
# 2 17.1646 12.2390 11.0224 0.0000 0.0000 0.0000
# 3 64.7744 11.0224 111.6073 0.0000 0.0000 0.0000
# 4 0.0000 0.0000 0.0000 22.9860 0.0000 0.0000
# 5 0.0000 0.0000 0.0000 0.0000 30.3259 0.0000
# 6 0.0000 0.0000 0.0000 0.0000 0.0000 19.0642
#
#
#
# Elastic Compliance Matrix: (Units=1/GPa)
#
#
# Indices 1 2 3 4 5 6 
#
# 1 0.010577 -0.010214 -0.005130 0.000000 0.000000 0.000000
# 2 -0.010214 0.099545 -0.003903 0.000000 0.000000 0.000000
# 3 -0.005130 -0.003903 0.012323 0.000000 0.000000 0.000000
# 4 0.000000 0.000000 0.000000 0.043505 0.000000 0.000000
# 5 0.000000 0.000000 0.000000 0.000000 0.032975 0.000000
# 6 0.000000 0.000000 0.000000 0.000000 0.000000 0.052454
#
#
# Mechanical properties :
#
#
# Convention : Reuss Voigt Hill
#
# Bulk Modulus (GPa) = 11.91170 50.25583 31.08377
# Shear Modulus (GPa) = 15.73029 26.03643 20.88336
#
# Velocity S-wave (km/s) = 2.80988 3.61502 3.23758
# Velocity P-wave (km/s) = 4.06276 6.53063 5.43853
#
# Compressibility (1/GPa) = 0.08395104
#
# Stress axis : x y z
#
# Youngs Moduli (GPa) = 94.54196 10.04566 81.14992
#
# Poissons Ratio (x) = 0.10261 0.41631
# Poissons Ratio (y) = 0.96565 0.31675
# Poissons Ratio (z) = 0.48501 0.03921
#
# Static dielectric constant tensor:
#      x y z
#    x 4.061920 0.000000 0.000000 
#    y 0.000000 3.231510 0.000000 
#    z 0.000000 0.000000 3.671310 
# 
# 
# High freq. dielectric constant tensor:
#      x y z
#    x 1.794620 0.000000 0.000000 
#    y 0.000000 1.731280 0.000000 
#    z 0.000000 0.000000 1.775390 
# 
# From -- ./inp_files/15422.got.cif
#   From: 2010.03.12/outbox.cif.g09.slc.cpg/sg38_8_cif.got.tgz:15422.got - 2010.04.14 02:38:36.
