data_PCOD8178953
_publ_section_title
;
Structure prediction by ZEFSAII (Michael W. Deem and Ramdas Pophale) SiO2 
 PCOD8178953
Probable space group: A M M 2
;
_chemical_formula_sum "Si O2"
_cell_formula_units_Z 64
_cell_length_a 9.322862
_cell_length_b 19.361338
_cell_length_c 20.357785
_cell_angle_alpha 90.000000
_cell_angle_beta 90.000000
_cell_angle_gamma 90.000000
_cell_volume 3674.642941
_symmetry_space_group_name_H-M "A M M 2"
_symmetry_group_IT_number 38
_symmetry_cell_setting 'orthorhombic'
loop_
_space_group_symop_operation_xyz
x,y,z
-x,-y,z
-x,y,z
x,-y,z
x,1/2+y,1/2+z
-x,1/2-y,1/2+z
-x,1/2+y,1/2+z
x,1/2-y,1/2+z
loop_
_atom_site_type_symbol
_atom_site_label
_atom_site_fract_x
_atom_site_fract_y
_atom_site_fract_z
Si Si1 0.167919 0.167248 0.857710
Si Si2 0.666688 0.667338 0.227775
Si Si3 0.670251 0.423670 0.610815
Si Si4 0.335170 0.418998 0.463386
Si Si5 0.333717 0.920273 0.603737
Si Si6 0.332928 0.826682 0.225630
Si Si7 0.166893 0.173107 0.354890
Si Si8 0.167518 0.920644 0.475029
O O1 0.242437 0.143310 0.790376
O O2 0.231399 0.123363 0.916717
O O3 0.200638 0.247490 0.871821
O O4 0.000000 0.152432 0.851745
O O5 0.500000 0.653675 0.243379
O O6 0.720157 0.622981 0.166067
O O7 0.696687 0.746803 0.210564
O O8 0.500000 0.425879 0.612950
O O9 0.731105 0.500000 0.627398
O O10 0.716195 0.401604 0.537453
O O11 0.729944 0.369448 0.663976
O O12 0.500000 0.396247 0.452125
O O13 0.318297 0.500000 0.449000
O O14 0.500000 0.906319 0.589796
O O15 0.248077 0.894911 0.540043
O O16 0.302084 0.000000 0.619042
O O17 0.500000 0.841680 0.236550
O O18 0.251738 0.851402 0.290697
O O19 0.221161 0.126280 0.414971
O O20 0.000000 0.161239 0.340858
O O21 0.000000 0.910575 0.487737
O O22 0.205905 0.000000 0.458848
#
# Coordination Sequence:
#
# PCOD8178953 Si02
#       8
#     8   8   8   8   8   8   8   8
#     4  10  20  33  49  70  97 127 159 197 236 276
#     4   9  18  32  48  68  95 125 156 191 234 282
#     4   8  15  29  48  70  95 121 151 190 236 282
#     4   9  18  33  52  72  96 127 159 192 234 283
#     4   9  18  32  49  70  95 120 150 193 239 279
#     4   9  17  30  49  71  93 120 157 196 230 273
#     4   9  19  34  48  67  98 130 158 192 237 283
#     4   9  18  33  51  69  93 127 162 194 232 282
#
# _framework density 17.416658999999999
#
# number of rings (size 3 to 8) (size 9 to 14) (size 15 to 20)
#    0.000    3.000    0.000    1.125    0.000    3.750 
#    0.000    3.125    0.000    0.750    0.000    0.000 
#    0.000    0.000    0.000    0.000    0.000    0.000 
#
# Total GULP energy -396822.409092 kJ/mol
# GULP energy per Si atom -12400.700284 kJ/mol
# Density = 1.737702 g / cm^3
# Si number density = 17.416659 Si / 1000 Ang^3
#
#
#
# Elastic Constant Matrix: (Units=GPa)
#
#
# Indices 1 2 3 4 5 6 
#
# 1 54.2505 38.9990 64.7335 0.0000 0.0000 0.0000
# 2 38.9990 75.2104 88.7107 0.0000 0.0000 0.0000
# 3 64.7335 88.7107 180.3436 0.0000 0.0000 0.0000
# 4 0.0000 0.0000 0.0000 39.7488 0.0000 0.0000
# 5 0.0000 0.0000 0.0000 0.0000 18.5463 0.0000
# 6 0.0000 0.0000 0.0000 0.0000 0.0000 20.5056
#
#
#
# Elastic Compliance Matrix: (Units=1/GPa)
#
#
# Indices 1 2 3 4 5 6 
#
# 1 0.034022 -0.007712 -0.008419 0.000000 0.000000 0.000000
# 2 -0.007712 0.033420 -0.013671 0.000000 0.000000 0.000000
# 3 -0.008419 -0.013671 0.015292 0.000000 0.000000 0.000000
# 4 0.000000 0.000000 0.000000 0.025158 0.000000 0.000000
# 5 0.000000 0.000000 0.000000 0.000000 0.053919 0.000000
# 6 0.000000 0.000000 0.000000 0.000000 0.000000 0.048767
#
#
# Mechanical properties :
#
#
# Convention : Reuss Voigt Hill
#
# Bulk Modulus (GPa) = 43.23278 77.18788 60.21033
# Shear Modulus (GPa) = 17.99267 23.58425 20.78846
#
# Velocity S-wave (km/s) = 3.21763 3.68383 3.45859
# Velocity P-wave (km/s) = 6.21939 7.90625 7.11300
#
# Compressibility (1/GPa) = 0.02313060
#
# Stress axis : x y z
#
# Youngs Moduli (GPa) = 29.39257 29.92238 65.39542
#
# Poissons Ratio (x) = 0.23075 0.55055
# Poissons Ratio (y) = 0.22667 0.89402
# Poissons Ratio (z) = 0.24745 0.40907
#
# Static dielectric constant tensor:
#      x y z
#    x 3.073040 0.000000 0.000000 
#    y 0.000000 3.327640 0.000000 
#    z 0.000000 0.000000 3.397540 
# 
# 
# High freq. dielectric constant tensor:
#      x y z
#    x 1.655990 0.000000 0.000000 
#    y 0.000000 1.670350 0.000000 
#    z 0.000000 0.000000 1.679930 
# 
# From -- ./inp_files/17169.got.cif
#   From: 2010.03.12/outbox.cif.g09.slc.cpg/sg38_9_cif.got.tgz:17169.got - 2010.04.14 02:38:36.
