data_PCOD8178302
_publ_section_title
;
Structure prediction by ZEFSAII (Michael W. Deem and Ramdas Pophale) SiO2 
 PCOD8178302
Probable space group: A M M 2
;
_chemical_formula_sum "Si O2"
_cell_formula_units_Z 64
_cell_length_a 19.800706
_cell_length_b 8.887342
_cell_length_c 19.870572
_cell_angle_alpha 90.000000
_cell_angle_beta 90.000000
_cell_angle_gamma 90.000000
_cell_volume 3496.736745
_symmetry_space_group_name_H-M "A M M 2"
_symmetry_group_IT_number 38
_symmetry_cell_setting 'orthorhombic'
loop_
_space_group_symop_operation_xyz
x,y,z
-x,-y,z
-x,y,z
x,-y,z
x,1/2+y,1/2+z
-x,1/2-y,1/2+z
-x,1/2+y,1/2+z
x,1/2-y,1/2+z
loop_
_atom_site_type_symbol
_atom_site_label
_atom_site_fract_x
_atom_site_fract_y
_atom_site_fract_z
Si Si1 0.921785 0.173590 0.139800
Si Si2 0.192903 0.823172 0.898719
Si Si3 0.825322 0.822581 0.532771
Si Si4 0.152955 0.175486 0.751661
Si Si5 0.331840 0.825045 0.364372
Si Si6 0.423484 0.823948 0.965579
Si Si7 0.686871 0.326748 0.572046
Si Si8 0.711437 0.671410 0.719985
O O1 0.878680 0.268301 0.087365
O O2 0.906326 0.232344 0.215158
O O3 0.000000 0.198172 0.123856
O O4 0.900927 0.000000 0.134316
O O5 0.152569 0.782584 0.830628
O O6 0.268835 0.761481 0.896574
O O7 0.197129 0.000000 0.909979
O O8 0.153702 0.747527 0.960751
O O9 0.750035 0.773865 0.551679
O O10 0.828804 0.000000 0.527920
O O11 0.224619 0.218600 0.719033
O O12 0.140804 0.000000 0.739895
O O13 0.399494 0.763027 0.398702
O O14 0.336335 0.794031 0.284074
O O15 0.323055 0.000000 0.380450
O O16 0.500000 0.775697 0.981416
O O17 0.417832 0.000000 0.950861
O O18 0.378605 0.776351 0.029938
O O19 0.705589 0.500000 0.557094
O O20 0.669757 0.303167 0.651185
O O21 0.738589 0.500000 0.724519
#
# Coordination Sequence:
#
# PCOD8178302 Si02
#       8
#     8   8   8   8   8   8   8   8
#     4  11  24  41  60  82 114 156 193 229 283 346
#     4  10  20  35  56  83 115 149 184 229 283 336
#     4  12  23  35  57  88 116 147 190 241 286 332
#     4  10  20  34  56  85 113 144 184 230 279 331
#     4  10  19  32  52  81 111 141 181 233 284 332
#     4  10  21  36  54  77 109 152 195 235 287 350
#     4  10  19  34  56  80 110 149 188 233 283 338
#     4   9  18  32  53  80 110 142 179 226 281 331
#
# _framework density 18.302779000000001
#
# number of rings (size 3 to 8) (size 9 to 14) (size 15 to 20)
#    0.000    1.750    2.500    2.625    0.000    3.250 
#    0.000    1.250    0.000    3.000    0.000    0.000 
#    0.000    0.000    0.000    0.000    0.000    0.000 
#
# Total GULP energy -396862.867949 kJ/mol
# GULP energy per Si atom -12401.964623 kJ/mol
# Density = 1.826112 g / cm^3
# Si number density = 18.302779 Si / 1000 Ang^3
#
#
#
# Elastic Constant Matrix: (Units=GPa)
#
#
# Indices 1 2 3 4 5 6 
#
# 1 84.6487 44.1950 51.0914 0.0000 0.0000 0.0000
# 2 44.1950 94.4096 50.4539 0.0000 0.0000 0.0000
# 3 51.0914 50.4539 133.7703 0.0000 0.0000 0.0000
# 4 0.0000 0.0000 0.0000 31.2299 0.0000 0.0000
# 5 0.0000 0.0000 0.0000 0.0000 25.6731 0.0000
# 6 0.0000 0.0000 0.0000 0.0000 0.0000 21.8293
#
#
#
# Elastic Compliance Matrix: (Units=1/GPa)
#
#
# Indices 1 2 3 4 5 6 
#
# 1 0.017577 -0.005812 -0.004521 0.000000 0.000000 0.000000
# 2 -0.005812 0.015188 -0.003509 0.000000 0.000000 0.000000
# 3 -0.004521 -0.003509 0.010526 0.000000 0.000000 0.000000
# 4 0.000000 0.000000 0.000000 0.032021 0.000000 0.000000
# 5 0.000000 0.000000 0.000000 0.000000 0.038951 0.000000
# 6 0.000000 0.000000 0.000000 0.000000 0.000000 0.045810
#
#
# Mechanical properties :
#
#
# Convention : Reuss Voigt Hill
#
# Bulk Modulus (GPa) = 64.07384 67.14547 65.60966
# Shear Modulus (GPa) = 25.91244 26.88567 26.39906
#
# Velocity S-wave (km/s) = 3.76675 3.83683 3.80195
# Velocity P-wave (km/s) = 7.34858 7.50959 7.42952
#
# Compressibility (1/GPa) = 0.01560699
#
# Stress axis : x y z
#
# Youngs Moduli (GPa) = 56.89364 65.84212 95.00651
#
# Poissons Ratio (x) = 0.38266 0.42953
# Poissons Ratio (y) = 0.33066 0.33334
# Poissons Ratio (z) = 0.25722 0.23102
#
# Static dielectric constant tensor:
#      x y z
#    x 3.131620 0.000000 0.000000 
#    y 0.000000 3.428130 0.000000 
#    z 0.000000 0.000000 3.751640 
# 
# 
# High freq. dielectric constant tensor:
#      x y z
#    x 1.672580 0.000000 0.000000 
#    y 0.000000 1.717290 0.000000 
#    z 0.000000 0.000000 1.728000 
# 
# From -- ./inp_files/21354.got.cif
#   From: 2010.03.12/outbox.cif.g09.slc.cpg/sg38_11_cif.got.tgz:21354.got - 2010.04.14 02:38:36.
