data_PCOD8178130
_publ_section_title
;
Structure prediction by ZEFSAII (Michael W. Deem and Ramdas Pophale) SiO2 
 PCOD8178130
Probable space group: A M M 2
;
_chemical_formula_sum "Si O2"
_cell_formula_units_Z 48
_cell_length_a 16.656334
_cell_length_b 8.863382
_cell_length_c 18.535836
_cell_angle_alpha 90.000000
_cell_angle_beta 90.000000
_cell_angle_gamma 90.000000
_cell_volume 2736.472363
_symmetry_space_group_name_H-M "A M M 2"
_symmetry_group_IT_number 38
_symmetry_cell_setting 'orthorhombic'
loop_
_space_group_symop_operation_xyz
x,y,z
-x,-y,z
-x,y,z
x,-y,z
x,1/2+y,1/2+z
-x,1/2-y,1/2+z
-x,1/2+y,1/2+z
x,1/2-y,1/2+z
loop_
_atom_site_type_symbol
_atom_site_label
_atom_site_fract_x
_atom_site_fract_y
_atom_site_fract_z
Si Si1 0.907926 0.173651 0.012830
Si Si2 0.737762 0.821568 0.764692
Si Si3 0.227950 0.180098 0.602198
Si Si4 0.830970 0.333424 0.885612
Si Si5 0.329101 0.664003 0.977406
Si Si6 0.409525 0.679937 0.841066
O O1 0.856022 0.252699 0.075211
O O2 0.000000 0.193082 0.035818
O O3 0.882164 0.000000 0.007763
O O4 0.896284 0.245928 0.933573
O O5 0.756100 0.769833 0.683444
O O6 0.810353 0.758099 0.812992
O O7 0.650604 0.755640 0.784633
O O8 0.734701 0.000000 0.773113
O O9 0.302479 0.244827 0.552327
O O10 0.223551 0.000000 0.593203
O O11 0.864005 0.500000 0.865171
O O12 0.751329 0.351526 0.931526
O O13 0.364488 0.500000 0.997398
O O14 0.392676 0.744154 0.923131
O O15 0.500000 0.722424 0.818775
O O16 0.395114 0.500000 0.840625
#
# Coordination Sequence:
#
# PCOD8178130 Si02
#       6
#     8   8   8   8   8   8
#     4  10  20  33  51  76 102 126 158 204 252 295
#     4  10  19  31  49  74 102 131 166 208 250 292
#     4   9  18  32  50  72  99 132 167 201 243 297
#     4   9  17  31  51  71  93 126 165 199 237 291
#     4   7  12  26  46  66  87 115 156 198 233 279
#     4   9  17  30  49  71  95 128 170 212 253 298
#
# _framework density 17.540831000000001
#
# number of rings (size 3 to 8) (size 9 to 14) (size 15 to 20)
#    0.000    3.000    0.000    3.500    0.000    3.000 
#    0.000    1.667    0.000    4.000    0.000    0.000 
#    0.000    0.000    0.000    0.000    0.000    0.000 
#
# Total GULP energy -297332.444054 kJ/mol
# GULP energy per Si atom -12388.851836 kJ/mol
# Density = 1.750091 g / cm^3
# Si number density = 17.540831 Si / 1000 Ang^3
#
#
#
# Elastic Constant Matrix: (Units=GPa)
#
#
# Indices 1 2 3 4 5 6 
#
# 1 80.1312 34.2150 55.2804 0.0000 0.0000 0.0000
# 2 34.2150 69.2989 46.5331 0.0000 0.0000 0.0000
# 3 55.2804 46.5331 152.6704 0.0000 0.0000 0.0000
# 4 0.0000 0.0000 0.0000 24.6560 0.0000 0.0000
# 5 0.0000 0.0000 0.0000 0.0000 21.0811 0.0000
# 6 0.0000 0.0000 0.0000 0.0000 0.0000 23.1057
#
#
#
# Elastic Compliance Matrix: (Units=1/GPa)
#
#
# Indices 1 2 3 4 5 6 
#
# 1 0.018301 -0.005766 -0.004869 0.000000 0.000000 0.000000
# 2 -0.005766 0.019960 -0.003996 0.000000 0.000000 0.000000
# 3 -0.004869 -0.003996 0.009531 0.000000 0.000000 0.000000
# 4 0.000000 0.000000 0.000000 0.040558 0.000000 0.000000
# 5 0.000000 0.000000 0.000000 0.000000 0.047436 0.000000
# 6 0.000000 0.000000 0.000000 0.000000 0.000000 0.043279
#
#
# Mechanical properties :
#
#
# Convention : Reuss Voigt Hill
#
# Bulk Modulus (GPa) = 53.96695 63.79527 58.88111
# Shear Modulus (GPa) = 23.30960 24.84003 24.07481
#
# Velocity S-wave (km/s) = 3.64933 3.76723 3.70875
# Velocity P-wave (km/s) = 6.97066 7.44118 7.20976
#
# Compressibility (1/GPa) = 0.01852986
#
# Stress axis : x y z
#
# Youngs Moduli (GPa) = 54.64317 50.09928 104.92065
#
# Poissons Ratio (x) = 0.28888 0.51086
# Poissons Ratio (y) = 0.31508 0.41926
# Poissons Ratio (z) = 0.26606 0.20019
#
# Static dielectric constant tensor:
#      x y z
#    x 3.162540 0.000000 0.000000 
#    y 0.000000 3.200250 0.000000 
#    z 0.000000 0.000000 3.497210 
# 
# 
# High freq. dielectric constant tensor:
#      x y z
#    x 1.656650 0.000000 0.000000 
#    y 0.000000 1.666230 0.000000 
#    z 0.000000 0.000000 1.675180 
# 
# From -- ./inp_files/18572.got.cif
#   From: 2010.03.12/outbox.cif.g09.slc.cpg/sg38_10_cif.got.tgz:18572.got - 2010.04.14 02:38:36.
