data_PCOD8178510
_publ_section_title
;
Structure prediction by ZEFSAII (Michael W. Deem and Ramdas Pophale) SiO2 
 PCOD8178510
Probable space group: A M M 2
;
_chemical_formula_sum "Si O2"
_cell_formula_units_Z 56
_cell_length_a 13.769688
_cell_length_b 27.806340
_cell_length_c 7.893333
_cell_angle_alpha 90.000000
_cell_angle_beta 90.000000
_cell_angle_gamma 90.000000
_cell_volume 3022.235855
_symmetry_space_group_name_H-M "A M M 2"
_symmetry_group_IT_number 38
_symmetry_cell_setting 'orthorhombic'
loop_
_space_group_symop_operation_xyz
x,y,z
-x,-y,z
-x,y,z
x,-y,z
x,1/2+y,1/2+z
-x,1/2-y,1/2+z
-x,1/2+y,1/2+z
x,1/2-y,1/2+z
loop_
_atom_site_type_symbol
_atom_site_label
_atom_site_fract_x
_atom_site_fract_y
_atom_site_fract_z
Si Si1 0.386191 0.801096 0.871410
Si Si2 0.387178 0.101854 0.714814
Si Si3 0.889256 0.944049 0.485719
Si Si4 0.615042 0.802533 0.261095
Si Si5 0.705970 0.103621 0.371772
Si Si6 0.300744 0.943910 0.031750
Si Si7 0.105393 0.942964 0.873189
O O1 0.500000 0.798764 0.842274
O O2 0.343901 0.845226 0.761308
O O3 0.344365 0.749977 0.811201
O O4 0.361325 0.811413 0.065605
O O5 0.500000 0.105107 0.677268
O O6 0.337526 0.081193 0.544852
O O7 0.370321 0.066340 0.872710
O O8 0.820488 0.909632 0.372257
O O9 0.876369 0.927516 0.679637
O O10 0.000000 0.936336 0.425610
O O11 0.859795 0.000000 0.459970
O O12 0.500000 0.808619 0.302326
O O13 0.678882 0.839971 0.370060
O O14 0.658665 0.080841 0.202275
O O15 0.298125 0.000000 0.066353
O O16 0.192534 0.923318 0.989584
O O17 0.000000 0.923077 0.935215
O O18 0.103624 0.000000 0.879849
#
# Coordination Sequence:
#
# PCOD8178510 Si02
#       7
#     8   8   8   8   8   8   8
#     4   9  18  35  57  81 110 143 185 239 286 328
#     4  11  23  39  56  77 113 153 192 237 281 326
#     4   9  18  34  56  81 110 145 188 238 286 332
#     4  10  19  33  55  84 113 142 183 234 288 341
#     4  12  22  34  57  86 113 147 187 236 282 345
#     4  11  23  37  54  79 112 150 193 234 278 337
#     4   8  15  32  57  79 102 136 179 232 287 330
#
# _framework density 18.529329000000001
#
# number of rings (size 3 to 8) (size 9 to 14) (size 15 to 20)
#    0.000    2.000    2.857    2.571    0.000    4.286 
#    0.000    1.429    0.000    3.857    0.000    5.000 
#    0.000    0.000    0.000    0.000    0.000    0.000 
#
# Total GULP energy -347082.907187 kJ/mol
# GULP energy per Si atom -12395.818114 kJ/mol
# Density = 1.848716 g / cm^3
# Si number density = 18.529329 Si / 1000 Ang^3
#
#
#
# Elastic Constant Matrix: (Units=GPa)
#
#
# Indices 1 2 3 4 5 6 
#
# 1 63.1604 30.3091 26.5289 0.0000 0.0000 0.0000
# 2 30.3091 57.8082 22.4902 0.0000 0.0000 0.0000
# 3 26.5289 22.4902 102.5132 0.0000 0.0000 0.0000
# 4 0.0000 0.0000 0.0000 29.2005 0.0000 0.0000
# 5 0.0000 0.0000 0.0000 0.0000 22.8215 0.0000
# 6 0.0000 0.0000 0.0000 0.0000 0.0000 16.6409
#
#
#
# Elastic Compliance Matrix: (Units=1/GPa)
#
#
# Indices 1 2 3 4 5 6 
#
# 1 0.022246 -0.010303 -0.003496 0.000000 0.000000 0.000000
# 2 -0.010303 0.023685 -0.002530 0.000000 0.000000 0.000000
# 3 -0.003496 -0.002530 0.011215 0.000000 0.000000 0.000000
# 4 0.000000 0.000000 0.000000 0.034246 0.000000 0.000000
# 5 0.000000 0.000000 0.000000 0.000000 0.043818 0.000000
# 6 0.000000 0.000000 0.000000 0.000000 0.000000 0.060093
#
#
# Mechanical properties :
#
#
# Convention : Reuss Voigt Hill
#
# Bulk Modulus (GPa) = 40.83941 42.45978 41.64960
# Shear Modulus (GPa) = 21.17538 23.34282 22.25910
#
# Velocity S-wave (km/s) = 3.38421 3.55318 3.46972
# Velocity P-wave (km/s) = 6.11218 6.30858 6.21115
#
# Compressibility (1/GPa) = 0.02448615
#
# Stress axis : x y z
#
# Youngs Moduli (GPa) = 44.95286 42.22115 89.16886
#
# Poissons Ratio (x) = 0.43501 0.31177
# Poissons Ratio (y) = 0.46316 0.22558
# Poissons Ratio (z) = 0.15717 0.10681
#
# Static dielectric constant tensor:
#      x y z
#    x 3.431330 0.000000 0.000000 
#    y 0.000000 3.313120 0.000000 
#    z 0.000000 0.000000 3.524380 
# 
# 
# High freq. dielectric constant tensor:
#      x y z
#    x 1.690470 0.000000 0.000000 
#    y 0.000000 1.693630 0.000000 
#    z 0.000000 0.000000 1.734650 
# 
# From -- ./inp_files/5958.got.cif
#   From: 2010.03.12/outbox.cif.g09.slc.cpg/sg38_3_cif.got.tgz:5958.got - 2010.04.14 02:38:36.
