data_PCOD8178301
_publ_section_title
;
Structure prediction by ZEFSAII (Michael W. Deem and Ramdas Pophale) SiO2 
 PCOD8178301
Probable space group: A M M 2
;
_chemical_formula_sum "Si O2"
_cell_formula_units_Z 64
_cell_length_a 9.231376
_cell_length_b 22.442896
_cell_length_c 15.239798
_cell_angle_alpha 90.000000
_cell_angle_beta 90.000000
_cell_angle_gamma 90.000000
_cell_volume 3157.363237
_symmetry_space_group_name_H-M "A M M 2"
_symmetry_group_IT_number 38
_symmetry_cell_setting 'orthorhombic'
loop_
_space_group_symop_operation_xyz
x,y,z
-x,-y,z
-x,y,z
x,-y,z
x,1/2+y,1/2+z
-x,1/2-y,1/2+z
-x,1/2+y,1/2+z
x,1/2-y,1/2+z
loop_
_atom_site_type_symbol
_atom_site_label
_atom_site_fract_x
_atom_site_fract_y
_atom_site_fract_z
Si Si1 0.829004 0.263643 0.682940
Si Si2 0.663261 0.069377 0.945285
Si Si3 0.159617 0.570698 0.284874
Si Si4 0.832618 0.310101 0.871648
Si Si5 0.664469 0.565934 0.116792
Si Si6 0.330392 0.381015 0.634421
Si Si7 0.667429 0.687977 0.044464
Si Si8 0.166574 0.933647 0.286095
O O1 0.797595 0.267334 0.788074
O O2 0.765517 0.322717 0.640976
O O3 0.747794 0.210002 0.633044
O O4 0.000000 0.259236 0.665479
O O5 0.500000 0.082452 0.916301
O O6 0.764074 0.098248 0.870498
O O7 0.693049 0.000000 0.954551
O O8 0.700302 0.097868 0.037178
O O9 0.155459 0.500000 0.292698
O O10 0.242826 0.589338 0.198008
O O11 0.000000 0.598679 0.279092
O O12 0.793163 0.379550 0.851677
O O13 0.000000 0.304843 0.898010
O O14 0.738862 0.287773 0.954724
O O15 0.500000 0.562084 0.149907
O O16 0.715104 0.500000 0.083246
O O17 0.680886 0.615710 0.041460
O O18 0.500000 0.369013 0.652584
O O19 0.271503 0.430362 0.702001
O O20 0.500000 0.708661 0.047381
O O21 0.000000 0.925023 0.255757
O O22 0.188027 0.000000 0.328521
#
# Coordination Sequence:
#
# PCOD8178301 Si02
#       8
#     8   8   8   8   8   8   8   8
#     4  10  22  42  63  82 112 153 195 241 294 347
#     4   9  17  29  46  71 107 149 188 230 286 345
#     4   9  17  29  47  73 104 140 184 230 273 323
#     4   9  20  39  61  85 116 155 195 239 290 346
#     4   9  19  37  58  81 114 151 183 223 282 345
#     4  10  19  32  52  79 111 148 194 245 295 345
#     4  11  23  39  63  92 117 149 192 240 291 348
#     4   9  18  33  54  82 118 159 198 236 287 348
#
# _framework density 20.270077000000001
#
# number of rings (size 3 to 8) (size 9 to 14) (size 15 to 20)
#    0.000    2.500    0.000    2.625    0.000    7.250 
#    2.250    1.250    0.000    0.000    0.000    0.000 
#    0.000    0.000    0.000    0.000    0.000    0.000 
#
# Total GULP energy -396612.045920 kJ/mol
# GULP energy per Si atom -12394.126435 kJ/mol
# Density = 2.022394 g / cm^3
# Si number density = 20.270077 Si / 1000 Ang^3
#
#
#
# Elastic Constant Matrix: (Units=GPa)
#
#
# Indices 1 2 3 4 5 6 
#
# 1 111.0643 28.3905 63.9689 0.0000 0.0000 0.0000
# 2 28.3905 66.2768 28.6213 0.0000 0.0000 0.0000
# 3 63.9689 28.6213 107.4654 0.0000 0.0000 0.0000
# 4 0.0000 0.0000 0.0000 20.2896 0.0000 0.0000
# 5 0.0000 0.0000 0.0000 0.0000 34.6015 0.0000
# 6 0.0000 0.0000 0.0000 0.0000 0.0000 25.3118
#
#
#
# Elastic Compliance Matrix: (Units=1/GPa)
#
#
# Indices 1 2 3 4 5 6 
#
# 1 0.014126 -0.002734 -0.007681 0.000000 0.000000 0.000000
# 2 -0.002734 0.017578 -0.003054 0.000000 0.000000 0.000000
# 3 -0.007681 -0.003054 0.014691 0.000000 0.000000 0.000000
# 4 0.000000 0.000000 0.000000 0.049286 0.000000 0.000000
# 5 0.000000 0.000000 0.000000 0.000000 0.028900 0.000000
# 6 0.000000 0.000000 0.000000 0.000000 0.000000 0.039507
#
#
# Mechanical properties :
#
#
# Convention : Reuss Voigt Hill
#
# Bulk Modulus (GPa) = 51.39410 58.52978 54.96194
# Shear Modulus (GPa) = 25.31478 26.96232 26.13855
#
# Velocity S-wave (km/s) = 3.53778 3.65108 3.59488
# Velocity P-wave (km/s) = 6.48826 6.83458 6.66367
#
# Compressibility (1/GPa) = 0.01945748
#
# Stress axis : x y z
#
# Youngs Moduli (GPa) = 70.78904 56.88795 68.07101
#
# Poissons Ratio (x) = 0.15556 0.52282
# Poissons Ratio (y) = 0.19357 0.20789
# Poissons Ratio (z) = 0.54370 0.17373
#
# Static dielectric constant tensor:
#      x y z
#    x 3.848240 0.000000 0.000000 
#    y 0.000000 3.640690 0.000000 
#    z 0.000000 0.000000 3.561250 
# 
# 
# High freq. dielectric constant tensor:
#      x y z
#    x 1.796900 0.000000 0.000000 
#    y 0.000000 1.779570 0.000000 
#    z 0.000000 0.000000 1.781390 
# 
# From -- ./inp_files/12827.got.cif
#   From: 2010.03.12/outbox.cif.g09.slc.cpg/sg38_7_cif.got.tgz:12827.got - 2010.04.14 02:38:36.
