data_PCOD8178708
_publ_section_title
;
Structure prediction by ZEFSAII (Michael W. Deem and Ramdas Pophale) SiO2 
 PCOD8178708
Probable space group: A M M 2
;
_chemical_formula_sum "Si O2"
_cell_formula_units_Z 64
_cell_length_a 23.829940
_cell_length_b 8.648780
_cell_length_c 15.380646
_cell_angle_alpha 90.000000
_cell_angle_beta 90.000000
_cell_angle_gamma 90.000000
_cell_volume 3169.949733
_symmetry_space_group_name_H-M "A M M 2"
_symmetry_group_IT_number 38
_symmetry_cell_setting 'orthorhombic'
loop_
_space_group_symop_operation_xyz
x,y,z
-x,-y,z
-x,y,z
x,-y,z
x,1/2+y,1/2+z
-x,1/2-y,1/2+z
-x,1/2+y,1/2+z
x,1/2-y,1/2+z
loop_
_atom_site_type_symbol
_atom_site_label
_atom_site_fract_x
_atom_site_fract_y
_atom_site_fract_z
Si Si1 0.934505 0.678762 0.595050
Si Si2 0.563222 0.815627 0.100803
Si Si3 0.760283 0.820999 0.203037
Si Si4 0.362181 0.316831 0.758730
Si Si5 0.128870 0.679708 0.935338
Si Si6 0.127019 0.679763 0.256331
Si Si7 0.362927 0.316896 0.441863
Si Si8 0.759722 0.821182 0.998239
O O1 0.921254 0.500000 0.576378
O O2 0.908118 0.778735 0.518463
O O3 0.907578 0.723012 0.686558
O O4 0.000000 0.713855 0.599686
O O5 0.500000 0.750532 0.101499
O O6 0.595607 0.752255 0.185515
O O7 0.563726 0.000000 0.101080
O O8 0.594657 0.753400 0.015008
O O9 0.700615 0.759815 0.237407
O O10 0.807097 0.718000 0.249546
O O11 0.769876 0.000000 0.227173
O O12 0.763596 0.795832 0.100599
O O13 0.363917 0.500000 0.759768
O O14 0.382700 0.251794 0.850520
O O15 0.122870 0.500000 0.915164
O O16 0.105823 0.773609 0.852219
O O17 0.193836 0.718310 0.951487
O O18 0.116219 0.500000 0.240006
O O19 0.365208 0.500000 0.438242
O O20 0.300241 0.261376 0.464761
O O21 0.769803 0.000000 0.974246
#
# Coordination Sequence:
#
# PCOD8178708 Si02
#       8
#     8   8   8   8   8   8   8   8
#     4  11  25  46  69  92 122 161 204 251 300 349
#     4   9  18  35  57  78 106 149 198 239 286 353
#     4  10  19  35  60  86 119 156 193 240 296 358
#     4  10  20  35  56  84 113 150 192 237 292 348
#     4  12  25  41  64  94 126 161 201 245 298 358
#     4  12  25  41  64  94 126 161 201 245 298 358
#     4  10  20  35  56  84 113 150 192 237 292 348
#     4  10  19  35  60  86 119 156 193 240 296 358
#
# _framework density 20.189595000000001
#
# number of rings (size 3 to 8) (size 9 to 14) (size 15 to 20)
#    0.000    1.500    2.500    3.375    0.000    5.000 
#    0.000    0.625    0.000    0.750    0.000    0.000 
#    0.000    0.000    0.000    0.000    0.000    0.000 
#
# Total GULP energy -396966.283487 kJ/mol
# GULP energy per Si atom -12405.196359 kJ/mol
# Density = 2.014364 g / cm^3
# Si number density = 20.189595 Si / 1000 Ang^3
#
#
#
# Elastic Constant Matrix: (Units=GPa)
#
#
# Indices 1 2 3 4 5 6 
#
# 1 128.2878 27.7326 50.0354 0.0000 0.0000 0.0000
# 2 27.7326 42.9630 15.1704 0.0000 0.0000 0.0000
# 3 50.0354 15.1704 129.6924 0.0000 0.0000 0.0000
# 4 0.0000 0.0000 0.0000 34.3038 0.0000 0.0000
# 5 0.0000 0.0000 0.0000 0.0000 5.4025 0.0000
# 6 0.0000 0.0000 0.0000 0.0000 0.0000 5.8114
#
#
#
# Elastic Compliance Matrix: (Units=1/GPa)
#
#
# Indices 1 2 3 4 5 6 
#
# 1 0.010271 -0.005456 -0.003324 0.000000 0.000000 0.000000
# 2 -0.005456 0.027177 -0.001074 0.000000 0.000000 0.000000
# 3 -0.003324 -0.001074 0.009119 0.000000 0.000000 0.000000
# 4 0.000000 0.000000 0.000000 0.029151 0.000000 0.000000
# 5 0.000000 0.000000 0.000000 0.000000 0.185101 0.000000
# 6 0.000000 0.000000 0.000000 0.000000 0.000000 0.172076
#
#
# Mechanical properties :
#
#
# Convention : Reuss Voigt Hill
#
# Bulk Modulus (GPa) = 37.23306 54.09111 45.66209
# Shear Modulus (GPa) = 10.83293 22.97053 16.90173
#
# Velocity S-wave (km/s) = 2.31889 3.37670 2.89649
# Velocity P-wave (km/s) = 5.06472 6.48479 5.81825
#
# Compressibility (1/GPa) = 0.02685785
#
# Stress axis : x y z
#
# Youngs Moduli (GPa) = 97.36132 36.79582 109.66457
#
# Poissons Ratio (x) = 0.20076 0.36456
# Poissons Ratio (y) = 0.53121 0.11778
# Poissons Ratio (z) = 0.32366 0.03952
#
# Static dielectric constant tensor:
#      x y z
#    x 3.803590 0.000000 0.000000 
#    y 0.000000 3.384000 0.000000 
#    z 0.000000 0.000000 3.902050 
# 
# 
# High freq. dielectric constant tensor:
#      x y z
#    x 1.787990 0.000000 0.000000 
#    y 0.000000 1.766480 0.000000 
#    z 0.000000 0.000000 1.806340 
# 
# From -- ./inp_files/15815.got.cif
#   From: 2010.03.12/outbox.cif.g09.slc.cpg/sg38_8_cif.got.tgz:15815.got - 2010.04.14 02:38:36.
