data_PCOD8178808
_publ_section_title
;
Structure prediction by ZEFSAII (Michael W. Deem and Ramdas Pophale) SiO2 
 PCOD8178808
Probable space group: A M M 2
;
_chemical_formula_sum "Si O2"
_cell_formula_units_Z 48
_cell_length_a 9.241753
_cell_length_b 18.342543
_cell_length_c 17.313752
_cell_angle_alpha 90.000000
_cell_angle_beta 90.000000
_cell_angle_gamma 90.000000
_cell_volume 2934.979657
_symmetry_space_group_name_H-M "A M M 2"
_symmetry_group_IT_number 38
_symmetry_cell_setting 'orthorhombic'
loop_
_space_group_symop_operation_xyz
x,y,z
-x,-y,z
-x,y,z
x,-y,z
x,1/2+y,1/2+z
-x,1/2-y,1/2+z
-x,1/2+y,1/2+z
x,1/2-y,1/2+z
loop_
_atom_site_type_symbol
_atom_site_label
_atom_site_fract_x
_atom_site_fract_y
_atom_site_fract_z
Si Si1 0.669319 0.317102 0.290100
Si Si2 0.162631 0.708420 0.511098
Si Si3 0.163673 0.815342 0.634585
Si Si4 0.833533 0.918348 0.909105
Si Si5 0.667323 0.306816 0.900425
Si Si6 0.831365 0.582271 0.989880
O O1 0.500000 0.334121 0.291807
O O2 0.725944 0.325696 0.203718
O O3 0.745723 0.376886 0.343288
O O4 0.700363 0.233964 0.319013
O O5 0.178809 0.732399 0.600671
O O6 0.181722 0.622427 0.492698
O O7 0.287347 0.749269 0.465150
O O8 0.000000 0.733427 0.483752
O O9 0.204912 0.872989 0.567589
O O10 0.000000 0.829110 0.663908
O O11 0.000000 0.919786 0.882650
O O12 0.772528 0.000000 0.919202
O O13 0.500000 0.325789 0.909149
O O14 0.755437 0.381496 0.914531
O O15 0.773557 0.500000 0.000166
O O16 0.000000 0.583007 0.972479
#
# Coordination Sequence:
#
# PCOD8178808 Si02
#       6
#     8   8   8   8   8   8
#     4  10  20  31  44  66  95 123 151 184 220 261
#     4   8  15  29  47  66  87 114 150 188 223 261
#     4   9  17  29  46  67  91 120 151 183 221 265
#     4   9  17  30  49  70  91 117 148 183 225 270
#     4   9  17  29  45  65  88 117 153 188 220 258
#     4   9  18  32  49  69  92 117 147 185 227 269
#
# _framework density 16.354457
#
# number of rings (size 3 to 8) (size 9 to 14) (size 15 to 20)
#    0.000    3.000    0.000    2.000    0.000    6.000 
#    0.000    1.667    0.000    1.000    0.000    2.333 
#    0.000    0.000    0.000    0.000    0.000    0.000 
#
# Total GULP energy -297329.519021 kJ/mol
# GULP energy per Si atom -12388.729959 kJ/mol
# Density = 1.631723 g / cm^3
# Si number density = 16.354457 Si / 1000 Ang^3
#
#
#
# Elastic Constant Matrix: (Units=GPa)
#
#
# Indices 1 2 3 4 5 6 
#
# 1 54.7631 47.3816 26.0635 0.0000 0.0000 0.0000
# 2 47.3816 131.5564 62.5983 0.0000 0.0000 0.0000
# 3 26.0635 62.5983 38.0845 0.0000 0.0000 0.0000
# 4 0.0000 0.0000 0.0000 17.0725 0.0000 0.0000
# 5 0.0000 0.0000 0.0000 0.0000 16.5024 0.0000
# 6 0.0000 0.0000 0.0000 0.0000 0.0000 19.8932
#
#
#
# Elastic Compliance Matrix: (Units=1/GPa)
#
#
# Indices 1 2 3 4 5 6 
#
# 1 0.027619 -0.004376 -0.011709 0.000000 0.000000 0.000000
# 2 -0.004376 0.035579 -0.055485 0.000000 0.000000 0.000000
# 3 -0.011709 -0.055485 0.125469 0.000000 0.000000 0.000000
# 4 0.000000 0.000000 0.000000 0.058574 0.000000 0.000000
# 5 0.000000 0.000000 0.000000 0.000000 0.060597 0.000000
# 6 0.000000 0.000000 0.000000 0.000000 0.000000 0.050269
#
#
# Mechanical properties :
#
#
# Convention : Reuss Voigt Hill
#
# Bulk Modulus (GPa) = 21.96460 55.16564 38.56512
# Shear Modulus (GPa) = 9.68203 16.58433 13.13318
#
# Velocity S-wave (km/s) = 2.43577 3.18788 2.83686
# Velocity P-wave (km/s) = 4.62278 6.88147 5.86194
#
# Compressibility (1/GPa) = 0.04552781
#
# Stress axis : x y z
#
# Youngs Moduli (GPa) = 36.20663 28.10679 7.97011
#
# Poissons Ratio (x) = 0.12300 0.09332
# Poissons Ratio (y) = 0.15844 0.44222
# Poissons Ratio (z) = 0.42393 1.55950
#
# Static dielectric constant tensor:
#      x y z
#    x 3.075080 0.000000 0.000000 
#    y 0.000000 3.337990 0.000000 
#    z 0.000000 0.000000 2.948980 
# 
# 
# High freq. dielectric constant tensor:
#      x y z
#    x 1.632540 0.000000 0.000000 
#    y 0.000000 1.622520 0.000000 
#    z 0.000000 0.000000 1.600180 
# 
# From -- ./inp_files/12035.got.cif
#   From: 2010.03.12/outbox.cif.g09.slc.cpg/sg38_7_cif.got.tgz:12035.got - 2010.04.14 02:38:36.
