data_PCOD8178117
_publ_section_title
;
Structure prediction by ZEFSAII (Michael W. Deem and Ramdas Pophale) SiO2 
 PCOD8178117
Probable space group: A M M 2
;
_chemical_formula_sum "Si O2"
_cell_formula_units_Z 56
_cell_length_a 23.705283
_cell_length_b 9.388454
_cell_length_c 14.406845
_cell_angle_alpha 90.000000
_cell_angle_beta 90.000000
_cell_angle_gamma 90.000000
_cell_volume 3206.329205
_symmetry_space_group_name_H-M "A M M 2"
_symmetry_group_IT_number 38
_symmetry_cell_setting 'orthorhombic'
loop_
_space_group_symop_operation_xyz
x,y,z
-x,-y,z
-x,y,z
x,-y,z
x,1/2+y,1/2+z
-x,1/2-y,1/2+z
-x,1/2+y,1/2+z
x,1/2-y,1/2+z
loop_
_atom_site_type_symbol
_atom_site_label
_atom_site_fract_x
_atom_site_fract_y
_atom_site_fract_z
Si Si1 0.935535 0.834928 0.650220
Si Si2 0.139001 0.666308 0.514889
Si Si3 0.563959 0.833915 0.787607
Si Si4 0.229562 0.165941 0.167707
Si Si5 0.358025 0.668627 0.652947
Si Si6 0.438840 0.831269 0.996646
Si Si7 0.154368 0.833391 0.803187
O O1 0.913121 0.747557 0.561936
O O2 0.902054 0.798016 0.744781
O O3 0.000000 0.792218 0.668546
O O4 0.928777 0.000000 0.625020
O O5 0.124332 0.500000 0.516131
O O6 0.195330 0.700645 0.573592
O O7 0.146767 0.719803 0.409082
O O8 0.500000 0.803994 0.752774
O O9 0.610300 0.740788 0.737284
O O10 0.578416 0.000000 0.776363
O O11 0.570645 0.780051 0.892503
O O12 0.293216 0.216395 0.149775
O O13 0.206302 0.251097 0.256316
O O14 0.225723 0.000000 0.192279
O O15 0.363714 0.500000 0.663239
O O16 0.388182 0.726882 0.559905
O O17 0.500000 0.775089 0.032817
O O18 0.439632 0.000000 0.998450
O O19 0.168850 0.000000 0.801393
#
# Coordination Sequence:
#
# PCOD8178117 Si02
#       7
#     8   8   8   8   8   8   8
#     4   9  18  32  49  73 104 130 154 190 236 284
#     4   9  18  33  52  72  95 127 166 202 234 272
#     4   9  18  32  49  70  95 122 155 196 239 284
#     4   9  19  33  47  69  99 125 156 200 240 277
#     4  10  19  31  49  71  94 123 158 195 237 284
#     4   8  15  29  48  68  91 121 154 187 230 285
#     4   9  18  33  53  73  94 126 163 196 234 278
#
# _framework density 17.465456
#
# number of rings (size 3 to 8) (size 9 to 14) (size 15 to 20)
#    0.000    3.000    0.000    1.286    0.000    4.000 
#    0.000    5.000    0.000    0.857    0.000    0.000 
#    0.000    0.000    0.000    0.000    0.000    0.000 
#
# Total GULP energy -347122.229025 kJ/mol
# GULP energy per Si atom -12397.222465 kJ/mol
# Density = 1.742570 g / cm^3
# Si number density = 17.465456 Si / 1000 Ang^3
#
#
#
# Elastic Constant Matrix: (Units=GPa)
#
#
# Indices 1 2 3 4 5 6 
#
# 1 145.8407 40.8543 68.4591 0.0000 0.0000 0.0000
# 2 40.8543 31.8156 35.9532 0.0000 0.0000 0.0000
# 3 68.4591 35.9532 132.8093 0.0000 0.0000 0.0000
# 4 0.0000 0.0000 0.0000 28.3758 0.0000 0.0000
# 5 0.0000 0.0000 0.0000 0.0000 23.2277 0.0000
# 6 0.0000 0.0000 0.0000 0.0000 0.0000 27.0088
#
#
#
# Elastic Compliance Matrix: (Units=1/GPa)
#
#
# Indices 1 2 3 4 5 6 
#
# 1 0.011365 -0.011488 -0.002748 0.000000 0.000000 0.000000
# 2 -0.011488 0.056897 -0.009481 0.000000 0.000000 0.000000
# 3 -0.002748 -0.009481 0.011513 0.000000 0.000000 0.000000
# 4 0.000000 0.000000 0.000000 0.035241 0.000000 0.000000
# 5 0.000000 0.000000 0.000000 0.000000 0.043052 0.000000
# 6 0.000000 0.000000 0.000000 0.000000 0.000000 0.037025
#
#
# Mechanical properties :
#
#
# Convention : Reuss Voigt Hill
#
# Bulk Modulus (GPa) = 30.92144 66.77765 48.84955
# Shear Modulus (GPa) = 19.73882 26.73573 23.23728
#
# Velocity S-wave (km/s) = 3.36544 3.91676 3.65152
# Velocity P-wave (km/s) = 5.73100 7.66628 6.76817
#
# Compressibility (1/GPa) = 0.03234002
#
# Stress axis : x y z
#
# Youngs Moduli (GPa) = 87.98912 17.57567 86.85882
#
# Poissons Ratio (x) = 0.20191 0.23872
# Poissons Ratio (y) = 1.01082 0.82351
# Poissons Ratio (z) = 0.24183 0.16664
#
# Static dielectric constant tensor:
#      x y z
#    x 3.289900 0.000000 0.000000 
#    y 0.000000 3.040480 0.000000 
#    z 0.000000 0.000000 3.388640 
# 
# 
# High freq. dielectric constant tensor:
#      x y z
#    x 1.677550 0.000000 0.000000 
#    y 0.000000 1.654810 0.000000 
#    z 0.000000 0.000000 1.678200 
# 
# From -- ./inp_files/10747.got.cif
#   From: 2010.03.12/outbox.cif.g09.slc.cpg/sg38_6_cif.got.tgz:10747.got - 2010.04.14 02:38:36.
