data_PCOD8178835
_publ_section_title
;
Structure prediction by ZEFSAII (Michael W. Deem and Ramdas Pophale) SiO2 
 PCOD8178835
Probable space group: A M M 2
;
_chemical_formula_sum "Si O2"
_cell_formula_units_Z 64
_cell_length_a 17.843910
_cell_length_b 9.346640
_cell_length_c 23.157968
_cell_angle_alpha 90.000000
_cell_angle_beta 90.000000
_cell_angle_gamma 90.000000
_cell_volume 3862.299866
_symmetry_space_group_name_H-M "A M M 2"
_symmetry_group_IT_number 38
_symmetry_cell_setting 'orthorhombic'
loop_
_space_group_symop_operation_xyz
x,y,z
-x,-y,z
-x,y,z
x,-y,z
x,1/2+y,1/2+z
-x,1/2-y,1/2+z
-x,1/2+y,1/2+z
x,1/2-y,1/2+z
loop_
_atom_site_type_symbol
_atom_site_label
_atom_site_fract_x
_atom_site_fract_y
_atom_site_fract_z
Si Si1 0.308084 0.658960 0.420000
Si Si2 0.851830 0.842768 0.861026
Si Si3 0.917506 0.670854 0.477256
Si Si4 0.712290 0.670898 0.657197
Si Si5 0.203599 0.843716 0.267330
Si Si6 0.585037 0.164857 0.718644
Si Si7 0.635515 0.840154 0.324391
Si Si8 0.768866 0.170078 0.033851
O O1 0.344124 0.500000 0.424378
O O2 0.232548 0.647245 0.383441
O O3 0.365497 0.765816 0.387718
O O4 0.288838 0.720215 0.483868
O O5 0.902219 0.772761 0.911923
O O6 0.855924 0.753587 0.801501
O O7 0.882132 0.000000 0.845470
O O8 0.912844 0.500000 0.475214
O O9 0.853116 0.729251 0.520667
O O10 0.000000 0.723078 0.497681
O O11 0.697436 0.500000 0.659402
O O12 0.776738 0.714642 0.703312
O O13 0.635559 0.752674 0.671811
O O14 0.740385 0.726976 0.595265
O O15 0.280131 0.852851 0.302676
O O16 0.166710 0.000000 0.262247
O O17 0.500000 0.171341 0.696012
O O18 0.588472 0.242170 0.780695
O O19 0.611861 0.000000 0.725255
O O20 0.600411 0.000000 0.328852
O O21 0.771873 0.000000 0.034007
#
# Coordination Sequence:
#
# PCOD8178835 Si02
#       8
#     8   8   8   8   8   8   8   8
#     4   8  13  23  40  61  85 110 137 173 213 252
#     4   8  13  21  36  58  80 103 133 170 212 255
#     4   8  13  22  39  64  89 111 142 187 231 266
#     4   9  17  29  45  65  89 117 151 188 222 261
#     4   8  14  23  36  56  81 107 133 166 208 251
#     4  10  20  32  46  65  88 113 143 182 226 270
#     4   9  16  26  42  64  87 109 134 167 211 261
#     4   8  14  25  42  64  89 119 155 190 221 258
#
# _framework density 16.570437999999999
#
# number of rings (size 3 to 8) (size 9 to 14) (size 15 to 20)
#    0.000    3.500    0.000    3.000    0.000    4.000 
#    0.000    0.625    0.000    2.625    0.000    3.500 
#    0.000    0.000    0.000    0.000    0.000    2.000 
#
# Total GULP energy -396471.178143 kJ/mol
# GULP energy per Si atom -12389.724317 kJ/mol
# Density = 1.653272 g / cm^3
# Si number density = 16.570438 Si / 1000 Ang^3
#
#
#
# Elastic Constant Matrix: (Units=GPa)
#
#
# Indices 1 2 3 4 5 6 
#
# 1 60.1634 28.3311 46.2484 0.0000 0.0000 0.0000
# 2 28.3311 66.2095 42.7993 0.0000 0.0000 0.0000
# 3 46.2484 42.7993 138.9475 0.0000 0.0000 0.0000
# 4 0.0000 0.0000 0.0000 21.7999 0.0000 0.0000
# 5 0.0000 0.0000 0.0000 0.0000 14.4629 0.0000
# 6 0.0000 0.0000 0.0000 0.0000 0.0000 10.9792
#
#
#
# Elastic Compliance Matrix: (Units=1/GPa)
#
#
# Indices 1 2 3 4 5 6 
#
# 1 0.024374 -0.006474 -0.006118 0.000000 0.000000 0.000000
# 2 -0.006474 0.020578 -0.004184 0.000000 0.000000 0.000000
# 3 -0.006118 -0.004184 0.010522 0.000000 0.000000 0.000000
# 4 0.000000 0.000000 0.000000 0.045872 0.000000 0.000000
# 5 0.000000 0.000000 0.000000 0.000000 0.069142 0.000000
# 6 0.000000 0.000000 0.000000 0.000000 0.000000 0.091081
#
#
# Mechanical properties :
#
#
# Convention : Reuss Voigt Hill
#
# Bulk Modulus (GPa) = 45.61811 55.56422 50.59116
# Shear Modulus (GPa) = 16.53279 19.31117 17.92198
#
# Velocity S-wave (km/s) = 3.16211 3.41750 3.29228
# Velocity P-wave (km/s) = 6.39699 7.01265 6.71189
#
# Compressibility (1/GPa) = 0.02192112
#
# Stress axis : x y z
#
# Youngs Moduli (GPa) = 41.02812 48.59469 95.03775
#
# Poissons Ratio (x) = 0.31462 0.58148
# Poissons Ratio (y) = 0.26563 0.39761
# Poissons Ratio (z) = 0.25103 0.20330
#
# Static dielectric constant tensor:
#      x y z
#    x 2.854730 0.000000 0.000000 
#    y 0.000000 3.172720 0.000000 
#    z 0.000000 0.000000 3.299060 
# 
# 
# High freq. dielectric constant tensor:
#      x y z
#    x 1.597510 0.000000 0.000000 
#    y 0.000000 1.616070 0.000000 
#    z 0.000000 0.000000 1.628830 
# 
# From -- ./inp_files/23100.got.cif
#   From: 2010.03.12/outbox.cif.g09.slc.cpg/sg38_12_cif.got.tgz:23100.got - 2010.04.14 02:38:36.
