data_PCOD8178555
_publ_section_title
;
Structure prediction by ZEFSAII (Michael W. Deem and Ramdas Pophale) SiO2 
 PCOD8178555
Probable space group: A M M 2
;
_chemical_formula_sum "Si O2"
_cell_formula_units_Z 64
_cell_length_a 9.995200
_cell_length_b 18.220660
_cell_length_c 19.225606
_cell_angle_alpha 90.000000
_cell_angle_beta 90.000000
_cell_angle_gamma 90.000000
_cell_volume 3501.350847
_symmetry_space_group_name_H-M "A M M 2"
_symmetry_group_IT_number 38
_symmetry_cell_setting 'orthorhombic'
loop_
_space_group_symop_operation_xyz
x,y,z
-x,-y,z
-x,y,z
x,-y,z
x,1/2+y,1/2+z
-x,1/2-y,1/2+z
-x,1/2+y,1/2+z
x,1/2-y,1/2+z
loop_
_atom_site_type_symbol
_atom_site_label
_atom_site_fract_x
_atom_site_fract_y
_atom_site_fract_z
Si Si1 0.350001 0.178482 0.676410
Si Si2 0.158964 0.697021 0.677325
Si Si3 0.158892 0.352646 0.940455
Si Si4 0.153609 0.292179 0.520350
Si Si5 0.842773 0.582927 0.792921
Si Si6 0.151752 0.915941 0.916872
Si Si7 0.647123 0.416334 0.307082
Si Si8 0.653000 0.082310 0.546691
O O1 0.500000 0.212594 0.670568
O O2 0.243196 0.235470 0.708049
O O3 0.349679 0.112494 0.729852
O O4 0.304314 0.143122 0.603427
O O5 0.214260 0.696963 0.597611
O O6 0.199786 0.624425 0.721293
O O7 0.000000 0.711022 0.683336
O O8 0.198457 0.366711 0.859503
O O9 0.000000 0.364351 0.951161
O O10 0.208664 0.272908 0.969833
O O11 0.243088 0.412413 0.983219
O O12 0.177816 0.371009 0.486589
O O13 0.000000 0.273709 0.531318
O O14 0.779485 0.500000 0.794904
O O15 0.000000 0.573567 0.793545
O O16 0.244608 0.879480 0.857888
O O17 0.000000 0.907436 0.890839
O O18 0.188234 0.000000 0.934152
O O19 0.500000 0.405643 0.340366
O O20 0.688839 0.500000 0.300783
O O21 0.500000 0.096802 0.522072
O O22 0.664627 0.000000 0.577454
#
# Coordination Sequence:
#
# PCOD8178555 Si02
#       8
#     8   8   8   8   8   8   8   8
#     4  10  20  34  51  74 105 139 172 210 257 311
#     4  10  20  35  55  77 102 135 176 218 255 301
#     4  10  19  34  54  78 107 137 172 216 264 314
#     4   9  18  32  51  77 106 135 169 214 266 309
#     4   9  19  34  54  80 106 138 179 219 261 310
#     4   9  18  32  51  76 104 134 168 210 260 309
#     4   9  18  33  51  72 101 136 171 206 247 302
#     4  10  20  34  53  77 105 138 173 211 260 316
#
# _framework density 18.278659000000001
#
# number of rings (size 3 to 8) (size 9 to 14) (size 15 to 20)
#    0.000    2.500    1.250    0.750    1.750    3.250 
#    0.000    4.375    0.000    3.375    0.000    0.000 
#    0.000    0.000    0.000    0.000    0.000    0.000 
#
# Total GULP energy -396469.818369 kJ/mol
# GULP energy per Si atom -12389.681824 kJ/mol
# Density = 1.823706 g / cm^3
# Si number density = 18.278659 Si / 1000 Ang^3
#
#
#
# Elastic Constant Matrix: (Units=GPa)
#
#
# Indices 1 2 3 4 5 6 
#
# 1 54.9401 33.1707 30.9311 0.0000 0.0000 0.0000
# 2 33.1707 95.9418 56.4376 0.0000 0.0000 0.0000
# 3 30.9311 56.4376 108.5091 0.0000 0.0000 0.0000
# 4 0.0000 0.0000 0.0000 26.9009 0.0000 0.0000
# 5 0.0000 0.0000 0.0000 0.0000 20.3365 0.0000
# 6 0.0000 0.0000 0.0000 0.0000 0.0000 19.4393
#
#
#
# Elastic Compliance Matrix: (Units=1/GPa)
#
#
# Indices 1 2 3 4 5 6 
#
# 1 0.023958 -0.006146 -0.003632 0.000000 0.000000 0.000000
# 2 -0.006146 0.016595 -0.006879 0.000000 0.000000 0.000000
# 3 -0.003632 -0.006879 0.013829 0.000000 0.000000 0.000000
# 4 0.000000 0.000000 0.000000 0.037173 0.000000 0.000000
# 5 0.000000 0.000000 0.000000 0.000000 0.049173 0.000000
# 6 0.000000 0.000000 0.000000 0.000000 0.000000 0.051442
#
#
# Mechanical properties :
#
#
# Convention : Reuss Voigt Hill
#
# Bulk Modulus (GPa) = 47.47049 55.60778 51.53913
# Shear Modulus (GPa) = 21.50469 22.59211 22.04840
#
# Velocity S-wave (km/s) = 3.43372 3.51947 3.47686
# Velocity P-wave (km/s) = 6.46123 6.85593 6.66150
#
# Compressibility (1/GPa) = 0.02106572
#
# Stress axis : x y z
#
# Youngs Moduli (GPa) = 41.74047 60.26048 72.31051
#
# Poissons Ratio (x) = 0.37038 0.26267
# Poissons Ratio (y) = 0.25655 0.49744
# Poissons Ratio (z) = 0.15162 0.41454
#
# Static dielectric constant tensor:
#      x y z
#    x 3.247870 0.000000 0.000000 
#    y 0.000000 3.385390 0.000000 
#    z 0.000000 0.000000 3.464610 
# 
# 
# High freq. dielectric constant tensor:
#      x y z
#    x 1.684030 0.000000 0.000000 
#    y 0.000000 1.706290 0.000000 
#    z 0.000000 0.000000 1.707200 
# 
# From -- ./inp_files/20080.got.cif
#   From: 2010.03.12/outbox.cif.g09.slc.cpg/sg38_11_cif.got.tgz:20080.got - 2010.04.14 02:38:36.
