data_PCOD8178732
_publ_section_title
;
Structure prediction by ZEFSAII (Michael W. Deem and Ramdas Pophale) SiO2 
 PCOD8178732
Probable space group: A M M 2
;
_chemical_formula_sum "Si O2"
_cell_formula_units_Z 48
_cell_length_a 10.331428
_cell_length_b 8.837164
_cell_length_c 28.008208
_cell_angle_alpha 90.000000
_cell_angle_beta 90.000000
_cell_angle_gamma 90.000000
_cell_volume 2557.164055
_symmetry_space_group_name_H-M "A M M 2"
_symmetry_group_IT_number 38
_symmetry_cell_setting 'orthorhombic'
loop_
_space_group_symop_operation_xyz
x,y,z
-x,-y,z
-x,y,z
x,-y,z
x,1/2+y,1/2+z
-x,1/2-y,1/2+z
-x,1/2+y,1/2+z
x,1/2-y,1/2+z
loop_
_atom_site_type_symbol
_atom_site_label
_atom_site_fract_x
_atom_site_fract_y
_atom_site_fract_z
Si Si1 0.351592 0.827162 0.139690
Si Si2 0.500000 0.821398 0.791754
Si Si3 0.000000 0.320063 0.901365
Si Si4 0.500000 0.820526 0.898484
Si Si5 0.000000 0.320696 0.792256
Si Si6 0.649595 0.176736 0.542842
Si Si7 0.258614 0.176890 0.241629
Si Si8 0.245547 0.820629 0.952296
O O1 0.500000 0.795245 0.154928
O O2 0.308129 0.719415 0.096499
O O3 0.259921 0.791873 0.184856
O O4 0.335539 0.000000 0.122772
O O5 0.500000 0.754441 0.845213
O O6 0.372918 0.767402 0.765605
O O7 0.500000 0.000000 0.793031
O O8 0.875346 0.258076 0.928000
O O9 0.000000 0.500000 0.903266
O O10 0.000000 0.260651 0.846649
O O11 0.372718 0.760442 0.925096
O O12 0.500000 0.000000 0.898825
O O13 0.125522 0.260680 0.764008
O O14 0.000000 0.500000 0.791801
O O15 0.500000 0.224239 0.534845
O O16 0.741549 0.269154 0.507113
O O17 0.670934 0.000000 0.534677
O O18 0.279155 0.000000 0.252096
O O19 0.228320 0.000000 0.949630
#
# Coordination Sequence:
#
# PCOD8178732 Si02
#       8
#     8   4   4   4   4   8   8   8
#     4   9  17  31  53  80 111 148 187 229 278 333
#     4  11  21  33  52  81 112 143 182 235 288 335
#     4  11  23  39  56  83 118 153 190 237 288 339
#     4   9  20  35  54  81 110 139 184 239 284 333
#     4   9  20  37  60  83 112 151 192 233 282 335
#     4  10  20  34  55  85 117 147 182 231 291 342
#     4  10  19  36  57  82 111 148 192 234 278 333
#     4  11  21  38  60  82 110 151 194 234 281 341
#
# _framework density 18.770793000000001
#
# number of rings (size 3 to 8) (size 9 to 14) (size 15 to 20)
#    0.000    2.000    1.667    2.500    0.000    1.333 
#    0.000    4.583    0.000    2.000    0.000    0.000 
#    0.000    0.000    0.000    0.000    0.000    0.000 
#
# Total GULP energy -297660.402433 kJ/mol
# GULP energy per Si atom -12402.516768 kJ/mol
# Density = 1.872807 g / cm^3
# Si number density = 18.770793 Si / 1000 Ang^3
#
#
#
# Elastic Constant Matrix: (Units=GPa)
#
#
# Indices 1 2 3 4 5 6 
#
# 1 137.4229 37.8806 71.3498 0.0000 0.0000 0.0000
# 2 37.8806 61.8417 43.2548 0.0000 0.0000 0.0000
# 3 71.3498 43.2548 142.4098 0.0000 0.0000 0.0000
# 4 0.0000 0.0000 0.0000 28.6431 0.0000 0.0000
# 5 0.0000 0.0000 0.0000 0.0000 34.8386 0.0000
# 6 0.0000 0.0000 0.0000 0.0000 0.0000 -20.2981
#
#
#
# Elastic Compliance Matrix: (Units=1/GPa)
#
#
# Indices 1 2 3 4 5 6 
#
# 1 0.010386 -0.003457 -0.004154 0.000000 0.000000 0.000000
# 2 -0.003457 0.021683 -0.004854 0.000000 0.000000 0.000000
# 3 -0.004154 -0.004854 0.010577 0.000000 0.000000 0.000000
# 4 0.000000 0.000000 0.000000 0.034912 0.000000 0.000000
# 5 0.000000 0.000000 0.000000 0.000000 0.028704 0.000000
# 6 0.000000 0.000000 0.000000 0.000000 0.000000 -0.049266
#
#
# Mechanical properties :
#
#
# Convention : Reuss Voigt Hill
#
# Bulk Modulus (GPa) = 56.44104 71.84941 64.14523
# Shear Modulus (GPa) = 56.92712 21.24934 39.08823
#
# Velocity S-wave (km/s) = 5.51302 3.36823 4.56828
# Velocity P-wave (km/s) = 8.40585 7.31348 7.87862
#
# Compressibility (1/GPa) = 0.01771760
#
# Stress axis : x y z
#
# Youngs Moduli (GPa) = 96.28079 46.11971 94.54096
#
# Poissons Ratio (x) = 0.15942 0.39270
# Poissons Ratio (y) = 0.33281 0.45890
# Poissons Ratio (z) = 0.39993 0.22386
#
# Static dielectric constant tensor:
#      x y z
#    x 3.845080 0.000000 0.000000 
#    y 0.000000 3.268530 0.000000 
#    z 0.000000 0.000000 3.629610 
# 
# 
# High freq. dielectric constant tensor:
#      x y z
#    x 1.715230 0.000000 0.000000 
#    y 0.000000 1.716840 0.000000 
#    z 0.000000 0.000000 1.744480 
# 
# From -- ./inp_files/24482.got.cif
#   From: 2010.03.12/outbox.cif.g09.slc.cpg/sg38_13_cif.got.tgz:24482.got - 2010.04.14 02:38:36.
