data_PCOD8178096
_publ_section_title
;
Structure prediction by ZEFSAII (Michael W. Deem and Ramdas Pophale) SiO2 
 PCOD8178096
Probable space group: A M M 2
;
_chemical_formula_sum "Si O2"
_cell_formula_units_Z 64
_cell_length_a 13.988584
_cell_length_b 8.957357
_cell_length_c 30.912276
_cell_angle_alpha 90.000000
_cell_angle_beta 90.000000
_cell_angle_gamma 90.000000
_cell_volume 3873.331083
_symmetry_space_group_name_H-M "A M M 2"
_symmetry_group_IT_number 38
_symmetry_cell_setting 'orthorhombic'
loop_
_space_group_symop_operation_xyz
x,y,z
-x,-y,z
-x,y,z
x,-y,z
x,1/2+y,1/2+z
-x,1/2-y,1/2+z
-x,1/2+y,1/2+z
x,1/2-y,1/2+z
loop_
_atom_site_type_symbol
_atom_site_label
_atom_site_fract_x
_atom_site_fract_y
_atom_site_fract_z
Si Si1 0.388396 0.672794 0.680330
Si Si2 0.299439 0.673030 0.100029
Si Si3 0.613562 0.169424 0.339482
Si Si4 0.610022 0.173952 0.510856
Si Si5 0.712577 0.323541 0.260120
Si Si6 0.106248 0.829834 0.642568
Si Si7 0.108210 0.825917 0.231831
Si Si8 0.386257 0.831860 0.924827
O O1 0.500000 0.697466 0.687966
O O2 0.360241 0.500000 0.685509
O O3 0.360789 0.728377 0.632826
O O4 0.331748 0.768340 0.715295
O O5 0.326649 0.500000 0.107377
O O6 0.326826 0.723437 0.051794
O O7 0.185746 0.700855 0.105962
O O8 0.500000 0.176722 0.337940
O O9 0.651952 0.265041 0.299993
O O10 0.653185 0.237819 0.384234
O O11 0.650186 0.000000 0.335598
O O12 0.500000 0.216301 0.520314
O O13 0.651395 0.261024 0.469426
O O14 0.620247 0.000000 0.500694
O O15 0.712107 0.500000 0.260895
O O16 0.821158 0.263480 0.263587
O O17 0.126890 0.721239 0.682428
O O18 0.000000 0.800110 0.623178
O O19 0.114423 0.000000 0.659591
O O20 0.000000 0.787385 0.245704
O O21 0.129993 0.000000 0.235846
O O22 0.500000 0.827197 0.924647
O O23 0.347491 0.000000 0.920998
#
# Coordination Sequence:
#
# PCOD8178096 Si02
#       8
#     8   8   8   8   8   8   8   8
#     4  11  23  35  46  64  95 133 169 203 240 285
#     4  10  19  31  48  70  95 129 166 202 245 292
#     4  10  20  34  52  73  99 130 163 201 245 292
#     4   9  17  29  45  66  94 127 163 200 240 291
#     4  12  23  34  50  72  98 130 165 201 242 290
#     4   9  17  30  48  70  95 124 161 205 250 292
#     4  10  20  34  52  72  95 125 162 205 249 291
#     4   9  17  30  48  70  95 123 158 200 246 292
#
# _framework density 16.523243999999998
#
# number of rings (size 3 to 8) (size 9 to 14) (size 15 to 20)
#    0.000    2.000    1.250    3.375    0.000    6.500 
#    0.000    1.250    0.000    0.000    0.000    0.875 
#    0.000    5.000    0.000    0.000    0.000    0.000 
#
# Total GULP energy -396847.429668 kJ/mol
# GULP energy per Si atom -12401.482177 kJ/mol
# Density = 1.648564 g / cm^3
# Si number density = 16.523244 Si / 1000 Ang^3
#
#
#
# Elastic Constant Matrix: (Units=GPa)
#
#
# Indices 1 2 3 4 5 6 
#
# 1 51.2034 36.2126 21.3908 0.0000 0.0000 0.0000
# 2 36.2126 113.5505 49.7661 0.0000 0.0000 0.0000
# 3 21.3908 49.7661 89.3200 0.0000 0.0000 0.0000
# 4 0.0000 0.0000 0.0000 29.0016 0.0000 0.0000
# 5 0.0000 0.0000 0.0000 0.0000 9.7550 0.0000
# 6 0.0000 0.0000 0.0000 0.0000 0.0000 21.7055
#
#
#
# Elastic Compliance Matrix: (Units=1/GPa)
#
#
# Indices 1 2 3 4 5 6 
#
# 1 0.025508 -0.007221 -0.002086 0.000000 0.000000 0.000000
# 2 -0.007221 0.013696 -0.005902 0.000000 0.000000 0.000000
# 3 -0.002086 -0.005902 0.014983 0.000000 0.000000 0.000000
# 4 0.000000 0.000000 0.000000 0.034481 0.000000 0.000000
# 5 0.000000 0.000000 0.000000 0.000000 0.102511 0.000000
# 6 0.000000 0.000000 0.000000 0.000000 0.000000 0.046071
#
#
# Mechanical properties :
#
#
# Convention : Reuss Voigt Hill
#
# Bulk Modulus (GPa) = 42.06762 52.09034 47.07898
# Shear Modulus (GPa) = 18.14285 21.87272 20.00778
#
# Velocity S-wave (km/s) = 3.31723 3.64229 3.48356
# Velocity P-wave (km/s) = 6.33932 7.02014 6.68840
#
# Compressibility (1/GPa) = 0.02377125
#
# Stress axis : x y z
#
# Youngs Moduli (GPa) = 39.20348 73.01413 66.74053
#
# Poissons Ratio (x) = 0.52721 0.13920
# Poissons Ratio (y) = 0.28308 0.39388
# Poissons Ratio (z) = 0.08176 0.43091
#
# Static dielectric constant tensor:
#      x y z
#    x 3.150220 0.000000 0.000000 
#    y 0.000000 3.255450 0.000000 
#    z 0.000000 0.000000 3.058820 
# 
# 
# High freq. dielectric constant tensor:
#      x y z
#    x 1.617250 0.000000 0.000000 
#    y 0.000000 1.648830 0.000000 
#    z 0.000000 0.000000 1.621260 
# 
# From -- ./inp_files/25035.got.cif
#   From: 2010.03.12/outbox.cif.g09.slc.cpg/sg38_13_cif.got.tgz:25035.got - 2010.04.14 02:38:36.
