data_PCOD8178507
_publ_section_title
;
Structure prediction by ZEFSAII (Michael W. Deem and Ramdas Pophale) SiO2 
 PCOD8178507
Probable space group: A M M 2
;
_chemical_formula_sum "Si O2"
_cell_formula_units_Z 48
_cell_length_a 17.340207
_cell_length_b 7.669512
_cell_length_c 18.176286
_cell_angle_alpha 90.000000
_cell_angle_beta 90.000000
_cell_angle_gamma 90.000000
_cell_volume 2417.281100
_symmetry_space_group_name_H-M "A M M 2"
_symmetry_group_IT_number 38
_symmetry_cell_setting 'orthorhombic'
loop_
_space_group_symop_operation_xyz
x,y,z
-x,-y,z
-x,y,z
x,-y,z
x,1/2+y,1/2+z
-x,1/2-y,1/2+z
-x,1/2+y,1/2+z
x,1/2-y,1/2+z
loop_
_atom_site_type_symbol
_atom_site_label
_atom_site_fract_x
_atom_site_fract_y
_atom_site_fract_z
Si Si1 0.085936 0.500000 0.362430
Si Si2 0.651716 0.792318 0.785110
Si Si3 0.801058 0.701878 0.036139
Si Si4 0.352405 0.706026 0.118138
Si Si5 0.500000 0.199740 0.863243
Si Si6 0.914411 0.500000 0.536870
Si Si7 0.500000 0.792346 0.531513
Si Si8 0.195432 0.194208 0.365615
O O1 0.079545 0.500000 0.449552
O O2 0.131631 0.328576 0.335162
O O3 0.000000 0.500000 0.327673
O O4 0.645342 0.726040 0.701455
O O5 0.577246 0.717181 0.828382
O O6 0.726787 0.706759 0.819773
O O7 0.658985 0.000000 0.790965
O O8 0.821573 0.500000 0.053210
O O9 0.725925 0.767397 0.079388
O O10 0.871162 0.824115 0.063168
O O11 0.784101 0.733134 0.950320
O O12 0.357930 0.500000 0.117078
O O13 0.425159 0.782091 0.073620
O O14 0.500000 0.218180 0.950074
O O15 0.500000 0.000000 0.839190
O O16 0.000000 0.500000 0.571745
O O17 0.500000 0.000000 0.528221
O O18 0.160846 0.000000 0.357216
#
# Coordination Sequence:
#
# PCOD8178507 Si02
#       8
#     4   8   8   8   4   4   4   8
#     4   9  18  34  56  83 113 143 175 223 281 329
#     4  10  19  34  53  76 108 148 186 230 271 326
#     4   9  18  33  53  79 108 139 180 224 268 321
#     4   9  18  33  54  77 102 146 186 222 269 323
#     4  10  21  33  51  79 109 144 185 228 278 323
#     4   9  18  32  54  83 109 137 173 219 277 327
#     4  10  19  35  55  75 107 144 185 230 272 321
#     4  10  19  33  55  83 110 141 184 228 274 328
#
# _framework density 19.857019000000001
#
# number of rings (size 3 to 8) (size 9 to 14) (size 15 to 20)
#    0.000    2.500    0.833    1.500    0.000    4.667 
#    3.000    3.333    0.000    2.000    0.000    0.000 
#    0.000    0.000    0.000    0.000    0.000    0.000 
#
# Total GULP energy -297592.591820 kJ/mol
# GULP energy per Si atom -12399.691326 kJ/mol
# Density = 1.981182 g / cm^3
# Si number density = 19.857019 Si / 1000 Ang^3
#
#
#
# Elastic Constant Matrix: (Units=GPa)
#
#
# Indices 1 2 3 4 5 6 
#
# 1 193.4308 57.8608 65.1822 0.0000 0.0000 0.0000
# 2 57.8608 84.1565 24.7537 0.0000 0.0000 0.0000
# 3 65.1822 24.7537 101.6334 0.0000 0.0000 0.0000
# 4 0.0000 0.0000 0.0000 17.2171 0.0000 0.0000
# 5 0.0000 0.0000 0.0000 0.0000 8.8517 0.0000
# 6 0.0000 0.0000 0.0000 0.0000 0.0000 18.5031
#
#
#
# Elastic Compliance Matrix: (Units=1/GPa)
#
#
# Indices 1 2 3 4 5 6 
#
# 1 0.007748 -0.004164 -0.003955 0.000000 0.000000 0.000000
# 2 -0.004164 0.015037 -0.000992 0.000000 0.000000 0.000000
# 3 -0.003955 -0.000992 0.012617 0.000000 0.000000 0.000000
# 4 0.000000 0.000000 0.000000 0.058082 0.000000 0.000000
# 5 0.000000 0.000000 0.000000 0.000000 0.112973 0.000000
# 6 0.000000 0.000000 0.000000 0.000000 0.000000 0.054045
#
#
# Mechanical properties :
#
#
# Convention : Reuss Voigt Hill
#
# Bulk Modulus (GPa) = 58.20385 74.97935 66.59160
# Shear Modulus (GPa) = 17.57772 24.34265 20.96019
#
# Velocity S-wave (km/s) = 2.97848 3.50508 3.25246
# Velocity P-wave (km/s) = 6.41900 7.36358 6.90746
#
# Compressibility (1/GPa) = 0.01718099
#
# Stress axis : x y z
#
# Youngs Moduli (GPa) = 129.06394 66.50193 79.25512
#
# Poissons Ratio (x) = 0.27690 0.31346
# Poissons Ratio (y) = 0.53739 0.07862
# Poissons Ratio (z) = 0.51046 0.06597
#
# Static dielectric constant tensor:
#      x y z
#    x 3.829310 0.000000 0.000000 
#    y 0.000000 3.552770 0.000000 
#    z 0.000000 0.000000 3.455430 
# 
# 
# High freq. dielectric constant tensor:
#      x y z
#    x 1.775050 0.000000 0.000000 
#    y 0.000000 1.768360 0.000000 
#    z 0.000000 0.000000 1.753780 
# 
# From -- ./inp_files/18291.got.cif
#   From: 2010.03.12/outbox.cif.g09.slc.cpg/sg38_10_cif.got.tgz:18291.got - 2010.04.14 02:38:36.
