data_PCOD8178975
_publ_section_title
;
Structure prediction by ZEFSAII (Michael W. Deem and Ramdas Pophale) SiO2 
 PCOD8178975
Probable space group: A M M 2
;
_chemical_formula_sum "Si O2"
_cell_formula_units_Z 40
_cell_length_a 9.240727
_cell_length_b 9.185863
_cell_length_c 25.985593
_cell_angle_alpha 90.000000
_cell_angle_beta 90.000000
_cell_angle_gamma 90.000000
_cell_volume 2205.762434
_symmetry_space_group_name_H-M "A M M 2"
_symmetry_group_IT_number 38
_symmetry_cell_setting 'orthorhombic'
loop_
_space_group_symop_operation_xyz
x,y,z
-x,-y,z
-x,y,z
x,-y,z
x,1/2+y,1/2+z
-x,1/2-y,1/2+z
-x,1/2+y,1/2+z
x,1/2-y,1/2+z
loop_
_atom_site_type_symbol
_atom_site_label
_atom_site_fract_x
_atom_site_fract_y
_atom_site_fract_z
Si Si1 0.327615 0.337554 0.283270
Si Si2 0.830424 0.330737 0.494770
Si Si3 0.660812 0.827075 0.895720
Si Si4 0.327836 0.836748 0.186349
Si Si5 0.668277 0.329401 0.085098
O O1 0.500000 0.344230 0.280374
O O2 0.264502 0.500000 0.274998
O O3 0.283094 0.273646 0.339507
O O4 0.264394 0.234531 0.238489
O O5 0.791749 0.500000 0.503724
O O6 0.769543 0.274558 0.440036
O O7 0.758577 0.235580 0.538646
O O8 0.000000 0.303152 0.495054
O O9 0.500000 0.764810 0.907526
O O10 0.653036 0.000000 0.893294
O O11 0.500000 0.837765 0.188717
O O12 0.275201 0.743987 0.137530
O O13 0.266245 0.000000 0.181420
O O14 0.500000 0.294472 0.075623
O O15 0.697302 0.500000 0.089423
#
# Coordination Sequence:
#
# PCOD8178975 Si02
#       5
#     8   8   8   8   8
#     4   8  13  23  41  65  92 122 156 193 234 281
#     4  10  20  33  50  72  98 129 164 202 244 289
#     4   8  14  26  46  70  95 125 160 196 234 280
#     4   9  16  26  43  69  98 124 152 193 244 291
#     4  10  20  33  50  72  97 127 164 204 244 287
#
# _framework density 18.134319000000001
#
# number of rings (size 3 to 8) (size 9 to 14) (size 15 to 20)
#    0.000    3.000    0.000    3.000    0.000    4.800 
#    0.000    1.000    0.000    4.800    0.000    2.800 
#    0.000    0.000    0.000    0.000    0.000    0.000 
#
# Total GULP energy -247920.804016 kJ/mol
# GULP energy per Si atom -12396.040201 kJ/mol
# Density = 1.809304 g / cm^3
# Si number density = 18.134319 Si / 1000 Ang^3
#
#
#
# Elastic Constant Matrix: (Units=GPa)
#
#
# Indices 1 2 3 4 5 6 
#
# 1 46.3760 36.1457 52.0708 0.0000 0.0000 0.0000
# 2 36.1457 94.9286 77.9982 0.0000 0.0000 0.0000
# 3 52.0708 77.9982 192.1923 0.0000 0.0000 0.0000
# 4 0.0000 0.0000 0.0000 33.4024 0.0000 0.0000
# 5 0.0000 0.0000 0.0000 0.0000 -1.8403 0.0000
# 6 0.0000 0.0000 0.0000 0.0000 0.0000 14.9138
#
#
#
# Elastic Compliance Matrix: (Units=1/GPa)
#
#
# Indices 1 2 3 4 5 6 
#
# 1 0.034836 -0.008266 -0.006084 0.000000 0.000000 0.000000
# 2 -0.008266 0.017766 -0.004970 0.000000 0.000000 0.000000
# 3 -0.006084 -0.004970 0.008869 0.000000 0.000000 0.000000
# 4 0.000000 0.000000 0.000000 0.029938 0.000000 0.000000
# 5 0.000000 0.000000 0.000000 0.000000 -0.543404 0.000000
# 6 0.000000 0.000000 0.000000 0.000000 0.000000 0.067052
#
#
# Mechanical properties :
#
#
# Convention : Reuss Voigt Hill
#
# Bulk Modulus (GPa) = 43.80125 73.99181 58.89653
# Shear Modulus (GPa) = -14.76257 20.44734 2.84239
#
# Velocity S-wave (km/s) = -2.85628 3.36154 1.25332
# Velocity P-wave (km/s) = 3.65081 7.48046 5.88582
#
# Compressibility (1/GPa) = 0.02283040
#
# Stress axis : x y z
#
# Youngs Moduli (GPa) = 28.70600 56.28886 112.75857
#
# Poissons Ratio (x) = 0.46527 0.68598
# Poissons Ratio (y) = 0.23728 0.56045
# Poissons Ratio (z) = 0.17464 0.27978
#
# Static dielectric constant tensor:
#      x y z
#    x 2.920720 0.000000 0.000000 
#    y 0.000000 3.278270 0.000000 
#    z 0.000000 0.000000 3.773850 
# 
# 
# High freq. dielectric constant tensor:
#      x y z
#    x 1.649260 0.000000 0.000000 
#    y 0.000000 1.682720 0.000000 
#    z 0.000000 0.000000 1.724400 
# 
# From -- ./inp_files/21671.got.cif
#   From: 2010.03.12/outbox.cif.g09.slc.cpg/sg38_11_cif.got.tgz:21671.got - 2010.04.14 02:38:36.
