data_PCOD8178562
_publ_section_title
;
Structure prediction by ZEFSAII (Michael W. Deem and Ramdas Pophale) SiO2 
 PCOD8178562
Probable space group: A M M 2
;
_chemical_formula_sum "Si O2"
_cell_formula_units_Z 64
_cell_length_a 9.132127
_cell_length_b 32.885193
_cell_length_c 11.644065
_cell_angle_alpha 90.000000
_cell_angle_beta 90.000000
_cell_angle_gamma 90.000000
_cell_volume 3496.849641
_symmetry_space_group_name_H-M "A M M 2"
_symmetry_group_IT_number 38
_symmetry_cell_setting 'orthorhombic'
loop_
_space_group_symop_operation_xyz
x,y,z
-x,-y,z
-x,y,z
x,-y,z
x,1/2+y,1/2+z
-x,1/2-y,1/2+z
-x,1/2+y,1/2+z
x,1/2-y,1/2+z
loop_
_atom_site_type_symbol
_atom_site_label
_atom_site_fract_x
_atom_site_fract_y
_atom_site_fract_z
Si Si1 0.662018 0.547638 0.527100
Si Si2 0.830893 0.720644 0.303462
Si Si3 0.172069 0.881054 0.410612
Si Si4 0.168752 0.895118 0.883748
Si Si5 0.168582 0.353353 0.154225
Si Si6 0.167104 0.812183 0.226612
Si Si7 0.327617 0.321464 0.495724
Si Si8 0.326898 0.453398 0.785466
O O1 0.500000 0.566502 0.506311
O O2 0.650684 0.500000 0.517442
O O3 0.775674 0.561410 0.428460
O O4 0.717589 0.559180 0.655270
O O5 0.768574 0.689390 0.205653
O O6 0.809914 0.766900 0.271454
O O7 0.743859 0.714666 0.421758
O O8 0.000000 0.709245 0.326584
O O9 0.240643 0.867398 0.534123
O O10 0.206789 0.844238 0.324935
O O11 0.247661 0.922909 0.372552
O O12 0.000000 0.889960 0.418999
O O13 0.191780 0.889444 0.747317
O O14 0.269416 0.864245 0.952597
O O15 0.000000 0.888582 0.916773
O O16 0.000000 0.345569 0.126588
O O17 0.000000 0.818283 0.183819
O O18 0.283166 0.817741 0.127095
O O19 0.500000 0.318943 0.483633
O O20 0.500000 0.449333 0.801056
O O21 0.278097 0.500000 0.811417
#
# Coordination Sequence:
#
# PCOD8178562 Si02
#       8
#     8   8   8   8   8   8   8   8
#     4   9  18  33  54  80 109 138 170 216 276 333
#     4   9  19  36  58  78 102 138 182 227 269 316
#     4  10  20  34  54  82 107 135 180 227 269 317
#     4  10  19  34  55  76 102 138 181 220 261 319
#     4   8  17  34  53  74 104 139 174 219 269 315
#     4  10  21  34  56  83 106 136 180 228 269 321
#     4  11  22  35  52  75 108 141 173 216 269 324
#     4   9  19  36  55  76 106 143 177 213 268 329
#
# _framework density 18.302188999999998
#
# number of rings (size 3 to 8) (size 9 to 14) (size 15 to 20)
#    0.000    2.500    0.000    3.750    1.750    4.000 
#    0.000    5.000    0.000    3.750    0.000    0.000 
#    0.000    0.000    0.000    0.000    0.000    0.000 
#
# Total GULP energy -396683.797523 kJ/mol
# GULP energy per Si atom -12396.368673 kJ/mol
# Density = 1.826053 g / cm^3
# Si number density = 18.302189 Si / 1000 Ang^3
#
#
#
# Elastic Constant Matrix: (Units=GPa)
#
#
# Indices 1 2 3 4 5 6 
#
# 1 74.8456 34.0052 58.1748 0.0000 0.0000 0.0000
# 2 34.0052 85.9769 62.9562 0.0000 0.0000 0.0000
# 3 58.1748 62.9562 126.5923 0.0000 0.0000 0.0000
# 4 0.0000 0.0000 0.0000 19.6018 0.0000 0.0000
# 5 0.0000 0.0000 0.0000 0.0000 17.5942 0.0000
# 6 0.0000 0.0000 0.0000 0.0000 0.0000 15.5770
#
#
#
# Elastic Compliance Matrix: (Units=1/GPa)
#
#
# Indices 1 2 3 4 5 6 
#
# 1 0.020990 -0.001948 -0.008677 0.000000 0.000000 0.000000
# 2 -0.001948 0.018473 -0.008292 0.000000 0.000000 0.000000
# 3 -0.008677 -0.008292 0.016010 0.000000 0.000000 0.000000
# 4 0.000000 0.000000 0.000000 0.051016 0.000000 0.000000
# 5 0.000000 0.000000 0.000000 0.000000 0.056837 0.000000
# 6 0.000000 0.000000 0.000000 0.000000 0.000000 0.064197
#
#
# Mechanical properties :
#
#
# Convention : Reuss Voigt Hill
#
# Bulk Modulus (GPa) = 56.68948 66.40968 61.54958
# Shear Modulus (GPa) = 18.43397 19.37315 18.90356
#
# Velocity S-wave (km/s) = 3.17709 3.25701 3.21730
# Velocity P-wave (km/s) = 6.67082 7.10690 6.89231
#
# Compressibility (1/GPa) = 0.01763996
#
# Stress axis : x y z
#
# Youngs Moduli (GPa) = 47.64067 54.13274 62.45907
#
# Poissons Ratio (x) = 0.10546 0.54197
# Poissons Ratio (y) = 0.09281 0.51789
# Poissons Ratio (z) = 0.41339 0.44885
#
# Static dielectric constant tensor:
#      x y z
#    x 3.258140 0.000000 0.000000 
#    y 0.000000 3.425240 0.000000 
#    z 0.000000 0.000000 3.594790 
# 
# 
# High freq. dielectric constant tensor:
#      x y z
#    x 1.691710 0.000000 0.000000 
#    y 0.000000 1.711030 0.000000 
#    z 0.000000 0.000000 1.708330 
# 
# From -- ./inp_files/8581.got.cif
#   From: 2010.03.12/outbox.cif.g09.slc.cpg/sg38_5_cif.got.tgz:8581.got - 2010.04.14 02:38:36.
