data_PCOD8178740
_publ_section_title
;
Structure prediction by ZEFSAII (Michael W. Deem and Ramdas Pophale) SiO2 
 PCOD8178740
Probable space group: A M M 2
;
_chemical_formula_sum "Si O2"
_cell_formula_units_Z 48
_cell_length_a 14.067339
_cell_length_b 9.056906
_cell_length_c 20.090240
_cell_angle_alpha 90.000000
_cell_angle_beta 90.000000
_cell_angle_gamma 90.000000
_cell_volume 2559.628508
_symmetry_space_group_name_H-M "A M M 2"
_symmetry_group_IT_number 38
_symmetry_cell_setting 'orthorhombic'
loop_
_space_group_symop_operation_xyz
x,y,z
-x,-y,z
-x,y,z
x,-y,z
x,1/2+y,1/2+z
-x,1/2-y,1/2+z
-x,1/2+y,1/2+z
x,1/2-y,1/2+z
loop_
_atom_site_type_symbol
_atom_site_label
_atom_site_fract_x
_atom_site_fract_y
_atom_site_fract_z
Si Si1 0.308606 0.325769 0.567830
Si Si2 0.500000 0.822832 0.006498
Si Si3 0.704914 0.329139 0.314931
Si Si4 0.000000 0.826069 0.487197
Si Si5 0.500000 0.675548 0.355766
Si Si6 0.198880 0.174756 0.193944
Si Si7 0.000000 0.325270 0.631218
Si Si8 0.179184 0.670301 0.446920
O O1 0.318914 0.500000 0.570349
O O2 0.409717 0.258108 0.546454
O O3 0.273937 0.265449 0.639105
O O4 0.230071 0.281212 0.514496
O O5 0.500000 0.000000 0.004600
O O6 0.500000 0.761310 0.931042
O O7 0.707711 0.500000 0.294990
O O8 0.595226 0.271416 0.316852
O O9 0.770433 0.241772 0.263793
O O10 0.748275 0.301567 0.387308
O O11 0.000000 0.750344 0.559379
O O12 0.911452 0.775697 0.441998
O O13 0.000000 0.000000 0.496898
O O14 0.500000 0.500000 0.360836
O O15 0.092399 0.224218 0.173488
O O16 0.203076 0.000000 0.199783
O O17 0.000000 0.500000 0.618025
O O18 0.146377 0.500000 0.448958
#
# Coordination Sequence:
#
# PCOD8178740 Si02
#       8
#     8   4   8   4   4   8   4   8
#     4   9  16  29  53  82 108 139 184 230 269 318
#     4   9  14  25  52  87 111 134 185 238 266 315
#     4  10  21  36  58  85 114 149 188 232 277 330
#     4  12  24  35  56  89 117 143 179 235 292 334
#     4   9  16  31  55  83 111 144 183 230 286 327
#     4  10  21  36  56  82 114 151 184 229 287 336
#     4  10  20  39  62  79 105 151 197 231 274 334
#     4  10  19  36  59  81 108 147 192 230 267 323
#
# _framework density 18.752721000000001
#
# number of rings (size 3 to 8) (size 9 to 14) (size 15 to 20)
#    0.000    2.167    3.333    0.750    0.000    2.667 
#    0.000    2.917    0.000    0.000    0.000    0.583 
#    0.000    0.000    0.000    0.000    0.000    0.000 
#
# Total GULP energy -297540.485146 kJ/mol
# GULP energy per Si atom -12397.520214 kJ/mol
# Density = 1.871004 g / cm^3
# Si number density = 18.752721 Si / 1000 Ang^3
#
#
#
# Elastic Constant Matrix: (Units=GPa)
#
#
# Indices 1 2 3 4 5 6 
#
# 1 126.5243 32.6183 24.0514 0.0000 0.0000 0.0000
# 2 32.6183 35.7101 20.9671 0.0000 0.0000 0.0000
# 3 24.0514 20.9671 66.0216 0.0000 0.0000 0.0000
# 4 0.0000 0.0000 0.0000 25.6731 0.0000 0.0000
# 5 0.0000 0.0000 0.0000 0.0000 -51.0856 0.0000
# 6 0.0000 0.0000 0.0000 0.0000 0.0000 13.6828
#
#
#
# Elastic Compliance Matrix: (Units=1/GPa)
#
#
# Indices 1 2 3 4 5 6 
#
# 1 0.010386 -0.008930 -0.000947 0.000000 0.000000 0.000000
# 2 -0.008930 0.042101 -0.010117 0.000000 0.000000 0.000000
# 3 -0.000947 -0.010117 0.018705 0.000000 0.000000 0.000000
# 4 0.000000 0.000000 0.000000 0.038951 0.000000 0.000000
# 5 0.000000 0.000000 0.000000 0.000000 -0.019575 0.000000
# 6 0.000000 0.000000 0.000000 0.000000 0.000000 0.073084
#
#
# Mechanical properties :
#
#
# Convention : Reuss Voigt Hill
#
# Bulk Modulus (GPa) = 32.04969 42.61439 37.33204
# Shear Modulus (GPa) = 23.35985 7.69534 15.52760
#
# Velocity S-wave (km/s) = 3.53325 2.02793 2.88065
# Velocity P-wave (km/s) = 5.81144 5.31573 5.56911
#
# Compressibility (1/GPa) = 0.03120155
#
# Stress axis : x y z
#
# Youngs Moduli (GPa) = 96.28322 23.75259 53.46270
#
# Poissons Ratio (x) = 0.21212 0.05065
# Poissons Ratio (y) = 0.85986 0.54088
# Poissons Ratio (z) = 0.09122 0.24030
#
# Static dielectric constant tensor:
#      x y z
#    x 3.866880 0.000000 0.000000 
#    y 0.000000 2.974790 0.000000 
#    z 0.000000 0.000000 3.403640 
# 
# 
# High freq. dielectric constant tensor:
#      x y z
#    x 1.749040 0.000000 0.000000 
#    y 0.000000 1.677660 0.000000 
#    z 0.000000 0.000000 1.726290 
# 
# From -- ./inp_files/18251.got.cif
#   From: 2010.03.12/outbox.cif.g09.slc.cpg/sg38_10_cif.got.tgz:18251.got - 2010.04.14 02:38:36.
