data_PCOD8178368
_publ_section_title
;
Structure prediction by ZEFSAII (Michael W. Deem and Ramdas Pophale) SiO2 
 PCOD8178368
Probable space group: A M M 2
;
_chemical_formula_sum "Si O2"
_cell_formula_units_Z 64
_cell_length_a 9.088145
_cell_length_b 24.421362
_cell_length_c 14.867482
_cell_angle_alpha 90.000000
_cell_angle_beta 90.000000
_cell_angle_gamma 90.000000
_cell_volume 3299.761493
_symmetry_space_group_name_H-M "A M M 2"
_symmetry_group_IT_number 38
_symmetry_cell_setting 'orthorhombic'
loop_
_space_group_symop_operation_xyz
x,y,z
-x,-y,z
-x,y,z
x,-y,z
x,1/2+y,1/2+z
-x,1/2-y,1/2+z
-x,1/2+y,1/2+z
x,1/2-y,1/2+z
loop_
_atom_site_type_symbol
_atom_site_label
_atom_site_fract_x
_atom_site_fract_y
_atom_site_fract_z
Si Si1 0.164705 0.254644 0.478460
Si Si2 0.673786 0.560653 0.629014
Si Si3 0.326493 0.364367 0.464963
Si Si4 0.838302 0.251185 0.265590
Si Si5 0.829578 0.936340 0.605269
Si Si6 0.827884 0.129314 0.779535
Si Si7 0.326312 0.146603 0.478758
Si Si8 0.672451 0.353979 0.771535
O O1 0.253554 0.309179 0.504009
O O2 0.157031 0.250332 0.372387
O O3 0.248499 0.201325 0.517049
O O4 0.000000 0.256679 0.519780
O O5 0.500000 0.556592 0.639476
O O6 0.744434 0.500000 0.633148
O O7 0.714309 0.587512 0.533814
O O8 0.737519 0.596421 0.711935
O O9 0.500000 0.354239 0.456798
O O10 0.264658 0.383282 0.368694
O O11 0.781787 0.311609 0.237003
O O12 0.732767 0.203232 0.231062
O O13 0.000000 0.240126 0.225326
O O14 0.792052 0.916792 0.706229
O O15 0.728793 0.905743 0.533360
O O16 0.000000 0.924424 0.583210
O O17 0.791353 0.000000 0.599066
O O18 0.000000 0.130972 0.806276
O O19 0.500000 0.153402 0.489978
O O20 0.282157 0.136519 0.374796
O O21 0.500000 0.349985 0.759655
#
# Coordination Sequence:
#
# PCOD8178368 Si02
#       8
#     8   8   8   8   8   8   8   8
#     4   9  17  32  54  78 108 144 175 209 262 327
#     4   9  19  35  52  73 104 141 179 215 257 313
#     4  10  19  32  54  82 108 136 174 223 271 313
#     4   8  15  29  50  75 102 130 163 207 259 313
#     4  10  22  39  56  75 104 145 188 224 266 327
#     4   9  19  36  55  76 104 140 177 213 263 326
#     4  10  20  34  55  83 110 136 174 226 274 315
#     4   9  18  33  54  77 102 135 172 211 258 313
#
# _framework density 19.395341999999999
#
# number of rings (size 3 to 8) (size 9 to 14) (size 15 to 20)
#    0.000    2.750    0.000    1.875    0.000    6.250 
#    0.000    5.000    0.000    3.000    0.000    0.000 
#    0.000    0.000    0.000    0.000    0.000    0.000 
#
# Total GULP energy -396734.530115 kJ/mol
# GULP energy per Si atom -12397.954066 kJ/mol
# Density = 1.935120 g / cm^3
# Si number density = 19.395342 Si / 1000 Ang^3
#
#
#
# Elastic Constant Matrix: (Units=GPa)
#
#
# Indices 1 2 3 4 5 6 
#
# 1 71.7314 36.8127 29.0416 0.0000 0.0000 0.0000
# 2 36.8127 103.0380 16.8196 0.0000 0.0000 0.0000
# 3 29.0416 16.8196 49.5210 0.0000 0.0000 0.0000
# 4 0.0000 0.0000 0.0000 23.9009 0.0000 0.0000
# 5 0.0000 0.0000 0.0000 0.0000 12.3638 0.0000
# 6 0.0000 0.0000 0.0000 0.0000 0.0000 23.7149
#
#
#
# Elastic Compliance Matrix: (Units=1/GPa)
#
#
# Indices 1 2 3 4 5 6 
#
# 1 0.021169 -0.005862 -0.010424 0.000000 0.000000 0.000000
# 2 -0.005862 0.011898 -0.000603 0.000000 0.000000 0.000000
# 3 -0.010424 -0.000603 0.026512 0.000000 0.000000 0.000000
# 4 0.000000 0.000000 0.000000 0.041839 0.000000 0.000000
# 5 0.000000 0.000000 0.000000 0.000000 0.080881 0.000000
# 6 0.000000 0.000000 0.000000 0.000000 0.000000 0.042167
#
#
# Mechanical properties :
#
#
# Convention : Reuss Voigt Hill
#
# Bulk Modulus (GPa) = 38.75867 43.29313 41.02590
# Shear Modulus (GPa) = 18.73745 21.43704 20.08724
#
# Velocity S-wave (km/s) = 3.11155 3.32816 3.22168
# Velocity P-wave (km/s) = 5.73898 6.09416 5.91923
#
# Compressibility (1/GPa) = 0.02580068
#
# Stress axis : x y z
#
# Youngs Moduli (GPa) = 47.23796 84.04852 37.71940
#
# Poissons Ratio (x) = 0.49267 0.39318
# Poissons Ratio (y) = 0.27689 0.02276
# Poissons Ratio (z) = 0.49241 0.05072
#
# Static dielectric constant tensor:
#      x y z
#    x 3.476420 0.000000 0.000000 
#    y 0.000000 3.893030 0.000000 
#    z 0.000000 0.000000 3.417860 
# 
# 
# High freq. dielectric constant tensor:
#      x y z
#    x 1.740350 0.000000 0.000000 
#    y 0.000000 1.757730 0.000000 
#    z 0.000000 0.000000 1.749140 
# 
# From -- ./inp_files/12789.got.cif
#   From: 2010.03.12/outbox.cif.g09.slc.cpg/sg38_7_cif.got.tgz:12789.got - 2010.04.14 02:38:36.
