data_PCOD8178785
_publ_section_title
;
Structure prediction by ZEFSAII (Michael W. Deem and Ramdas Pophale) SiO2 
 PCOD8178785
Probable space group: A M M 2
;
_chemical_formula_sum "Si O2"
_cell_formula_units_Z 48
_cell_length_a 9.283557
_cell_length_b 7.946469
_cell_length_c 34.223710
_cell_angle_alpha 90.000000
_cell_angle_beta 90.000000
_cell_angle_gamma 90.000000
_cell_volume 2524.734351
_symmetry_space_group_name_H-M "A M M 2"
_symmetry_group_IT_number 38
_symmetry_cell_setting 'orthorhombic'
loop_
_space_group_symop_operation_xyz
x,y,z
-x,-y,z
-x,y,z
x,-y,z
x,1/2+y,1/2+z
-x,1/2-y,1/2+z
-x,1/2+y,1/2+z
x,1/2-y,1/2+z
loop_
_atom_site_type_symbol
_atom_site_label
_atom_site_fract_x
_atom_site_fract_y
_atom_site_fract_z
Si Si1 0.658103 0.691743 0.341260
Si Si2 0.671986 0.500000 0.140440
Si Si3 0.838726 0.306075 0.770963
Si Si4 0.670539 0.500000 0.050515
Si Si5 0.334497 0.691479 0.921305
Si Si6 0.170069 0.806368 0.181908
Si Si7 0.671592 0.685270 0.502009
O O1 0.500000 0.773614 0.334304
O O2 0.642354 0.500000 0.352797
O O3 0.743664 0.703950 0.301128
O O4 0.738927 0.776452 0.378825
O O5 0.500000 0.500000 0.146815
O O6 0.716903 0.500000 0.095325
O O7 0.738145 0.328503 0.157775
O O8 0.832085 0.500000 0.782764
O O9 0.783722 0.279674 0.726870
O O10 0.000000 0.236289 0.774252
O O11 0.500000 0.500000 0.046361
O O12 0.734561 0.330990 0.030195
O O13 0.500000 0.745370 0.915479
O O14 0.318224 0.500000 0.934053
O O15 0.267471 0.794925 0.957665
O O16 0.000000 0.773002 0.176374
O O17 0.205998 0.000000 0.169291
O O18 0.500000 0.703050 0.500562
O O19 0.717348 0.500000 0.517692
#
# Coordination Sequence:
#
# PCOD8178785 Si02
#       7
#     8   4   8   4   8   8   8
#     4  10  20  30  43  72 109 138 169 212 263 316
#     4  11  23  35  55  87 121 147 177 231 297 349
#     4   9  19  36  55  73  95 130 178 224 265 313
#     4   9  18  31  43  69 107 141 175 213 265 331
#     4   9  15  25  42  64  95 135 176 214 253 300
#     4   9  20  40  62  81 105 145 195 237 273 331
#     4   9  15  25  43  64  93 137 180 213 250 307
#
# _framework density 19.011901000000002
#
# number of rings (size 3 to 8) (size 9 to 14) (size 15 to 20)
#    0.000    2.667    0.833    2.250    1.167    5.000 
#    0.000    3.333    0.000    0.000    0.000    2.333 
#    0.000    2.667    0.000    0.000    0.000    0.000 
#
# Total GULP energy -297399.520973 kJ/mol
# GULP energy per Si atom -12391.646707 kJ/mol
# Density = 1.896863 g / cm^3
# Si number density = 19.011901 Si / 1000 Ang^3
#
#
#
# Elastic Constant Matrix: (Units=GPa)
#
#
# Indices 1 2 3 4 5 6 
#
# 1 40.1104 31.2557 37.8764 0.0000 0.0000 0.0000
# 2 31.2557 126.6691 74.0520 0.0000 0.0000 0.0000
# 3 37.8764 74.0520 139.9561 0.0000 0.0000 0.0000
# 4 0.0000 0.0000 0.0000 31.7132 0.0000 0.0000
# 5 0.0000 0.0000 0.0000 0.0000 -3.7531 0.0000
# 6 0.0000 0.0000 0.0000 0.0000 0.0000 20.8796
#
#
#
# Elastic Compliance Matrix: (Units=1/GPa)
#
#
# Indices 1 2 3 4 5 6 
#
# 1 0.035184 -0.004510 -0.007135 0.000000 0.000000 0.000000
# 2 -0.004510 0.012008 -0.005133 0.000000 0.000000 0.000000
# 3 -0.007135 -0.005133 0.011792 0.000000 0.000000 0.000000
# 4 0.000000 0.000000 0.000000 0.031533 0.000000 0.000000
# 5 0.000000 0.000000 0.000000 0.000000 -0.266444 0.000000
# 6 0.000000 0.000000 0.000000 0.000000 0.000000 0.047894
#
#
# Mechanical properties :
#
#
# Convention : Reuss Voigt Hill
#
# Bulk Modulus (GPa) = 39.32861 65.90041 52.61451
# Shear Modulus (GPa) = -58.13901 20.67136 -18.73382
#
# Velocity S-wave (km/s) = -5.53595 3.30098 -3.14247
# Velocity P-wave (km/s) = 4.48677 7.01902 3.81677
#
# Compressibility (1/GPa) = 0.02542678
#
# Stress axis : x y z
#
# Youngs Moduli (GPa) = 28.42222 83.27526 84.80220
#
# Poissons Ratio (x) = 0.37559 0.60510
# Poissons Ratio (y) = 0.12819 0.43530
# Poissons Ratio (z) = 0.20280 0.42746
#
# Static dielectric constant tensor:
#      x y z
#    x 2.971680 0.000000 0.000000 
#    y 0.000000 3.554330 0.000000 
#    z 0.000000 0.000000 3.559210 
# 
# 
# High freq. dielectric constant tensor:
#      x y z
#    x 1.673580 0.000000 0.000000 
#    y 0.000000 1.752420 0.000000 
#    z 0.000000 0.000000 1.746970 
# 
# From -- ./inp_files/24412.got.cif
#   From: 2010.03.12/outbox.cif.g09.slc.cpg/sg38_13_cif.got.tgz:24412.got - 2010.04.14 02:38:36.
