data_PCOD8178939
_publ_section_title
;
Structure prediction by ZEFSAII (Michael W. Deem and Ramdas Pophale) SiO2 
 PCOD8178939
Probable space group: A M M 2
;
_chemical_formula_sum "Si O2"
_cell_formula_units_Z 64
_cell_length_a 14.172965
_cell_length_b 8.915301
_cell_length_c 30.947567
_cell_angle_alpha 90.000000
_cell_angle_beta 90.000000
_cell_angle_gamma 90.000000
_cell_volume 3910.418483
_symmetry_space_group_name_H-M "A M M 2"
_symmetry_group_IT_number 38
_symmetry_cell_setting 'orthorhombic'
loop_
_space_group_symop_operation_xyz
x,y,z
-x,-y,z
-x,y,z
x,-y,z
x,1/2+y,1/2+z
-x,1/2-y,1/2+z
-x,1/2+y,1/2+z
x,1/2-y,1/2+z
loop_
_atom_site_type_symbol
_atom_site_label
_atom_site_fract_x
_atom_site_fract_y
_atom_site_fract_z
Si Si1 0.796041 0.177486 0.933300
Si Si2 0.887881 0.169127 0.765055
Si Si3 0.891142 0.176672 0.351993
Si Si4 0.607065 0.173844 0.068807
Si Si5 0.397619 0.322169 0.471153
Si Si6 0.216208 0.175682 0.600205
Si Si7 0.109099 0.676015 0.678521
Si Si8 0.890585 0.172524 0.513079
O O1 0.829638 0.257838 0.890386
O O2 0.688262 0.233148 0.941257
O O3 0.802661 0.000000 0.927159
O O4 0.860905 0.223089 0.973473
O O5 0.851305 0.255605 0.807412
O O6 0.849554 0.250142 0.722161
O O7 0.000000 0.173219 0.764694
O O8 0.848962 0.000000 0.766159
O O9 0.000000 0.222064 0.359587
O O10 0.878786 0.000000 0.350198
O O11 0.500000 0.196028 0.085111
O O12 0.675083 0.272509 0.098906
O O13 0.636810 0.000000 0.071773
O O14 0.617615 0.235467 0.019943
O O15 0.500000 0.264039 0.453665
O O16 0.399151 0.500000 0.472994
O O17 0.165707 0.262709 0.638247
O O18 0.166539 0.221298 0.555420
O O19 0.208888 0.000000 0.609315
O O20 0.123594 0.500000 0.682579
O O21 0.000000 0.719244 0.672037
O O22 0.000000 0.198633 0.523093
O O23 0.870172 0.000000 0.500664
#
# Coordination Sequence:
#
# PCOD8178939 Si02
#       8
#     8   8   8   8   8   8   8   8
#     4  11  20  30  48  71  93 121 162 204 239 282
#     4   9  17  31  51  73  96 122 158 203 244 281
#     4  10  20  33  48  67  97 133 163 193 235 287
#     4   9  17  32  52  70  92 124 162 205 251 295
#     4   8  15  29  48  68  91 120 155 199 247 289
#     4  11  21  32  48  70  98 130 165 204 244 289
#     4  10  20  33  50  72  99 131 166 201 240 290
#     4  10  21  34  44  59  92 134 166 193 233 282
#
# _framework density 16.366536
#
# number of rings (size 3 to 8) (size 9 to 14) (size 15 to 20)
#    0.000    2.250    1.250    3.375    0.000    6.000 
#    0.000    0.000    0.000    1.500    0.000    0.875 
#    0.000    5.000    0.000    0.000    0.000    0.000 
#
# Total GULP energy -396802.863896 kJ/mol
# GULP energy per Si atom -12400.089497 kJ/mol
# Density = 1.632928 g / cm^3
# Si number density = 16.366536 Si / 1000 Ang^3
#
#
#
# Elastic Constant Matrix: (Units=GPa)
#
#
# Indices 1 2 3 4 5 6 
#
# 1 85.6962 34.5099 45.3139 0.0000 0.0000 0.0000
# 2 34.5099 56.6617 39.2385 0.0000 0.0000 0.0000
# 3 45.3139 39.2385 108.5105 0.0000 0.0000 0.0000
# 4 0.0000 0.0000 0.0000 31.6243 0.0000 0.0000
# 5 0.0000 0.0000 0.0000 0.0000 2.5635 0.0000
# 6 0.0000 0.0000 0.0000 0.0000 0.0000 20.5700
#
#
#
# Elastic Compliance Matrix: (Units=1/GPa)
#
#
# Indices 1 2 3 4 5 6 
#
# 1 0.016938 -0.007228 -0.004460 0.000000 0.000000 0.000000
# 2 -0.007228 0.026629 -0.006611 0.000000 0.000000 0.000000
# 3 -0.004460 -0.006611 0.013469 0.000000 0.000000 0.000000
# 4 0.000000 0.000000 0.000000 0.031621 0.000000 0.000000
# 5 0.000000 0.000000 0.000000 0.000000 0.390090 0.000000
# 6 0.000000 0.000000 0.000000 0.000000 0.000000 0.048614
#
#
# Mechanical properties :
#
#
# Convention : Reuss Voigt Hill
#
# Bulk Modulus (GPa) = 48.92687 54.33258 51.62973
# Shear Modulus (GPa) = 8.76010 19.73866 14.24938
#
# Velocity S-wave (km/s) = 2.31605 3.47657 2.95386
# Velocity P-wave (km/s) = 6.09192 7.02743 6.57633
#
# Compressibility (1/GPa) = 0.02043867
#
# Stress axis : x y z
#
# Youngs Moduli (GPa) = 59.03935 37.55340 74.24675
#
# Poissons Ratio (x) = 0.27143 0.33111
# Poissons Ratio (y) = 0.42672 0.49084
# Poissons Ratio (z) = 0.26329 0.24826
#
# Static dielectric constant tensor:
#      x y z
#    x 3.163880 0.000000 0.000000 
#    y 0.000000 3.082410 0.000000 
#    z 0.000000 0.000000 3.092880 
# 
# 
# High freq. dielectric constant tensor:
#      x y z
#    x 1.611220 0.000000 0.000000 
#    y 0.000000 1.632520 0.000000 
#    z 0.000000 0.000000 1.619680 
# 
# From -- ./inp_files/25045.got.cif
#   From: 2010.03.12/outbox.cif.g09.slc.cpg/sg38_13_cif.got.tgz:25045.got - 2010.04.14 02:38:36.
