data_PCOD8178476
_publ_section_title
;
Structure prediction by ZEFSAII (Michael W. Deem and Ramdas Pophale) SiO2 
 PCOD8178476
Probable space group: A M M 2
;
_chemical_formula_sum "Si O2"
_cell_formula_units_Z 40
_cell_length_a 8.791528
_cell_length_b 18.515424
_cell_length_c 13.465129
_cell_angle_alpha 90.000000
_cell_angle_beta 90.000000
_cell_angle_gamma 90.000000
_cell_volume 2191.838463
_symmetry_space_group_name_H-M "A M M 2"
_symmetry_group_IT_number 38
_symmetry_cell_setting 'orthorhombic'
loop_
_space_group_symop_operation_xyz
x,y,z
-x,-y,z
-x,y,z
x,-y,z
x,1/2+y,1/2+z
-x,1/2-y,1/2+z
-x,1/2+y,1/2+z
x,1/2-y,1/2+z
loop_
_atom_site_type_symbol
_atom_site_label
_atom_site_fract_x
_atom_site_fract_y
_atom_site_fract_z
Si Si1 0.320163 0.500000 0.665421
Si Si2 0.177621 0.286352 0.152952
Si Si3 0.677408 0.856084 0.835299
Si Si4 0.177599 0.639160 0.760958
Si Si5 0.676394 0.709425 0.942944
Si Si6 0.319337 0.500000 0.442423
O O1 0.500000 0.500000 0.662264
O O2 0.266259 0.570340 0.722533
O O3 0.252224 0.500000 0.553824
O O4 0.227406 0.344380 0.235236
O O5 0.219669 0.206374 0.190513
O O6 0.000000 0.294343 0.131285
O O7 0.270965 0.303318 0.054594
O O8 0.500000 0.860842 0.807616
O O9 0.708770 0.792174 0.913374
O O10 0.739192 0.929244 0.885064
O O11 0.229779 0.655673 0.872778
O O12 0.000000 0.622547 0.760888
O O13 0.500000 0.690030 0.932715
O O14 0.500000 0.500000 0.447517
#
# Coordination Sequence:
#
# PCOD8178476 Si02
#       6
#     4   8   8   8   8   4
#     4  11  21  35  56  81 108 137 173 216 264 315
#     4  10  20  34  53  77 106 139 174 215 263 313
#     4   9  18  33  53  77 104 134 172 214 256 307
#     4  10  21  36  53  77 109 141 175 216 264 318
#     4  10  19  33  55  79 103 136 178 221 262 308
#     4   9  18  33  54  79 106 135 167 210 260 309
#
# _framework density 18.24952
#
# number of rings (size 3 to 8) (size 9 to 14) (size 15 to 20)
#    0.000    2.200    0.000    3.300    0.000    4.800 
#    0.000    3.500    0.000    1.200    0.000    0.000 
#    0.000    0.000    0.000    0.000    0.000    0.000 
#
# Total GULP energy -248085.766078 kJ/mol
# GULP energy per Si atom -12404.288304 kJ/mol
# Density = 1.820798 g / cm^3
# Si number density = 18.249520 Si / 1000 Ang^3
#
#
#
# Elastic Constant Matrix: (Units=GPa)
#
#
# Indices 1 2 3 4 5 6 
#
# 1 53.7660 30.6308 30.1023 0.0000 0.0000 0.0000
# 2 30.6308 118.5911 55.3018 0.0000 0.0000 0.0000
# 3 30.1023 55.3018 124.2336 0.0000 0.0000 0.0000
# 4 0.0000 0.0000 0.0000 18.5951 0.0000 0.0000
# 5 0.0000 0.0000 0.0000 0.0000 27.9884 0.0000
# 6 0.0000 0.0000 0.0000 0.0000 0.0000 25.7862
#
#
#
# Elastic Compliance Matrix: (Units=1/GPa)
#
#
# Indices 1 2 3 4 5 6 
#
# 1 0.023088 -0.004233 -0.003710 0.000000 0.000000 0.000000
# 2 -0.004233 0.011417 -0.004057 0.000000 0.000000 0.000000
# 3 -0.003710 -0.004057 0.010754 0.000000 0.000000 0.000000
# 4 0.000000 0.000000 0.000000 0.053778 0.000000 0.000000
# 5 0.000000 0.000000 0.000000 0.000000 0.035729 0.000000
# 6 0.000000 0.000000 0.000000 0.000000 0.000000 0.038780
#
#
# Mechanical properties :
#
#
# Convention : Reuss Voigt Hill
#
# Bulk Modulus (GPa) = 47.03729 58.74004 52.88867
# Shear Modulus (GPa) = 24.43400 26.51100 25.47250
#
# Velocity S-wave (km/s) = 3.66305 3.81556 3.74008
# Velocity P-wave (km/s) = 6.61219 7.18807 6.90614
#
# Compressibility (1/GPa) = 0.02125973
#
# Stress axis : x y z
#
# Youngs Moduli (GPa) = 43.31269 87.58504 92.98821
#
# Poissons Ratio (x) = 0.37078 0.34497
# Poissons Ratio (y) = 0.18336 0.37722
# Poissons Ratio (z) = 0.16068 0.35530
#
# Static dielectric constant tensor:
#      x y z
#    x 3.319720 0.000000 0.000000 
#    y 0.000000 3.355960 0.000000 
#    z 0.000000 0.000000 3.392070 
# 
# 
# High freq. dielectric constant tensor:
#      x y z
#    x 1.707490 0.000000 0.000000 
#    y 0.000000 1.697730 0.000000 
#    z 0.000000 0.000000 1.714770 
# 
# From -- ./inp_files/7963.got.cif
#   From: 2010.03.12/outbox.cif.g09.slc.cpg/sg38_4_cif.got.tgz:7963.got - 2010.04.14 02:38:36.
