data_PCOD8178087
_publ_section_title
;
Structure prediction by ZEFSAII (Michael W. Deem and Ramdas Pophale) SiO2 
 PCOD8178087
Probable space group: A M M 2
;
_chemical_formula_sum "Si O2"
_cell_formula_units_Z 64
_cell_length_a 9.080510
_cell_length_b 23.413708
_cell_length_c 18.886742
_cell_angle_alpha 90.000000
_cell_angle_beta 90.000000
_cell_angle_gamma 90.000000
_cell_volume 4015.480180
_symmetry_space_group_name_H-M "A M M 2"
_symmetry_group_IT_number 38
_symmetry_cell_setting 'orthorhombic'
loop_
_space_group_symop_operation_xyz
x,y,z
-x,-y,z
-x,y,z
x,-y,z
x,1/2+y,1/2+z
-x,1/2-y,1/2+z
-x,1/2+y,1/2+z
x,1/2-y,1/2+z
loop_
_atom_site_type_symbol
_atom_site_label
_atom_site_fract_x
_atom_site_fract_y
_atom_site_fract_z
Si Si1 0.169105 0.565718 0.794760
Si Si2 0.325507 0.881033 0.425865
Si Si3 0.168984 0.726737 0.280313
Si Si4 0.672570 0.276044 0.572445
Si Si5 0.674997 0.436754 0.071500
Si Si6 0.829856 0.336076 0.691391
Si Si7 0.327935 0.834401 0.664043
Si Si8 0.826829 0.240677 0.435435
O O1 0.196338 0.500000 0.775142
O O2 0.276275 0.583527 0.857768
O O3 0.206265 0.602266 0.724664
O O4 0.000000 0.577229 0.817922
O O5 0.500000 0.871264 0.424094
O O6 0.274660 0.917145 0.493862
O O7 0.248071 0.820425 0.429568
O O8 0.213204 0.788952 0.250291
O O9 0.257302 0.676768 0.240553
O O10 0.204888 0.724669 0.363352
O O11 0.000000 0.714322 0.265062
O O12 0.500000 0.283701 0.559442
O O13 0.731292 0.327631 0.621379
O O14 0.711207 0.216109 0.609593
O O15 0.756294 0.278018 0.497863
O O16 0.500000 0.436976 0.074349
O O17 0.738655 0.500000 0.086768
O O18 0.735914 0.393005 0.130817
O O19 0.000000 0.330691 0.669299
O O20 0.500000 0.838674 0.676204
O O21 0.000000 0.232168 0.447986
#
# Coordination Sequence:
#
# PCOD8178087 Si02
#       8
#     8   8   8   8   8   8   8   8
#     4  10  20  34  50  69  97 131 168 205 238 282
#     4  11  20  31  46  68  99 132 167 201 231 275
#     4   9  18  31  47  66  91 122 156 192 234 283
#     4  10  19  31  47  71  96 121 157 199 242 285
#     4   9  17  30  46  65  93 127 159 190 226 272
#     4   9  17  32  48  67  93 127 162 194 238 286
#     4   9  17  30  46  67  92 120 155 193 231 274
#     4  11  20  32  49  70  96 129 161 194 240 291
#
# _framework density 15.938319
#
# number of rings (size 3 to 8) (size 9 to 14) (size 15 to 20)
#    0.000    2.250    2.500    1.500    0.000    2.750 
#    0.000    0.000    0.000    1.875    0.000    0.875 
#    0.000    1.000    0.000    0.000    0.000    0.000 
#
# Total GULP energy -396812.258548 kJ/mol
# GULP energy per Si atom -12400.383080 kJ/mol
# Density = 1.590204 g / cm^3
# Si number density = 15.938319 Si / 1000 Ang^3
#
#
#
# Elastic Constant Matrix: (Units=GPa)
#
#
# Indices 1 2 3 4 5 6 
#
# 1 62.3371 36.2257 55.7267 0.0000 0.0000 0.0000
# 2 36.2257 94.1791 65.5520 0.0000 0.0000 0.0000
# 3 55.7267 65.5520 120.8423 0.0000 0.0000 0.0000
# 4 0.0000 0.0000 0.0000 18.4901 0.0000 0.0000
# 5 0.0000 0.0000 0.0000 0.0000 29.4485 0.0000
# 6 0.0000 0.0000 0.0000 0.0000 0.0000 15.0868
#
#
#
# Elastic Compliance Matrix: (Units=1/GPa)
#
#
# Indices 1 2 3 4 5 6 
#
# 1 0.027758 -0.002839 -0.011261 0.000000 0.000000 0.000000
# 2 -0.002839 0.017350 -0.008102 0.000000 0.000000 0.000000
# 3 -0.011261 -0.008102 0.017863 0.000000 0.000000 0.000000
# 4 0.000000 0.000000 0.000000 0.054083 0.000000 0.000000
# 5 0.000000 0.000000 0.000000 0.000000 0.033958 0.000000
# 6 0.000000 0.000000 0.000000 0.000000 0.000000 0.066283
#
#
# Mechanical properties :
#
#
# Convention : Reuss Voigt Hill
#
# Bulk Modulus (GPa) = 53.85901 65.81859 59.83880
# Shear Modulus (GPa) = 18.66456 20.59536 19.62996
#
# Velocity S-wave (km/s) = 3.42577 3.59861 3.51325
# Velocity P-wave (km/s) = 7.03658 7.65847 7.35410
#
# Compressibility (1/GPa) = 0.01856700
#
# Stress axis : x y z
#
# Youngs Moduli (GPa) = 36.02521 57.63844 55.98136
#
# Poissons Ratio (x) = 0.16366 0.63038
# Poissons Ratio (y) = 0.10229 0.45356
# Poissons Ratio (z) = 0.40566 0.46699
#
# Static dielectric constant tensor:
#      x y z
#    x 2.999750 0.000000 0.000000 
#    y 0.000000 3.004090 0.000000 
#    z 0.000000 0.000000 3.147060 
# 
# 
# High freq. dielectric constant tensor:
#      x y z
#    x 1.609500 0.000000 0.000000 
#    y 0.000000 1.588300 0.000000 
#    z 0.000000 0.000000 1.607160 
# 
# From -- ./inp_files/17184.got.cif
#   From: 2010.03.12/outbox.cif.g09.slc.cpg/sg38_9_cif.got.tgz:17184.got - 2010.04.14 02:38:36.
