data_PCOD8178426
_publ_section_title
;
Structure prediction by ZEFSAII (Michael W. Deem and Ramdas Pophale) SiO2 
 PCOD8178426
Probable space group: A M M 2
;
_chemical_formula_sum "Si O2"
_cell_formula_units_Z 48
_cell_length_a 9.005589
_cell_length_b 16.431212
_cell_length_c 18.472897
_cell_angle_alpha 90.000000
_cell_angle_beta 90.000000
_cell_angle_gamma 90.000000
_cell_volume 2733.485223
_symmetry_space_group_name_H-M "A M M 2"
_symmetry_group_IT_number 38
_symmetry_cell_setting 'orthorhombic'
loop_
_space_group_symop_operation_xyz
x,y,z
-x,-y,z
-x,y,z
x,-y,z
x,1/2+y,1/2+z
-x,1/2-y,1/2+z
-x,1/2+y,1/2+z
x,1/2-y,1/2+z
loop_
_atom_site_type_symbol
_atom_site_label
_atom_site_fract_x
_atom_site_fract_y
_atom_site_fract_z
Si Si1 0.328771 0.199346 0.365220
Si Si2 0.674191 0.833350 0.200799
Si Si3 0.173782 0.836774 0.944628
Si Si4 0.676058 0.000000 0.134476
Si Si5 0.324112 0.000000 0.970084
Si Si6 0.174607 0.732249 0.083190
Si Si7 0.673111 0.907114 0.501185
O O1 0.500000 0.226380 0.371782
O O2 0.289035 0.169740 0.285300
O O3 0.225209 0.276150 0.381706
O O4 0.293549 0.126042 0.420545
O O5 0.500000 0.825270 0.184908
O O6 0.755496 0.760191 0.159048
O O7 0.738484 0.919679 0.173569
O O8 0.000000 0.852610 0.938213
O O9 0.259746 0.920570 0.931377
O O10 0.217775 0.798577 0.022228
O O11 0.500000 0.000000 0.138677
O O12 0.732715 0.000000 0.052489
O O13 0.500000 0.000000 0.963619
O O14 0.000000 0.723194 0.092021
O O15 0.239402 0.644574 0.061230
O O16 0.500000 0.900551 0.519405
O O17 0.728826 0.000000 0.504734
#
# Coordination Sequence:
#
# PCOD8178426 Si02
#       7
#     8   8   8   4   4   8   8
#     4   9  19  33  53  78 106 137 170 209 257 310
#     4  10  19  33  53  78 108 138 170 209 255 308
#     4  10  20  34  51  74 106 141 176 212 255 306
#     4   9  18  29  49  81 109 134 163 206 257 303
#     4  11  19  31  55  81 105 132 173 218 257 303
#     4  10  20  33  51  74 103 140 176 211 253 305
#     4   9  18  33  54  79 103 131 170 215 258 303
#
# _framework density 17.559999999999999
#
# number of rings (size 3 to 8) (size 9 to 14) (size 15 to 20)
#    0.000    2.333    1.667    1.250    1.167    2.333 
#    0.000    0.417    1.833    0.000    0.000    0.000 
#    0.000    0.000    0.000    0.000    0.000    0.000 
#
# Total GULP energy -297671.599581 kJ/mol
# GULP energy per Si atom -12402.983316 kJ/mol
# Density = 1.752003 g / cm^3
# Si number density = 17.560000 Si / 1000 Ang^3
#
#
#
# Elastic Constant Matrix: (Units=GPa)
#
#
# Indices 1 2 3 4 5 6 
#
# 1 60.6065 50.5239 28.6889 0.0000 0.0000 0.0000
# 2 50.5239 147.7751 48.9709 0.0000 0.0000 0.0000
# 3 28.6889 48.9709 79.7798 0.0000 0.0000 0.0000
# 4 0.0000 0.0000 0.0000 21.0132 0.0000 0.0000
# 5 0.0000 0.0000 0.0000 0.0000 21.1436 0.0000
# 6 0.0000 0.0000 0.0000 0.0000 0.0000 21.1868
#
#
#
# Elastic Compliance Matrix: (Units=1/GPa)
#
#
# Indices 1 2 3 4 5 6 
#
# 1 0.024339 -0.006805 -0.004575 0.000000 0.000000 0.000000
# 2 -0.006805 0.010398 -0.003935 0.000000 0.000000 0.000000
# 3 -0.004575 -0.003935 0.016595 0.000000 0.000000 0.000000
# 4 0.000000 0.000000 0.000000 0.047589 0.000000 0.000000
# 5 0.000000 0.000000 0.000000 0.000000 0.047296 0.000000
# 6 0.000000 0.000000 0.000000 0.000000 0.000000 0.047199
#
#
# Mechanical properties :
#
#
# Convention : Reuss Voigt Hill
#
# Bulk Modulus (GPa) = 48.30749 60.50320 54.40535
# Shear Modulus (GPa) = 21.65001 23.33390 22.49195
#
# Velocity S-wave (km/s) = 3.51510 3.64924 3.58280
# Velocity P-wave (km/s) = 6.63658 7.23090 6.94010
#
# Compressibility (1/GPa) = 0.02070072
#
# Stress axis : x y z
#
# Youngs Moduli (GPa) = 41.08710 96.17388 60.25825
#
# Poissons Ratio (x) = 0.65448 0.27568
# Poissons Ratio (y) = 0.27961 0.23713
# Poissons Ratio (z) = 0.18797 0.37847
#
# Static dielectric constant tensor:
#      x y z
#    x 3.113160 0.000000 0.000000 
#    y 0.000000 3.304530 0.000000 
#    z 0.000000 0.000000 3.110130 
# 
# 
# High freq. dielectric constant tensor:
#      x y z
#    x 1.671750 0.000000 0.000000 
#    y 0.000000 1.681480 0.000000 
#    z 0.000000 0.000000 1.661390 
# 
# From -- ./inp_files/16672.got.cif
#   From: 2010.03.12/outbox.cif.g09.slc.cpg/sg38_9_cif.got.tgz:16672.got - 2010.04.14 02:38:36.
