data_PCOD8178949
_publ_section_title
;
Structure prediction by ZEFSAII (Michael W. Deem and Ramdas Pophale) SiO2 
 PCOD8178949
Probable space group: A M M 2
;
_chemical_formula_sum "Si O2"
_cell_formula_units_Z 64
_cell_length_a 9.016438
_cell_length_b 18.777196
_cell_length_c 20.913563
_cell_angle_alpha 90.000000
_cell_angle_beta 90.000000
_cell_angle_gamma 90.000000
_cell_volume 3540.737814
_symmetry_space_group_name_H-M "A M M 2"
_symmetry_group_IT_number 38
_symmetry_cell_setting 'orthorhombic'
loop_
_space_group_symop_operation_xyz
x,y,z
-x,-y,z
-x,y,z
x,-y,z
x,1/2+y,1/2+z
-x,1/2-y,1/2+z
-x,1/2+y,1/2+z
x,1/2-y,1/2+z
loop_
_atom_site_type_symbol
_atom_site_label
_atom_site_fract_x
_atom_site_fract_y
_atom_site_fract_z
Si Si1 0.324578 0.659950 0.073880
Si Si2 0.174434 0.162435 0.307154
Si Si3 0.328879 0.685990 0.304927
Si Si4 0.328758 0.321707 0.581795
Si Si5 0.668503 0.193289 0.944696
Si Si6 0.829249 0.337256 0.949095
Si Si7 0.675229 0.418282 0.694813
Si Si8 0.676740 0.079504 0.698387
O O1 0.500000 0.658099 0.070031
O O2 0.265807 0.740917 0.084636
O O3 0.264806 0.612016 0.131840
O O4 0.262932 0.627240 0.007130
O O5 0.243354 0.240277 0.296524
O O6 0.207341 0.131530 0.378605
O O7 0.245554 0.106245 0.259266
O O8 0.000000 0.168958 0.295202
O O9 0.500000 0.701927 0.288423
O O10 0.313299 0.652694 0.376967
O O11 0.262561 0.627618 0.256602
O O12 0.500000 0.318740 0.599420
O O13 0.304386 0.353414 0.509313
O O14 0.256682 0.372954 0.635110
O O15 0.500000 0.225288 0.949037
O O16 0.789748 0.254511 0.945191
O O17 0.000000 0.346811 0.966182
O O18 0.500000 0.407845 0.703048
O O19 0.715560 0.500000 0.681500
O O20 0.500000 0.078011 0.699470
O O21 0.741239 0.000000 0.705954
#
# Coordination Sequence:
#
# PCOD8178949 Si02
#       8
#     8   8   8   8   8   8   8   8
#     4   9  16  28  48  69  92 124 156 189 230 278
#     4  10  20  33  50  71  95 123 155 196 243 284
#     4   9  16  29  51  74  96 125 160 195 229 274
#     4   8  14  27  46  68  92 118 152 191 230 270
#     4   8  14  26  46  70  94 121 152 187 229 275
#     4   9  17  29  46  69  93 115 147 195 242 279
#     4  10  20  33  49  69  95 128 162 194 230 277
#     4   9  17  29  46  71 101 129 158 194 235 275
#
# _framework density 18.075329
#
# number of rings (size 3 to 8) (size 9 to 14) (size 15 to 20)
#    0.000    3.000    0.000    2.250    0.000    3.750 
#    0.000    6.875    0.000    7.500    0.000    0.000 
#    0.000    9.000    0.000    0.000    0.000    0.000 
#
# Total GULP energy -396454.059873 kJ/mol
# GULP energy per Si atom -12389.189371 kJ/mol
# Density = 1.803419 g / cm^3
# Si number density = 18.075329 Si / 1000 Ang^3
#
#
#
# Elastic Constant Matrix: (Units=GPa)
#
#
# Indices 1 2 3 4 5 6 
#
# 1 32.5425 20.2304 30.7905 0.0000 0.0000 0.0000
# 2 20.2304 64.2128 44.8328 0.0000 0.0000 0.0000
# 3 30.7905 44.8328 146.3359 0.0000 0.0000 0.0000
# 4 0.0000 0.0000 0.0000 8.4034 0.0000 0.0000
# 5 0.0000 0.0000 0.0000 0.0000 17.4237 0.0000
# 6 0.0000 0.0000 0.0000 0.0000 0.0000 5.5577
#
#
#
# Elastic Compliance Matrix: (Units=1/GPa)
#
#
# Indices 1 2 3 4 5 6 
#
# 1 0.042098 -0.009005 -0.006099 0.000000 0.000000 0.000000
# 2 -0.009005 0.021737 -0.004765 0.000000 0.000000 0.000000
# 3 -0.006099 -0.004765 0.009577 0.000000 0.000000 0.000000
# 4 0.000000 0.000000 0.000000 0.118999 0.000000 0.000000
# 5 0.000000 0.000000 0.000000 0.000000 0.057393 0.000000
# 6 0.000000 0.000000 0.000000 0.000000 0.000000 0.179932
#
#
# Mechanical properties :
#
#
# Convention : Reuss Voigt Hill
#
# Bulk Modulus (GPa) = 29.69640 48.31097 39.00368
# Shear Modulus (GPa) = 10.40155 16.09279 13.24717
#
# Velocity S-wave (km/s) = 2.40147 2.98706 2.71013
# Velocity P-wave (km/s) = 4.91470 6.21951 5.60520
#
# Compressibility (1/GPa) = 0.03367412
#
# Stress axis : x y z
#
# Youngs Moduli (GPa) = 23.75437 46.00456 104.42031
#
# Poissons Ratio (x) = 0.41426 0.63686
# Poissons Ratio (y) = 0.21390 0.49755
# Poissons Ratio (z) = 0.14488 0.21921
#
# Static dielectric constant tensor:
#      x y z
#    x 3.031640 0.000000 0.000000 
#    y 0.000000 3.103150 0.000000 
#    z 0.000000 0.000000 3.921010 
# 
# 
# High freq. dielectric constant tensor:
#      x y z
#    x 1.666770 0.000000 0.000000 
#    y 0.000000 1.655270 0.000000 
#    z 0.000000 0.000000 1.729050 
# 
# From -- ./inp_files/20018.got.cif
#   From: 2010.03.12/outbox.cif.g09.slc.cpg/sg38_11_cif.got.tgz:20018.got - 2010.04.14 02:38:36.
