data_PCOD8178735
_publ_section_title
;
Structure prediction by ZEFSAII (Michael W. Deem and Ramdas Pophale) SiO2 
 PCOD8178735
Probable space group: A M M 2
;
_chemical_formula_sum "Si O2"
_cell_formula_units_Z 40
_cell_length_a 8.421514
_cell_length_b 25.518181
_cell_length_c 9.488670
_cell_angle_alpha 90.000000
_cell_angle_beta 90.000000
_cell_angle_gamma 90.000000
_cell_volume 2039.131490
_symmetry_space_group_name_H-M "A M M 2"
_symmetry_group_IT_number 38
_symmetry_cell_setting 'orthorhombic'
loop_
_space_group_symop_operation_xyz
x,y,z
-x,-y,z
-x,y,z
x,-y,z
x,1/2+y,1/2+z
-x,1/2-y,1/2+z
-x,1/2+y,1/2+z
x,1/2-y,1/2+z
loop_
_atom_site_type_symbol
_atom_site_label
_atom_site_fract_x
_atom_site_fract_y
_atom_site_fract_z
Si Si1 0.814075 0.000000 0.443240
Si Si2 0.312013 0.904553 0.619000
Si Si3 0.686687 0.907501 0.934391
Si Si4 0.817439 0.794748 0.638478
Si Si5 0.690009 0.000000 0.131184
Si Si6 0.683492 0.289759 0.439486
O O1 0.737096 0.051196 0.510317
O O2 0.777469 0.000000 0.278884
O O3 0.000000 0.000000 0.471302
O O4 0.500000 0.897505 0.617569
O O5 0.248909 0.918756 0.776304
O O6 0.233860 0.849983 0.569729
O O7 0.500000 0.914145 0.927954
O O8 0.733017 0.848923 0.983072
O O9 0.753407 0.949303 0.045683
O O10 0.794132 0.749690 0.523780
O O11 0.709650 0.782080 0.773400
O O12 0.000000 0.796731 0.684498
O O13 0.500000 0.000000 0.151961
O O14 0.500000 0.278590 0.474029
#
# Coordination Sequence:
#
# PCOD8178735 Si02
#       6
#     4   8   8   8   4   8
#     4  12  25  38  52  82 120 150 183 230 282 336
#     4  10  20  39  63  84 107 146 192 233 280 344
#     4   8  17  34  60  85 105 136 189 238 272 322
#     4  11  22  37  57  86 118 149 187 240 294 338
#     4  10  19  36  58  82 110 144 185 234 284 332
#     4  10  20  37  58  83 114 154 197 235 279 344
#
# _framework density 19.616194
#
# number of rings (size 3 to 8) (size 9 to 14) (size 15 to 20)
#    0.000    2.000    0.000    5.700    0.000    3.200 
#    0.000   13.000    0.000    0.000    0.000    0.000 
#    0.000    0.000    0.000    0.000    0.000    0.000 
#
# Total GULP energy -248038.561058 kJ/mol
# GULP energy per Si atom -12401.928053 kJ/mol
# Density = 1.957155 g / cm^3
# Si number density = 19.616194 Si / 1000 Ang^3
#
#
#
# Elastic Constant Matrix: (Units=GPa)
#
#
# Indices 1 2 3 4 5 6 
#
# 1 67.1151 25.1467 14.0577 0.0000 0.0000 0.0000
# 2 25.1467 147.0568 73.7711 0.0000 0.0000 0.0000
# 3 14.0577 73.7711 94.3217 0.0000 0.0000 0.0000
# 4 0.0000 0.0000 0.0000 51.3439 0.0000 0.0000
# 5 0.0000 0.0000 0.0000 0.0000 21.2735 0.0000
# 6 0.0000 0.0000 0.0000 0.0000 0.0000 21.8956
#
#
#
# Elastic Compliance Matrix: (Units=1/GPa)
#
#
# Indices 1 2 3 4 5 6 
#
# 1 0.015929 -0.002523 -0.000401 0.000000 0.000000 0.000000
# 2 -0.002523 0.011590 -0.008689 0.000000 0.000000 0.000000
# 3 -0.000401 -0.008689 0.017458 0.000000 0.000000 0.000000
# 4 0.000000 0.000000 0.000000 0.019477 0.000000 0.000000
# 5 0.000000 0.000000 0.000000 0.000000 0.047007 0.000000
# 6 0.000000 0.000000 0.000000 0.000000 0.000000 0.045671
#
#
# Mechanical properties :
#
#
# Convention : Reuss Voigt Hill
#
# Bulk Modulus (GPa) = 45.97390 59.38273 52.67831
# Shear Modulus (GPa) = 26.65136 31.93715 29.29426
#
# Velocity S-wave (km/s) = 3.68997 4.03935 3.86861
# Velocity P-wave (km/s) = 6.45307 7.21756 6.84599
#
# Compressibility (1/GPa) = 0.02175147
#
# Stress axis : x y z
#
# Youngs Moduli (GPa) = 62.77870 86.27866 57.28134
#
# Poissons Ratio (x) = 0.21765 0.02297
# Poissons Ratio (y) = 0.15837 0.49772
# Poissons Ratio (z) = 0.02517 0.74968
#
# Static dielectric constant tensor:
#      x y z
#    x 3.370630 0.000000 0.000000 
#    y 0.000000 3.807460 0.000000 
#    z 0.000000 0.000000 3.555370 
# 
# 
# High freq. dielectric constant tensor:
#      x y z
#    x 1.752860 0.000000 0.000000 
#    y 0.000000 1.776990 0.000000 
#    z 0.000000 0.000000 1.757120 
# 
# From -- ./inp_files/3501.got.cif
#   From: 2010.03.12/outbox.cif.g09.slc.cpg/sg38_2_cif.got.tgz:3501.got - 2010.04.14 02:38:36.
