data_PCOD8178319
_publ_section_title
;
Structure prediction by ZEFSAII (Michael W. Deem and Ramdas Pophale) SiO2 
 PCOD8178319
Probable space group: A M M 2
;
_chemical_formula_sum "Si O2"
_cell_formula_units_Z 64
_cell_length_a 9.240910
_cell_length_b 29.225257
_cell_length_c 12.597290
_cell_angle_alpha 90.000000
_cell_angle_beta 90.000000
_cell_angle_gamma 90.000000
_cell_volume 3402.124534
_symmetry_space_group_name_H-M "A M M 2"
_symmetry_group_IT_number 38
_symmetry_cell_setting 'orthorhombic'
loop_
_space_group_symop_operation_xyz
x,y,z
-x,-y,z
-x,y,z
x,-y,z
x,1/2+y,1/2+z
-x,1/2-y,1/2+z
-x,1/2+y,1/2+z
x,1/2-y,1/2+z
loop_
_atom_site_type_symbol
_atom_site_label
_atom_site_fract_x
_atom_site_fract_y
_atom_site_fract_z
Si Si1 0.669594 0.106429 0.209790
Si Si2 0.329259 0.053429 0.996957
Si Si3 0.164913 0.803461 0.265585
Si Si4 0.172537 0.610516 0.314621
Si Si5 0.331573 0.580284 0.940182
Si Si6 0.830914 0.795300 0.721134
Si Si7 0.161877 0.549276 0.122758
Si Si8 0.837387 0.833658 0.497602
O O1 0.500000 0.117511 0.210637
O O2 0.713234 0.074234 0.111572
O O3 0.750335 0.155258 0.208000
O O4 0.713851 0.078337 0.316174
O O5 0.500000 0.056735 0.977437
O O6 0.279458 0.000000 0.991045
O O7 0.250240 0.085450 0.911748
O O8 0.239775 0.754382 0.241909
O O9 0.170186 0.803882 0.392302
O O10 0.000000 0.806688 0.223544
O O11 0.223617 0.663526 0.299317
O O12 0.222862 0.586150 0.205665
O O13 0.000000 0.606154 0.330531
O O14 0.500000 0.572588 0.953110
O O15 0.251514 0.543439 0.013324
O O16 0.283430 0.627891 0.991223
O O17 0.795633 0.803712 0.598493
O O18 0.000000 0.791094 0.742763
O O19 0.167074 0.500000 0.180341
O O20 0.000000 0.562934 0.090303
O O21 0.000000 0.854273 0.511710
#
# Coordination Sequence:
#
# PCOD8178319 Si02
#       8
#     8   8   8   8   8   8   8   8
#     4   9  20  38  56  76 108 146 181 223 279 330
#     4  10  22  40  59  78 107 149 191 232 282 337
#     4   9  18  31  53  83 107 139 186 229 268 319
#     4  10  20  36  57  80 108 142 182 226 272 326
#     4  10  19  32  53  78 102 133 177 221 262 315
#     4   9  17  31  53  80 108 142 182 223 273 327
#     4  10  20  34  53  78 108 139 169 210 270 326
#     4   9  16  31  51  70 104 143 171 212 271 324
#
# _framework density 18.811774
#
# number of rings (size 3 to 8) (size 9 to 14) (size 15 to 20)
#    0.000    2.500    1.250    0.750    0.000    4.000 
#    0.000    5.000    0.000    3.000    0.000    0.000 
#    0.000    0.000    0.000    0.000    0.000    0.000 
#
# Total GULP energy -396486.266137 kJ/mol
# GULP energy per Si atom -12390.195817 kJ/mol
# Density = 1.876896 g / cm^3
# Si number density = 18.811774 Si / 1000 Ang^3
#
#
#
# Elastic Constant Matrix: (Units=GPa)
#
#
# Indices 1 2 3 4 5 6 
#
# 1 37.6184 22.7931 36.2381 0.0000 0.0000 0.0000
# 2 22.7931 114.0134 49.0311 0.0000 0.0000 0.0000
# 3 36.2381 49.0311 107.9857 0.0000 0.0000 0.0000
# 4 0.0000 0.0000 0.0000 25.9260 0.0000 0.0000
# 5 0.0000 0.0000 0.0000 0.0000 28.8436 0.0000
# 6 0.0000 0.0000 0.0000 0.0000 0.0000 31.3798
#
#
#
# Elastic Compliance Matrix: (Units=1/GPa)
#
#
# Indices 1 2 3 4 5 6 
#
# 1 0.039969 -0.002761 -0.012159 0.000000 0.000000 0.000000
# 2 -0.002761 0.011090 -0.004109 0.000000 0.000000 0.000000
# 3 -0.012159 -0.004109 0.015206 0.000000 0.000000 0.000000
# 4 0.000000 0.000000 0.000000 0.038571 0.000000 0.000000
# 5 0.000000 0.000000 0.000000 0.000000 0.034670 0.000000
# 6 0.000000 0.000000 0.000000 0.000000 0.000000 0.031868
#
#
# Mechanical properties :
#
#
# Convention : Reuss Voigt Hill
#
# Bulk Modulus (GPa) = 35.45243 52.86024 44.15634
# Shear Modulus (GPa) = 22.84832 27.33354 25.09093
#
# Velocity S-wave (km/s) = 3.48886 3.81596 3.65607
# Velocity P-wave (km/s) = 5.92590 6.89753 6.43010
#
# Compressibility (1/GPa) = 0.02820681
#
# Stress axis : x y z
#
# Youngs Moduli (GPa) = 25.01950 90.17219 65.76181
#
# Poissons Ratio (x) = 0.24901 0.79960
# Poissons Ratio (y) = 0.06909 0.27020
# Poissons Ratio (z) = 0.30421 0.37049
#
# Static dielectric constant tensor:
#      x y z
#    x 3.280530 0.000000 0.000000 
#    y 0.000000 3.630990 0.000000 
#    z 0.000000 0.000000 3.627720 
# 
# 
# High freq. dielectric constant tensor:
#      x y z
#    x 1.703130 0.000000 0.000000 
#    y 0.000000 1.738000 0.000000 
#    z 0.000000 0.000000 1.733850 
# 
# From -- ./inp_files/8625.got.cif
#   From: 2010.03.12/outbox.cif.g09.slc.cpg/sg38_5_cif.got.tgz:8625.got - 2010.04.14 02:38:36.
