data_PCOD8178136
_publ_section_title
;
Structure prediction by ZEFSAII (Michael W. Deem and Ramdas Pophale) SiO2 
 PCOD8178136
Probable space group: A M M 2
;
_chemical_formula_sum "Si O2"
_cell_formula_units_Z 64
_cell_length_a 9.370172
_cell_length_b 25.544075
_cell_length_c 13.950027
_cell_angle_alpha 90.000000
_cell_angle_beta 90.000000
_cell_angle_gamma 90.000000
_cell_volume 3338.972112
_symmetry_space_group_name_H-M "A M M 2"
_symmetry_group_IT_number 38
_symmetry_cell_setting 'orthorhombic'
loop_
_space_group_symop_operation_xyz
x,y,z
-x,-y,z
-x,y,z
x,-y,z
x,1/2+y,1/2+z
-x,1/2-y,1/2+z
-x,1/2+y,1/2+z
x,1/2-y,1/2+z
loop_
_atom_site_type_symbol
_atom_site_label
_atom_site_fract_x
_atom_site_fract_y
_atom_site_fract_z
Si Si1 0.339155 0.773402 0.488150
Si Si2 0.664424 0.844981 0.315724
Si Si3 0.661966 0.238369 0.711737
Si Si4 0.167119 0.558701 0.732601
Si Si5 0.665002 0.090485 0.055283
Si Si6 0.154277 0.146877 0.787310
Si Si7 0.154923 0.678601 0.492624
Si Si8 0.662884 0.941949 0.836899
O O1 0.500000 0.753876 0.465287
O O2 0.309885 0.825935 0.426097
O O3 0.317744 0.778201 0.601581
O O4 0.224086 0.731714 0.453358
O O5 0.500000 0.861639 0.301248
O O6 0.702958 0.798094 0.240289
O O7 0.761966 0.896106 0.298482
O O8 0.500000 0.228026 0.745244
O O9 0.766880 0.200553 0.766969
O O10 0.183797 0.500000 0.778005
O O11 0.246950 0.555809 0.630272
O O12 0.000000 0.572005 0.718215
O O13 0.500000 0.094616 0.086834
O O14 0.733782 0.148887 0.062175
O O15 0.680855 0.066377 0.950458
O O16 0.128200 0.142850 0.900634
O O17 0.249256 0.095887 0.765456
O O18 0.000000 0.144498 0.734224
O O19 0.000000 0.688551 0.543059
O O20 0.500000 0.933075 0.808237
O O21 0.715169 0.000000 0.812560
#
# Coordination Sequence:
#
# PCOD8178136 Si02
#       8
#     8   8   8   8   8   8   8   8
#     4  10  20  34  55  82 109 141 186 229 272 328
#     4  10  21  37  58  84 113 147 188 232 280 337
#     4  10  20  35  56  81 110 143 180 227 278 328
#     4  11  24  39  55  78 110 147 187 234 288 344
#     4  10  19  32  53  79 109 145 187 229 273 330
#     4  10  20  32  49  75 108 143 178 216 265 325
#     4  10  19  31  49  77 111 147 180 217 270 325
#     4   9  18  32  51  75 104 142 185 227 274 327
#
# _framework density 19.167574999999999
#
# number of rings (size 3 to 8) (size 9 to 14) (size 15 to 20)
#    0.000    2.000    1.250    2.625    0.000    5.750 
#    0.000    0.000    0.000    0.750    0.000    1.750 
#    0.000    0.000    0.000    0.000    0.000    0.000 
#
# Total GULP energy -396458.659422 kJ/mol
# GULP energy per Si atom -12389.333107 kJ/mol
# Density = 1.912395 g / cm^3
# Si number density = 19.167575 Si / 1000 Ang^3
#
#
#
# Elastic Constant Matrix: (Units=GPa)
#
#
# Indices 1 2 3 4 5 6 
#
# 1 144.1032 82.1559 23.1036 0.0000 0.0000 0.0000
# 2 82.1559 131.1853 27.8435 0.0000 0.0000 0.0000
# 3 23.1036 27.8435 60.8438 0.0000 0.0000 0.0000
# 4 0.0000 0.0000 0.0000 24.3374 0.0000 0.0000
# 5 0.0000 0.0000 0.0000 0.0000 18.5461 0.0000
# 6 0.0000 0.0000 0.0000 0.0000 0.0000 24.9317
#
#
#
# Elastic Compliance Matrix: (Units=1/GPa)
#
#
# Indices 1 2 3 4 5 6 
#
# 1 0.010862 -0.006564 -0.001120 0.000000 0.000000 0.000000
# 2 -0.006564 0.012410 -0.003187 0.000000 0.000000 0.000000
# 3 -0.001120 -0.003187 0.018319 0.000000 0.000000 0.000000
# 4 0.000000 0.000000 0.000000 0.041089 0.000000 0.000000
# 5 0.000000 0.000000 0.000000 0.000000 0.053920 0.000000
# 6 0.000000 0.000000 0.000000 0.000000 0.000000 0.040110
#
#
# Mechanical properties :
#
#
# Convention : Reuss Voigt Hill
#
# Bulk Modulus (GPa) = 50.38196 66.92646 58.65421
# Shear Modulus (GPa) = 24.38218 27.09832 25.74025
#
# Velocity S-wave (km/s) = 3.57046 3.76408 3.66854
# Velocity P-wave (km/s) = 6.58328 7.34053 6.97219
#
# Compressibility (1/GPa) = 0.01984837
#
# Stress axis : x y z
#
# Youngs Moduli (GPa) = 92.06790 80.57942 54.58759
#
# Poissons Ratio (x) = 0.52895 0.06116
# Poissons Ratio (y) = 0.60437 0.17395
# Poissons Ratio (z) = 0.10315 0.25677
#
# Static dielectric constant tensor:
#      x y z
#    x 3.783550 0.000000 0.000000 
#    y 0.000000 3.411920 0.000000 
#    z 0.000000 0.000000 3.296530 
# 
# 
# High freq. dielectric constant tensor:
#      x y z
#    x 1.757430 0.000000 0.000000 
#    y 0.000000 1.735380 0.000000 
#    z 0.000000 0.000000 1.710330 
# 
# From -- ./inp_files/12841.got.cif
#   From: 2010.03.12/outbox.cif.g09.slc.cpg/sg38_7_cif.got.tgz:12841.got - 2010.04.14 02:38:36.
