data_PCOD8178668
_publ_section_title
;
Structure prediction by ZEFSAII (Michael W. Deem and Ramdas Pophale) SiO2 
 PCOD8178668
Probable space group: A M M 2
;
_chemical_formula_sum "Si O2"
_cell_formula_units_Z 56
_cell_length_a 9.182540
_cell_length_b 20.324013
_cell_length_c 14.196798
_cell_angle_alpha 90.000000
_cell_angle_beta 90.000000
_cell_angle_gamma 90.000000
_cell_volume 2649.492508
_symmetry_space_group_name_H-M "A M M 2"
_symmetry_group_IT_number 38
_symmetry_cell_setting 'orthorhombic'
loop_
_space_group_symop_operation_xyz
x,y,z
-x,-y,z
-x,y,z
x,-y,z
x,1/2+y,1/2+z
-x,1/2-y,1/2+z
-x,1/2+y,1/2+z
x,1/2-y,1/2+z
loop_
_atom_site_type_symbol
_atom_site_label
_atom_site_fract_x
_atom_site_fract_y
_atom_site_fract_z
Si Si1 0.342319 0.500000 0.078790
Si Si2 0.333519 0.688639 0.670680
Si Si3 0.160170 0.892784 0.673905
Si Si4 0.833400 0.576929 0.373709
Si Si5 0.337269 0.427867 0.546937
Si Si6 0.334903 0.000000 0.359686
Si Si7 0.174710 0.359102 0.847191
Si Si8 0.161841 0.721270 0.036120
O O1 0.500000 0.500000 0.127885
O O2 0.259796 0.434970 0.107042
O O3 0.359583 0.500000 0.969082
O O4 0.500000 0.712543 0.690740
O O5 0.330881 0.611964 0.643355
O O6 0.235124 0.690300 0.765280
O O7 0.273570 0.724121 0.575293
O O8 0.224690 0.887281 0.779356
O O9 0.149095 0.821814 0.629937
O O10 0.000000 0.926253 0.680867
O O11 0.799876 0.500000 0.361654
O O12 0.751651 0.607096 0.463138
O O13 0.000000 0.592790 0.391798
O O14 0.500000 0.433822 0.508567
O O15 0.271498 0.500000 0.569903
O O16 0.246886 0.067980 0.336663
O O17 0.500000 0.000000 0.313239
O O18 0.000000 0.366983 0.838952
O O19 0.215768 0.321976 0.946001
O O20 0.000000 0.750305 0.013613
#
# Coordination Sequence:
#
# PCOD8178668 Si02
#       8
#     4   8   8   8   8   4   8   8
#     4  11  21  31  53  90 125 160 201 255 318 378
#     4  11  25  43  65  91 125 167 208 262 327 390
#     4  10  19  35  57  83 121 164 205 253 312 370
#     4   9  17  30  53  83 113 148 192 243 293 349
#     4   9  20  39  59  81 114 155 198 250 312 375
#     4  11  23  39  63  98 137 170 211 273 338 390
#     4  11  24  43  69  98 129 171 223 271 325 389
#     4  10  23  42  64  89 123 166 213 263 311 379
#
# _framework density 21.136122
#
# number of rings (size 3 to 8) (size 9 to 14) (size 15 to 20)
#    0.000    1.857    2.143    1.286    1.000    5.143 
#    0.000    4.286    0.000    0.000    0.000    0.000 
#    0.000    0.000    0.000    0.000    0.000    0.000 
#
# Total GULP energy -346875.065454 kJ/mol
# GULP energy per Si atom -12388.395195 kJ/mol
# Density = 2.108802 g / cm^3
# Si number density = 21.136122 Si / 1000 Ang^3
#
#
#
# Elastic Constant Matrix: (Units=GPa)
#
#
# Indices 1 2 3 4 5 6 
#
# 1 101.0963 33.9794 33.8496 0.0000 0.0000 0.0000
# 2 33.9794 63.5692 29.3551 0.0000 0.0000 0.0000
# 3 33.8496 29.3551 99.8097 0.0000 0.0000 0.0000
# 4 0.0000 0.0000 0.0000 44.1969 0.0000 0.0000
# 5 0.0000 0.0000 0.0000 0.0000 30.8249 0.0000
# 6 0.0000 0.0000 0.0000 0.0000 0.0000 30.1636
#
#
#
# Elastic Compliance Matrix: (Units=1/GPa)
#
#
# Indices 1 2 3 4 5 6 
#
# 1 0.012641 -0.005528 -0.002661 0.000000 0.000000 0.000000
# 2 -0.005528 0.020621 -0.004190 0.000000 0.000000 0.000000
# 3 -0.002661 -0.004190 0.012154 0.000000 0.000000 0.000000
# 4 0.000000 0.000000 0.000000 0.022626 0.000000 0.000000
# 5 0.000000 0.000000 0.000000 0.000000 0.032441 0.000000
# 6 0.000000 0.000000 0.000000 0.000000 0.000000 0.033153
#
#
# Mechanical properties :
#
#
# Convention : Reuss Voigt Hill
#
# Bulk Modulus (GPa) = 48.40972 50.98262 49.69617
# Shear Modulus (GPa) = 30.25199 32.18983 31.22091
#
# Velocity S-wave (km/s) = 3.78735 3.90677 3.84752
# Velocity P-wave (km/s) = 6.48682 6.67262 6.58038
#
# Compressibility (1/GPa) = 0.02065701
#
# Stress axis : x y z
#
# Youngs Moduli (GPa) = 79.11061 48.49539 82.27818
#
# Poissons Ratio (x) = 0.26807 0.21895
# Poissons Ratio (y) = 0.43731 0.34475
# Poissons Ratio (z) = 0.21052 0.20320
#
# Static dielectric constant tensor:
#      x y z
#    x 4.219640 0.000000 0.000000 
#    y 0.000000 3.582800 0.000000 
#    z 0.000000 0.000000 3.889430 
# 
# 
# High freq. dielectric constant tensor:
#      x y z
#    x 1.825030 0.000000 0.000000 
#    y 0.000000 1.815030 0.000000 
#    z 0.000000 0.000000 1.837070 
# 
# From -- ./inp_files/12488.got.cif
#   From: 2010.03.12/outbox.cif.g09.slc.cpg/sg38_7_cif.got.tgz:12488.got - 2010.04.14 02:38:36.
