data_PCOD8178035
_publ_section_title
;
Structure prediction by ZEFSAII (Michael W. Deem and Ramdas Pophale) SiO2 
 PCOD8178035
Probable space group: A M M 2
;
_chemical_formula_sum "Si O2"
_cell_formula_units_Z 64
_cell_length_a 8.989429
_cell_length_b 14.364625
_cell_length_c 27.996137
_cell_angle_alpha 90.000000
_cell_angle_beta 90.000000
_cell_angle_gamma 90.000000
_cell_volume 3615.134915
_symmetry_space_group_name_H-M "A M M 2"
_symmetry_group_IT_number 38
_symmetry_cell_setting 'orthorhombic'
loop_
_space_group_symop_operation_xyz
x,y,z
-x,-y,z
-x,y,z
x,-y,z
x,1/2+y,1/2+z
-x,1/2-y,1/2+z
-x,1/2+y,1/2+z
x,1/2-y,1/2+z
loop_
_atom_site_type_symbol
_atom_site_label
_atom_site_fract_x
_atom_site_fract_y
_atom_site_fract_z
Si Si1 0.828669 0.608444 0.157090
Si Si2 0.174503 0.396498 0.428401
Si Si3 0.675831 0.223210 0.739294
Si Si4 0.329545 0.607884 0.601848
Si Si5 0.172280 0.607446 0.319114
Si Si6 0.175199 0.393429 0.699453
Si Si7 0.329210 0.104180 0.559636
Si Si8 0.328138 0.285168 0.508693
O O1 0.807213 0.500000 0.168460
O O2 0.731213 0.665049 0.194205
O O3 0.773892 0.631773 0.103981
O O4 0.000000 0.638541 0.162016
O O5 0.236365 0.500000 0.440835
O O6 0.213192 0.371697 0.373917
O O7 0.243819 0.318209 0.461826
O O8 0.000000 0.396031 0.436146
O O9 0.500000 0.230989 0.738045
O O10 0.724902 0.173792 0.787886
O O11 0.745286 0.327010 0.737936
O O12 0.500000 0.635047 0.613627
O O13 0.313551 0.500000 0.589695
O O14 0.229023 0.636288 0.646736
O O15 0.268999 0.662687 0.555914
O O16 0.205549 0.500000 0.306594
O O17 0.000000 0.629606 0.308500
O O18 0.221166 0.500000 0.710470
O O19 0.000000 0.379306 0.702444
O O20 0.500000 0.112570 0.576813
O O21 0.298898 0.174894 0.515955
O O22 0.293087 0.000000 0.541317
O O23 0.500000 0.308712 0.501042
#
# Coordination Sequence:
#
# PCOD8178035 Si02
#       8
#     8   8   8   8   8   8   8   8
#     4  10  20  33  50  74 104 136 170 209 251 296
#     4   9  19  35  54  76 101 128 158 198 250 301
#     4  12  23  33  51  77 103 133 168 205 248 300
#     4   9  17  29  45  69 102 134 164 203 250 297
#     4   9  19  37  57  76 101 130 160 200 251 303
#     4  10  21  36  53  73  99 134 174 213 251 291
#     4   9  18  32  48  69 101 138 173 209 248 290
#     4  10  19  30  48  73  99 131 169 205 245 294
#
# _framework density 17.703351000000001
#
# number of rings (size 3 to 8) (size 9 to 14) (size 15 to 20)
#    0.000    2.250    0.000    4.125    0.000    6.500 
#    0.000    2.500    0.000    0.750    0.000    3.500 
#    0.000    0.000    0.000    0.000    0.000    0.000 
#
# Total GULP energy -396850.435122 kJ/mol
# GULP energy per Si atom -12401.576098 kJ/mol
# Density = 1.766306 g / cm^3
# Si number density = 17.703351 Si / 1000 Ang^3
#
#
#
# Elastic Constant Matrix: (Units=GPa)
#
#
# Indices 1 2 3 4 5 6 
#
# 1 87.0760 49.4622 52.0198 0.0000 0.0000 0.0000
# 2 49.4622 101.4818 71.6073 0.0000 0.0000 0.0000
# 3 52.0198 71.6073 95.8723 0.0000 0.0000 0.0000
# 4 0.0000 0.0000 0.0000 26.7137 0.0000 0.0000
# 5 0.0000 0.0000 0.0000 0.0000 24.6815 0.0000
# 6 0.0000 0.0000 0.0000 0.0000 0.0000 26.2213
#
#
#
# Elastic Compliance Matrix: (Units=1/GPa)
#
#
# Indices 1 2 3 4 5 6 
#
# 1 0.017697 -0.003911 -0.006681 0.000000 0.000000 0.000000
# 2 -0.003911 0.021699 -0.014084 0.000000 0.000000 0.000000
# 3 -0.006681 -0.014084 0.024575 0.000000 0.000000 0.000000
# 4 0.000000 0.000000 0.000000 0.037434 0.000000 0.000000
# 5 0.000000 0.000000 0.000000 0.000000 0.040516 0.000000
# 6 0.000000 0.000000 0.000000 0.000000 0.000000 0.038137
#
#
# Mechanical properties :
#
#
# Convention : Reuss Voigt Hill
#
# Bulk Modulus (GPa) = 68.41109 70.06762 69.23935
# Shear Modulus (GPa) = 21.34156 22.94603 22.14380
#
# Velocity S-wave (km/s) = 3.47581 3.60410 3.54054
# Velocity P-wave (km/s) = 7.40508 7.54878 7.47728
#
# Compressibility (1/GPa) = 0.01461751
#
# Stress axis : x y z
#
# Youngs Moduli (GPa) = 56.50572 46.08587 40.69125
#
# Poissons Ratio (x) = 0.18026 0.27186
# Poissons Ratio (y) = 0.22102 0.57311
# Poissons Ratio (z) = 0.37751 0.64909
#
# Static dielectric constant tensor:
#      x y z
#    x 3.282910 0.000000 0.000000 
#    y 0.000000 3.499400 0.000000 
#    z 0.000000 0.000000 3.125610 
# 
# 
# High freq. dielectric constant tensor:
#      x y z
#    x 1.684270 0.000000 0.000000 
#    y 0.000000 1.691290 0.000000 
#    z 0.000000 0.000000 1.661900 
# 
# From -- ./inp_files/24772.got.cif
#   From: 2010.03.12/outbox.cif.g09.slc.cpg/sg38_13_cif.got.tgz:24772.got - 2010.04.14 02:38:36.
