data_PCOD8178388
_publ_section_title
;
Structure prediction by ZEFSAII (Michael W. Deem and Ramdas Pophale) SiO2 
 PCOD8178388
Probable space group: A M M 2
;
_chemical_formula_sum "Si O2"
_cell_formula_units_Z 64
_cell_length_a 14.374063
_cell_length_b 18.920898
_cell_length_c 12.119980
_cell_angle_alpha 90.000000
_cell_angle_beta 90.000000
_cell_angle_gamma 90.000000
_cell_volume 3296.273141
_symmetry_space_group_name_H-M "A M M 2"
_symmetry_group_IT_number 38
_symmetry_cell_setting 'orthorhombic'
loop_
_space_group_symop_operation_xyz
x,y,z
-x,-y,z
-x,y,z
x,-y,z
x,1/2+y,1/2+z
-x,1/2-y,1/2+z
-x,1/2+y,1/2+z
x,1/2-y,1/2+z
loop_
_atom_site_type_symbol
_atom_site_label
_atom_site_fract_x
_atom_site_fract_y
_atom_site_fract_z
Si Si1 0.602949 0.580970 0.613040
Si Si2 0.780702 0.170870 0.078391
Si Si3 0.101873 0.578052 0.004764
Si Si4 0.108412 0.305620 0.356782
Si Si5 0.340835 0.579965 0.854254
Si Si6 0.844311 0.647406 0.806166
Si Si7 0.603485 0.419248 0.097242
Si Si8 0.772526 0.329975 0.150323
O O1 0.500000 0.602672 0.567942
O O2 0.625229 0.500000 0.580528
O O3 0.683769 0.629317 0.559087
O O4 0.596474 0.588896 0.745614
O O5 0.844133 0.134419 0.174077
O O6 0.755182 0.248452 0.123248
O O7 0.843280 0.170957 0.970074
O O8 0.139267 0.500000 0.032351
O O9 0.173164 0.635394 0.048977
O O10 0.000000 0.588663 0.057068
O O11 0.095326 0.589020 0.871842
O O12 0.113377 0.222327 0.339876
O O13 0.165464 0.343226 0.258880
O O14 0.000000 0.329281 0.356515
O O15 0.298777 0.500000 0.857146
O O16 0.261345 0.639309 0.848602
O O17 0.398025 0.594617 0.965515
O O18 0.500000 0.403097 0.141379
O O19 0.631678 0.500000 0.122561
O O20 0.673290 0.368183 0.163492
#
# Coordination Sequence:
#
# PCOD8178388 Si02
#       8
#     8   8   8   8   8   8   8   8
#     4   9  18  34  57  85 116 151 192 237 291 356
#     4  10  22  37  59  86 115 153 198 242 293 346
#     4  11  21  34  57  87 117 151 194 245 296 345
#     4  11  23  39  58  79 111 156 202 243 288 352
#     4   9  15  28  52  84 120 151 180 225 287 351
#     4  10  19  33  55  85 117 148 187 239 295 339
#     4  10  19  32  55  85 116 152 191 236 291 345
#     4  11  22  38  57  83 120 155 196 239 293 350
#
# _framework density 19.415866000000001
#
# number of rings (size 3 to 8) (size 9 to 14) (size 15 to 20)
#    0.000    1.875    2.500    1.875    0.000    5.000 
#    0.000    1.875    0.000    4.125    0.000    0.000 
#    0.000    0.000    0.000    0.000    0.000    0.000 
#
# Total GULP energy -396573.608447 kJ/mol
# GULP energy per Si atom -12392.925264 kJ/mol
# Density = 1.937167 g / cm^3
# Si number density = 19.415866 Si / 1000 Ang^3
#
#
#
# Elastic Constant Matrix: (Units=GPa)
#
#
# Indices 1 2 3 4 5 6 
#
# 1 139.6463 48.9846 50.8232 0.0000 0.0000 0.0000
# 2 48.9846 61.5129 26.4978 0.0000 0.0000 0.0000
# 3 50.8232 26.4978 88.6882 0.0000 0.0000 0.0000
# 4 0.0000 0.0000 0.0000 21.7340 0.0000 0.0000
# 5 0.0000 0.0000 0.0000 0.0000 23.9711 0.0000
# 6 0.0000 0.0000 0.0000 0.0000 0.0000 40.0772
#
#
#
# Elastic Compliance Matrix: (Units=1/GPa)
#
#
# Indices 1 2 3 4 5 6 
#
# 1 0.011210 -0.007070 -0.004312 0.000000 0.000000 0.000000
# 2 -0.007070 0.023116 -0.002855 0.000000 0.000000 0.000000
# 3 -0.004312 -0.002855 0.014599 0.000000 0.000000 0.000000
# 4 0.000000 0.000000 0.000000 0.046011 0.000000 0.000000
# 5 0.000000 0.000000 0.000000 0.000000 0.041717 0.000000
# 6 0.000000 0.000000 0.000000 0.000000 0.000000 0.024952
#
#
# Mechanical properties :
#
#
# Convention : Reuss Voigt Hill
#
# Bulk Modulus (GPa) = 48.89356 60.27318 54.58337
# Shear Modulus (GPa) = 25.39408 28.05925 26.72667
#
# Velocity S-wave (km/s) = 3.62042 3.80567 3.71420
# Velocity P-wave (km/s) = 6.53556 7.10081 6.82404
#
# Compressibility (1/GPa) = 0.02045259
#
# Stress axis : x y z
#
# Youngs Moduli (GPa) = 89.20613 43.25925 68.49577
#
# Poissons Ratio (x) = 0.30582 0.29534
# Poissons Ratio (y) = 0.63064 0.19558
# Poissons Ratio (z) = 0.38463 0.12352
#
# Static dielectric constant tensor:
#      x y z
#    x 3.591790 0.000000 0.000000 
#    y 0.000000 3.437730 0.000000 
#    z 0.000000 0.000000 3.532050 
# 
# 
# High freq. dielectric constant tensor:
#      x y z
#    x 1.760640 0.000000 0.000000 
#    y 0.000000 1.740870 0.000000 
#    z 0.000000 0.000000 1.738890 
# 
# From -- ./inp_files/10243.got.cif
#   From: 2010.03.12/outbox.cif.g09.slc.cpg/sg38_6_cif.got.tgz:10243.got - 2010.04.14 02:38:36.
