data_PCOD8178531
_publ_section_title
;
Structure prediction by ZEFSAII (Michael W. Deem and Ramdas Pophale) SiO2 
 PCOD8178531
Probable space group: A M M 2
;
_chemical_formula_sum "Si O2"
_cell_formula_units_Z 34
_cell_length_a 8.120816
_cell_length_b 8.047173
_cell_length_c 26.930609
_cell_angle_alpha 90.000000
_cell_angle_beta 90.000000
_cell_angle_gamma 90.000000
_cell_volume 1759.904829
_symmetry_space_group_name_H-M "A M M 2"
_symmetry_group_IT_number 38
_symmetry_cell_setting 'orthorhombic'
loop_
_space_group_symop_operation_xyz
x,y,z
-x,-y,z
-x,y,z
x,-y,z
x,1/2+y,1/2+z
-x,1/2-y,1/2+z
-x,1/2+y,1/2+z
x,1/2-y,1/2+z
loop_
_atom_site_type_symbol
_atom_site_label
_atom_site_fract_x
_atom_site_fract_y
_atom_site_fract_z
Si Si1 0.000000 0.818986 0.885320
Si Si2 0.000000 0.500000 0.480815
Si Si3 0.310653 0.684667 0.130495
Si Si4 0.319124 0.304918 0.832631
Si Si5 0.819045 0.500000 0.576244
Si Si6 0.811487 0.312372 0.730319
O O1 0.829096 0.732649 0.870406
O O2 0.000000 0.836369 0.945571
O O3 0.000000 0.000000 0.859624
O O4 0.837977 0.500000 0.516225
O O5 0.500000 0.699683 0.144580
O O6 0.270275 0.500000 0.108359
O O7 0.270715 0.829740 0.091298
O O8 0.211262 0.702389 0.181515
O O9 0.500000 0.238142 0.850942
O O10 0.325476 0.500000 0.827355
O O11 0.285921 0.234378 0.777221
O O12 0.000000 0.500000 0.602178
O O13 0.752338 0.500000 0.717663
O O14 0.000000 0.311673 0.747038
#
# Coordination Sequence:
#
# PCOD8178531 Si02
#       6
#     4   2   8   8   4   8
#     4  10  21  41  61  85 118 154 206 263 318 367
#     4   8  24  44  66  86 110 158 216 258 328 384
#     4  11  23  37  58  91 130 167 205 252 312 379
#     4  10  20  36  61  91 126 167 209 252 308 374
#     4  10  21  43  66  86 115 163 208 264 322 370
#     4  10  19  33  56  88 126 172 211 248 302 369
#
# _framework density 19.319226
#
# number of rings (size 3 to 8) (size 9 to 14) (size 15 to 20)
#    0.706    1.176    2.353    2.118    0.000    4.235 
#    0.000    4.706    0.000    2.824    0.000    0.000 
#    0.000    0.000    0.000    0.000    0.000    0.000 
#
# Total GULP energy -210636.066912 kJ/mol
# GULP energy per Si atom -12390.356877 kJ/mol
# Density = 1.927525 g / cm^3
# Si number density = 19.319226 Si / 1000 Ang^3
#
#
#
# Elastic Constant Matrix: (Units=GPa)
#
#
# Indices 1 2 3 4 5 6 
#
# 1 120.2005 30.9356 44.5380 0.0000 0.0000 0.0000
# 2 30.9356 93.7460 37.7352 0.0000 0.0000 0.0000
# 3 44.5380 37.7352 121.3691 0.0000 0.0000 0.0000
# 4 0.0000 0.0000 0.0000 24.1077 0.0000 0.0000
# 5 0.0000 0.0000 0.0000 0.0000 11.7098 0.0000
# 6 0.0000 0.0000 0.0000 0.0000 0.0000 24.5244
#
#
#
# Elastic Compliance Matrix: (Units=1/GPa)
#
#
# Indices 1 2 3 4 5 6 
#
# 1 0.009970 -0.002077 -0.003013 0.000000 0.000000 0.000000
# 2 -0.002077 0.012626 -0.003163 0.000000 0.000000 0.000000
# 3 -0.003013 -0.003163 0.010328 0.000000 0.000000 0.000000
# 4 0.000000 0.000000 0.000000 0.041480 0.000000 0.000000
# 5 0.000000 0.000000 0.000000 0.000000 0.085399 0.000000
# 6 0.000000 0.000000 0.000000 0.000000 0.000000 0.040776
#
#
# Mechanical properties :
#
#
# Convention : Reuss Voigt Hill
#
# Bulk Modulus (GPa) = 60.90970 62.41481 61.66225
# Shear Modulus (GPa) = 22.46592 26.87551 24.67071
#
# Velocity S-wave (km/s) = 3.41380 3.73383 3.57740
# Velocity P-wave (km/s) = 6.86551 7.13904 7.00361
#
# Compressibility (1/GPa) = 0.01641775
#
# Stress axis : x y z
#
# Youngs Moduli (GPa) = 100.29627 79.20206 96.82011
#
# Poissons Ratio (x) = 0.16454 0.29171
# Poissons Ratio (y) = 0.20836 0.30626
# Poissons Ratio (z) = 0.30218 0.25053
#
# Static dielectric constant tensor:
#      x y z
#    x 3.782860 0.000000 0.000000 
#    y 0.000000 3.491460 0.000000 
#    z 0.000000 0.000000 3.187860 
# 
# 
# High freq. dielectric constant tensor:
#      x y z
#    x 1.761930 0.000000 0.000000 
#    y 0.000000 1.743710 0.000000 
#    z 0.000000 0.000000 1.719880 
# 
# From -- ./inp_files/23181.got.cif
#   From: 2010.03.12/outbox.cif.g09.slc.cpg/sg38_12_cif.got.tgz:23181.got - 2010.04.14 02:38:36.
