data_PCOD8178574
_publ_section_title
;
Structure prediction by ZEFSAII (Michael W. Deem and Ramdas Pophale) SiO2 
 PCOD8178574
Probable space group: A M M 2
;
_chemical_formula_sum "Si O2"
_cell_formula_units_Z 56
_cell_length_a 16.617514
_cell_length_b 21.639658
_cell_length_c 7.937838
_cell_angle_alpha 90.000000
_cell_angle_beta 90.000000
_cell_angle_gamma 90.000000
_cell_volume 2854.425270
_symmetry_space_group_name_H-M "A M M 2"
_symmetry_group_IT_number 38
_symmetry_cell_setting 'orthorhombic'
loop_
_space_group_symop_operation_xyz
x,y,z
-x,-y,z
-x,y,z
x,-y,z
x,1/2+y,1/2+z
-x,1/2-y,1/2+z
-x,1/2+y,1/2+z
x,1/2-y,1/2+z
loop_
_atom_site_type_symbol
_atom_site_label
_atom_site_fract_x
_atom_site_fract_y
_atom_site_fract_z
Si Si1 0.188500 0.069417 0.721580
Si Si2 0.734227 0.876130 0.390634
Si Si3 0.354138 0.689805 0.425234
Si Si4 0.090776 0.816111 0.743097
Si Si5 0.302021 0.930397 0.043991
Si Si6 0.188035 0.254921 0.967606
Si Si7 0.590527 0.187080 0.550648
O O1 0.239089 0.085512 0.554531
O O2 0.108418 0.111005 0.739859
O O3 0.157001 0.000000 0.704701
O O4 0.239878 0.077911 0.890872
O O5 0.739404 0.919472 0.226000
O O6 0.790107 0.815917 0.356583
O O7 0.642051 0.852742 0.417776
O O8 0.369825 0.622767 0.512994
O O9 0.263905 0.709565 0.477467
O O10 0.415593 0.741069 0.494563
O O11 0.362994 0.682555 0.226344
O O12 0.106553 0.783058 0.921423
O O13 0.164329 0.782155 0.647816
O O14 0.000000 0.804955 0.679698
O O15 0.338619 0.000000 0.040826
O O16 0.500000 0.160576 0.562522
#
# Coordination Sequence:
#
# PCOD8178574 Si02
#       7
#     8   8   8   8   8   8   8
#     4  10  21  38  59  84 113 153 205 247 283 347
#     4  10  20  38  62  86 115 150 198 251 292 346
#     4  11  19  37  58  86 118 155 197 244 294 356
#     4  11  21  34  54  83 118 153 188 244 309 352
#     4  11  21  35  61  87 110 150 203 247 284 339
#     4  10  19  34  55  83 111 150 194 238 293 359
#     4  11  22  36  61  91 121 152 188 252 316 356
#
# _framework density 19.618659999999998
#
# number of rings (size 3 to 8) (size 9 to 14) (size 15 to 20)
#    0.000    1.429    2.857    5.571    0.000    0.286 
#    0.000    0.714    0.000    6.857    0.000    2.000 
#    0.000    0.000    0.000    0.000    0.000    0.000 
#
# Total GULP energy -346960.375502 kJ/mol
# GULP energy per Si atom -12391.441982 kJ/mol
# Density = 1.957401 g / cm^3
# Si number density = 19.618660 Si / 1000 Ang^3
#
#
#
# Elastic Constant Matrix: (Units=GPa)
#
#
# Indices 1 2 3 4 5 6 
#
# 1 92.5211 26.9838 15.6245 0.0000 0.0000 0.0000
# 2 26.9838 128.6519 36.5045 0.0000 0.0000 0.0000
# 3 15.6245 36.5045 98.8522 0.0000 0.0000 0.0000
# 4 0.0000 0.0000 0.0000 25.7429 0.0000 0.0000
# 5 0.0000 0.0000 0.0000 0.0000 15.1790 0.0000
# 6 0.0000 0.0000 0.0000 0.0000 0.0000 17.2397
#
#
#
# Elastic Compliance Matrix: (Units=1/GPa)
#
#
# Indices 1 2 3 4 5 6 
#
# 1 0.011608 -0.002138 -0.001045 0.000000 0.000000 0.000000
# 2 -0.002138 0.009077 -0.003014 0.000000 0.000000 0.000000
# 3 -0.001045 -0.003014 0.011394 0.000000 0.000000 0.000000
# 4 0.000000 0.000000 0.000000 0.038846 0.000000 0.000000
# 5 0.000000 0.000000 0.000000 0.000000 0.065880 0.000000
# 6 0.000000 0.000000 0.000000 0.000000 0.000000 0.058006
#
#
# Mechanical properties :
#
#
# Convention : Reuss Voigt Hill
#
# Bulk Modulus (GPa) = 50.80081 53.13898 51.96990
# Shear Modulus (GPa) = 23.38992 27.69314 25.54153
#
# Velocity S-wave (km/s) = 3.45661 3.76116 3.61210
# Velocity P-wave (km/s) = 6.47157 6.78281 6.62902
#
# Compressibility (1/GPa) = 0.01968473
#
# Stress axis : x y z
#
# Youngs Moduli (GPa) = 86.14406 110.17387 87.76321
#
# Poissons Ratio (x) = 0.23557 0.09173
# Poissons Ratio (y) = 0.18419 0.26451
# Poissons Ratio (z) = 0.09004 0.33205
#
# Static dielectric constant tensor:
#      x y z
#    x 3.131490 0.000000 0.000000 
#    y 0.000000 3.915220 0.000000 
#    z 0.000000 0.000000 3.637720 
# 
# 
# High freq. dielectric constant tensor:
#      x y z
#    x 1.724120 0.000000 0.000000 
#    y 0.000000 1.770020 0.000000 
#    z 0.000000 0.000000 1.776540 
# 
# From -- ./inp_files/6412.got.cif
#   From: 2010.03.12/outbox.cif.g09.slc.cpg/sg38_4_cif.got.tgz:6412.got - 2010.04.14 02:38:36.
