data_PCOD8178471
_publ_section_title
;
Structure prediction by ZEFSAII (Michael W. Deem and Ramdas Pophale) SiO2 
 PCOD8178471
Probable space group: A M M 2
;
_chemical_formula_sum "Si O2"
_cell_formula_units_Z 56
_cell_length_a 8.689387
_cell_length_b 23.240868
_cell_length_c 13.976366
_cell_angle_alpha 90.000000
_cell_angle_beta 90.000000
_cell_angle_gamma 90.000000
_cell_volume 2822.511688
_symmetry_space_group_name_H-M "A M M 2"
_symmetry_group_IT_number 38
_symmetry_cell_setting 'orthorhombic'
loop_
_space_group_symop_operation_xyz
x,y,z
-x,-y,z
-x,y,z
x,-y,z
x,1/2+y,1/2+z
-x,1/2-y,1/2+z
-x,1/2+y,1/2+z
x,1/2-y,1/2+z
loop_
_atom_site_type_symbol
_atom_site_label
_atom_site_fract_x
_atom_site_fract_y
_atom_site_fract_z
Si Si1 0.316815 0.107800 0.251960
Si Si2 0.679467 0.500000 0.433578
Si Si3 0.182944 0.661466 0.925313
Si Si4 0.177542 0.836637 0.640282
Si Si5 0.818196 0.500000 0.642603
Si Si6 0.322973 0.780763 0.144928
Si Si7 0.178181 0.106326 0.829244
Si Si8 0.320485 0.782991 0.921850
O O1 0.500000 0.102924 0.252917
O O2 0.250451 0.110039 0.360006
O O3 0.252179 0.164706 0.199393
O O4 0.249509 0.054857 0.194863
O O5 0.500000 0.500000 0.458733
O O6 0.773277 0.500000 0.531517
O O7 0.717578 0.443950 0.371394
O O8 0.257666 0.721103 0.888176
O O9 0.000000 0.664538 0.916848
O O10 0.238534 0.647735 0.034073
O O11 0.253962 0.778989 0.682352
O O12 0.207891 0.888873 0.714447
O O13 0.000000 0.821743 0.632571
O O14 0.000000 0.500000 0.651152
O O15 0.500000 0.777507 0.170049
O O16 0.290757 0.789546 0.033818
O O17 0.221990 0.167153 0.874033
O O18 0.000000 0.092631 0.850814
O O19 0.500000 0.788445 0.894997
#
# Coordination Sequence:
#
# PCOD8178471 Si02
#       8
#     8   4   8   8   4   8   8   8
#     4  11  22  38  59  85 116 152 192 239 288 338
#     4  12  26  44  63  86 115 148 185 232 284 340
#     4  10  20  36  56  83 117 154 194 238 286 342
#     4   9  20  36  56  82 115 150 188 235 285 334
#     4  12  26  44  65  88 113 148 189 232 280 338
#     4   9  19  33  53  81 115 150 185 226 281 342
#     4  11  22  38  59  84 112 149 194 240 288 343
#     4  10  19  33  54  84 118 153 189 234 292 350
#
# _framework density 19.840485000000001
#
# number of rings (size 3 to 8) (size 9 to 14) (size 15 to 20)
#    0.000    1.714    0.000    4.714    0.000    6.857 
#    0.000    0.714    0.000    1.714    0.000    0.000 
#    0.000    0.000    0.000    0.000    0.000    0.000 
#
# Total GULP energy -347239.310004 kJ/mol
# GULP energy per Si atom -12401.403929 kJ/mol
# Density = 1.979533 g / cm^3
# Si number density = 19.840485 Si / 1000 Ang^3
#
#
#
# Elastic Constant Matrix: (Units=GPa)
#
#
# Indices 1 2 3 4 5 6 
#
# 1 61.9142 18.5816 29.1998 0.0000 0.0000 0.0000
# 2 18.5816 84.8495 66.6423 0.0000 0.0000 0.0000
# 3 29.1998 66.6423 89.5902 0.0000 0.0000 0.0000
# 4 0.0000 0.0000 0.0000 33.0981 0.0000 0.0000
# 5 0.0000 0.0000 0.0000 0.0000 28.3079 0.0000
# 6 0.0000 0.0000 0.0000 0.0000 0.0000 138.5584
#
#
#
# Elastic Compliance Matrix: (Units=1/GPa)
#
#
# Indices 1 2 3 4 5 6 
#
# 1 0.019187 0.001707 -0.007524 0.000000 0.000000 0.000000
# 2 0.001707 0.028499 -0.021755 0.000000 0.000000 0.000000
# 3 -0.007524 -0.021755 0.029797 0.000000 0.000000 0.000000
# 4 0.000000 0.000000 0.000000 0.030213 0.000000 0.000000
# 5 0.000000 0.000000 0.000000 0.000000 0.035326 0.000000
# 6 0.000000 0.000000 0.000000 0.000000 0.000000 0.007217
#
#
# Mechanical properties :
#
#
# Convention : Reuss Voigt Hill
#
# Bulk Modulus (GPa) = 44.76380 51.68903 48.22641
# Shear Modulus (GPa) = 23.49299 48.12157 35.80728
#
# Velocity S-wave (km/s) = 3.44480 4.93020 4.25285
# Velocity P-wave (km/s) = 6.19944 7.64971 6.96244
#
# Compressibility (1/GPa) = 0.02233948
#
# Stress axis : x y z
#
# Youngs Moduli (GPa) = 52.11794 35.08916 33.56040
#
# Poissons Ratio (x) = -0.05991 0.25249
# Poissons Ratio (y) = -0.08898 0.73012
# Poissons Ratio (z) = 0.39211 0.76338
#
# Static dielectric constant tensor:
#      x y z
#    x 3.612390 0.000000 0.000000 
#    y 0.000000 3.674490 0.000000 
#    z 0.000000 0.000000 3.986320 
# 
# 
# High freq. dielectric constant tensor:
#      x y z
#    x 1.778950 0.000000 0.000000 
#    y 0.000000 1.756390 0.000000 
#    z 0.000000 0.000000 1.793060 
# 
# From -- ./inp_files/12502.got.cif
#   From: 2010.03.12/outbox.cif.g09.slc.cpg/sg38_7_cif.got.tgz:12502.got - 2010.04.14 02:38:36.
