data_PCOD8178728
_publ_section_title
;
Structure prediction by ZEFSAII (Michael W. Deem and Ramdas Pophale) SiO2 
 PCOD8178728
Probable space group: A M M 2
;
_chemical_formula_sum "Si O2"
_cell_formula_units_Z 64
_cell_length_a 17.623253
_cell_length_b 14.979036
_cell_length_c 12.016097
_cell_angle_alpha 90.000000
_cell_angle_beta 90.000000
_cell_angle_gamma 90.000000
_cell_volume 3172.001369
_symmetry_space_group_name_H-M "A M M 2"
_symmetry_group_IT_number 38
_symmetry_cell_setting 'orthorhombic'
loop_
_space_group_symop_operation_xyz
x,y,z
-x,-y,z
-x,y,z
x,-y,z
x,1/2+y,1/2+z
-x,1/2-y,1/2+z
-x,1/2+y,1/2+z
x,1/2-y,1/2+z
loop_
_atom_site_type_symbol
_atom_site_label
_atom_site_fract_x
_atom_site_fract_y
_atom_site_fract_z
Si Si1 0.720624 0.603322 0.561930
Si Si2 0.088169 0.100482 0.523672
Si Si3 0.417121 0.099681 0.914326
Si Si4 0.162947 0.598550 0.252329
Si Si5 0.583765 0.898474 0.467201
Si Si6 0.316401 0.821621 0.282729
Si Si7 0.185021 0.761016 0.927575
Si Si8 0.334846 0.861897 0.692843
O O1 0.738875 0.500000 0.526082
O O2 0.646081 0.641412 0.496457
O O3 0.710940 0.602213 0.696087
O O4 0.786409 0.674204 0.527911
O O5 0.102863 0.110188 0.654252
O O6 0.130212 0.181776 0.463998
O O7 0.000000 0.111994 0.498559
O O8 0.114741 0.000000 0.484584
O O9 0.500000 0.148778 0.921821
O O10 0.387412 0.095961 0.787917
O O11 0.429622 0.000000 0.956247
O O12 0.154924 0.500000 0.305840
O O13 0.142012 0.673231 0.342706
O O14 0.248258 0.608016 0.206484
O O15 0.500000 0.861978 0.497901
O O16 0.612786 0.847884 0.358199
O O17 0.639248 0.891359 0.571689
O O18 0.579811 0.000000 0.430030
O O19 0.252297 0.789263 0.366021
O O20 0.342890 0.743990 0.199995
#
# Coordination Sequence:
#
# PCOD8178728 Si02
#       8
#     8   8   8   8   8   8   8   8
#     4  11  22  39  61  88 123 162 208 259 310 374
#     4  10  23  42  64  93 127 163 200 244 306 375
#     4  10  20  35  57  85 118 160 208 260 316 367
#     4  10  19  35  64  93 122 154 195 252 307 364
#     4  11  24  39  54  75 109 154 202 254 313 370
#     4  11  23  38  55  85 116 153 201 254 305 364
#     4  11  21  39  63  93 120 155 205 249 303 363
#     4  11  21  36  60  86 115 151 206 258 311 366
#
# _framework density 20.176537
#
# number of rings (size 3 to 8) (size 9 to 14) (size 15 to 20)
#    0.000    1.375    2.500    5.250    0.000    5.000 
#    0.000    1.250    0.000    1.125    0.000    0.000 
#    0.000    0.000    0.000    0.000    0.000    0.000 
#
# Total GULP energy -396590.970299 kJ/mol
# GULP energy per Si atom -12393.467822 kJ/mol
# Density = 2.013061 g / cm^3
# Si number density = 20.176537 Si / 1000 Ang^3
#
#
#
# Elastic Constant Matrix: (Units=GPa)
#
#
# Indices 1 2 3 4 5 6 
#
# 1 72.4746 54.9056 28.9560 0.0000 0.0000 0.0000
# 2 54.9056 128.1076 46.1308 0.0000 0.0000 0.0000
# 3 28.9560 46.1308 93.5752 0.0000 0.0000 0.0000
# 4 0.0000 0.0000 0.0000 49.8505 0.0000 0.0000
# 5 0.0000 0.0000 0.0000 0.0000 21.3870 0.0000
# 6 0.0000 0.0000 0.0000 0.0000 0.0000 23.6019
#
#
#
# Elastic Compliance Matrix: (Units=1/GPa)
#
#
# Indices 1 2 3 4 5 6 
#
# 1 0.020900 -0.008059 -0.002494 0.000000 0.000000 0.000000
# 2 -0.008059 0.012599 -0.003717 0.000000 0.000000 0.000000
# 3 -0.002494 -0.003717 0.013291 0.000000 0.000000 0.000000
# 4 0.000000 0.000000 0.000000 0.020060 0.000000 0.000000
# 5 0.000000 0.000000 0.000000 0.000000 0.046757 0.000000
# 6 0.000000 0.000000 0.000000 0.000000 0.000000 0.042369
#
#
# Mechanical properties :
#
#
# Convention : Reuss Voigt Hill
#
# Bulk Modulus (GPa) = 54.79950 61.57135 58.18542
# Shear Modulus (GPa) = 26.23292 29.91222 28.07257
#
# Velocity S-wave (km/s) = 3.60970 3.85453 3.73412
# Velocity P-wave (km/s) = 6.67774 7.09877 6.89147
#
# Compressibility (1/GPa) = 0.01824834
#
# Stress axis : x y z
#
# Youngs Moduli (GPa) = 47.84654 79.37403 75.24011
#
# Poissons Ratio (x) = 0.63971 0.18766
# Poissons Ratio (y) = 0.38562 0.27966
# Poissons Ratio (z) = 0.11934 0.29503
#
# Static dielectric constant tensor:
#      x y z
#    x 3.558290 0.000000 0.000000 
#    y 0.000000 3.956080 0.000000 
#    z 0.000000 0.000000 3.570790 
# 
# 
# High freq. dielectric constant tensor:
#      x y z
#    x 1.764000 0.000000 0.000000 
#    y 0.000000 1.805190 0.000000 
#    z 0.000000 0.000000 1.783300 
# 
# From -- ./inp_files/10603.got.cif
#   From: 2010.03.12/outbox.cif.g09.slc.cpg/sg38_6_cif.got.tgz:10603.got - 2010.04.14 02:38:36.
