data_PCOD8178325
_publ_section_title
;
Structure prediction by ZEFSAII (Michael W. Deem and Ramdas Pophale) SiO2 
 PCOD8178325
Probable space group: A M M 2
;
_chemical_formula_sum "Si O2"
_cell_formula_units_Z 56
_cell_length_a 14.116605
_cell_length_b 8.899723
_cell_length_c 25.649467
_cell_angle_alpha 90.000000
_cell_angle_beta 90.000000
_cell_angle_gamma 90.000000
_cell_volume 3222.441910
_symmetry_space_group_name_H-M "A M M 2"
_symmetry_group_IT_number 38
_symmetry_cell_setting 'orthorhombic'
loop_
_space_group_symop_operation_xyz
x,y,z
-x,-y,z
-x,y,z
x,-y,z
x,1/2+y,1/2+z
-x,1/2-y,1/2+z
-x,1/2+y,1/2+z
x,1/2-y,1/2+z
loop_
_atom_site_type_symbol
_atom_site_label
_atom_site_fract_x
_atom_site_fract_y
_atom_site_fract_z
Si Si1 0.389488 0.173893 0.601520
Si Si2 0.892642 0.323682 0.966096
Si Si3 0.390920 0.826317 0.208157
Si Si4 0.609841 0.825184 0.412454
Si Si5 0.715956 0.822827 0.007626
Si Si6 0.892518 0.826028 0.856398
Si Si7 0.276461 0.324092 0.809419
O O1 0.500000 0.204026 0.591626
O O2 0.360260 0.225921 0.659200
O O3 0.331606 0.271338 0.560812
O O4 0.363735 0.000000 0.594549
O O5 0.874174 0.500000 0.966979
O O6 0.869818 0.267008 0.908249
O O7 0.000000 0.282940 0.982272
O O8 0.822067 0.244178 0.006316
O O9 0.500000 0.799307 0.223123
O O10 0.328900 0.773158 0.257012
O O11 0.372864 0.000000 0.194311
O O12 0.500000 0.784015 0.408154
O O13 0.655151 0.730686 0.458638
O O14 0.657715 0.779952 0.358088
O O15 0.624932 0.000000 0.425321
O O16 0.722630 0.000000 0.006772
O O17 0.822383 0.766254 0.811718
O O18 0.000000 0.798802 0.837435
O O19 0.873772 0.000000 0.868433
O O20 0.254405 0.500000 0.808852
#
# Coordination Sequence:
#
# PCOD8178325 Si02
#       7
#     8   8   8   8   8   8   8
#     4  10  21  37  56  77 103 140 183 223 263 311
#     4  10  20  35  55  77 103 137 176 216 261 317
#     4   9  18  34  55  79 106 137 176 220 264 312
#     4  10  20  33  49  73 107 144 177 210 254 312
#     4  12  23  34  52  78 108 140 174 217 266 314
#     4  10  20  33  50  75 107 140 175 217 263 310
#     4  10  19  32  53  78 106 141 176 213 262 316
#
# _framework density 17.378124
#
# number of rings (size 3 to 8) (size 9 to 14) (size 15 to 20)
#    0.000    1.857    1.429    3.429    0.000    6.857 
#    0.000    0.000    0.000    3.429    0.000    4.000 
#    0.000    0.000    0.000    0.000    0.000    0.000 
#
# Total GULP energy -347311.840948 kJ/mol
# GULP energy per Si atom -12403.994320 kJ/mol
# Density = 1.733857 g / cm^3
# Si number density = 17.378124 Si / 1000 Ang^3
#
#
#
# Elastic Constant Matrix: (Units=GPa)
#
#
# Indices 1 2 3 4 5 6 
#
# 1 115.0788 56.9397 63.8889 0.0000 0.0000 0.0000
# 2 56.9397 85.5890 48.8772 0.0000 0.0000 0.0000
# 3 63.8889 48.8772 102.7895 0.0000 0.0000 0.0000
# 4 0.0000 0.0000 0.0000 28.7310 0.0000 0.0000
# 5 0.0000 0.0000 0.0000 0.0000 22.9147 0.0000
# 6 0.0000 0.0000 0.0000 0.0000 0.0000 27.6202
#
#
#
# Elastic Compliance Matrix: (Units=1/GPa)
#
#
# Indices 1 2 3 4 5 6 
#
# 1 0.015612 -0.006651 -0.006541 0.000000 0.000000 0.000000
# 2 -0.006651 0.018872 -0.004840 0.000000 0.000000 0.000000
# 3 -0.006541 -0.004840 0.016096 0.000000 0.000000 0.000000
# 4 0.000000 0.000000 0.000000 0.034806 0.000000 0.000000
# 5 0.000000 0.000000 0.000000 0.000000 0.043640 0.000000
# 6 0.000000 0.000000 0.000000 0.000000 0.000000 0.036205
#
#
# Mechanical properties :
#
#
# Convention : Reuss Voigt Hill
#
# Bulk Modulus (GPa) = 68.88942 71.42985 70.15964
# Shear Modulus (GPa) = 24.25612 24.76996 24.51304
#
# Velocity S-wave (km/s) = 3.74007 3.77948 3.75983
# Velocity P-wave (km/s) = 7.64057 7.76135 7.70120
#
# Compressibility (1/GPa) = 0.01451602
#
# Stress axis : x y z
#
# Youngs Moduli (GPa) = 64.05402 52.98772 62.12791
#
# Poissons Ratio (x) = 0.35240 0.40639
# Poissons Ratio (y) = 0.42600 0.30071
# Poissons Ratio (z) = 0.41899 0.25647
#
# Static dielectric constant tensor:
#      x y z
#    x 3.400830 0.000000 0.000000 
#    y 0.000000 3.260350 0.000000 
#    z 0.000000 0.000000 3.147480 
# 
# 
# High freq. dielectric constant tensor:
#      x y z
#    x 1.675660 0.000000 0.000000 
#    y 0.000000 1.677880 0.000000 
#    z 0.000000 0.000000 1.653890 
# 
# From -- ./inp_files/21017.got.cif
#   From: 2010.03.12/outbox.cif.g09.slc.cpg/sg38_11_cif.got.tgz:21017.got - 2010.04.14 02:38:36.
