data_PCOD8178095
_publ_section_title
;
Structure prediction by ZEFSAII (Michael W. Deem and Ramdas Pophale) SiO2 
 PCOD8178095
Probable space group: A M M 2
;
_chemical_formula_sum "Si O2"
_cell_formula_units_Z 64
_cell_length_a 14.053255
_cell_length_b 9.077292
_cell_length_c 31.056384
_cell_angle_alpha 90.000000
_cell_angle_beta 90.000000
_cell_angle_gamma 90.000000
_cell_volume 3961.723128
_symmetry_space_group_name_H-M "A M M 2"
_symmetry_group_IT_number 38
_symmetry_cell_setting 'orthorhombic'
loop_
_space_group_symop_operation_xyz
x,y,z
-x,-y,z
-x,y,z
x,-y,z
x,1/2+y,1/2+z
-x,1/2-y,1/2+z
-x,1/2+y,1/2+z
x,1/2-y,1/2+z
loop_
_atom_site_type_symbol
_atom_site_label
_atom_site_fract_x
_atom_site_fract_y
_atom_site_fract_z
Si Si1 0.890936 0.827262 0.920850
Si Si2 0.224416 0.171789 0.004460
Si Si3 0.218603 0.174133 0.666433
Si Si4 0.608229 0.829260 0.542783
Si Si5 0.113175 0.166391 0.336272
Si Si6 0.109262 0.327843 0.251874
Si Si7 0.608063 0.827900 0.132679
Si Si8 0.889369 0.670165 0.590328
O O1 0.848112 0.747017 0.878888
O O2 0.000000 0.780939 0.929339
O O3 0.883063 0.000000 0.912675
O O4 0.830245 0.776565 0.961813
O O5 0.321973 0.264865 0.006485
O O6 0.157678 0.209018 0.044823
O O7 0.249972 0.000000 0.002594
O O8 0.168353 0.222609 0.710451
O O9 0.322416 0.249798 0.666635
O O10 0.155816 0.228379 0.626702
O O11 0.230358 0.000000 0.663161
O O12 0.500000 0.806283 0.527056
O O13 0.628562 0.739663 0.586113
O O14 0.630067 0.000000 0.551650
O O15 0.152241 0.245153 0.293371
O O16 0.000000 0.176024 0.336044
O O17 0.150654 0.000000 0.336561
O O18 0.118930 0.500000 0.260790
O O19 0.000000 0.283254 0.243426
O O20 0.500000 0.798305 0.147518
O O21 0.631304 0.000000 0.129932
O O22 0.872291 0.500000 0.602568
O O23 0.000000 0.707665 0.586475
#
# Coordination Sequence:
#
# PCOD8178095 Si02
#       8
#     8   8   8   8   8   8   8   8
#     4   9  17  30  48  69  96 129 161 193 232 280
#     4  10  19  31  48  70  95 127 164 197 233 281
#     4  11  21  32  48  71  97 126 161 199 240 285
#     4  10  20  33  49  69  93 122 157 200 247 287
#     4   9  17  29  46  69  94 121 158 201 239 274
#     4   9  18  32  48  67  95 129 161 193 232 281
#     4  10  20  34  51  69  91 122 160 201 243 287
#     4  10  20  32  45  64  95 133 167 196 228 272
#
# _framework density 16.154586999999999
#
# number of rings (size 3 to 8) (size 9 to 14) (size 15 to 20)
#    0.000    2.250    1.250    2.250    0.000    6.750 
#    0.000    1.250    0.000    2.250    0.000    0.875 
#    0.000    7.000    0.000    0.000    0.000    0.000 
#
# Total GULP energy -396864.265185 kJ/mol
# GULP energy per Si atom -12402.008287 kJ/mol
# Density = 1.611782 g / cm^3
# Si number density = 16.154587 Si / 1000 Ang^3
#
#
#
# Elastic Constant Matrix: (Units=GPa)
#
#
# Indices 1 2 3 4 5 6 
#
# 1 95.7607 47.6118 59.6603 0.0000 0.0000 0.0000
# 2 47.6118 79.5302 63.1738 0.0000 0.0000 0.0000
# 3 59.6603 63.1738 137.5748 0.0000 0.0000 0.0000
# 4 0.0000 0.0000 0.0000 27.3667 0.0000 0.0000
# 5 0.0000 0.0000 0.0000 0.0000 10.7244 0.0000
# 6 0.0000 0.0000 0.0000 0.0000 0.0000 25.6542
#
#
#
# Elastic Compliance Matrix: (Units=1/GPa)
#
#
# Indices 1 2 3 4 5 6 
#
# 1 0.016181 -0.006475 -0.004044 0.000000 0.000000 0.000000
# 2 -0.006475 0.022385 -0.007471 0.000000 0.000000 0.000000
# 3 -0.004044 -0.007471 0.012453 0.000000 0.000000 0.000000
# 4 0.000000 0.000000 0.000000 0.036541 0.000000 0.000000
# 5 0.000000 0.000000 0.000000 0.000000 0.093245 0.000000
# 6 0.000000 0.000000 0.000000 0.000000 0.000000 0.038980
#
#
# Mechanical properties :
#
#
# Convention : Reuss Voigt Hill
#
# Bulk Modulus (GPa) = 66.49217 72.63975 69.56596
# Shear Modulus (GPa) = 19.17336 22.24370 20.70853
#
# Velocity S-wave (km/s) = 3.44883 3.71472 3.58424
# Velocity P-wave (km/s) = 7.55702 7.96630 7.76436
#
# Compressibility (1/GPa) = 0.01503936
#
# Stress axis : x y z
#
# Youngs Moduli (GPa) = 61.79908 44.67333 80.30122
#
# Poissons Ratio (x) = 0.28926 0.32473
# Poissons Ratio (y) = 0.40015 0.59993
# Poissons Ratio (z) = 0.24991 0.33376
#
# Static dielectric constant tensor:
#      x y z
#    x 3.054450 0.000000 0.000000 
#    y 0.000000 3.097780 0.000000 
#    z 0.000000 0.000000 3.048890 
# 
# 
# High freq. dielectric constant tensor:
#      x y z
#    x 1.603680 0.000000 0.000000 
#    y 0.000000 1.628980 0.000000 
#    z 0.000000 0.000000 1.609040 
# 
# From -- ./inp_files/25029.got.cif
#   From: 2010.03.12/outbox.cif.g09.slc.cpg/sg38_13_cif.got.tgz:25029.got - 2010.04.14 02:38:36.
