data_PCOD8178952
_publ_section_title
;
Structure prediction by ZEFSAII (Michael W. Deem and Ramdas Pophale) SiO2 
 PCOD8178952
Probable space group: A M M 2
;
_chemical_formula_sum "Si O2"
_cell_formula_units_Z 64
_cell_length_a 9.420787
_cell_length_b 18.478122
_cell_length_c 20.639250
_cell_angle_alpha 90.000000
_cell_angle_beta 90.000000
_cell_angle_gamma 90.000000
_cell_volume 3592.848681
_symmetry_space_group_name_H-M "A M M 2"
_symmetry_group_IT_number 38
_symmetry_cell_setting 'orthorhombic'
loop_
_space_group_symop_operation_xyz
x,y,z
-x,-y,z
-x,y,z
x,-y,z
x,1/2+y,1/2+z
-x,1/2-y,1/2+z
-x,1/2+y,1/2+z
x,1/2-y,1/2+z
loop_
_atom_site_type_symbol
_atom_site_label
_atom_site_fract_x
_atom_site_fract_y
_atom_site_fract_z
Si Si1 0.832937 0.168086 0.424340
Si Si2 0.339339 0.085997 0.676446
Si Si3 0.834922 0.915252 0.800293
Si Si4 0.834681 0.584316 0.552301
Si Si5 0.666856 0.416852 0.816566
Si Si6 0.164199 0.915770 0.553235
Si Si7 0.831945 0.333401 0.427273
Si Si8 0.656797 0.585977 0.672351
O O1 0.753992 0.132557 0.364668
O O2 0.788505 0.128202 0.490162
O O3 0.782003 0.250725 0.428801
O O4 0.000000 0.161676 0.411983
O O5 0.500000 0.116375 0.677155
O O6 0.255314 0.113776 0.739467
O O7 0.258591 0.113880 0.612466
O O8 0.338782 0.000000 0.676288
O O9 0.775703 0.872596 0.862643
O O10 0.000000 0.898713 0.786522
O O11 0.810959 0.000000 0.812853
O O12 0.802012 0.500000 0.541948
O O13 0.770367 0.626332 0.490577
O O14 0.761951 0.615519 0.617251
O O15 0.000000 0.599483 0.560762
O O16 0.500000 0.407454 0.828921
O O17 0.711940 0.500000 0.827196
O O18 0.707310 0.390307 0.744004
O O19 0.000000 0.902157 0.570769
O O20 0.192951 0.000000 0.539341
O O21 0.000000 0.340564 0.428733
O O22 0.500000 0.617142 0.658144
O O23 0.651727 0.500000 0.671216
#
# Coordination Sequence:
#
# PCOD8178952 Si02
#       8
#     8   8   8   8   8   8   8   8
#     4  10  20  33  49  70  97 127 159 197 236 276
#     4   9  17  29  47  72  97 118 148 195 241 277
#     4   9  16  29  51  73  93 123 160 194 232 282
#     4   9  16  28  49  74  96 121 157 198 235 275
#     4   9  18  33  52  72  96 127 159 192 234 283
#     4   9  17  30  48  69  92 120 154 189 229 280
#     4   9  18  32  48  69  98 128 158 194 237 281
#     4   8  15  29  48  70  95 121 151 190 236 282
#
# _framework density 17.813162999999999
#
# number of rings (size 3 to 8) (size 9 to 14) (size 15 to 20)
#    0.000    3.000    0.000    1.875    0.000    4.750 
#    0.000    5.625    0.000    9.000    0.000    0.000 
#    0.000    0.000    0.000    0.000    0.000    0.000 
#
# Total GULP energy -396753.666622 kJ/mol
# GULP energy per Si atom -12398.552082 kJ/mol
# Density = 1.777262 g / cm^3
# Si number density = 17.813163 Si / 1000 Ang^3
#
#
#
# Elastic Constant Matrix: (Units=GPa)
#
#
# Indices 1 2 3 4 5 6 
#
# 1 69.3470 36.8756 77.8127 0.0000 0.0000 0.0000
# 2 36.8756 69.5438 69.9524 0.0000 0.0000 0.0000
# 3 77.8127 69.9524 196.3464 0.0000 0.0000 0.0000
# 4 0.0000 0.0000 0.0000 -3.6899 0.0000 0.0000
# 5 0.0000 0.0000 0.0000 0.0000 15.9720 0.0000
# 6 0.0000 0.0000 0.0000 0.0000 0.0000 13.3919
#
#
#
# Elastic Compliance Matrix: (Units=1/GPa)
#
#
# Indices 1 2 3 4 5 6 
#
# 1 0.027299 -0.005600 -0.008823 0.000000 0.000000 0.000000
# 2 -0.005600 0.023559 -0.006174 0.000000 0.000000 0.000000
# 3 -0.008823 -0.006174 0.010790 0.000000 0.000000 0.000000
# 4 0.000000 0.000000 0.000000 -0.271012 0.000000 0.000000
# 5 0.000000 0.000000 0.000000 0.000000 0.062610 0.000000
# 6 0.000000 0.000000 0.000000 0.000000 0.000000 0.074672
#
#
# Mechanical properties :
#
#
# Convention : Reuss Voigt Hill
#
# Bulk Modulus (GPa) = 48.89418 78.27985 63.58701
# Shear Modulus (GPa) = -207.72390 15.17456 -96.27467
#
# Velocity S-wave (km/s) = -10.81045 2.92185 -7.35964
# Velocity P-wave (km/s) = 11.32754 7.44468 6.03696
#
# Compressibility (1/GPa) = 0.02045233
#
# Stress axis : x y z
#
# Youngs Moduli (GPa) = 36.63201 42.44615 92.68256
#
# Poissons Ratio (x) = 0.23769 0.81778
# Poissons Ratio (y) = 0.20513 0.57225
# Poissons Ratio (z) = 0.32322 0.26207
#
# Static dielectric constant tensor:
#      x y z
#    x 3.225060 0.000000 0.000000 
#    y 0.000000 3.094580 0.000000 
#    z 0.000000 0.000000 3.571020 
# 
# 
# High freq. dielectric constant tensor:
#      x y z
#    x 1.671450 0.000000 0.000000 
#    y 0.000000 1.657860 0.000000 
#    z 0.000000 0.000000 1.705530 
# 
# From -- ./inp_files/20093.got.cif
#   From: 2010.03.12/outbox.cif.g09.slc.cpg/sg38_11_cif.got.tgz:20093.got - 2010.04.14 02:38:36.
