data_PCOD8178446
_publ_section_title
;
Structure prediction by ZEFSAII (Michael W. Deem and Ramdas Pophale) SiO2 
 PCOD8178446
Probable space group: A M M 2
;
_chemical_formula_sum "Si O2"
_cell_formula_units_Z 48
_cell_length_a 9.053364
_cell_length_b 16.437102
_cell_length_c 18.449936
_cell_angle_alpha 90.000000
_cell_angle_beta 90.000000
_cell_angle_gamma 90.000000
_cell_volume 2745.554672
_symmetry_space_group_name_H-M "A M M 2"
_symmetry_group_IT_number 38
_symmetry_cell_setting 'orthorhombic'
loop_
_space_group_symop_operation_xyz
x,y,z
-x,-y,z
-x,y,z
x,-y,z
x,1/2+y,1/2+z
-x,1/2-y,1/2+z
-x,1/2+y,1/2+z
x,1/2-y,1/2+z
loop_
_atom_site_type_symbol
_atom_site_label
_atom_site_fract_x
_atom_site_fract_y
_atom_site_fract_z
Si Si1 0.667190 0.687144 0.748110
Si Si2 0.824273 0.500000 0.525490
Si Si3 0.826581 0.765430 0.464145
Si Si4 0.824572 0.500000 0.359381
Si Si5 0.827897 0.662340 0.599251
Si Si6 0.670270 0.839174 0.844085
Si Si7 0.326230 0.406154 0.889862
O O1 0.500000 0.665818 0.727228
O O2 0.764407 0.678284 0.677717
O O3 0.682034 0.779073 0.775999
O O4 0.722808 0.624974 0.810444
O O5 0.771370 0.500000 0.442649
O O6 0.759874 0.579818 0.565257
O O7 0.000000 0.500000 0.525891
O O8 0.795076 0.739060 0.546920
O O9 0.749264 0.699348 0.413484
O O10 0.759606 0.855161 0.451344
O O11 0.000000 0.765373 0.446580
O O12 0.754933 0.421033 0.321068
O O13 0.000000 0.500000 0.349622
O O14 0.000000 0.649303 0.609037
O O15 0.500000 0.856681 0.863640
O O16 0.500000 0.390755 0.900386
O O17 0.282696 0.500000 0.898651
#
# Coordination Sequence:
#
# PCOD8178446 Si02
#       7
#     8   4   8   4   8   8   8
#     4   9  20  35  52  75 106 139 172 213 256 309
#     4   9  18  33  49  75 111 138 161 204 259 305
#     4  10  19  33  54  78 104 137 176 219 263 308
#     4  11  19  33  57  81 109 136 171 220 265 307
#     4  10  20  34  52  75 108 141 170 209 257 312
#     4  10  20  35  53  77 107 140 178 217 259 311
#     4   9  19  36  55  76 105 137 172 217 266 312
#
# _framework density 17.482804999999999
#
# number of rings (size 3 to 8) (size 9 to 14) (size 15 to 20)
#    0.000    2.333    1.667    2.250    1.167    5.000 
#    0.000    0.000    1.833    0.000    0.000    0.000 
#    0.000    0.000    0.000    0.000    0.000    0.000 
#
# Total GULP energy -297607.976367 kJ/mol
# GULP energy per Si atom -12400.332349 kJ/mol
# Density = 1.744301 g / cm^3
# Si number density = 17.482805 Si / 1000 Ang^3
#
#
#
# Elastic Constant Matrix: (Units=GPa)
#
#
# Indices 1 2 3 4 5 6 
#
# 1 74.3334 53.4938 37.5568 0.0000 0.0000 0.0000
# 2 53.4938 138.0077 44.4860 0.0000 0.0000 0.0000
# 3 37.5568 44.4860 84.0556 0.0000 0.0000 0.0000
# 4 0.0000 0.0000 0.0000 17.8491 0.0000 0.0000
# 5 0.0000 0.0000 0.0000 0.0000 22.6255 0.0000
# 6 0.0000 0.0000 0.0000 0.0000 0.0000 31.3531
#
#
#
# Elastic Compliance Matrix: (Units=1/GPa)
#
#
# Indices 1 2 3 4 5 6 
#
# 1 0.020973 -0.006160 -0.006111 0.000000 0.000000 0.000000
# 2 -0.006160 0.010545 -0.002829 0.000000 0.000000 0.000000
# 3 -0.006111 -0.002829 0.016125 0.000000 0.000000 0.000000
# 4 0.000000 0.000000 0.000000 0.056025 0.000000 0.000000
# 5 0.000000 0.000000 0.000000 0.000000 0.044198 0.000000
# 6 0.000000 0.000000 0.000000 0.000000 0.000000 0.031895
#
#
# Mechanical properties :
#
#
# Convention : Reuss Voigt Hill
#
# Bulk Modulus (GPa) = 57.32647 63.05219 60.18933
# Shear Modulus (GPa) = 23.17225 25.08954 24.13090
#
# Velocity S-wave (km/s) = 3.64460 3.79238 3.71922
# Velocity P-wave (km/s) = 7.11141 7.43772 7.27640
#
# Compressibility (1/GPa) = 0.01744395
#
# Stress axis : x y z
#
# Youngs Moduli (GPa) = 47.67968 94.82769 62.01717
#
# Poissons Ratio (x) = 0.58411 0.37899
# Poissons Ratio (y) = 0.29369 0.17544
# Poissons Ratio (z) = 0.29137 0.26826
#
# Static dielectric constant tensor:
#      x y z
#    x 3.219460 0.000000 0.000000 
#    y 0.000000 3.529590 0.000000 
#    z 0.000000 0.000000 3.047160 
# 
# 
# High freq. dielectric constant tensor:
#      x y z
#    x 1.674250 0.000000 0.000000 
#    y 0.000000 1.682550 0.000000 
#    z 0.000000 0.000000 1.654130 
# 
# From -- ./inp_files/16677.got.cif
#   From: 2010.03.12/outbox.cif.g09.slc.cpg/sg38_9_cif.got.tgz:16677.got - 2010.04.14 02:38:36.
