data_PCOD8178208
_publ_section_title
;
Structure prediction by ZEFSAII (Michael W. Deem and Ramdas Pophale) SiO2 
 PCOD8178208
Probable space group: A M M 2
;
_chemical_formula_sum "Si O2"
_cell_formula_units_Z 64
_cell_length_a 15.329627
_cell_length_b 24.684727
_cell_length_c 9.281455
_cell_angle_alpha 90.000000
_cell_angle_beta 90.000000
_cell_angle_gamma 90.000000
_cell_volume 3512.173645
_symmetry_space_group_name_H-M "A M M 2"
_symmetry_group_IT_number 38
_symmetry_cell_setting 'orthorhombic'
loop_
_space_group_symop_operation_xyz
x,y,z
-x,-y,z
-x,y,z
x,-y,z
x,1/2+y,1/2+z
-x,1/2-y,1/2+z
-x,1/2+y,1/2+z
x,1/2-y,1/2+z
loop_
_atom_site_type_symbol
_atom_site_label
_atom_site_fract_x
_atom_site_fract_y
_atom_site_fract_z
Si Si1 0.749434 0.638651 0.539730
Si Si2 0.404968 0.772681 0.375990
Si Si3 0.902502 0.439315 0.544070
Si Si4 0.291715 0.245092 0.628677
Si Si5 0.745160 0.630479 0.195898
Si Si6 0.095428 0.560471 0.202103
Si Si7 0.601557 0.438546 0.040127
Si Si8 0.403160 0.110172 0.249421
O O1 0.832541 0.604901 0.599189
O O2 0.763798 0.701709 0.584707
O O3 0.738562 0.632901 0.368819
O O4 0.663484 0.614061 0.616423
O O5 0.500000 0.747051 0.344268
O O6 0.381708 0.759195 0.540018
O O7 0.325333 0.745835 0.291544
O O8 0.405270 0.835851 0.344480
O O9 0.878145 0.500000 0.599474
O O10 0.901213 0.439645 0.373131
O O11 0.000000 0.423608 0.598793
O O12 0.237953 0.189172 0.621375
O O13 0.829241 0.598163 0.139258
O O14 0.658087 0.602027 0.137710
O O15 0.111201 0.500000 0.143080
O O16 0.000000 0.581402 0.150968
O O17 0.500000 0.423731 0.064881
O O18 0.621443 0.500000 0.088784
O O19 0.623966 0.434439 0.868733
O O20 0.500000 0.098275 0.185348
#
# Coordination Sequence:
#
# PCOD8178208 Si02
#       8
#     8   8   8   8   8   8   8   8
#     4  10  21  34  53  81 107 136 175 225 265 302
#     4  10  19  32  49  69  98 137 180 220 257 301
#     4   8  15  31  56  81 102 128 167 215 266 319
#     4  11  20  33  47  77 105 137 176 220 265 310
#     4  11  20  33  54  78 106 138 176 224 265 304
#     4   8  15  30  53  79 102 126 165 216 267 319
#     4  10  21  36  53  75 105 143 181 214 261 323
#     4   9  19  35  51  71 103 142 179 210 255 319
#
# _framework density 18.222332999999999
#
# number of rings (size 3 to 8) (size 9 to 14) (size 15 to 20)
#    0.000    2.375    2.500    1.500    0.000    2.500 
#    0.000    0.625    0.000    2.250    0.000    1.750 
#    0.000    0.000    0.000    0.000    0.000    0.000 
#
# Total GULP energy -396516.027319 kJ/mol
# GULP energy per Si atom -12391.125854 kJ/mol
# Density = 1.818086 g / cm^3
# Si number density = 18.222333 Si / 1000 Ang^3
#
#
#
# Elastic Constant Matrix: (Units=GPa)
#
#
# Indices 1 2 3 4 5 6 
#
# 1 127.1732 79.3156 33.0373 0.0000 0.0000 0.0000
# 2 79.3156 123.0274 27.4640 0.0000 0.0000 0.0000
# 3 33.0373 27.4640 48.2438 0.0000 0.0000 0.0000
# 4 0.0000 0.0000 0.0000 14.2270 0.0000 0.0000
# 5 0.0000 0.0000 0.0000 0.0000 13.6754 0.0000
# 6 0.0000 0.0000 0.0000 0.0000 0.0000 28.3245
#
#
#
# Elastic Compliance Matrix: (Units=1/GPa)
#
#
# Indices 1 2 3 4 5 6 
#
# 1 0.014193 -0.007997 -0.005167 0.000000 0.000000 0.000000
# 2 -0.007997 0.013817 -0.002390 0.000000 0.000000 0.000000
# 3 -0.005167 -0.002390 0.025627 0.000000 0.000000 0.000000
# 4 0.000000 0.000000 0.000000 0.070289 0.000000 0.000000
# 5 0.000000 0.000000 0.000000 0.000000 0.073124 0.000000
# 6 0.000000 0.000000 0.000000 0.000000 0.000000 0.035305
#
#
# Mechanical properties :
#
#
# Convention : Reuss Voigt Hill
#
# Bulk Modulus (GPa) = 44.38487 64.23093 54.30790
# Shear Modulus (GPa) = 18.45211 21.82056 20.13634
#
# Velocity S-wave (km/s) = 3.18560 3.46419 3.32781
# Velocity P-wave (km/s) = 6.15963 7.16420 6.68083
#
# Compressibility (1/GPa) = 0.02253020
#
# Stress axis : x y z
#
# Youngs Moduli (GPa) = 70.45717 72.37348 39.02174
#
# Poissons Ratio (x) = 0.57875 0.20163
# Poissons Ratio (y) = 0.56343 0.09325
# Poissons Ratio (z) = 0.36405 0.17295
#
# Static dielectric constant tensor:
#      x y z
#    x 3.560800 0.000000 0.000000 
#    y 0.000000 3.578060 0.000000 
#    z 0.000000 0.000000 3.071880 
# 
# 
# High freq. dielectric constant tensor:
#      x y z
#    x 1.694950 0.000000 0.000000 
#    y 0.000000 1.709740 0.000000 
#    z 0.000000 0.000000 1.682650 
# 
# From -- ./inp_files/5902.got.cif
#   From: 2010.03.12/outbox.cif.g09.slc.cpg/sg38_3_cif.got.tgz:5902.got - 2010.04.14 02:38:36.
