data_PCOD8178063
_publ_section_title
;
Structure prediction by ZEFSAII (Michael W. Deem and Ramdas Pophale) SiO2 
 PCOD8178063
Probable space group: A M M 2
;
_chemical_formula_sum "Si O2"
_cell_formula_units_Z 40
_cell_length_a 7.798434
_cell_length_b 9.056951
_cell_length_c 29.077512
_cell_angle_alpha 90.000000
_cell_angle_beta 90.000000
_cell_angle_gamma 90.000000
_cell_volume 2053.745679
_symmetry_space_group_name_H-M "A M M 2"
_symmetry_group_IT_number 38
_symmetry_cell_setting 'orthorhombic'
loop_
_space_group_symop_operation_xyz
x,y,z
-x,-y,z
-x,y,z
x,-y,z
x,1/2+y,1/2+z
-x,1/2-y,1/2+z
-x,1/2+y,1/2+z
x,1/2-y,1/2+z
loop_
_atom_site_type_symbol
_atom_site_label
_atom_site_fract_x
_atom_site_fract_y
_atom_site_fract_z
Si Si1 0.690056 0.324928 0.412930
Si Si2 0.807454 0.168429 0.817014
Si Si3 0.000000 0.324189 0.668446
Si Si4 0.298098 0.326032 0.514542
Si Si5 0.310065 0.331483 0.731753
Si Si6 0.000000 0.176073 0.570654
O O1 0.500000 0.263475 0.405187
O O2 0.690796 0.500000 0.414743
O O3 0.798245 0.266461 0.369174
O O4 0.756807 0.273159 0.462971
O O5 0.688984 0.251668 0.780928
O O6 0.000000 0.183845 0.799083
O O7 0.744416 0.000000 0.818228
O O8 0.168886 0.271676 0.696248
O O9 0.000000 0.500000 0.658461
O O10 0.000000 0.231310 0.622485
O O11 0.500000 0.290773 0.523651
O O12 0.265168 0.500000 0.521714
O O13 0.175160 0.235994 0.548183
O O14 0.500000 0.311654 0.709978
O O15 0.266859 0.500000 0.742442
O O16 0.000000 0.000000 0.568552
#
# Coordination Sequence:
#
# PCOD8178063 Si02
#       6
#     8   8   4   8   8   4
#     4   8  15  29  51  81 113 146 189 236 273 314
#     4  10  19  30  51  85 120 152 186 226 275 329
#     4  10  22  42  61  80 107 141 190 245 283 336
#     4   9  19  38  64  89 114 152 202 245 280 331
#     4  10  21  38  60  83 109 145 187 231 280 331
#     4  12  26  40  59  88 121 151 182 235 305 364
#
# _framework density 19.476607000000001
#
# number of rings (size 3 to 8) (size 9 to 14) (size 15 to 20)
#    0.000    2.400    1.000    2.700    1.400    3.200 
#    0.000    3.000    0.000    1.200    0.000    0.000 
#    0.000    0.000    0.000    0.000    0.000    0.000 
#
# Total GULP energy -247853.433450 kJ/mol
# GULP energy per Si atom -12392.671672 kJ/mol
# Density = 1.943228 g / cm^3
# Si number density = 19.476607 Si / 1000 Ang^3
#
#
#
# Elastic Constant Matrix: (Units=GPa)
#
#
# Indices 1 2 3 4 5 6 
#
# 1 116.3739 44.2756 72.4852 0.0000 0.0000 0.0000
# 2 44.2756 61.5079 53.8259 0.0000 0.0000 0.0000
# 3 72.4852 53.8259 154.3776 0.0000 0.0000 0.0000
# 4 0.0000 0.0000 0.0000 25.1380 0.0000 0.0000
# 5 0.0000 0.0000 0.0000 0.0000 27.5552 0.0000
# 6 0.0000 0.0000 0.0000 0.0000 0.0000 21.4201
#
#
#
# Elastic Compliance Matrix: (Units=1/GPa)
#
#
# Indices 1 2 3 4 5 6 
#
# 1 0.013533 -0.006017 -0.004256 0.000000 0.000000 0.000000
# 2 -0.006017 0.026072 -0.006265 0.000000 0.000000 0.000000
# 3 -0.004256 -0.006265 0.010661 0.000000 0.000000 0.000000
# 4 0.000000 0.000000 0.000000 0.039780 0.000000 0.000000
# 5 0.000000 0.000000 0.000000 0.000000 0.036291 0.000000
# 6 0.000000 0.000000 0.000000 0.000000 0.000000 0.046685
#
#
# Mechanical properties :
#
#
# Convention : Reuss Voigt Hill
#
# Bulk Modulus (GPa) = 58.17755 74.82586 66.50171
# Shear Modulus (GPa) = 23.60390 25.60083 24.60237
#
# Velocity S-wave (km/s) = 3.48503 3.62945 3.55797
# Velocity P-wave (km/s) = 6.79185 7.48770 7.14825
#
# Compressibility (1/GPa) = 0.01718876
#
# Stress axis : x y z
#
# Youngs Moduli (GPa) = 73.89127 38.35525 93.80315
#
# Poissons Ratio (x) = 0.23078 0.39927
# Poissons Ratio (y) = 0.44460 0.58770
# Poissons Ratio (z) = 0.31451 0.24030
#
# Static dielectric constant tensor:
#      x y z
#    x 3.691140 0.000000 0.000000 
#    y 0.000000 3.180820 0.000000 
#    z 0.000000 0.000000 3.679090 
# 
# 
# High freq. dielectric constant tensor:
#      x y z
#    x 1.768030 0.000000 0.000000 
#    y 0.000000 1.715890 0.000000 
#    z 0.000000 0.000000 1.764000 
# 
# From -- ./inp_files/23227.got.cif
#   From: 2010.03.12/outbox.cif.g09.slc.cpg/sg38_12_cif.got.tgz:23227.got - 2010.04.14 02:38:36.
