data_PCOD8178816
_publ_section_title
;
Structure prediction by ZEFSAII (Michael W. Deem and Ramdas Pophale) SiO2 
 PCOD8178816
Probable space group: A M M 2
;
_chemical_formula_sum "Si O2"
_cell_formula_units_Z 64
_cell_length_a 9.172172
_cell_length_b 27.044563
_cell_length_c 14.482581
_cell_angle_alpha 90.000000
_cell_angle_beta 90.000000
_cell_angle_gamma 90.000000
_cell_volume 3592.511149
_symmetry_space_group_name_H-M "A M M 2"
_symmetry_group_IT_number 38
_symmetry_cell_setting 'orthorhombic'
loop_
_space_group_symop_operation_xyz
x,y,z
-x,-y,z
-x,y,z
x,-y,z
x,1/2+y,1/2+z
-x,1/2-y,1/2+z
-x,1/2+y,1/2+z
x,1/2-y,1/2+z
loop_
_atom_site_type_symbol
_atom_site_label
_atom_site_fract_x
_atom_site_fract_y
_atom_site_fract_z
Si Si1 0.328308 0.632036 0.282860
Si Si2 0.659603 0.774698 0.417917
Si Si3 0.831157 0.942312 0.659646
Si Si4 0.169706 0.326159 0.657070
Si Si5 0.340478 0.264234 0.213155
Si Si6 0.329241 0.329951 0.480956
Si Si7 0.669652 0.442426 0.972788
Si Si8 0.170961 0.635143 0.857881
O O1 0.500000 0.620274 0.280941
O O2 0.237082 0.585540 0.247161
O O3 0.292469 0.678346 0.215168
O O4 0.275778 0.643125 0.387564
O O5 0.500000 0.794823 0.449460
O O6 0.642883 0.752449 0.317401
O O7 0.710132 0.728736 0.480967
O O8 0.776227 0.818946 0.421330
O O9 0.746568 0.926050 0.567467
O O10 0.000000 0.928255 0.647674
O O11 0.809912 0.000000 0.679173
O O12 0.222171 0.269227 0.661991
O O13 0.247437 0.352891 0.570135
O O14 0.209811 0.355326 0.750675
O O15 0.000000 0.326072 0.638743
O O16 0.500000 0.258416 0.164924
O O17 0.500000 0.338216 0.493066
O O18 0.500000 0.428870 0.979617
O O19 0.694271 0.500000 0.953073
O O20 0.743623 0.413889 0.887669
O O21 0.000000 0.628041 0.873255
#
# Coordination Sequence:
#
# PCOD8178816 Si02
#       8
#     8   8   8   8   8   8   8   8
#     4   9  18  33  53  76 100 130 170 210 247 290
#     4   8  15  29  47  67  93 127 166 203 238 280
#     4  10  21  36  54  77 103 129 157 195 249 306
#     4  10  20  31  46  72 104 137 171 204 242 291
#     4   8  15  29  47  66  92 127 165 203 241 281
#     4   9  18  32  50  72 100 136 174 209 245 284
#     4  10  21  37  57  78  97 122 160 204 249 298
#     4  10  20  33  50  74 103 133 165 203 249 298
#
# _framework density 17.814837000000001
#
# number of rings (size 3 to 8) (size 9 to 14) (size 15 to 20)
#    0.000    2.750    0.000    3.000    0.000    5.500 
#    0.000    3.750    0.000    0.750    0.000    0.000 
#    0.000    0.000    0.000    0.000    0.000    0.000 
#
# Total GULP energy -396688.506212 kJ/mol
# GULP energy per Si atom -12396.515819 kJ/mol
# Density = 1.777429 g / cm^3
# Si number density = 17.814837 Si / 1000 Ang^3
#
#
#
# Elastic Constant Matrix: (Units=GPa)
#
#
# Indices 1 2 3 4 5 6 
#
# 1 103.7698 51.9243 64.1042 0.0000 0.0000 0.0000
# 2 51.9243 72.0050 47.2827 0.0000 0.0000 0.0000
# 3 64.1042 47.2827 106.2293 0.0000 0.0000 0.0000
# 4 0.0000 0.0000 0.0000 22.8576 0.0000 0.0000
# 5 0.0000 0.0000 0.0000 0.0000 30.3095 0.0000
# 6 0.0000 0.0000 0.0000 0.0000 0.0000 28.1870
#
#
#
# Elastic Compliance Matrix: (Units=1/GPa)
#
#
# Indices 1 2 3 4 5 6 
#
# 1 0.018400 -0.008446 -0.007344 0.000000 0.000000 0.000000
# 2 -0.008446 0.023500 -0.005363 0.000000 0.000000 0.000000
# 3 -0.007344 -0.005363 0.016233 0.000000 0.000000 0.000000
# 4 0.000000 0.000000 0.000000 0.043749 0.000000 0.000000
# 5 0.000000 0.000000 0.000000 0.000000 0.032993 0.000000
# 6 0.000000 0.000000 0.000000 0.000000 0.000000 0.035477
#
#
# Mechanical properties :
#
#
# Convention : Reuss Voigt Hill
#
# Bulk Modulus (GPa) = 63.18681 67.62517 65.40599
# Shear Modulus (GPa) = 22.94274 24.18367 23.56320
#
# Velocity S-wave (km/s) = 3.59255 3.68843 3.64080
# Velocity P-wave (km/s) = 7.26321 7.49545 7.38024
#
# Compressibility (1/GPa) = 0.01582609
#
# Stress axis : x y z
#
# Youngs Moduli (GPa) = 54.34880 42.55268 61.60444
#
# Poissons Ratio (x) = 0.35939 0.45243
# Poissons Ratio (y) = 0.45902 0.33040
# Poissons Ratio (z) = 0.39914 0.22822
#
# Static dielectric constant tensor:
#      x y z
#    x 3.286470 0.000000 0.000000 
#    y 0.000000 3.174680 0.000000 
#    z 0.000000 0.000000 3.322210 
# 
# 
# High freq. dielectric constant tensor:
#      x y z
#    x 1.690970 0.000000 0.000000 
#    y 0.000000 1.663610 0.000000 
#    z 0.000000 0.000000 1.687400 
# 
# From -- ./inp_files/12725.got.cif
#   From: 2010.03.12/outbox.cif.g09.slc.cpg/sg38_7_cif.got.tgz:12725.got - 2010.04.14 02:38:36.
