data_PCOD8178351
_publ_section_title
;
Structure prediction by ZEFSAII (Michael W. Deem and Ramdas Pophale) SiO2 
 PCOD8178351
Probable space group: A M M 2
;
_chemical_formula_sum "Si O2"
_cell_formula_units_Z 64
_cell_length_a 8.992951
_cell_length_b 20.340217
_cell_length_c 19.556522
_cell_angle_alpha 90.000000
_cell_angle_beta 90.000000
_cell_angle_gamma 90.000000
_cell_volume 3577.251132
_symmetry_space_group_name_H-M "A M M 2"
_symmetry_group_IT_number 38
_symmetry_cell_setting 'orthorhombic'
loop_
_space_group_symop_operation_xyz
x,y,z
-x,-y,z
-x,y,z
x,-y,z
x,1/2+y,1/2+z
-x,1/2-y,1/2+z
-x,1/2+y,1/2+z
x,1/2-y,1/2+z
loop_
_atom_site_type_symbol
_atom_site_label
_atom_site_fract_x
_atom_site_fract_y
_atom_site_fract_z
Si Si1 0.828955 0.728721 0.142270
Si Si2 0.329176 0.925555 0.418212
Si Si3 0.673114 0.725418 0.279288
Si Si4 0.177103 0.684119 0.413355
Si Si5 0.328203 0.877743 0.272323
Si Si6 0.329056 0.575196 0.502370
Si Si7 0.828776 0.382849 0.636063
Si Si8 0.175409 0.188963 0.495043
O O1 0.729019 0.702799 0.204642
O O2 0.805819 0.805376 0.127445
O O3 0.000000 0.713691 0.159957
O O4 0.774507 0.691727 0.074041
O O5 0.500000 0.904353 0.426840
O O6 0.283998 0.919324 0.338849
O O7 0.231455 0.879288 0.465332
O O8 0.301396 0.000000 0.442032
O O9 0.500000 0.709413 0.286190
O O10 0.761492 0.684835 0.336377
O O11 0.709052 0.802147 0.288934
O O12 0.235423 0.619166 0.450309
O O13 0.238455 0.748540 0.453171
O O14 0.000000 0.681824 0.412316
O O15 0.500000 0.886224 0.251995
O O16 0.229746 0.905186 0.210278
O O17 0.500000 0.598441 0.502481
O O18 0.315087 0.500000 0.477933
O O19 0.265306 0.580498 0.578684
O O20 0.000000 0.403381 0.628703
O O21 0.000000 0.191109 0.489784
#
# Coordination Sequence:
#
# PCOD8178351 Si02
#       8
#     8   8   8   8   8   8   8   8
#     4   9  18  34  53  79 111 141 175 222 273 321
#     4  10  21  36  53  76 109 147 184 223 269 319
#     4  10  19  32  53  83 111 141 179 223 272 320
#     4  11  21  36  58  83 109 143 182 226 274 322
#     4   9  18  32  49  75 110 148 186 221 263 318
#     4  11  24  39  55  78 110 147 184 225 273 326
#     4  10  19  33  53  78 109 144 182 224 268 320
#     4  10  20  35  56  81 108 140 181 225 271 318
#
# _framework density 17.890830999999999
#
# number of rings (size 3 to 8) (size 9 to 14) (size 15 to 20)
#    0.000    2.000    2.500    1.500    0.000    4.250 
#    0.000    1.250    0.000    0.750    0.000    3.500 
#    0.000    0.000    0.000    0.000    0.000    0.000 
#
# Total GULP energy -396907.506792 kJ/mol
# GULP energy per Si atom -12403.359587 kJ/mol
# Density = 1.785011 g / cm^3
# Si number density = 17.890831 Si / 1000 Ang^3
#
#
#
# Elastic Constant Matrix: (Units=GPa)
#
#
# Indices 1 2 3 4 5 6 
#
# 1 71.1404 24.8235 46.4916 0.0000 0.0000 0.0000
# 2 24.8235 60.8768 44.9347 0.0000 0.0000 0.0000
# 3 46.4916 44.9347 112.7711 0.0000 0.0000 0.0000
# 4 0.0000 0.0000 0.0000 22.9923 0.0000 0.0000
# 5 0.0000 0.0000 0.0000 0.0000 35.3385 0.0000
# 6 0.0000 0.0000 0.0000 0.0000 0.0000 24.8160
#
#
#
# Elastic Compliance Matrix: (Units=1/GPa)
#
#
# Indices 1 2 3 4 5 6 
#
# 1 0.019589 -0.002871 -0.006932 0.000000 0.000000 0.000000
# 2 -0.002871 0.023692 -0.008257 0.000000 0.000000 0.000000
# 3 -0.006932 -0.008257 0.015015 0.000000 0.000000 0.000000
# 4 0.000000 0.000000 0.000000 0.043493 0.000000 0.000000
# 5 0.000000 0.000000 0.000000 0.000000 0.028298 0.000000
# 6 0.000000 0.000000 0.000000 0.000000 0.000000 0.040297
#
#
# Mechanical properties :
#
#
# Convention : Reuss Voigt Hill
#
# Bulk Modulus (GPa) = 45.09227 53.03198 49.06212
# Shear Modulus (GPa) = 23.37614 25.19858 24.28736
#
# Velocity S-wave (km/s) = 3.61861 3.75702 3.68847
# Velocity P-wave (km/s) = 6.53590 6.96611 6.75443
#
# Compressibility (1/GPa) = 0.02217675
#
# Stress axis : x y z
#
# Youngs Moduli (GPa) = 51.05034 42.20880 66.59965
#
# Poissons Ratio (x) = 0.12119 0.46164
# Poissons Ratio (y) = 0.14657 0.54988
# Poissons Ratio (z) = 0.35386 0.34850
#
# Static dielectric constant tensor:
#      x y z
#    x 3.322960 0.000000 0.000000 
#    y 0.000000 3.057620 0.000000 
#    z 0.000000 0.000000 3.377650 
# 
# 
# High freq. dielectric constant tensor:
#      x y z
#    x 1.696620 0.000000 0.000000 
#    y 0.000000 1.665000 0.000000 
#    z 0.000000 0.000000 1.697430 
# 
# From -- ./inp_files/17156.got.cif
#   From: 2010.03.12/outbox.cif.g09.slc.cpg/sg38_9_cif.got.tgz:17156.got - 2010.04.14 02:38:36.
