data_PCOD8178245
_publ_section_title
;
Structure prediction by ZEFSAII (Michael W. Deem and Ramdas Pophale) SiO2 
 PCOD8178245
Probable space group: A M M 2
;
_chemical_formula_sum "Si O2"
_cell_formula_units_Z 56
_cell_length_a 9.110491
_cell_length_b 14.313869
_cell_length_c 22.777184
_cell_angle_alpha 90.000000
_cell_angle_beta 90.000000
_cell_angle_gamma 90.000000
_cell_volume 2970.289991
_symmetry_space_group_name_H-M "A M M 2"
_symmetry_group_IT_number 38
_symmetry_cell_setting 'orthorhombic'
loop_
_space_group_symop_operation_xyz
x,y,z
-x,-y,z
-x,y,z
x,-y,z
x,1/2+y,1/2+z
-x,1/2-y,1/2+z
-x,1/2+y,1/2+z
x,1/2-y,1/2+z
loop_
_atom_site_type_symbol
_atom_site_label
_atom_site_fract_x
_atom_site_fract_y
_atom_site_fract_z
Si Si1 0.331263 0.899259 0.811930
Si Si2 0.171634 0.602399 0.000840
Si Si3 0.673291 0.297512 0.766263
Si Si4 0.162305 0.647629 0.421405
Si Si5 0.160230 0.853884 0.374845
Si Si6 0.325531 0.287109 0.532816
Si Si7 0.325740 0.894296 0.149198
O O1 0.500000 0.879799 0.828051
O O2 0.274798 0.811405 0.772802
O O3 0.245395 0.913223 0.872933
O O4 0.313764 0.000000 0.778434
O O5 0.198155 0.500000 0.029876
O O6 0.265829 0.680693 0.034230
O O7 0.000000 0.631285 0.003649
O O8 0.220456 0.592683 0.932366
O O9 0.500000 0.305205 0.766797
O O10 0.731129 0.362046 0.819644
O O11 0.737196 0.339180 0.705844
O O12 0.145271 0.748119 0.393823
O O13 0.256757 0.651522 0.480786
O O14 0.000000 0.605858 0.434622
O O15 0.000000 0.892939 0.356208
O O16 0.500000 0.284268 0.525509
O O17 0.274449 0.337151 0.592355
O O18 0.500000 0.897932 0.151862
O O19 0.262653 0.000000 0.147535
#
# Coordination Sequence:
#
# PCOD8178245 Si02
#       7
#     8   8   8   8   8   8   8
#     4   9  17  29  47  73 102 129 159 199 249 303
#     4   9  18  33  52  74 104 139 166 194 244 305
#     4   9  17  31  50  70  94 127 165 202 242 292
#     4   9  17  30  48  70  98 131 163 197 241 292
#     4   8  15  28  46  69  97 127 156 190 235 283
#     4  10  19  32  51  74 100 131 169 212 252 291
#     4   9  19  35  52  70  95 129 167 207 253 299
#
# _framework density 18.853376999999998
#
# number of rings (size 3 to 8) (size 9 to 14) (size 15 to 20)
#    0.000    3.000    0.000    1.714    0.000    5.143 
#    0.000    3.571    0.000    5.571    0.000    0.000 
#    0.000    0.000    0.000    0.000    0.000    0.000 
#
# Total GULP energy -346926.114281 kJ/mol
# GULP energy per Si atom -12390.218367 kJ/mol
# Density = 1.881047 g / cm^3
# Si number density = 18.853377 Si / 1000 Ang^3
#
#
#
# Elastic Constant Matrix: (Units=GPa)
#
#
# Indices 1 2 3 4 5 6 
#
# 1 59.0302 31.4191 39.0917 0.0000 0.0000 0.0000
# 2 31.4191 123.5450 61.7548 0.0000 0.0000 0.0000
# 3 39.0917 61.7548 128.8652 0.0000 0.0000 0.0000
# 4 0.0000 0.0000 0.0000 18.8672 0.0000 0.0000
# 5 0.0000 0.0000 0.0000 0.0000 11.4062 0.0000
# 6 0.0000 0.0000 0.0000 0.0000 0.0000 1.6615
#
#
#
# Elastic Compliance Matrix: (Units=1/GPa)
#
#
# Indices 1 2 3 4 5 6 
#
# 1 0.021998 -0.002970 -0.005250 0.000000 0.000000 0.000000
# 2 -0.002970 0.011045 -0.004392 0.000000 0.000000 0.000000
# 3 -0.005250 -0.004392 0.011457 0.000000 0.000000 0.000000
# 4 0.000000 0.000000 0.000000 0.053002 0.000000 0.000000
# 5 0.000000 0.000000 0.000000 0.000000 0.087672 0.000000
# 6 0.000000 0.000000 0.000000 0.000000 0.000000 0.601856
#
#
# Mechanical properties :
#
#
# Convention : Reuss Voigt Hill
#
# Bulk Modulus (GPa) = 51.87707 63.99685 57.93696
# Shear Modulus (GPa) = 6.10740 18.33197 12.21968
#
# Velocity S-wave (km/s) = 1.80179 3.12163 2.54863
# Velocity P-wave (km/s) = 5.64840 6.85645 6.28153
#
# Compressibility (1/GPa) = 0.01927634
#
# Stress axis : x y z
#
# Youngs Moduli (GPa) = 45.45870 90.53943 87.28071
#
# Poissons Ratio (x) = 0.26892 0.45820
# Poissons Ratio (y) = 0.13502 0.38333
# Poissons Ratio (z) = 0.23865 0.39764
#
# Static dielectric constant tensor:
#      x y z
#    x 3.474920 0.000000 0.000000 
#    y 0.000000 3.843780 0.000000 
#    z 0.000000 0.000000 3.472900 
# 
# 
# High freq. dielectric constant tensor:
#      x y z
#    x 1.713690 0.000000 0.000000 
#    y 0.000000 1.739430 0.000000 
#    z 0.000000 0.000000 1.706990 
# 
# From -- ./inp_files/19826.got.cif
#   From: 2010.03.12/outbox.cif.g09.slc.cpg/sg38_10_cif.got.tgz:19826.got - 2010.04.14 02:38:36.
