data_PCOD8178320
_publ_section_title
;
Structure prediction by ZEFSAII (Michael W. Deem and Ramdas Pophale) SiO2 
 PCOD8178320
Probable space group: A M M 2
;
_chemical_formula_sum "Si O2"
_cell_formula_units_Z 64
_cell_length_a 18.631266
_cell_length_b 8.675952
_cell_length_c 20.721865
_cell_angle_alpha 90.000000
_cell_angle_beta 90.000000
_cell_angle_gamma 90.000000
_cell_volume 3349.564514
_symmetry_space_group_name_H-M "A M M 2"
_symmetry_group_IT_number 38
_symmetry_cell_setting 'orthorhombic'
loop_
_space_group_symop_operation_xyz
x,y,z
-x,-y,z
-x,y,z
x,-y,z
x,1/2+y,1/2+z
-x,1/2-y,1/2+z
-x,1/2+y,1/2+z
x,1/2-y,1/2+z
loop_
_atom_site_type_symbol
_atom_site_label
_atom_site_fract_x
_atom_site_fract_y
_atom_site_fract_z
Si Si1 0.821683 0.320181 0.320000
Si Si2 0.155735 0.819439 0.048984
Si Si3 0.311119 0.175268 0.179726
Si Si4 0.333509 0.175762 0.319673
Si Si5 0.420012 0.818029 0.930241
Si Si6 0.163748 0.324362 0.179136
Si Si7 0.319527 0.322210 0.540354
Si Si8 0.083506 0.322026 0.928947
O O1 0.801345 0.500000 0.322597
O O2 0.749013 0.223744 0.328555
O O3 0.862315 0.281337 0.251918
O O4 0.874864 0.281071 0.377570
O O5 0.130402 0.781507 0.122501
O O6 0.237698 0.759674 0.038586
O O7 0.147645 0.000000 0.036515
O O8 0.104955 0.727332 0.000843
O O9 0.358449 0.194385 0.244452
O O10 0.249099 0.301516 0.182261
O O11 0.353770 0.202521 0.112268
O O12 0.278454 0.000000 0.177717
O O13 0.386430 0.280044 0.361102
O O14 0.341207 0.000000 0.342509
O O15 0.500000 0.747219 0.935223
O O16 0.424401 0.000000 0.938087
O O17 0.370530 0.742457 0.986923
O O18 0.145271 0.500000 0.162055
O O19 0.315521 0.500000 0.521922
O O20 0.102809 0.500000 0.918166
O O21 0.000000 0.290137 0.919521
#
# Coordination Sequence:
#
# PCOD8178320 Si02
#       8
#     8   8   8   8   8   8   8   8
#     4  10  20  35  57  82 107 138 176 216 261 317
#     4  10  19  33  56  80 104 137 176 218 262 315
#     4   8  15  29  49  73  99 128 166 212 259 307
#     4  10  19  32  53  78 104 134 168 212 263 312
#     4  10  20  33  49  70 100 138 176 215 260 312
#     4   9  17  30  51  80 109 134 166 213 264 311
#     4   8  15  30  51  74  97 124 165 211 251 296
#     4  11  24  39  54  76 108 142 177 220 266 311
#
# _framework density 19.106960999999998
#
# number of rings (size 3 to 8) (size 9 to 14) (size 15 to 20)
#    0.000    2.500    0.000    3.375    0.000    4.250 
#    0.000    3.750    0.000    3.000    0.000    0.000 
#    0.000    0.000    0.000    0.000    0.000    0.000 
#
# Total GULP energy -396574.562982 kJ/mol
# GULP energy per Si atom -12392.955093 kJ/mol
# Density = 1.906347 g / cm^3
# Si number density = 19.106961 Si / 1000 Ang^3
#
#
#
# Elastic Constant Matrix: (Units=GPa)
#
#
# Indices 1 2 3 4 5 6 
#
# 1 44.8245 16.1055 21.6482 0.0000 0.0000 0.0000
# 2 16.1055 30.3145 19.2316 0.0000 0.0000 0.0000
# 3 21.6482 19.2316 113.6243 0.0000 0.0000 0.0000
# 4 0.0000 0.0000 0.0000 29.2925 0.0000 0.0000
# 5 0.0000 0.0000 0.0000 0.0000 5.6616 0.0000
# 6 0.0000 0.0000 0.0000 0.0000 0.0000 18.4110
#
#
#
# Elastic Compliance Matrix: (Units=1/GPa)
#
#
# Indices 1 2 3 4 5 6 
#
# 1 0.028588 -0.013144 -0.003222 0.000000 0.000000 0.000000
# 2 -0.013144 0.042999 -0.004774 0.000000 0.000000 0.000000
# 3 -0.003222 -0.004774 0.010223 0.000000 0.000000 0.000000
# 4 0.000000 0.000000 0.000000 0.034138 0.000000 0.000000
# 5 0.000000 0.000000 0.000000 0.000000 0.176627 0.000000
# 6 0.000000 0.000000 0.000000 0.000000 0.000000 0.054315
#
#
# Mechanical properties :
#
#
# Convention : Reuss Voigt Hill
#
# Bulk Modulus (GPa) = 25.29703 33.63712 29.46708
# Shear Modulus (GPa) = 12.42707 19.45824 15.94265
#
# Velocity S-wave (km/s) = 2.55305 3.19468 2.89171
# Velocity P-wave (km/s) = 4.68606 5.59024 5.15800
#
# Compressibility (1/GPa) = 0.03953033
#
# Stress axis : x y z
#
# Youngs Moduli (GPa) = 34.97969 23.25630 97.82097
#
# Poissons Ratio (x) = 0.30569 0.31518
# Poissons Ratio (y) = 0.45978 0.46695
# Poissons Ratio (z) = 0.11270 0.11102
#
# Static dielectric constant tensor:
#      x y z
#    x 3.212950 0.000000 0.000000 
#    y 0.000000 3.345430 0.000000 
#    z 0.000000 0.000000 3.932340 
# 
# 
# High freq. dielectric constant tensor:
#      x y z
#    x 1.693590 0.000000 0.000000 
#    y 0.000000 1.732990 0.000000 
#    z 0.000000 0.000000 1.768980 
# 
# From -- ./inp_files/21392.got.cif
#   From: 2010.03.12/outbox.cif.g09.slc.cpg/sg38_11_cif.got.tgz:21392.got - 2010.04.14 02:38:36.
