data_PCOD8178499
_publ_section_title
;
Structure prediction by ZEFSAII (Michael W. Deem and Ramdas Pophale) SiO2 
 PCOD8178499
Probable space group: A M M 2
;
_chemical_formula_sum "Si O2"
_cell_formula_units_Z 64
_cell_length_a 8.929599
_cell_length_b 28.950797
_cell_length_c 12.610821
_cell_angle_alpha 90.000000
_cell_angle_beta 90.000000
_cell_angle_gamma 90.000000
_cell_volume 3260.136934
_symmetry_space_group_name_H-M "A M M 2"
_symmetry_group_IT_number 38
_symmetry_cell_setting 'orthorhombic'
loop_
_space_group_symop_operation_xyz
x,y,z
-x,-y,z
-x,y,z
x,-y,z
x,1/2+y,1/2+z
-x,1/2-y,1/2+z
-x,1/2+y,1/2+z
x,1/2-y,1/2+z
loop_
_atom_site_type_symbol
_atom_site_label
_atom_site_fract_x
_atom_site_fract_y
_atom_site_fract_z
Si Si1 0.829995 0.950010 0.600800
Si Si2 0.828761 0.675307 0.991740
Si Si3 0.327192 0.085694 0.420666
Si Si4 0.321972 0.552869 0.486155
Si Si5 0.171522 0.201274 0.258638
Si Si6 0.325544 0.392286 0.277804
Si Si7 0.672213 0.706020 0.196835
Si Si8 0.326576 0.891499 0.188567
O O1 0.727842 0.956429 0.493818
O O2 0.765560 0.911841 0.679278
O O3 0.000000 0.936747 0.571574
O O4 0.823696 0.000000 0.657592
O O5 0.711177 0.692820 0.077189
O O6 0.000000 0.678809 0.032561
O O7 0.788318 0.623299 0.964460
O O8 0.804127 0.703782 0.884330
O O9 0.500000 0.098818 0.442163
O O10 0.301945 0.078005 0.295201
O O11 0.500000 0.550989 0.491013
O O12 0.259720 0.500000 0.479626
O O13 0.268255 0.583495 0.385816
O O14 0.258561 0.578724 0.591227
O O15 0.226928 0.250490 0.221293
O O16 0.254399 0.158918 0.200767
O O17 0.000000 0.195060 0.227114
O O18 0.500000 0.403159 0.259772
O O19 0.296749 0.336913 0.277623
O O20 0.500000 0.720776 0.203130
O O21 0.500000 0.882141 0.167035
#
# Coordination Sequence:
#
# PCOD8178499 Si02
#       8
#     8   8   8   8   8   8   8   8
#     4  11  23  36  53  80 113 148 186 233 290 348
#     4  10  20  36  57  79 111 151 187 233 291 348
#     4  10  19  33  55  82 110 144 187 235 289 345
#     4   9  18  35  60  88 119 156 197 244 299 356
#     4  10  22  38  57  84 116 155 198 242 299 358
#     4  10  21  37  58  84 113 149 194 243 293 349
#     4  11  22  35  56  86 117 152 197 246 298 355
#     4   9  19  36  59  86 117 152 194 243 293 349
#
# _framework density 19.631077000000001
#
# number of rings (size 3 to 8) (size 9 to 14) (size 15 to 20)
#    0.000    2.000    1.250    2.250    0.000    5.500 
#    0.000    3.125    0.000    1.125    0.000    0.000 
#    0.000    0.000    0.000    0.000    0.000    0.000 
#
# Total GULP energy -396617.919034 kJ/mol
# GULP energy per Si atom -12394.309970 kJ/mol
# Density = 1.958640 g / cm^3
# Si number density = 19.631077 Si / 1000 Ang^3
#
#
#
# Elastic Constant Matrix: (Units=GPa)
#
#
# Indices 1 2 3 4 5 6 
#
# 1 37.1523 15.0063 33.2659 0.0000 0.0000 0.0000
# 2 15.0063 96.0824 47.5986 0.0000 0.0000 0.0000
# 3 33.2659 47.5986 118.2574 0.0000 0.0000 0.0000
# 4 0.0000 0.0000 0.0000 22.3827 0.0000 0.0000
# 5 0.0000 0.0000 0.0000 0.0000 21.6871 0.0000
# 6 0.0000 0.0000 0.0000 0.0000 0.0000 23.7347
#
#
#
# Elastic Compliance Matrix: (Units=1/GPa)
#
#
# Indices 1 2 3 4 5 6 
#
# 1 0.036022 -0.000757 -0.009828 0.000000 0.000000 0.000000
# 2 -0.000757 0.013016 -0.005026 0.000000 0.000000 0.000000
# 3 -0.009828 -0.005026 0.013244 0.000000 0.000000 0.000000
# 4 0.000000 0.000000 0.000000 0.044677 0.000000 0.000000
# 5 0.000000 0.000000 0.000000 0.000000 0.046110 0.000000
# 6 0.000000 0.000000 0.000000 0.000000 0.000000 0.042132
#
#
# Mechanical properties :
#
#
# Convention : Reuss Voigt Hill
#
# Bulk Modulus (GPa) = 32.19666 49.24819 40.72243
# Shear Modulus (GPa) = 21.11684 23.93562 22.52623
#
# Velocity S-wave (km/s) = 3.28332 3.49560 3.39112
# Velocity P-wave (km/s) = 5.55068 6.43689 6.01014
#
# Compressibility (1/GPa) = 0.03105912
#
# Stress axis : x y z
#
# Youngs Moduli (GPa) = 27.76061 76.82984 75.50721
#
# Poissons Ratio (x) = 0.05817 0.74211
# Poissons Ratio (y) = 0.02102 0.37949
# Poissons Ratio (z) = 0.27284 0.38614
#
# Static dielectric constant tensor:
#      x y z
#    x 3.465780 0.000000 0.000000 
#    y 0.000000 3.652380 0.000000 
#    z 0.000000 0.000000 3.994600 
# 
# 
# High freq. dielectric constant tensor:
#      x y z
#    x 1.755850 0.000000 0.000000 
#    y 0.000000 1.765940 0.000000 
#    z 0.000000 0.000000 1.765380 
# 
# From -- ./inp_files/8655.got.cif
#   From: 2010.03.12/outbox.cif.g09.slc.cpg/sg38_5_cif.got.tgz:8655.got - 2010.04.14 02:38:36.
