data_PCOD8178234
_publ_section_title
;
Structure prediction by ZEFSAII (Michael W. Deem and Ramdas Pophale) SiO2 
 PCOD8178234
Probable space group: A M M 2
;
_chemical_formula_sum "Si O2"
_cell_formula_units_Z 64
_cell_length_a 18.308255
_cell_length_b 12.468964
_cell_length_c 15.094729
_cell_angle_alpha 90.000000
_cell_angle_beta 90.000000
_cell_angle_gamma 90.000000
_cell_volume 3445.899795
_symmetry_space_group_name_H-M "A M M 2"
_symmetry_group_IT_number 38
_symmetry_cell_setting 'orthorhombic'
loop_
_space_group_symop_operation_xyz
x,y,z
-x,-y,z
-x,y,z
x,-y,z
x,1/2+y,1/2+z
-x,1/2-y,1/2+z
-x,1/2+y,1/2+z
x,1/2-y,1/2+z
loop_
_atom_site_type_symbol
_atom_site_label
_atom_site_fract_x
_atom_site_fract_y
_atom_site_fract_z
Si Si1 0.914281 0.877215 0.883350
Si Si2 0.414586 0.296903 0.740152
Si Si3 0.691238 0.376219 0.178929
Si Si4 0.154230 0.373756 0.570656
Si Si5 0.825267 0.250120 0.238523
Si Si6 0.709679 0.249916 0.008762
Si Si7 0.579884 0.377212 0.545560
Si Si8 0.284254 0.621166 0.841243
O O1 0.878911 0.793018 0.814724
O O2 0.000000 0.865948 0.871004
O O3 0.888892 0.000000 0.863749
O O4 0.895078 0.847128 0.984914
O O5 0.500000 0.284916 0.767068
O O6 0.375253 0.181745 0.730307
O O7 0.404674 0.362715 0.649682
O O8 0.369044 0.362442 0.813949
O O9 0.675810 0.500000 0.191139
O O10 0.771521 0.348474 0.216060
O O11 0.690841 0.345219 0.076037
O O12 0.150081 0.500000 0.594638
O O13 0.129396 0.298054 0.653966
O O14 0.236944 0.339800 0.548784
O O15 0.773171 0.150080 0.264566
O O16 0.740965 0.301327 0.920405
O O17 0.635193 0.188593 0.984683
O O18 0.500000 0.332638 0.522323
O O19 0.587238 0.500000 0.520074
O O20 0.272940 0.500000 0.871322
#
# Coordination Sequence:
#
# PCOD8178234 Si02
#       8
#     8   8   8   8   8   8   8   8
#     4  10  21  38  61  89 120 153 187 225 277 338
#     4   9  19  33  49  71 101 138 185 233 282 335
#     4   9  18  32  52  75 102 139 186 228 278 337
#     4  10  20  36  60  87 114 150 193 233 278 330
#     4  10  20  36  58  85 113 150 188 237 276 326
#     4  10  19  32  50  77 107 141 179 230 281 331
#     4   9  17  31  50  70  97 135 178 227 279 330
#     4  11  21  33  52  78 107 141 184 230 283 337
#
# _framework density 18.572797000000001
#
# number of rings (size 3 to 8) (size 9 to 14) (size 15 to 20)
#    0.000    2.250    1.250    2.625    0.000    2.000 
#    0.000    0.625    0.000    3.375    0.000    0.000 
#    0.000    0.000    0.000    0.000    0.000    0.000 
#
# Total GULP energy -396668.357153 kJ/mol
# GULP energy per Si atom -12395.886161 kJ/mol
# Density = 1.853052 g / cm^3
# Si number density = 18.572797 Si / 1000 Ang^3
#
#
#
# Elastic Constant Matrix: (Units=GPa)
#
#
# Indices 1 2 3 4 5 6 
#
# 1 75.5513 32.8229 30.1726 0.0000 0.0000 0.0000
# 2 32.8229 88.9179 33.8318 0.0000 0.0000 0.0000
# 3 30.1726 33.8318 81.7285 0.0000 0.0000 0.0000
# 4 0.0000 0.0000 0.0000 26.3767 0.0000 0.0000
# 5 0.0000 0.0000 0.0000 0.0000 26.6260 0.0000
# 6 0.0000 0.0000 0.0000 0.0000 0.0000 19.4255
#
#
#
# Elastic Compliance Matrix: (Units=1/GPa)
#
#
# Indices 1 2 3 4 5 6 
#
# 1 0.016980 -0.004609 -0.004361 0.000000 0.000000 0.000000
# 2 -0.004609 0.014600 -0.004342 0.000000 0.000000 0.000000
# 3 -0.004361 -0.004342 0.015643 0.000000 0.000000 0.000000
# 4 0.000000 0.000000 0.000000 0.037912 0.000000 0.000000
# 5 0.000000 0.000000 0.000000 0.000000 0.037557 0.000000
# 6 0.000000 0.000000 0.000000 0.000000 0.000000 0.051479
#
#
# Mechanical properties :
#
#
# Convention : Reuss Voigt Hill
#
# Bulk Modulus (GPa) = 48.54557 48.87245 48.70901
# Shear Modulus (GPa) = 24.07778 24.44368 24.26073
#
# Velocity S-wave (km/s) = 3.60446 3.63175 3.61813
# Velocity P-wave (km/s) = 6.59679 6.63003 6.61343
#
# Compressibility (1/GPa) = 0.02059920
#
# Stress axis : x y z
#
# Youngs Moduli (GPa) = 58.89343 68.49476 63.92623
#
# Poissons Ratio (x) = 0.31567 0.27877
# Poissons Ratio (y) = 0.27142 0.27758
# Poissons Ratio (z) = 0.25683 0.29741
#
# Static dielectric constant tensor:
#      x y z
#    x 3.317010 0.000000 0.000000 
#    y 0.000000 3.288630 0.000000 
#    z 0.000000 0.000000 3.421230 
# 
# 
# High freq. dielectric constant tensor:
#      x y z
#    x 1.708390 0.000000 0.000000 
#    y 0.000000 1.715390 0.000000 
#    z 0.000000 0.000000 1.717320 
# 
# From -- ./inp_files/15268.got.cif
#   From: 2010.03.12/outbox.cif.g09.slc.cpg/sg38_8_cif.got.tgz:15268.got - 2010.04.14 02:38:36.
