data_PCOD8178649
_publ_section_title
;
Structure prediction by ZEFSAII (Michael W. Deem and Ramdas Pophale) SiO2 
 PCOD8178649
Probable space group: A M M 2
;
_chemical_formula_sum "Si O2"
_cell_formula_units_Z 56
_cell_length_a 23.502846
_cell_length_b 23.624410
_cell_length_c 5.235332
_cell_angle_alpha 90.000000
_cell_angle_beta 90.000000
_cell_angle_gamma 90.000000
_cell_volume 2906.870295
_symmetry_space_group_name_H-M "A M M 2"
_symmetry_group_IT_number 38
_symmetry_cell_setting 'orthorhombic'
loop_
_space_group_symop_operation_xyz
x,y,z
-x,-y,z
-x,y,z
x,-y,z
x,1/2+y,1/2+z
-x,1/2-y,1/2+z
-x,1/2+y,1/2+z
x,1/2-y,1/2+z
loop_
_atom_site_type_symbol
_atom_site_label
_atom_site_fract_x
_atom_site_fract_y
_atom_site_fract_z
Si Si1 0.240058 0.933579 0.875000
Si Si2 0.734398 0.631036 0.874235
Si Si3 0.566416 0.690895 0.374621
Si Si4 0.892677 0.933939 0.892133
Si Si5 0.384980 0.315667 0.874623
Si Si6 0.065534 0.126455 0.391889
Si Si7 0.838997 0.713588 0.900615
O O1 0.269110 0.907600 0.624862
O O2 0.173506 0.918752 0.873057
O O3 0.250772 0.000000 0.874042
O O4 0.269528 0.908400 0.126068
O O5 0.682299 0.674809 0.874556
O O6 0.792267 0.665619 0.866003
O O7 0.500000 0.705002 0.374526
O O8 0.585196 0.656056 0.625946
O O9 0.602212 0.748934 0.374722
O O10 0.585222 0.656049 0.123352
O O11 0.925270 0.902139 0.666454
O O12 0.904068 0.000000 0.858952
O O13 0.915552 0.915886 0.168140
O O14 0.099316 0.185316 0.373352
O O15 0.000000 0.142196 0.358531
O O16 0.831625 0.760079 0.680877
#
# Coordination Sequence:
#
# PCOD8178649 Si02
#       7
#     8   8   8   8   8   8   8
#     4  11  22  41  65  86 118 156 188 244 312 365
#     4  12  23  39  61  91 123 148 208 242 289 359
#     4  10  19  35  52  80 126 165 198 234 286 333
#     4  11  22  41  65  91 115 145 187 244 320 376
#     4  10  20  30  52  82 116 156 196 233 275 330
#     4  12  25  43  61  86 116 149 201 249 293 362
#     4  12  26  41  61  82 117 161 197 243 294 336
#
# _framework density 19.264703999999998
#
# number of rings (size 3 to 8) (size 9 to 14) (size 15 to 20)
#    0.000    0.857    2.857    6.000    4.000    4.571 
#    0.000    0.000    0.000    0.000    0.000    0.000 
#    0.000   66.286    0.000    0.000    0.000    0.000 
#
# Total GULP energy -347238.815983 kJ/mol
# GULP energy per Si atom -12401.386285 kJ/mol
# Density = 1.922086 g / cm^3
# Si number density = 19.264704 Si / 1000 Ang^3
#
#
#
# Elastic Constant Matrix: (Units=GPa)
#
#
# Indices 1 2 3 4 5 6 
#
# 1 104.5239 39.8683 42.2271 0.0000 0.0000 0.0000
# 2 39.8683 61.1912 30.0296 0.0000 0.0000 0.0000
# 3 42.2271 30.0296 154.6450 0.0000 0.0000 0.0000
# 4 0.0000 0.0000 0.0000 25.9721 0.0000 0.0000
# 5 0.0000 0.0000 0.0000 0.0000 1.2647 0.0000
# 6 0.0000 0.0000 0.0000 0.0000 0.0000 10.6575
#
#
#
# Elastic Compliance Matrix: (Units=1/GPa)
#
#
# Indices 1 2 3 4 5 6 
#
# 1 0.013355 -0.007640 -0.002163 0.000000 0.000000 0.000000
# 2 -0.007640 0.022434 -0.002270 0.000000 0.000000 0.000000
# 3 -0.002163 -0.002270 0.007498 0.000000 0.000000 0.000000
# 4 0.000000 0.000000 0.000000 0.038503 0.000000 0.000000
# 5 0.000000 0.000000 0.000000 0.000000 0.790678 0.000000
# 6 0.000000 0.000000 0.000000 0.000000 0.000000 0.093831
#
#
# Mechanical properties :
#
#
# Convention : Reuss Voigt Hill
#
# Bulk Modulus (GPa) = 52.24489 60.51224 56.37857
# Shear Modulus (GPa) = 5.01593 21.46121 13.23857
#
# Velocity S-wave (km/s) = 1.61535 3.34131 2.62428
# Velocity P-wave (km/s) = 5.53692 6.80918 6.20574
#
# Compressibility (1/GPa) = 0.01914063
#
# Stress axis : x y z
#
# Youngs Moduli (GPa) = 74.87755 44.57536 133.36991
#
# Poissons Ratio (x) = 0.34055 0.28851
# Poissons Ratio (y) = 0.57205 0.30278
# Poissons Ratio (z) = 0.16198 0.10120
#
# Static dielectric constant tensor:
#      x y z
#    x 3.493660 0.000000 0.000000 
#    y 0.000000 3.238120 0.000000 
#    z 0.000000 0.000000 23.530210 
# 
# 
# High freq. dielectric constant tensor:
#      x y z
#    x 1.746990 0.000000 0.000000 
#    y 0.000000 1.712970 0.000000 
#    z 0.000000 0.000000 1.787990 
# 
# From -- ./inp_files/1945.got.cif
#   From: 2010.03.12/outbox.cif.g09.slc.cpg/sg38_1_cif.got.tgz:1945.got - 2010.04.14 02:38:36.
