data_PCOD8178253
_publ_section_title
;
Structure prediction by ZEFSAII (Michael W. Deem and Ramdas Pophale) SiO2 
 PCOD8178253
Probable space group: A M M 2
;
_chemical_formula_sum "Si O2"
_cell_formula_units_Z 64
_cell_length_a 9.411579
_cell_length_b 15.837749
_cell_length_c 22.897467
_cell_angle_alpha 90.000000
_cell_angle_beta 90.000000
_cell_angle_gamma 90.000000
_cell_volume 3413.055809
_symmetry_space_group_name_H-M "A M M 2"
_symmetry_group_IT_number 38
_symmetry_cell_setting 'orthorhombic'
loop_
_space_group_symop_operation_xyz
x,y,z
-x,-y,z
-x,y,z
x,-y,z
x,1/2+y,1/2+z
-x,1/2-y,1/2+z
-x,1/2+y,1/2+z
x,1/2-y,1/2+z
loop_
_atom_site_type_symbol
_atom_site_label
_atom_site_fract_x
_atom_site_fract_y
_atom_site_fract_z
Si Si1 0.164979 0.904496 0.339600
Si Si2 0.834959 0.254807 0.753462
Si Si3 0.346705 0.097364 0.928367
Si Si4 0.162007 0.263289 0.124432
Si Si5 0.341117 0.094419 0.578087
Si Si6 0.834118 0.301295 0.501027
Si Si7 0.331982 0.850979 0.451402
Si Si8 0.666648 0.597677 0.298252
O O1 0.217217 0.833884 0.292817
O O2 0.260142 0.897876 0.397291
O O3 0.000000 0.889340 0.355567
O O4 0.185341 0.000000 0.314328
O O5 0.809540 0.283196 0.685853
O O6 0.751716 0.166654 0.760519
O O7 0.000000 0.236330 0.765566
O O8 0.500000 0.137821 0.946997
O O9 0.222854 0.110018 0.976650
O O10 0.301606 0.129098 0.864131
O O11 0.371905 0.000000 0.920727
O O12 0.245831 0.350492 0.120585
O O13 0.000000 0.290034 0.117954
O O14 0.204598 0.203996 0.069564
O O15 0.500000 0.129775 0.583672
O O16 0.296518 0.096614 0.510022
O O17 0.328339 0.000000 0.601655
O O18 0.741408 0.239489 0.460055
O O19 0.000000 0.288156 0.488948
O O20 0.500000 0.842713 0.439819
O O21 0.500000 0.604535 0.283457
O O22 0.717212 0.500000 0.286799
#
# Coordination Sequence:
#
# PCOD8178253 Si02
#       8
#     8   8   8   8   8   8   8   8
#     4  10  21  36  54  77 104 135 173 217 263 309
#     4  10  21  37  54  73 101 138 177 215 256 302
#     4   9  18  33  52  75 104 134 163 201 254 312
#     4   9  20  36  50  68  97 132 170 209 249 296
#     4   9  18  32  50  74 102 130 161 198 244 301
#     4  10  19  32  51  75 102 132 168 209 253 302
#     4  10  19  32  52  77 105 134 163 201 253 310
#     4   9  19  35  54  78 107 137 168 204 252 309
#
# _framework density 18.751525000000001
#
# number of rings (size 3 to 8) (size 9 to 14) (size 15 to 20)
#    0.000    2.500    0.000    2.625    0.000    6.500 
#    0.000    4.375    0.000    2.250    0.000    0.000 
#    0.000    0.000    0.000    0.000    0.000    0.000 
#
# Total GULP energy -396555.018921 kJ/mol
# GULP energy per Si atom -12392.344341 kJ/mol
# Density = 1.870885 g / cm^3
# Si number density = 18.751525 Si / 1000 Ang^3
#
#
#
# Elastic Constant Matrix: (Units=GPa)
#
#
# Indices 1 2 3 4 5 6 
#
# 1 64.9593 25.5935 38.8895 0.0000 0.0000 0.0000
# 2 25.5935 55.2258 36.2074 0.0000 0.0000 0.0000
# 3 38.8895 36.2074 89.3139 0.0000 0.0000 0.0000
# 4 0.0000 0.0000 0.0000 17.2987 0.0000 0.0000
# 5 0.0000 0.0000 0.0000 0.0000 25.1129 0.0000
# 6 0.0000 0.0000 0.0000 0.0000 0.0000 28.5611
#
#
#
# Elastic Compliance Matrix: (Units=1/GPa)
#
#
# Indices 1 2 3 4 5 6 
#
# 1 0.021909 -0.005310 -0.007387 0.000000 0.000000 0.000000
# 2 -0.005310 0.025950 -0.008208 0.000000 0.000000 0.000000
# 3 -0.007387 -0.008208 0.017740 0.000000 0.000000 0.000000
# 4 0.000000 0.000000 0.000000 0.057808 0.000000 0.000000
# 5 0.000000 0.000000 0.000000 0.000000 0.039820 0.000000
# 6 0.000000 0.000000 0.000000 0.000000 0.000000 0.035013
#
#
# Mechanical properties :
#
#
# Convention : Reuss Voigt Hill
#
# Bulk Modulus (GPa) = 42.03608 45.65332 43.84470
# Shear Modulus (GPa) = 20.16307 21.44846 20.80576
#
# Velocity S-wave (km/s) = 3.28270 3.38572 3.33461
# Velocity P-wave (km/s) = 6.06912 6.29948 6.18537
#
# Compressibility (1/GPa) = 0.02378909
#
# Stress axis : x y z
#
# Youngs Moduli (GPa) = 45.64380 38.53637 56.36909
#
# Poissons Ratio (x) = 0.20464 0.41639
# Poissons Ratio (y) = 0.24238 0.46266
# Poissons Ratio (z) = 0.33717 0.31629
#
# Static dielectric constant tensor:
#      x y z
#    x 3.443870 0.000000 0.000000 
#    y 0.000000 3.441620 0.000000 
#    z 0.000000 0.000000 3.503650 
# 
# 
# High freq. dielectric constant tensor:
#      x y z
#    x 1.727890 0.000000 0.000000 
#    y 0.000000 1.715860 0.000000 
#    z 0.000000 0.000000 1.723690 
# 
# From -- ./inp_files/20042.got.cif
#   From: 2010.03.12/outbox.cif.g09.slc.cpg/sg38_11_cif.got.tgz:20042.got - 2010.04.14 02:38:36.
