data_PCOD8178992
_publ_section_title
;
Structure prediction by ZEFSAII (Michael W. Deem and Ramdas Pophale) SiO2 
 PCOD8178992
Probable space group: A M M 2
;
_chemical_formula_sum "Si O2"
_cell_formula_units_Z 40
_cell_length_a 9.316183
_cell_length_b 13.498893
_cell_length_c 18.240917
_cell_angle_alpha 90.000000
_cell_angle_beta 90.000000
_cell_angle_gamma 90.000000
_cell_volume 2293.944113
_symmetry_space_group_name_H-M "A M M 2"
_symmetry_group_IT_number 38
_symmetry_cell_setting 'orthorhombic'
loop_
_space_group_symop_operation_xyz
x,y,z
-x,-y,z
-x,y,z
x,-y,z
x,1/2+y,1/2+z
-x,1/2-y,1/2+z
-x,1/2+y,1/2+z
x,1/2-y,1/2+z
loop_
_atom_site_type_symbol
_atom_site_label
_atom_site_fract_x
_atom_site_fract_y
_atom_site_fract_z
Si Si1 0.833781 0.282903 0.466040
Si Si2 0.833832 0.884091 0.814723
Si Si3 0.833055 0.613684 0.615926
Si Si4 0.668641 0.214940 0.683408
Si Si5 0.667571 0.387679 0.031938
O O1 0.788217 0.337278 0.391982
O O2 0.795453 0.356230 0.532736
O O3 0.748031 0.180172 0.472823
O O4 0.000000 0.255151 0.466184
O O5 0.733621 0.836787 0.753953
O O6 0.000000 0.862526 0.796393
O O7 0.803136 0.000000 0.819090
O O8 0.790055 0.500000 0.627163
O O9 0.739976 0.677526 0.672787
O O10 0.000000 0.631950 0.632770
O O11 0.500000 0.228929 0.694475
O O12 0.705697 0.146029 0.614139
O O13 0.500000 0.377624 0.016676
O O14 0.720842 0.500000 0.022006
#
# Coordination Sequence:
#
# PCOD8178992 Si02
#       5
#     8   8   8   8   8
#     4   9  18  32  51  76 101 125 160 204 247 291
#     4  10  20  34  52  74 101 131 162 200 247 296
#     4   9  17  32  54  76  99 129 164 203 247 293
#     4  10  20  33  50  74 103 132 165 204 244 290
#     4   9  18  33  51  71  98 131 164 200 243 289
#
# _framework density 17.437217
#
# number of rings (size 3 to 8) (size 9 to 14) (size 15 to 20)
#    0.000    2.600    0.000    1.800    0.000    6.000 
#    0.000    1.000    0.000    4.800    0.000    0.000 
#    0.000    0.000    0.000    0.000    0.000    0.000 
#
# Total GULP energy -248053.368969 kJ/mol
# GULP energy per Si atom -12402.668448 kJ/mol
# Density = 1.739753 g / cm^3
# Si number density = 17.437217 Si / 1000 Ang^3
#
#
#
# Elastic Constant Matrix: (Units=GPa)
#
#
# Indices 1 2 3 4 5 6 
#
# 1 69.4523 67.9370 52.2932 0.0000 0.0000 0.0000
# 2 67.9370 160.0258 64.8625 0.0000 0.0000 0.0000
# 3 52.2932 64.8625 95.7314 0.0000 0.0000 0.0000
# 4 0.0000 0.0000 0.0000 25.6286 0.0000 0.0000
# 5 0.0000 0.0000 0.0000 0.0000 28.5984 0.0000
# 6 0.0000 0.0000 0.0000 0.0000 0.0000 27.7819
#
#
#
# Elastic Compliance Matrix: (Units=1/GPa)
#
#
# Indices 1 2 3 4 5 6 
#
# 1 0.031462 -0.008810 -0.011217 0.000000 0.000000 0.000000
# 2 -0.008810 0.011082 -0.002696 0.000000 0.000000 0.000000
# 3 -0.011217 -0.002696 0.018400 0.000000 0.000000 0.000000
# 4 0.000000 0.000000 0.000000 0.039019 0.000000 0.000000
# 5 0.000000 0.000000 0.000000 0.000000 0.034967 0.000000
# 6 0.000000 0.000000 0.000000 0.000000 0.000000 0.035995
#
#
# Mechanical properties :
#
#
# Convention : Reuss Voigt Hill
#
# Bulk Modulus (GPa) = 64.52569 77.26610 70.89589
# Shear Modulus (GPa) = 22.56969 25.74290 24.15629
#
# Velocity S-wave (km/s) = 3.60160 3.84646 3.72604
# Velocity P-wave (km/s) = 7.37430 8.00838 7.69787
#
# Compressibility (1/GPa) = 0.01549770
#
# Stress axis : x y z
#
# Youngs Moduli (GPa) = 31.78438 90.23567 54.34913
#
# Poissons Ratio (x) = 0.79502 0.60961
# Poissons Ratio (y) = 0.28003 0.14652
# Poissons Ratio (z) = 0.35651 0.24327
#
# Static dielectric constant tensor:
#      x y z
#    x 3.212400 0.000000 0.000000 
#    y 0.000000 3.377660 0.000000 
#    z 0.000000 0.000000 3.154420 
# 
# 
# High freq. dielectric constant tensor:
#      x y z
#    x 1.671810 0.000000 0.000000 
#    y 0.000000 1.681050 0.000000 
#    z 0.000000 0.000000 1.662710 
# 
# From -- ./inp_files/11661.got.cif
#   From: 2010.03.12/outbox.cif.g09.slc.cpg/sg38_6_cif.got.tgz:11661.got - 2010.04.14 02:38:36.
