data_PCOD8178636
_publ_section_title
;
Structure prediction by ZEFSAII (Michael W. Deem and Ramdas Pophale) SiO2 
 PCOD8178636
Probable space group: A M M 2
;
_chemical_formula_sum "Si O2"
_cell_formula_units_Z 64
_cell_length_a 8.697824
_cell_length_b 28.707967
_cell_length_c 12.752704
_cell_angle_alpha 90.000000
_cell_angle_beta 90.000000
_cell_angle_gamma 90.000000
_cell_volume 3184.309946
_symmetry_space_group_name_H-M "A M M 2"
_symmetry_group_IT_number 38
_symmetry_cell_setting 'orthorhombic'
loop_
_space_group_symop_operation_xyz
x,y,z
-x,-y,z
-x,y,z
x,-y,z
x,1/2+y,1/2+z
-x,1/2-y,1/2+z
-x,1/2+y,1/2+z
x,1/2-y,1/2+z
loop_
_atom_site_type_symbol
_atom_site_label
_atom_site_fract_x
_atom_site_fract_y
_atom_site_fract_z
Si Si1 0.830799 0.074806 0.456360
Si Si2 0.681576 0.396710 0.166707
Si Si3 0.671296 0.050939 0.254679
Si Si4 0.182135 0.445956 0.369169
Si Si5 0.817666 0.802365 0.156810
Si Si6 0.317232 0.889250 0.062872
Si Si7 0.168575 0.177941 0.380642
Si Si8 0.182800 0.801294 0.601341
O O1 0.726789 0.076363 0.560131
O O2 0.759061 0.043973 0.364532
O O3 0.846181 0.124089 0.402093
O O4 0.000000 0.055804 0.487546
O O5 0.500000 0.395851 0.178447
O O6 0.752781 0.425278 0.261839
O O7 0.742131 0.343296 0.167285
O O8 0.500000 0.068755 0.281010
O O9 0.745342 0.085644 0.168895
O O10 0.668633 0.000000 0.201285
O O11 0.233795 0.500000 0.381279
O O12 0.245295 0.414833 0.463653
O O13 0.000000 0.441899 0.367293
O O14 0.737561 0.835274 0.069590
O O15 0.744795 0.814769 0.270750
O O16 0.772932 0.748442 0.146932
O O17 0.000000 0.810498 0.147782
O O18 0.500000 0.892193 0.053022
O O19 0.250482 0.200344 0.482279
O O20 0.000000 0.201150 0.367383
O O21 0.000000 0.810882 0.598525
#
# Coordination Sequence:
#
# PCOD8178636 Si02
#       8
#     8   8   8   8   8   8   8   8
#     4  10  19  35  59  84 114 150 195 246 295 354
#     4  11  23  40  63  89 123 161 200 252 316 376
#     4  10  21  36  55  83 119 156 193 237 296 361
#     4  11  25  45  68  91 119 162 215 265 315 379
#     4  10  19  34  58  86 120 164 213 258 305 364
#     4  11  23  39  60  88 125 162 201 253 314 373
#     4   8  15  30  51  77 110 148 190 240 295 346
#     4   9  19  35  57  87 122 163 210 259 307 363
#
# _framework density 20.098545999999999
#
# number of rings (size 3 to 8) (size 9 to 14) (size 15 to 20)
#    0.000    2.000    1.250    3.375    0.000    4.250 
#    0.000    2.500    0.000    0.000    0.000    0.000 
#    0.000    0.000    0.000    0.000    0.000    0.000 
#
# Total GULP energy -396578.867354 kJ/mol
# GULP energy per Si atom -12393.089605 kJ/mol
# Density = 2.005280 g / cm^3
# Si number density = 20.098546 Si / 1000 Ang^3
#
#
#
# Elastic Constant Matrix: (Units=GPa)
#
#
# Indices 1 2 3 4 5 6 
#
# 1 72.6648 34.1920 29.7555 0.0000 0.0000 0.0000
# 2 34.1920 88.9729 49.6164 0.0000 0.0000 0.0000
# 3 29.7555 49.6164 115.7049 0.0000 0.0000 0.0000
# 4 0.0000 0.0000 0.0000 24.1562 0.0000 0.0000
# 5 0.0000 0.0000 0.0000 0.0000 28.6892 0.0000
# 6 0.0000 0.0000 0.0000 0.0000 0.0000 22.8521
#
#
#
# Elastic Compliance Matrix: (Units=1/GPa)
#
#
# Indices 1 2 3 4 5 6 
#
# 1 0.017174 -0.005437 -0.002085 0.000000 0.000000 0.000000
# 2 -0.005437 0.016493 -0.005674 0.000000 0.000000 0.000000
# 3 -0.002085 -0.005674 0.011612 0.000000 0.000000 0.000000
# 4 0.000000 0.000000 0.000000 0.041397 0.000000 0.000000
# 5 0.000000 0.000000 0.000000 0.000000 0.034856 0.000000
# 6 0.000000 0.000000 0.000000 0.000000 0.000000 0.043760
#
#
# Mechanical properties :
#
#
# Convention : Reuss Voigt Hill
#
# Bulk Modulus (GPa) = 52.94845 56.05225 54.50035
# Shear Modulus (GPa) = 25.25493 26.05807 25.65650
#
# Velocity S-wave (km/s) = 3.54864 3.60462 3.57674
# Velocity P-wave (km/s) = 6.57207 6.72857 6.65078
#
# Compressibility (1/GPa) = 0.01888630
#
# Stress axis : x y z
#
# Youngs Moduli (GPa) = 58.22732 60.63109 86.11679
#
# Poissons Ratio (x) = 0.32966 0.17956
# Poissons Ratio (y) = 0.31659 0.48865
# Poissons Ratio (z) = 0.12141 0.34404
#
# Static dielectric constant tensor:
#      x y z
#    x 3.727250 0.000000 0.000000 
#    y 0.000000 3.665080 0.000000 
#    z 0.000000 0.000000 3.862450 
# 
# 
# High freq. dielectric constant tensor:
#      x y z
#    x 1.767650 0.000000 0.000000 
#    y 0.000000 1.787080 0.000000 
#    z 0.000000 0.000000 1.790120 
# 
# From -- ./inp_files/8525.got.cif
#   From: 2010.03.12/outbox.cif.g09.slc.cpg/sg38_5_cif.got.tgz:8525.got - 2010.04.14 02:38:36.
