data_PCOD8178292
_publ_section_title
;
Structure prediction by ZEFSAII (Michael W. Deem and Ramdas Pophale) SiO2 
 PCOD8178292
Probable space group: A M M 2
;
_chemical_formula_sum "Si O2"
_cell_formula_units_Z 64
_cell_length_a 16.042409
_cell_length_b 8.980451
_cell_length_c 23.423392
_cell_angle_alpha 90.000000
_cell_angle_beta 90.000000
_cell_angle_gamma 90.000000
_cell_volume 3374.562830
_symmetry_space_group_name_H-M "A M M 2"
_symmetry_group_IT_number 38
_symmetry_cell_setting 'orthorhombic'
loop_
_space_group_symop_operation_xyz
x,y,z
-x,-y,z
-x,y,z
x,-y,z
x,1/2+y,1/2+z
-x,1/2-y,1/2+z
-x,1/2+y,1/2+z
x,1/2-y,1/2+z
loop_
_atom_site_type_symbol
_atom_site_label
_atom_site_fract_x
_atom_site_fract_y
_atom_site_fract_z
Si Si1 0.406343 0.323102 0.407140
Si Si2 0.089796 0.165044 0.147733
Si Si3 0.241381 0.177635 0.843143
Si Si4 0.404054 0.661380 0.532199
Si Si5 0.902023 0.323199 0.918931
Si Si6 0.692429 0.327708 0.116722
Si Si7 0.144864 0.326951 0.044934
Si Si8 0.239747 0.323331 0.721339
O O1 0.500000 0.261569 0.389896
O O2 0.410793 0.500000 0.404928
O O3 0.330150 0.264703 0.368252
O O4 0.379196 0.270797 0.470574
O O5 0.080351 0.256123 0.089223
O O6 0.152351 0.231459 0.194231
O O7 0.000000 0.163170 0.177822
O O8 0.120865 0.000000 0.131424
O O9 0.159275 0.246700 0.873064
O O10 0.247324 0.232239 0.778755
O O11 0.233615 0.000000 0.846304
O O12 0.500000 0.628006 0.529474
O O13 0.359185 0.500000 0.543240
O O14 0.389205 0.779870 0.582405
O O15 0.891582 0.500000 0.912962
O O16 0.000000 0.279241 0.909379
O O17 0.870953 0.265216 0.981148
O O18 0.691779 0.500000 0.133570
O O19 0.764679 0.287367 0.070837
O O20 0.692747 0.231123 0.174777
O O21 0.126874 0.500000 0.043611
O O22 0.246496 0.500000 0.732518
#
# Coordination Sequence:
#
# PCOD8178292 Si02
#       8
#     8   8   8   8   8   8   8   8
#     4   8  16  33  57  83 109 138 172 212 265 328
#     4   9  18  32  51  74  97 126 168 215 261 309
#     4  11  22  36  56  80 105 136 180 232 275 311
#     4   9  17  31  53  80 108 137 168 202 249 317
#     4  10  21  36  53  75 108 149 183 211 257 323
#     4  10  19  32  52  78 106 134 169 216 266 311
#     4   9  18  32  51  76 104 134 169 210 259 315
#     4  10  21  37  54  71  99 140 180 216 258 314
#
# _framework density 18.965420000000002
#
# number of rings (size 3 to 8) (size 9 to 14) (size 15 to 20)
#    0.000    2.500    0.000    3.000    0.000    3.250 
#    0.000    2.500    0.000    5.250    0.000    0.000 
#    0.000    0.000    0.000    0.000    0.000    0.000 
#
# Total GULP energy -396459.230002 kJ/mol
# GULP energy per Si atom -12389.350938 kJ/mol
# Density = 1.892225 g / cm^3
# Si number density = 18.965420 Si / 1000 Ang^3
#
#
#
# Elastic Constant Matrix: (Units=GPa)
#
#
# Indices 1 2 3 4 5 6 
#
# 1 61.2170 25.3907 62.0950 0.0000 0.0000 0.0000
# 2 25.3907 44.2919 34.4704 0.0000 0.0000 0.0000
# 3 62.0950 34.4704 140.3607 0.0000 0.0000 0.0000
# 4 0.0000 0.0000 0.0000 26.3157 0.0000 0.0000
# 5 0.0000 0.0000 0.0000 0.0000 19.5370 0.0000
# 6 0.0000 0.0000 0.0000 0.0000 0.0000 22.0070
#
#
#
# Elastic Compliance Matrix: (Units=1/GPa)
#
#
# Indices 1 2 3 4 5 6 
#
# 1 0.032388 -0.009168 -0.012077 0.000000 0.000000 0.000000
# 2 -0.009168 0.030507 -0.003436 0.000000 0.000000 0.000000
# 3 -0.012077 -0.003436 0.013311 0.000000 0.000000 0.000000
# 4 0.000000 0.000000 0.000000 0.038000 0.000000 0.000000
# 5 0.000000 0.000000 0.000000 0.000000 0.051185 0.000000
# 6 0.000000 0.000000 0.000000 0.000000 0.000000 0.045440
#
#
# Mechanical properties :
#
#
# Convention : Reuss Voigt Hill
#
# Bulk Modulus (GPa) = 37.25162 54.42020 45.83591
# Shear Modulus (GPa) = 18.57759 21.83283 20.20521
#
# Velocity S-wave (km/s) = 3.13317 3.39660 3.26754
# Velocity P-wave (km/s) = 5.72482 6.64374 6.20132
#
# Compressibility (1/GPa) = 0.02684447
#
# Stress axis : x y z
#
# Youngs Moduli (GPa) = 30.87580 32.77900 75.12517
#
# Poissons Ratio (x) = 0.30051 0.90727
# Poissons Ratio (y) = 0.28306 0.25815
# Poissons Ratio (z) = 0.37288 0.11264
#
# Static dielectric constant tensor:
#      x y z
#    x 3.599400 0.000000 0.000000 
#    y 0.000000 3.299990 0.000000 
#    z 0.000000 0.000000 3.520170 
# 
# 
# High freq. dielectric constant tensor:
#      x y z
#    x 1.735440 0.000000 0.000000 
#    y 0.000000 1.723680 0.000000 
#    z 0.000000 0.000000 1.732480 
# 
# From -- ./inp_files/21420.got.cif
#   From: 2010.03.12/outbox.cif.g09.slc.cpg/sg38_11_cif.got.tgz:21420.got - 2010.04.14 02:38:36.
