data_PCOD8178776
_publ_section_title
;
Structure prediction by ZEFSAII (Michael W. Deem and Ramdas Pophale) SiO2 
 PCOD8178776
Probable space group: A M M 2
;
_chemical_formula_sum "Si O2"
_cell_formula_units_Z 52
_cell_length_a 21.120630
_cell_length_b 24.511540
_cell_length_c 5.032076
_cell_angle_alpha 90.000000
_cell_angle_beta 90.000000
_cell_angle_gamma 90.000000
_cell_volume 2605.101554
_symmetry_space_group_name_H-M "A M M 2"
_symmetry_group_IT_number 38
_symmetry_cell_setting 'orthorhombic'
loop_
_space_group_symop_operation_xyz
x,y,z
-x,-y,z
-x,y,z
x,-y,z
x,1/2+y,1/2+z
-x,1/2-y,1/2+z
-x,1/2+y,1/2+z
x,1/2-y,1/2+z
loop_
_atom_site_type_symbol
_atom_site_label
_atom_site_fract_x
_atom_site_fract_y
_atom_site_fract_z
Si Si1 0.243713 0.882430 0.494760
Si Si2 0.250470 0.000000 0.593199
Si Si3 0.671546 0.000000 0.091881
Si Si4 0.573205 0.785330 0.980654
Si Si5 0.000000 0.214564 0.473589
Si Si6 0.926926 0.938028 0.964325
Si Si7 0.330785 0.381487 0.495205
Si Si8 0.892325 0.871165 0.454760
O O1 0.277340 0.872546 0.215714
O O2 0.178830 0.847818 0.517203
O O3 0.214762 0.944201 0.522152
O O4 0.296001 0.870356 0.717277
O O5 0.314043 0.000000 0.406385
O O6 0.265465 0.000000 0.907331
O O7 0.637491 0.942485 0.015703
O O8 0.500000 0.802072 0.002763
O O9 0.590480 0.760675 0.695499
O O10 0.612453 0.839698 0.032654
O O11 0.062986 0.180543 0.414555
O O12 0.000000 0.233579 0.778693
O O13 0.920194 0.909670 0.681129
O O14 0.000000 0.937564 0.051824
O O15 0.901202 0.000000 0.943503
O O16 0.887159 0.905041 0.181693
#
# Coordination Sequence:
#
# PCOD8178776 Si02
#       8
#     8   4   4   8   4   8   8   8
#     4  10  21  34  58  86 120 151 192 230 292 346
#     4   8  16  30  48  79 113 152 176 210 272 352
#     4   8  16  30  53  76 114 155 190 216 268 346
#     4  10  21  38  62  90 118 156 202 246 299 354
#     4  12  26  46  65  74 101 154 204 254 302 342
#     4  11  22  37  59  90 122 148 178 236 311 368
#     4  10  19  38  56  86 123 158 190 243 286 344
#     4  12  23  42  60  86 116 150 202 247 291 369
#
# _framework density 19.960834999999999
#
# number of rings (size 3 to 8) (size 9 to 14) (size 15 to 20)
#    0.000    1.692    1.538    3.231    2.154    1.231 
#    2.769    5.000    0.000    0.000    0.000    9.692 
#    0.000    0.000    0.000    0.000    0.000    0.000 
#
# Total GULP energy -322311.895661 kJ/mol
# GULP energy per Si atom -12396.611372 kJ/mol
# Density = 1.991540 g / cm^3
# Si number density = 19.960835 Si / 1000 Ang^3
#
#
#
# Elastic Constant Matrix: (Units=GPa)
#
#
# Indices 1 2 3 4 5 6 
#
# 1 83.9425 54.4223 10.0494 0.0000 0.0000 0.0000
# 2 54.4223 95.9133 14.9683 0.0000 0.0000 0.0000
# 3 10.0494 14.9683 88.6993 0.0000 0.0000 0.0000
# 4 0.0000 0.0000 0.0000 27.9421 0.0000 0.0000
# 5 0.0000 0.0000 0.0000 0.0000 22.3867 0.0000
# 6 0.0000 0.0000 0.0000 0.0000 0.0000 16.0205
#
#
#
# Elastic Compliance Matrix: (Units=1/GPa)
#
#
# Indices 1 2 3 4 5 6 
#
# 1 0.018856 -0.010646 -0.000340 0.000000 0.000000 0.000000
# 2 -0.010646 0.016719 -0.001615 0.000000 0.000000 0.000000
# 3 -0.000340 -0.001615 0.011585 0.000000 0.000000 0.000000
# 4 0.000000 0.000000 0.000000 0.035788 0.000000 0.000000
# 5 0.000000 0.000000 0.000000 0.000000 0.044669 0.000000
# 6 0.000000 0.000000 0.000000 0.000000 0.000000 0.062420
#
#
# Mechanical properties :
#
#
# Convention : Reuss Voigt Hill
#
# Bulk Modulus (GPa) = 45.54187 47.49277 46.51732
# Shear Modulus (GPa) = 22.46606 25.87755 24.17181
#
# Velocity S-wave (km/s) = 3.35850 3.60448 3.48366
# Velocity P-wave (km/s) = 6.15666 6.41621 6.28777
#
# Compressibility (1/GPa) = 0.02195782
#
# Stress axis : x y z
#
# Youngs Moduli (GPa) = 53.03463 59.81313 86.31768
#
# Poissons Ratio (x) = 0.63676 0.02933
# Poissons Ratio (y) = 0.56460 0.13942
# Poissons Ratio (z) = 0.01802 0.09661
#
# Static dielectric constant tensor:
#      x y z
#    x 3.316990 0.000000 0.000000 
#    y 0.000000 3.616160 0.000000 
#    z 0.000000 0.000000 3.762380 
# 
# 
# High freq. dielectric constant tensor:
#      x y z
#    x 1.750920 0.000000 0.000000 
#    y 0.000000 1.768500 0.000000 
#    z 0.000000 0.000000 1.801250 
# 
# From -- ./inp_files/1917.got.cif
#   From: 2010.03.12/outbox.cif.g09.slc.cpg/sg38_1_cif.got.tgz:1917.got - 2010.04.14 02:38:36.
