data_PCOD8178390
_publ_section_title
;
Structure prediction by ZEFSAII (Michael W. Deem and Ramdas Pophale) SiO2 
 PCOD8178390
Probable space group: A M M 2
;
_chemical_formula_sum "Si O2"
_cell_formula_units_Z 56
_cell_length_a 9.097446
_cell_length_b 18.139462
_cell_length_c 17.236833
_cell_angle_alpha 90.000000
_cell_angle_beta 90.000000
_cell_angle_gamma 90.000000
_cell_volume 2844.470031
_symmetry_space_group_name_H-M "A M M 2"
_symmetry_group_IT_number 38
_symmetry_cell_setting 'orthorhombic'
loop_
_space_group_symop_operation_xyz
x,y,z
-x,-y,z
-x,y,z
x,-y,z
x,1/2+y,1/2+z
-x,1/2-y,1/2+z
-x,1/2+y,1/2+z
x,1/2-y,1/2+z
loop_
_atom_site_type_symbol
_atom_site_label
_atom_site_fract_x
_atom_site_fract_y
_atom_site_fract_z
Si Si1 0.667414 0.414112 0.779660
Si Si2 0.829693 0.085132 0.576027
Si Si3 0.172991 0.683107 0.356878
Si Si4 0.171203 0.158388 0.418605
Si Si5 0.328511 0.679161 0.193416
Si Si6 0.672245 0.086081 0.976650
Si Si7 0.328910 0.164822 0.129683
O O1 0.500000 0.387421 0.790382
O O2 0.678063 0.500000 0.764117
O O3 0.752111 0.393579 0.856766
O O4 0.741078 0.374059 0.705431
O O5 0.774604 0.133534 0.503349
O O6 0.735164 0.107242 0.651149
O O7 0.000000 0.100321 0.594602
O O8 0.800587 0.000000 0.557214
O O9 0.210429 0.756107 0.406370
O O10 0.245466 0.692504 0.273386
O O11 0.241787 0.613094 0.400544
O O12 0.000000 0.671045 0.346605
O O13 0.000000 0.143264 0.409582
O O14 0.500000 0.668399 0.211042
O O15 0.299314 0.748095 0.135913
O O16 0.500000 0.101565 0.964173
O O17 0.703799 0.000000 0.989243
O O18 0.737564 0.130985 0.050584
O O19 0.500000 0.144970 0.129032
#
# Coordination Sequence:
#
# PCOD8178390 Si02
#       7
#     8   8   8   8   8   8   8
#     4  10  19  32  55  86 120 155 189 231 284 342
#     4  10  22  40  60  83 116 155 192 237 292 344
#     4  11  23  39  60  86 117 154 195 240 289 341
#     4  10  21  38  59  84 116 155 195 235 284 346
#     4  11  22  38  62  88 115 150 194 242 288 341
#     4  10  21  38  61  87 116 152 193 238 289 345
#     4   9  18  35  58  86 117 149 187 233 286 343
#
# _framework density 19.687322000000002
#
# number of rings (size 3 to 8) (size 9 to 14) (size 15 to 20)
#    0.000    1.857    1.429    2.571    0.000    4.857 
#    0.000    1.429    0.000    1.714    0.000    0.000 
#    0.000    0.000    0.000    0.000    0.000    0.000 
#
# Total GULP energy -347297.239095 kJ/mol
# GULP energy per Si atom -12403.472825 kJ/mol
# Density = 1.964251 g / cm^3
# Si number density = 19.687322 Si / 1000 Ang^3
#
#
#
# Elastic Constant Matrix: (Units=GPa)
#
#
# Indices 1 2 3 4 5 6 
#
# 1 64.3034 42.1406 51.5157 0.0000 0.0000 0.0000
# 2 42.1406 84.5709 55.8794 0.0000 0.0000 0.0000
# 3 51.5157 55.8794 103.5466 0.0000 0.0000 0.0000
# 4 0.0000 0.0000 0.0000 40.5368 0.0000 0.0000
# 5 0.0000 0.0000 0.0000 0.0000 31.4044 0.0000
# 6 0.0000 0.0000 0.0000 0.0000 0.0000 26.3691
#
#
#
# Elastic Compliance Matrix: (Units=1/GPa)
#
#
# Indices 1 2 3 4 5 6 
#
# 1 0.028658 -0.007552 -0.010182 0.000000 0.000000 0.000000
# 2 -0.007552 0.020367 -0.007234 0.000000 0.000000 0.000000
# 3 -0.010182 -0.007234 0.018627 0.000000 0.000000 0.000000
# 4 0.000000 0.000000 0.000000 0.024669 0.000000 0.000000
# 5 0.000000 0.000000 0.000000 0.000000 0.031843 0.000000
# 6 0.000000 0.000000 0.000000 0.000000 0.000000 0.037923
#
#
# Mechanical properties :
#
#
# Convention : Reuss Voigt Hill
#
# Bulk Modulus (GPa) = 56.44709 61.27694 58.86201
# Shear Modulus (GPa) = 22.94331 26.52107 24.73219
#
# Velocity S-wave (km/s) = 3.41748 3.67429 3.54821
# Velocity P-wave (km/s) = 6.65629 7.01378 6.83738
#
# Compressibility (1/GPa) = 0.01771571
#
# Stress axis : x y z
#
# Youngs Moduli (GPa) = 34.89473 49.09814 53.68535
#
# Poissons Ratio (x) = 0.37079 0.54662
# Poissons Ratio (y) = 0.26353 0.38836
# Poissons Ratio (z) = 0.35530 0.35518
#
# Static dielectric constant tensor:
#      x y z
#    x 3.428450 0.000000 0.000000 
#    y 0.000000 3.562130 0.000000 
#    z 0.000000 0.000000 3.679220 
# 
# 
# High freq. dielectric constant tensor:
#      x y z
#    x 1.747360 0.000000 0.000000 
#    y 0.000000 1.773730 0.000000 
#    z 0.000000 0.000000 1.777210 
# 
# From -- ./inp_files/12387.got.cif
#   From: 2010.03.12/outbox.cif.g09.slc.cpg/sg38_7_cif.got.tgz:12387.got - 2010.04.14 02:38:36.
