data_PCOD8178042
_publ_section_title
;
Structure prediction by ZEFSAII (Michael W. Deem and Ramdas Pophale) SiO2 
 PCOD8178042
Probable space group: A M M 2
;
_chemical_formula_sum "Si O2"
_cell_formula_units_Z 46
_cell_length_a 12.813096
_cell_length_b 7.553863
_cell_length_c 26.936926
_cell_angle_alpha 90.000000
_cell_angle_beta 90.000000
_cell_angle_gamma 90.000000
_cell_volume 2607.181209
_symmetry_space_group_name_H-M "A M M 2"
_symmetry_group_IT_number 38
_symmetry_cell_setting 'orthorhombic'
loop_
_space_group_symop_operation_xyz
x,y,z
-x,-y,z
-x,y,z
x,-y,z
x,1/2+y,1/2+z
-x,1/2-y,1/2+z
-x,1/2+y,1/2+z
x,1/2-y,1/2+z
loop_
_atom_site_type_symbol
_atom_site_label
_atom_site_fract_x
_atom_site_fract_y
_atom_site_fract_z
Si Si1 0.198735 0.793971 0.562560
Si Si2 0.000000 0.000000 0.919155
Si Si3 0.000000 0.712664 0.001846
Si Si4 0.113768 0.794589 0.163775
Si Si5 0.381607 0.204993 0.493864
Si Si6 0.808946 0.000000 0.844549
Si Si7 0.619182 0.500000 0.414478
Si Si8 0.123323 0.297129 0.772779
O O1 0.196913 0.741996 0.620479
O O2 0.306821 0.727975 0.538390
O O3 0.099998 0.717571 0.532679
O O4 0.191051 0.000000 0.557949
O O5 0.103720 0.000000 0.886636
O O6 0.000000 0.182062 0.950307
O O7 0.000000 0.500000 0.991832
O O8 0.153034 0.725446 0.217378
O O9 0.000000 0.709609 0.150105
O O10 0.096768 0.000000 0.171289
O O11 0.500000 0.233228 0.512378
O O12 0.357882 0.323170 0.446019
O O13 0.360306 0.000000 0.479739
O O14 0.816806 0.823622 0.811848
O O15 0.693874 0.000000 0.867432
O O16 0.500000 0.500000 0.395577
O O17 0.158756 0.500000 0.781123
O O18 0.000000 0.276804 0.780818
#
# Coordination Sequence:
#
# PCOD8178042 Si02
#       8
#     8   2   4   8   8   4   4   8
#     4  10  19  30  48  76 104 139 171 206 262 311
#     4  12  24  32  50  78 102 142 172 208 274 318
#     4  10  22  34  43  71 113 135 160 208 260 317
#     4   9  18  30  49  76 105 142 176 211 255 315
#     4   9  19  36  54  74 105 140 179 221 260 315
#     4  12  22  36  56  82 102 140 186 224 273 319
#     4  10  22  38  58  80 102 142 190 226 268 316
#     4   9  19  36  53  76 111 139 176 221 267 321
#
# _framework density 17.643577000000001
#
# number of rings (size 3 to 8) (size 9 to 14) (size 15 to 20)
#    0.000    2.261    1.739    2.087    3.652    1.391 
#    0.000    0.000    0.000    1.043    0.000    2.435 
#    0.000    0.000    0.000    0.000    0.000    0.000 
#
# Total GULP energy -285109.506607 kJ/mol
# GULP energy per Si atom -12396.065505 kJ/mol
# Density = 1.760342 g / cm^3
# Si number density = 17.643577 Si / 1000 Ang^3
#
#
#
# Elastic Constant Matrix: (Units=GPa)
#
#
# Indices 1 2 3 4 5 6 
#
# 1 93.4212 50.7762 82.9236 0.0000 0.0000 0.0000
# 2 50.7762 61.5743 44.7967 0.0000 0.0000 0.0000
# 3 82.9236 44.7967 140.9936 0.0000 0.0000 0.0000
# 4 0.0000 0.0000 0.0000 14.8909 0.0000 0.0000
# 5 0.0000 0.0000 0.0000 0.0000 29.9048 0.0000
# 6 0.0000 0.0000 0.0000 0.0000 0.0000 16.2098
#
#
#
# Elastic Compliance Matrix: (Units=1/GPa)
#
#
# Indices 1 2 3 4 5 6 
#
# 1 0.031207 -0.016104 -0.013237 0.000000 0.000000 0.000000
# 2 -0.016104 0.029433 0.000120 0.000000 0.000000 0.000000
# 3 -0.013237 0.000120 0.014840 0.000000 0.000000 0.000000
# 4 0.000000 0.000000 0.000000 0.067155 0.000000 0.000000
# 5 0.000000 0.000000 0.000000 0.000000 0.033439 0.000000
# 6 0.000000 0.000000 0.000000 0.000000 0.000000 0.061691
#
#
# Mechanical properties :
#
#
# Convention : Reuss Voigt Hill
#
# Bulk Modulus (GPa) = 58.69586 72.55356 65.62471
# Shear Modulus (GPa) = 16.56249 20.03394 18.29821
#
# Velocity S-wave (km/s) = 3.06719 3.37335 3.22390
# Velocity P-wave (km/s) = 6.77372 7.50891 7.15077
#
# Compressibility (1/GPa) = 0.01703698
#
# Stress axis : x y z
#
# Youngs Moduli (GPa) = 32.04435 33.97538 67.38573
#
# Poissons Ratio (x) = 0.54713 0.89201
# Poissons Ratio (y) = 0.51603 -0.00806
# Poissons Ratio (z) = 0.42418 -0.00406
#
# Static dielectric constant tensor:
#      x y z
#    x 3.250030 0.000000 0.000000 
#    y 0.000000 4.069650 0.000000 
#    z 0.000000 0.000000 3.939660 
# 
# 
# High freq. dielectric constant tensor:
#      x y z
#    x 1.654190 0.000000 0.000000 
#    y 0.000000 1.692850 0.000000 
#    z 0.000000 0.000000 1.678050 
# 
# From -- ./inp_files/22449.got.cif
#   From: 2010.03.12/outbox.cif.g09.slc.cpg/sg38_12_cif.got.tgz:22449.got - 2010.04.14 02:38:36.
