data_PCOD8178023
_publ_section_title
;
Structure prediction by ZEFSAII (Michael W. Deem and Ramdas Pophale) SiO2 
 PCOD8178023
Probable space group: A M M 2
;
_chemical_formula_sum "Si O2"
_cell_formula_units_Z 64
_cell_length_a 9.014366
_cell_length_b 22.401388
_cell_length_c 15.325031
_cell_angle_alpha 90.000000
_cell_angle_beta 90.000000
_cell_angle_gamma 90.000000
_cell_volume 3094.649566
_symmetry_space_group_name_H-M "A M M 2"
_symmetry_group_IT_number 38
_symmetry_cell_setting 'orthorhombic'
loop_
_space_group_symop_operation_xyz
x,y,z
-x,-y,z
-x,y,z
x,-y,z
x,1/2+y,1/2+z
-x,1/2-y,1/2+z
-x,1/2+y,1/2+z
x,1/2-y,1/2+z
loop_
_atom_site_type_symbol
_atom_site_label
_atom_site_fract_x
_atom_site_fract_y
_atom_site_fract_z
Si Si1 0.673794 0.270955 0.713460
Si Si2 0.664122 0.070069 0.979552
Si Si3 0.164656 0.570642 0.315086
Si Si4 0.823219 0.308235 0.883601
Si Si5 0.670602 0.566757 0.140963
Si Si6 0.170222 0.384675 0.643670
Si Si7 0.670388 0.686168 0.057734
Si Si8 0.170306 0.935733 0.326765
O O1 0.500000 0.275127 0.733062
O O2 0.758199 0.266218 0.806715
O O3 0.726487 0.328203 0.660181
O O4 0.712828 0.214928 0.651151
O O5 0.500000 0.097948 0.994872
O O6 0.734342 0.098429 0.891830
O O7 0.648543 0.000000 0.967750
O O8 0.775414 0.082906 0.057560
O O9 0.157264 0.500000 0.325940
O O10 0.233126 0.587656 0.222611
O O11 0.000000 0.598351 0.321065
O O12 0.760186 0.376218 0.870302
O O13 0.000000 0.305455 0.877043
O O14 0.768887 0.286940 0.978894
O O15 0.500000 0.567949 0.171072
O O16 0.715054 0.500000 0.108306
O O17 0.699076 0.614701 0.064403
O O18 0.185765 0.431254 0.722504
O O19 0.000000 0.363742 0.633129
O O20 0.500000 0.700358 0.035306
O O21 0.000000 0.937643 0.355050
O O22 0.244253 0.000000 0.354651
#
# Coordination Sequence:
#
# PCOD8178023 Si02
#       8
#     8   8   8   8   8   8   8   8
#     4  10  21  40  61  80 110 152 195 240 289 345
#     4  10  19  30  47  74 109 150 194 237 286 347
#     4   9  17  30  48  72 105 144 185 231 282 333
#     4  10  21  37  60  88 117 150 189 239 288 337
#     4   9  18  35  58  83 113 147 184 230 285 347
#     4  10  19  32  52  78 109 146 191 242 293 338
#     4  10  22  40  62  87 114 152 193 232 287 351
#     4   8  15  29  50  78 112 147 180 218 274 338
#
# _framework density 20.680855999999999
#
# number of rings (size 3 to 8) (size 9 to 14) (size 15 to 20)
#    0.000    2.500    0.000    3.000    0.000    4.750 
#    2.250    0.000    0.000    7.125    0.000    0.000 
#    0.000    0.000    0.000    0.000    0.000    0.000 
#
# Total GULP energy -396632.319295 kJ/mol
# GULP energy per Si atom -12394.759978 kJ/mol
# Density = 2.063379 g / cm^3
# Si number density = 20.680856 Si / 1000 Ang^3
#
#
#
# Elastic Constant Matrix: (Units=GPa)
#
#
# Indices 1 2 3 4 5 6 
#
# 1 92.4778 26.4319 60.0226 0.0000 0.0000 0.0000
# 2 26.4319 58.7808 25.1800 0.0000 0.0000 0.0000
# 3 60.0226 25.1800 119.5507 0.0000 0.0000 0.0000
# 4 0.0000 0.0000 0.0000 20.4439 0.0000 0.0000
# 5 0.0000 0.0000 0.0000 0.0000 35.7975 0.0000
# 6 0.0000 0.0000 0.0000 0.0000 0.0000 20.8375
#
#
#
# Elastic Compliance Matrix: (Units=1/GPa)
#
#
# Indices 1 2 3 4 5 6 
#
# 1 0.017011 -0.004386 -0.007617 0.000000 0.000000 0.000000
# 2 -0.004386 0.019831 -0.001974 0.000000 0.000000 0.000000
# 3 -0.007617 -0.001974 0.012605 0.000000 0.000000 0.000000
# 4 0.000000 0.000000 0.000000 0.048914 0.000000 0.000000
# 5 0.000000 0.000000 0.000000 0.000000 0.027935 0.000000
# 6 0.000000 0.000000 0.000000 0.000000 0.000000 0.047990
#
#
# Mechanical properties :
#
#
# Convention : Reuss Voigt Hill
#
# Bulk Modulus (GPa) = 46.53155 54.89760 50.71457
# Shear Modulus (GPa) = 23.87727 26.02743 24.95235
#
# Velocity S-wave (km/s) = 3.40157 3.55142 3.47730
# Velocity P-wave (km/s) = 6.16248 6.58935 6.37949
#
# Compressibility (1/GPa) = 0.02149080
#
# Stress axis : x y z
#
# Youngs Moduli (GPa) = 58.78652 50.42704 79.33610
#
# Poissons Ratio (x) = 0.22119 0.60428
# Poissons Ratio (y) = 0.25786 0.15665
# Poissons Ratio (z) = 0.44776 0.09957
#
# Static dielectric constant tensor:
#      x y z
#    x 3.759840 0.000000 0.000000 
#    y 0.000000 3.706890 0.000000 
#    z 0.000000 0.000000 3.616580 
# 
# 
# High freq. dielectric constant tensor:
#      x y z
#    x 1.802350 0.000000 0.000000 
#    y 0.000000 1.789450 0.000000 
#    z 0.000000 0.000000 1.806130 
# 
# From -- ./inp_files/12829.got.cif
#   From: 2010.03.12/outbox.cif.g09.slc.cpg/sg38_7_cif.got.tgz:12829.got - 2010.04.14 02:38:36.
