data_PCOD8178421
_publ_section_title
;
Structure prediction by ZEFSAII (Michael W. Deem and Ramdas Pophale) SiO2 
 PCOD8178421
Probable space group: A M M 2
;
_chemical_formula_sum "Si O2"
_cell_formula_units_Z 64
_cell_length_a 9.313495
_cell_length_b 19.490727
_cell_length_c 20.687515
_cell_angle_alpha 90.000000
_cell_angle_beta 90.000000
_cell_angle_gamma 90.000000
_cell_volume 3755.338159
_symmetry_space_group_name_H-M "A M M 2"
_symmetry_group_IT_number 38
_symmetry_cell_setting 'orthorhombic'
loop_
_space_group_symop_operation_xyz
x,y,z
-x,-y,z
-x,y,z
x,-y,z
x,1/2+y,1/2+z
-x,1/2-y,1/2+z
-x,1/2+y,1/2+z
x,1/2-y,1/2+z
loop_
_atom_site_type_symbol
_atom_site_label
_atom_site_fract_x
_atom_site_fract_y
_atom_site_fract_z
Si Si1 0.670281 0.074486 0.821530
Si Si2 0.833418 0.424126 0.566244
Si Si3 0.668965 0.712967 0.381409
Si Si4 0.667209 0.421830 0.173921
Si Si5 0.170253 0.294376 0.136273
Si Si6 0.166647 0.285210 0.506375
Si Si7 0.335626 0.575381 0.695334
Si Si8 0.666538 0.216755 0.249690
O O1 0.500000 0.072742 0.822874
O O2 0.726565 0.135626 0.867006
O O3 0.717254 0.088396 0.747935
O O4 0.730653 0.000000 0.844817
O O5 0.792133 0.500000 0.539327
O O6 0.792842 0.365787 0.514659
O O7 0.754508 0.407583 0.632352
O O8 0.000000 0.419335 0.583410
O O9 0.500000 0.713951 0.393691
O O10 0.745746 0.742475 0.444942
O O11 0.712517 0.760374 0.321098
O O12 0.500000 0.403193 0.165433
O O13 0.695865 0.500000 0.151538
O O14 0.763893 0.370817 0.131111
O O15 0.212148 0.255993 0.070198
O O16 0.238728 0.254561 0.196406
O O17 0.000000 0.297811 0.145967
O O18 0.000000 0.274859 0.491549
O O19 0.500000 0.576415 0.673089
O O20 0.295028 0.500000 0.724047
O O21 0.306300 0.634694 0.747750
O O22 0.500000 0.235726 0.236634
#
# Coordination Sequence:
#
# PCOD8178421 Si02
#       8
#     8   8   8   8   8   8   8   8
#     4   8  14  27  47  71 100 130 161 199 245 298
#     4   9  17  31  49  68  98 137 170 201 241 294
#     4  10  20  33  50  72  97 133 174 209 253 302
#     4   9  17  32  55  79 104 133 165 208 259 305
#     4  11  21  33  52  77 104 135 172 212 255 301
#     4  10  22  36  47  69 104 139 173 209 253 298
#     4   9  17  29  49  77 103 126 159 208 259 300
#     4  10  19  33  53  76 102 131 169 213 258 307
#
# _framework density 17.042406
#
# number of rings (size 3 to 8) (size 9 to 14) (size 15 to 20)
#    0.000    2.500    2.500    1.125    0.000    2.750 
#    0.000    0.000    0.000    0.750    0.000    1.750 
#    0.000    0.000    0.000    0.000    0.000    0.000 
#
# Total GULP energy -396657.332196 kJ/mol
# GULP energy per Si atom -12395.541631 kJ/mol
# Density = 1.700362 g / cm^3
# Si number density = 17.042406 Si / 1000 Ang^3
#
#
#
# Elastic Constant Matrix: (Units=GPa)
#
#
# Indices 1 2 3 4 5 6 
#
# 1 49.8314 41.4878 48.2195 0.0000 0.0000 0.0000
# 2 41.4878 103.2901 58.7003 0.0000 0.0000 0.0000
# 3 48.2195 58.7003 110.8178 0.0000 0.0000 0.0000
# 4 0.0000 0.0000 0.0000 20.9080 0.0000 0.0000
# 5 0.0000 0.0000 0.0000 0.0000 30.8421 0.0000
# 6 0.0000 0.0000 0.0000 0.0000 0.0000 22.7915
#
#
#
# Elastic Compliance Matrix: (Units=1/GPa)
#
#
# Indices 1 2 3 4 5 6 
#
# 1 0.039482 -0.008720 -0.012560 0.000000 0.000000 0.000000
# 2 -0.008720 0.015777 -0.004563 0.000000 0.000000 0.000000
# 3 -0.012560 -0.004563 0.016906 0.000000 0.000000 0.000000
# 4 0.000000 0.000000 0.000000 0.047829 0.000000 0.000000
# 5 0.000000 0.000000 0.000000 0.000000 0.032423 0.000000
# 6 0.000000 0.000000 0.000000 0.000000 0.000000 0.043876
#
#
# Mechanical properties :
#
#
# Convention : Reuss Voigt Hill
#
# Bulk Modulus (GPa) = 48.83229 62.30604 55.56916
# Shear Modulus (GPa) = 19.62276 22.61042 21.11659
#
# Velocity S-wave (km/s) = 3.39692 3.64636 3.52385
# Velocity P-wave (km/s) = 6.64086 7.37338 7.01669
#
# Compressibility (1/GPa) = 0.02047825
#
# Stress axis : x y z
#
# Youngs Moduli (GPa) = 25.32800 63.38293 59.15042
#
# Poissons Ratio (x) = 0.55272 0.74295
# Poissons Ratio (y) = 0.22087 0.26989
# Poissons Ratio (z) = 0.31813 0.28920
#
# Static dielectric constant tensor:
#      x y z
#    x 2.952450 0.000000 0.000000 
#    y 0.000000 3.622050 0.000000 
#    z 0.000000 0.000000 2.940610 
# 
# 
# High freq. dielectric constant tensor:
#      x y z
#    x 1.643840 0.000000 0.000000 
#    y 0.000000 1.668540 0.000000 
#    z 0.000000 0.000000 1.627850 
# 
# From -- ./inp_files/17211.got.cif
#   From: 2010.03.12/outbox.cif.g09.slc.cpg/sg38_9_cif.got.tgz:17211.got - 2010.04.14 02:38:36.
