data_PCOD8178904
_publ_section_title
;
Structure prediction by ZEFSAII (Michael W. Deem and Ramdas Pophale) SiO2 
 PCOD8178904
Probable space group: A M M 2
;
_chemical_formula_sum "Si O2"
_cell_formula_units_Z 56
_cell_length_a 8.840440
_cell_length_b 16.725320
_cell_length_c 19.729185
_cell_angle_alpha 90.000000
_cell_angle_beta 90.000000
_cell_angle_gamma 90.000000
_cell_volume 2917.141273
_symmetry_space_group_name_H-M "A M M 2"
_symmetry_group_IT_number 38
_symmetry_cell_setting 'orthorhombic'
loop_
_space_group_symop_operation_xyz
x,y,z
-x,-y,z
-x,y,z
x,-y,z
x,1/2+y,1/2+z
-x,1/2-y,1/2+z
-x,1/2+y,1/2+z
x,1/2-y,1/2+z
loop_
_atom_site_type_symbol
_atom_site_label
_atom_site_fract_x
_atom_site_fract_y
_atom_site_fract_z
Si Si1 0.675359 0.088491 0.414910
Si Si2 0.820777 0.000000 0.862145
Si Si3 0.323892 0.339015 0.311367
Si Si4 0.328788 0.000000 0.008326
Si Si5 0.328441 0.172735 0.048245
Si Si6 0.824911 0.744544 0.929729
Si Si7 0.327281 0.779841 0.196319
Si Si8 0.170175 0.411903 0.775087
O O1 0.500000 0.106507 0.426766
O O2 0.773908 0.155600 0.452782
O O3 0.711253 0.094422 0.335697
O O4 0.718021 0.000000 0.442602
O O5 0.762925 0.078024 0.822060
O O6 0.772745 0.000000 0.940635
O O7 0.000000 0.000000 0.859438
O O8 0.500000 0.354890 0.324391
O O9 0.266611 0.271432 0.363259
O O10 0.294914 0.304143 0.235187
O O11 0.300389 0.922710 0.056219
O O12 0.500000 0.000000 0.980726
O O13 0.500000 0.188369 0.023015
O O14 0.209002 0.197977 0.991907
O O15 0.299096 0.224902 0.115771
O O16 0.000000 0.747857 0.911842
O O17 0.500000 0.806474 0.210616
O O18 0.212412 0.847950 0.219035
O O19 0.178957 0.500000 0.742091
O O20 0.000000 0.394799 0.802132
#
# Coordination Sequence:
#
# PCOD8178904 Si02
#       8
#     8   4   8   4   8   8   8   8
#     4  10  20  35  57  83 110 146 192 239 284 341
#     4  12  24  38  62  94 122 153 202 259 312 365
#     4  11  22  39  62  89 120 156 201 251 303 360
#     4  10  20  36  60  88 124 165 198 247 310 365
#     4  10  22  39  59  86 120 159 204 247 298 365
#     4  12  23  36  58  88 119 154 193 245 303 359
#     4  10  22  38  60  86 114 156 203 245 291 355
#     4  10  20  32  49  79 117 152 184 226 277 329
#
# _framework density 19.196877000000001
#
# number of rings (size 3 to 8) (size 9 to 14) (size 15 to 20)
#    0.000    1.429    2.857    3.214    1.000    2.857 
#    0.000    0.000    1.571    0.000    0.000    0.000 
#    0.000    0.000    0.000    0.000    0.000    0.000 
#
# Total GULP energy -347129.517418 kJ/mol
# GULP energy per Si atom -12397.482765 kJ/mol
# Density = 1.915318 g / cm^3
# Si number density = 19.196877 Si / 1000 Ang^3
#
#
#
# Elastic Constant Matrix: (Units=GPa)
#
#
# Indices 1 2 3 4 5 6 
#
# 1 94.2814 47.0037 27.1407 0.0000 0.0000 0.0000
# 2 47.0037 118.2797 37.5822 0.0000 0.0000 0.0000
# 3 27.1407 37.5822 81.0900 0.0000 0.0000 0.0000
# 4 0.0000 0.0000 0.0000 29.6788 0.0000 0.0000
# 5 0.0000 0.0000 0.0000 0.0000 9.0320 0.0000
# 6 0.0000 0.0000 0.0000 0.0000 0.0000 29.0076
#
#
#
# Elastic Compliance Matrix: (Units=1/GPa)
#
#
# Indices 1 2 3 4 5 6 
#
# 1 0.013615 -0.004647 -0.002403 0.000000 0.000000 0.000000
# 2 -0.004647 0.011501 -0.003775 0.000000 0.000000 0.000000
# 3 -0.002403 -0.003775 0.014886 0.000000 0.000000 0.000000
# 4 0.000000 0.000000 0.000000 0.033694 0.000000 0.000000
# 5 0.000000 0.000000 0.000000 0.000000 0.110718 0.000000
# 6 0.000000 0.000000 0.000000 0.000000 0.000000 0.034474
#
#
# Mechanical properties :
#
#
# Convention : Reuss Voigt Hill
#
# Bulk Modulus (GPa) = 54.49134 57.45602 55.97368
# Shear Modulus (GPa) = 20.27129 25.67197 22.97163
#
# Velocity S-wave (km/s) = 3.25309 3.66088 3.46299
# Velocity P-wave (km/s) = 6.52359 6.91840 6.72389
#
# Compressibility (1/GPa) = 0.01835154
#
# Stress axis : x y z
#
# Youngs Moduli (GPa) = 73.44785 86.95195 67.17811
#
# Poissons Ratio (x) = 0.40406 0.16145
# Poissons Ratio (y) = 0.34131 0.25358
# Poissons Ratio (z) = 0.17651 0.32822
#
# Static dielectric constant tensor:
#      x y z
#    x 3.516700 0.000000 0.000000 
#    y 0.000000 3.778370 0.000000 
#    z 0.000000 0.000000 3.214800 
# 
# 
# High freq. dielectric constant tensor:
#      x y z
#    x 1.752430 0.000000 0.000000 
#    y 0.000000 1.756020 0.000000 
#    z 0.000000 0.000000 1.711380 
# 
# From -- ./inp_files/19890.got.cif
#   From: 2010.03.12/outbox.cif.g09.slc.cpg/sg38_10_cif.got.tgz:19890.got - 2010.04.14 02:38:36.
