data_PCOD8178231
_publ_section_title
;
Structure prediction by ZEFSAII (Michael W. Deem and Ramdas Pophale) SiO2 
 PCOD8178231
Probable space group: A M M 2
;
_chemical_formula_sum "Si O2"
_cell_formula_units_Z 64
_cell_length_a 19.086018
_cell_length_b 9.351902
_cell_length_c 20.559793
_cell_angle_alpha 90.000000
_cell_angle_beta 90.000000
_cell_angle_gamma 90.000000
_cell_volume 3669.729170
_symmetry_space_group_name_H-M "A M M 2"
_symmetry_group_IT_number 38
_symmetry_cell_setting 'orthorhombic'
loop_
_space_group_symop_operation_xyz
x,y,z
-x,-y,z
-x,y,z
x,-y,z
x,1/2+y,1/2+z
-x,1/2-y,1/2+z
-x,1/2+y,1/2+z
x,1/2-y,1/2+z
loop_
_atom_site_type_symbol
_atom_site_label
_atom_site_fract_x
_atom_site_fract_y
_atom_site_fract_z
Si Si1 0.211995 0.335590 0.542130
Si Si2 0.080035 0.667299 0.836310
Si Si3 0.423918 0.830319 0.603995
Si Si4 0.295551 0.666699 0.412979
Si Si5 0.420523 0.334764 0.956789
Si Si6 0.279292 0.831436 0.656888
Si Si7 0.794594 0.667918 0.289128
Si Si8 0.921390 0.661980 0.466069
O O1 0.225679 0.500000 0.560565
O O2 0.256987 0.290846 0.479431
O O3 0.230204 0.238639 0.603043
O O4 0.130505 0.306765 0.525721
O O5 0.096996 0.500000 0.837724
O O6 0.132085 0.746229 0.786160
O O7 0.093434 0.729758 0.907824
O O8 0.000000 0.696240 0.814152
O O9 0.500000 0.772404 0.629293
O O10 0.411387 0.776394 0.530400
O O11 0.359892 0.776420 0.649147
O O12 0.427032 0.000000 0.602839
O O13 0.311320 0.500000 0.408023
O O14 0.369616 0.747544 0.409205
O O15 0.247604 0.715782 0.353017
O O16 0.500000 0.310758 0.932987
O O17 0.399486 0.500000 0.953014
O O18 0.252163 0.786748 0.727542
O O19 0.275579 0.000000 0.645978
O O20 0.811392 0.500000 0.288870
O O21 0.908127 0.500000 0.439763
O O22 0.000000 0.679917 0.493066
#
# Coordination Sequence:
#
# PCOD8178231 Si02
#       8
#     8   8   8   8   8   8   8   8
#     4  10  19  32  51  76 105 134 167 209 257 310
#     4  10  20  33  52  79 105 132 172 219 261 303
#     4   8  14  27  48  73  98 124 162 210 253 296
#     4  10  19  32  50  75 105 135 169 209 256 310
#     4   9  17  30  50  76 103 133 171 214 261 309
#     4  10  20  34  54  77 102 135 175 215 253 302
#     4  10  21  37  53  75 107 142 176 209 256 318
#     4   9  17  32  54  77 103 137 172 209 258 311
#
# _framework density 17.439979000000001
#
# number of rings (size 3 to 8) (size 9 to 14) (size 15 to 20)
#    0.000    2.500    2.500    1.125    0.000    2.500 
#    0.000    1.250    0.000    4.875    0.000    0.000 
#    0.000    0.000    0.000    0.000    0.000    0.000 
#
# Total GULP energy -396743.894926 kJ/mol
# GULP energy per Si atom -12398.246716 kJ/mol
# Density = 1.740028 g / cm^3
# Si number density = 17.439979 Si / 1000 Ang^3
#
#
#
# Elastic Constant Matrix: (Units=GPa)
#
#
# Indices 1 2 3 4 5 6 
#
# 1 144.2178 52.4228 54.5016 0.0000 0.0000 0.0000
# 2 52.4228 50.3873 35.9620 0.0000 0.0000 0.0000
# 3 54.5016 35.9620 77.6348 0.0000 0.0000 0.0000
# 4 0.0000 0.0000 0.0000 22.7320 0.0000 0.0000
# 5 0.0000 0.0000 0.0000 0.0000 28.1249 0.0000
# 6 0.0000 0.0000 0.0000 0.0000 0.0000 30.5109
#
#
#
# Elastic Compliance Matrix: (Units=1/GPa)
#
#
# Indices 1 2 3 4 5 6 
#
# 1 0.011896 -0.009585 -0.003911 0.000000 0.000000 0.000000
# 2 -0.009585 0.037371 -0.010582 0.000000 0.000000 0.000000
# 3 -0.003911 -0.010582 0.020529 0.000000 0.000000 0.000000
# 4 0.000000 0.000000 0.000000 0.043991 0.000000 0.000000
# 5 0.000000 0.000000 0.000000 0.000000 0.035556 0.000000
# 6 0.000000 0.000000 0.000000 0.000000 0.000000 0.032775
#
#
# Mechanical properties :
#
#
# Convention : Reuss Voigt Hill
#
# Bulk Modulus (GPa) = 46.21348 62.00140 54.10744
# Shear Modulus (GPa) = 21.05368 24.89715 22.97541
#
# Velocity S-wave (km/s) = 3.47826 3.78245 3.63354
# Velocity P-wave (km/s) = 6.53354 7.39624 6.97823
#
# Compressibility (1/GPa) = 0.02163871
#
# Stress axis : x y z
#
# Youngs Moduli (GPa) = 84.05922 26.75850 48.71259
#
# Poissons Ratio (x) = 0.25649 0.19054
# Poissons Ratio (y) = 0.80573 0.51548
# Poissons Ratio (z) = 0.32879 0.28316
#
# Static dielectric constant tensor:
#      x y z
#    x 3.611750 0.000000 0.000000 
#    y 0.000000 3.079160 0.000000 
#    z 0.000000 0.000000 2.999850 
# 
# 
# High freq. dielectric constant tensor:
#      x y z
#    x 1.691640 0.000000 0.000000 
#    y 0.000000 1.657800 0.000000 
#    z 0.000000 0.000000 1.640850 
# 
# From -- ./inp_files/23117.got.cif
#   From: 2010.03.12/outbox.cif.g09.slc.cpg/sg38_12_cif.got.tgz:23117.got - 2010.04.14 02:38:36.
