data_PCOD8178408
_publ_section_title
;
Structure prediction by ZEFSAII (Michael W. Deem and Ramdas Pophale) SiO2 
 PCOD8178408
Probable space group: A M M 2
;
_chemical_formula_sum "Si O2"
_cell_formula_units_Z 56
_cell_length_a 19.535765
_cell_length_b 8.917381
_cell_length_c 15.988169
_cell_angle_alpha 90.000000
_cell_angle_beta 90.000000
_cell_angle_gamma 90.000000
_cell_volume 2785.264701
_symmetry_space_group_name_H-M "A M M 2"
_symmetry_group_IT_number 38
_symmetry_cell_setting 'orthorhombic'
loop_
_space_group_symop_operation_xyz
x,y,z
-x,-y,z
-x,y,z
x,-y,z
x,1/2+y,1/2+z
-x,1/2-y,1/2+z
-x,1/2+y,1/2+z
x,1/2-y,1/2+z
loop_
_atom_site_type_symbol
_atom_site_label
_atom_site_fract_x
_atom_site_fract_y
_atom_site_fract_z
Si Si1 0.925288 0.822314 0.417250
Si Si2 0.788342 0.827142 0.336666
Si Si3 0.783554 0.322823 0.169209
Si Si4 0.577504 0.678227 0.754771
Si Si5 0.348785 0.672352 0.922562
Si Si6 0.340501 0.322146 0.592109
Si Si7 0.926155 0.678059 0.104649
O O1 0.861882 0.758331 0.363885
O O2 0.919644 0.758005 0.510803
O O3 0.000000 0.776601 0.379170
O O4 0.917685 0.000000 0.420143
O O5 0.759699 0.730028 0.260187
O O6 0.733266 0.811978 0.410932
O O7 0.794108 0.000000 0.307918
O O8 0.777396 0.500000 0.159084
O O9 0.735417 0.246545 0.100169
O O10 0.861735 0.263617 0.157751
O O11 0.500000 0.738151 0.753666
O O12 0.580734 0.500000 0.754236
O O13 0.613663 0.737082 0.839646
O O14 0.614512 0.737447 0.670508
O O15 0.369735 0.500000 0.936945
O O16 0.372165 0.765032 0.004300
O O17 0.336797 0.500000 0.590473
O O18 0.924607 0.500000 0.101319
O O19 0.000000 0.731439 0.142571
#
# Coordination Sequence:
#
# PCOD8178408 Si02
#       7
#     8   8   8   8   8   8   8
#     4   8  14  26  46  70  97 133 179 227 275 333
#     4  10  19  33  52  76 108 144 185 231 283 336
#     4  11  21  33  53  80 110 146 190 237 283 334
#     4   9  19  38  62  86 116 153 189 227 279 341
#     4  10  20  37  60  85 113 150 191 232 280 335
#     4  11  22  38  60  87 117 152 191 234 284 336
#     4   8  15  29  48  71 100 137 183 233 283 334
#
# _framework density 20.105808
#
# number of rings (size 3 to 8) (size 9 to 14) (size 15 to 20)
#    0.000    2.429    1.429    2.571    0.000    4.000 
#    0.000    0.000    0.000    4.286    0.000    4.000 
#    0.000    0.000    0.000    0.000    0.000    0.000 
#
# Total GULP energy -347053.010114 kJ/mol
# GULP energy per Si atom -12394.750361 kJ/mol
# Density = 2.006005 g / cm^3
# Si number density = 20.105808 Si / 1000 Ang^3
#
#
#
# Elastic Constant Matrix: (Units=GPa)
#
#
# Indices 1 2 3 4 5 6 
#
# 1 128.0148 27.5382 55.3162 0.0000 0.0000 0.0000
# 2 27.5382 45.0754 35.2197 0.0000 0.0000 0.0000
# 3 55.3162 35.2197 135.3141 0.0000 0.0000 0.0000
# 4 0.0000 0.0000 0.0000 28.3557 0.0000 0.0000
# 5 0.0000 0.0000 0.0000 0.0000 28.5336 0.0000
# 6 0.0000 0.0000 0.0000 0.0000 0.0000 16.2489
#
#
#
# Elastic Compliance Matrix: (Units=1/GPa)
#
#
# Indices 1 2 3 4 5 6 
#
# 1 0.009941 -0.003638 -0.003117 0.000000 0.000000 0.000000
# 2 -0.003638 0.029180 -0.006108 0.000000 0.000000 0.000000
# 3 -0.003117 -0.006108 0.010254 0.000000 0.000000 0.000000
# 4 0.000000 0.000000 0.000000 0.035266 0.000000 0.000000
# 5 0.000000 0.000000 0.000000 0.000000 0.035046 0.000000
# 6 0.000000 0.000000 0.000000 0.000000 0.000000 0.061543
#
#
# Mechanical properties :
#
#
# Convention : Reuss Voigt Hill
#
# Bulk Modulus (GPa) = 42.28374 60.50584 51.39479
# Shear Modulus (GPa) = 23.27320 27.31630 25.29475
#
# Velocity S-wave (km/s) = 3.40595 3.68995 3.55079
# Velocity P-wave (km/s) = 6.04513 6.95078 6.51372
#
# Compressibility (1/GPa) = 0.02364975
#
# Stress axis : x y z
#
# Youngs Moduli (GPa) = 100.59294 34.27011 97.52098
#
# Poissons Ratio (x) = 0.12467 0.30397
# Poissons Ratio (y) = 0.36594 0.59564
# Poissons Ratio (z) = 0.31355 0.20932
#
# Static dielectric constant tensor:
#      x y z
#    x 3.984580 0.000000 0.000000 
#    y 0.000000 3.096670 0.000000 
#    z 0.000000 0.000000 3.644960 
# 
# 
# High freq. dielectric constant tensor:
#      x y z
#    x 1.794670 0.000000 0.000000 
#    y 0.000000 1.731080 0.000000 
#    z 0.000000 0.000000 1.783790 
# 
# From -- ./inp_files/15453.got.cif
#   From: 2010.03.12/outbox.cif.g09.slc.cpg/sg38_8_cif.got.tgz:15453.got - 2010.04.14 02:38:36.
