data_PCOD8178099
_publ_section_title
;
Structure prediction by ZEFSAII (Michael W. Deem and Ramdas Pophale) SiO2 
 PCOD8178099
Probable space group: A M M 2
;
_chemical_formula_sum "Si O2"
_cell_formula_units_Z 64
_cell_length_a 19.528074
_cell_length_b 8.965421
_cell_length_c 20.597807
_cell_angle_alpha 90.000000
_cell_angle_beta 90.000000
_cell_angle_gamma 90.000000
_cell_volume 3606.210593
_symmetry_space_group_name_H-M "A M M 2"
_symmetry_group_IT_number 38
_symmetry_cell_setting 'orthorhombic'
loop_
_space_group_symop_operation_xyz
x,y,z
-x,-y,z
-x,y,z
x,-y,z
x,1/2+y,1/2+z
-x,1/2-y,1/2+z
-x,1/2+y,1/2+z
x,1/2-y,1/2+z
loop_
_atom_site_type_symbol
_atom_site_label
_atom_site_fract_x
_atom_site_fract_y
_atom_site_fract_z
Si Si1 0.842274 0.177032 0.881080
Si Si2 0.847001 0.823806 0.630141
Si Si3 0.572860 0.331032 0.694764
Si Si4 0.710971 0.674800 0.832871
Si Si5 0.076208 0.322508 0.255877
Si Si6 0.575148 0.826868 0.827402
Si Si7 0.919923 0.175407 0.498968
Si Si8 0.719894 0.170379 0.181058
O O1 0.766545 0.245212 0.878414
O O2 0.881791 0.234725 0.817472
O O3 0.837198 0.000000 0.884134
O O4 0.884292 0.234244 0.942148
O O5 0.889080 0.758158 0.690987
O O6 0.883758 0.769007 0.564917
O O7 0.769181 0.767346 0.635722
O O8 0.845820 0.000000 0.632553
O O9 0.500000 0.317824 0.655304
O O10 0.579485 0.500000 0.724065
O O11 0.570443 0.211955 0.751771
O O12 0.642154 0.303100 0.653317
O O13 0.716580 0.500000 0.844025
O O14 0.636643 0.730536 0.858537
O O15 0.722058 0.718656 0.757077
O O16 0.074241 0.500000 0.253838
O O17 0.000000 0.256502 0.260589
O O18 0.500000 0.792370 0.859215
O O19 0.593497 0.000000 0.834950
O O20 0.000000 0.216030 0.502362
O O21 0.909230 0.000000 0.487921
O O22 0.742879 0.000000 0.173895
#
# Coordination Sequence:
#
# PCOD8178099 Si02
#       8
#     8   8   8   8   8   8   8   8
#     4  11  21  34  54  78 103 132 168 214 263 309
#     4  10  19  33  53  74  98 133 171 208 251 305
#     4   8  14  25  40  61  94 136 173 203 246 303
#     4  10  19  31  48  71 103 139 173 210 256 310
#     4   9  17  30  50  75  98 123 161 205 250 303
#     4   9  16  25  40  66 100 135 171 211 253 297
#     4  10  22  39  56  74 100 134 171 211 257 312
#     4   9  17  28  45  71 102 132 164 209 255 297
#
# _framework density 17.747160000000001
#
# number of rings (size 3 to 8) (size 9 to 14) (size 15 to 20)
#    0.000    2.500    1.250    2.625    0.000    5.500 
#    0.000    0.000    0.000    1.875    0.000    0.875 
#    0.000    3.000    0.000    0.000    0.000    0.000 
#
# Total GULP energy -396571.449887 kJ/mol
# GULP energy per Si atom -12392.857809 kJ/mol
# Density = 1.770677 g / cm^3
# Si number density = 17.747160 Si / 1000 Ang^3
#
#
#
# Elastic Constant Matrix: (Units=GPa)
#
#
# Indices 1 2 3 4 5 6 
#
# 1 173.3730 46.0652 55.6768 0.0000 0.0000 0.0000
# 2 46.0652 50.2877 34.6188 0.0000 0.0000 0.0000
# 3 55.6768 34.6188 85.5172 0.0000 0.0000 0.0000
# 4 0.0000 0.0000 0.0000 20.4975 0.0000 0.0000
# 5 0.0000 0.0000 0.0000 0.0000 21.0028 0.0000
# 6 0.0000 0.0000 0.0000 0.0000 0.0000 29.3874
#
#
#
# Elastic Compliance Matrix: (Units=1/GPa)
#
#
# Indices 1 2 3 4 5 6 
#
# 1 0.008206 -0.005322 -0.003188 0.000000 0.000000 0.000000
# 2 -0.005322 0.031020 -0.009092 0.000000 0.000000 0.000000
# 3 -0.003188 -0.009092 0.017450 0.000000 0.000000 0.000000
# 4 0.000000 0.000000 0.000000 0.048786 0.000000 0.000000
# 5 0.000000 0.000000 0.000000 0.000000 0.047613 0.000000
# 6 0.000000 0.000000 0.000000 0.000000 0.000000 0.034028
#
#
# Mechanical properties :
#
#
# Convention : Reuss Voigt Hill
#
# Bulk Modulus (GPa) = 46.57502 64.65551 55.61526
# Shear Modulus (GPa) = 21.78981 25.69869 23.74425
#
# Velocity S-wave (km/s) = 3.50779 3.80945 3.66172
# Velocity P-wave (km/s) = 6.53504 7.47394 7.02020
#
# Compressibility (1/GPa) = 0.02147074
#
# Stress axis : x y z
#
# Youngs Moduli (GPa) = 121.86528 32.23709 57.30697
#
# Poissons Ratio (x) = 0.17157 0.18269
# Poissons Ratio (y) = 0.64858 0.52106
# Poissons Ratio (z) = 0.38850 0.29311
#
# Static dielectric constant tensor:
#      x y z
#    x 3.780160 0.000000 0.000000 
#    y 0.000000 3.126410 0.000000 
#    z 0.000000 0.000000 2.939400 
# 
# 
# High freq. dielectric constant tensor:
#      x y z
#    x 1.715000 0.000000 0.000000 
#    y 0.000000 1.677420 0.000000 
#    z 0.000000 0.000000 1.628990 
# 
# From -- ./inp_files/21350.got.cif
#   From: 2010.03.12/outbox.cif.g09.slc.cpg/sg38_11_cif.got.tgz:21350.got - 2010.04.14 02:38:36.
