data_PCOD8178081
_publ_section_title
;
Structure prediction by ZEFSAII (Michael W. Deem and Ramdas Pophale) SiO2 
 PCOD8178081
Probable space group: A M M 2
;
_chemical_formula_sum "Si O2"
_cell_formula_units_Z 48
_cell_length_a 8.633365
_cell_length_b 17.991257
_cell_length_c 18.135526
_cell_angle_alpha 90.000000
_cell_angle_beta 90.000000
_cell_angle_gamma 90.000000
_cell_volume 2816.902181
_symmetry_space_group_name_H-M "A M M 2"
_symmetry_group_IT_number 38
_symmetry_cell_setting 'orthorhombic'
loop_
_space_group_symop_operation_xyz
x,y,z
-x,-y,z
-x,y,z
x,-y,z
x,1/2+y,1/2+z
-x,1/2-y,1/2+z
-x,1/2+y,1/2+z
x,1/2-y,1/2+z
loop_
_atom_site_type_symbol
_atom_site_label
_atom_site_fract_x
_atom_site_fract_y
_atom_site_fract_z
Si Si1 0.820084 0.082235 0.975470
Si Si2 0.179381 0.201640 0.864386
Si Si3 0.678862 0.817638 0.469599
Si Si4 0.682957 0.298197 0.583373
Si Si5 0.181331 0.915095 0.357407
Si Si6 0.683117 0.293158 0.750284
O O1 0.793967 0.117875 0.893691
O O2 0.000000 0.076681 0.992895
O O3 0.744669 0.000000 0.975291
O O4 0.748780 0.131588 0.039823
O O5 0.295338 0.253446 0.909897
O O6 0.232674 0.217656 0.780446
O O7 0.000000 0.225270 0.875589
O O8 0.500000 0.840841 0.472704
O O9 0.735182 0.781366 0.547334
O O10 0.775885 0.889053 0.441246
O O11 0.500000 0.304090 0.578175
O O12 0.742868 0.302475 0.666818
O O13 0.269742 0.866101 0.296531
O O14 0.000000 0.905614 0.344876
O O15 0.234170 0.000000 0.347549
O O16 0.500000 0.282349 0.752809
#
# Coordination Sequence:
#
# PCOD8178081 Si02
#       6
#     8   8   8   8   8   8
#     4   9  18  31  47  68  93 120 149 183 223 266
#     4   9  16  28  46  66  88 116 152 188 220 259
#     4   9  16  29  48  66  86 115 152 188 222 263
#     4   9  19  32  46  68  94 119 148 185 225 264
#     4  10  20  32  46  67  94 120 149 186 224 264
#     4  10  19  31  47  67  93 121 150 184 222 266
#
# _framework density 17.039994
#
# number of rings (size 3 to 8) (size 9 to 14) (size 15 to 20)
#    0.000    2.667    0.000    4.000    0.000    5.000 
#    0.000    3.333    0.000    1.000    0.000    4.667 
#    0.000    0.000    0.000    0.000    0.000    0.000 
#
# Total GULP energy -297338.250048 kJ/mol
# GULP energy per Si atom -12389.093752 kJ/mol
# Density = 1.700121 g / cm^3
# Si number density = 17.039994 Si / 1000 Ang^3
#
#
#
# Elastic Constant Matrix: (Units=GPa)
#
#
# Indices 1 2 3 4 5 6 
#
# 1 37.0234 23.4186 30.9205 0.0000 0.0000 0.0000
# 2 23.4186 79.9670 86.2153 0.0000 0.0000 0.0000
# 3 30.9205 86.2153 118.6685 0.0000 0.0000 0.0000
# 4 0.0000 0.0000 0.0000 20.0438 0.0000 0.0000
# 5 0.0000 0.0000 0.0000 0.0000 18.9189 0.0000
# 6 0.0000 0.0000 0.0000 0.0000 0.0000 17.6661
#
#
#
# Elastic Compliance Matrix: (Units=1/GPa)
#
#
# Indices 1 2 3 4 5 6 
#
# 1 0.034585 -0.001904 -0.007628 0.000000 0.000000 0.000000
# 2 -0.001904 0.057809 -0.041504 0.000000 0.000000 0.000000
# 3 -0.007628 -0.041504 0.040568 0.000000 0.000000 0.000000
# 4 0.000000 0.000000 0.000000 0.049891 0.000000 0.000000
# 5 0.000000 0.000000 0.000000 0.000000 0.052857 0.000000
# 6 0.000000 0.000000 0.000000 0.000000 0.000000 0.056606
#
#
# Mechanical properties :
#
#
# Convention : Reuss Voigt Hill
#
# Bulk Modulus (GPa) = 32.37262 57.41864 44.89563
# Shear Modulus (GPa) = 12.35531 17.66607 15.01069
#
# Velocity S-wave (km/s) = 2.69565 3.22334 2.97123
# Velocity P-wave (km/s) = 5.35985 6.90093 6.17862
#
# Compressibility (1/GPa) = 0.03089030
#
# Stress axis : x y z
#
# Youngs Moduli (GPa) = 28.91420 17.29824 24.65014
#
# Poissons Ratio (x) = 0.03294 0.18803
# Poissons Ratio (y) = 0.05506 1.02307
# Poissons Ratio (z) = 0.22056 0.71794
#
# Static dielectric constant tensor:
#      x y z
#    x 3.159670 0.000000 0.000000 
#    y 0.000000 3.428480 0.000000 
#    z 0.000000 0.000000 3.527930 
# 
# 
# High freq. dielectric constant tensor:
#      x y z
#    x 1.663080 0.000000 0.000000 
#    y 0.000000 1.640740 0.000000 
#    z 0.000000 0.000000 1.644460 
# 
# From -- ./inp_files/12047.got.cif
#   From: 2010.03.12/outbox.cif.g09.slc.cpg/sg38_7_cif.got.tgz:12047.got - 2010.04.14 02:38:36.
