data_PCOD8178642
_publ_section_title
;
Structure prediction by ZEFSAII (Michael W. Deem and Ramdas Pophale) SiO2 
 PCOD8178642
Probable space group: A M M 2
;
_chemical_formula_sum "Si O2"
_cell_formula_units_Z 48
_cell_length_a 8.898853
_cell_length_b 23.470383
_cell_length_c 11.631011
_cell_angle_alpha 90.000000
_cell_angle_beta 90.000000
_cell_angle_gamma 90.000000
_cell_volume 2429.247004
_symmetry_space_group_name_H-M "A M M 2"
_symmetry_group_IT_number 38
_symmetry_cell_setting 'orthorhombic'
loop_
_space_group_symop_operation_xyz
x,y,z
-x,-y,z
-x,y,z
x,-y,z
x,1/2+y,1/2+z
-x,1/2-y,1/2+z
-x,1/2+y,1/2+z
x,1/2-y,1/2+z
loop_
_atom_site_type_symbol
_atom_site_label
_atom_site_fract_x
_atom_site_fract_y
_atom_site_fract_z
Si Si1 0.831514 0.935752 0.741210
Si Si2 0.677569 0.435093 0.838063
Si Si3 0.675570 0.635224 0.057502
Si Si4 0.823340 0.272004 0.201031
Si Si5 0.675414 0.656291 0.656397
Si Si6 0.168349 0.654279 0.419672
O O1 0.707405 0.908438 0.659850
O O2 0.828735 0.908811 0.867601
O O3 0.000000 0.927964 0.688411
O O4 0.784574 0.000000 0.758023
O O5 0.500000 0.440380 0.850714
O O6 0.745574 0.500000 0.840022
O O7 0.722226 0.402757 0.719707
O O8 0.738969 0.395147 0.941917
O O9 0.500000 0.647740 0.046178
O O10 0.755305 0.695325 0.089041
O O11 0.762165 0.208555 0.214179
O O12 0.778584 0.302708 0.319728
O O13 0.000000 0.271993 0.182710
O O14 0.500000 0.667485 0.671712
O O15 0.714870 0.654376 0.522771
O O16 0.000000 0.670068 0.463405
#
# Coordination Sequence:
#
# PCOD8178642 Si02
#       6
#     8   8   8   8   8   8
#     4   9  18  34  56  82 114 151 189 233 286 338
#     4   9  20  38  57  83 121 158 190 233 291 345
#     4  10  19  34  59  89 115 147 192 241 291 345
#     4  10  22  40  60  83 114 150 190 241 298 351
#     4  11  23  37  58  85 114 151 193 239 288 349
#     4   9  20  38  56  79 111 149 188 233 287 342
#
# _framework density 19.759208000000001
#
# number of rings (size 3 to 8) (size 9 to 14) (size 15 to 20)
#    0.000    2.333    0.000    3.000    2.333    5.000 
#    0.000    2.500    0.000    5.500    0.000    0.000 
#    0.000    0.000    0.000    0.000    0.000    0.000 
#
# Total GULP energy -297504.325810 kJ/mol
# GULP energy per Si atom -12396.013575 kJ/mol
# Density = 1.971424 g / cm^3
# Si number density = 19.759208 Si / 1000 Ang^3
#
#
#
# Elastic Constant Matrix: (Units=GPa)
#
#
# Indices 1 2 3 4 5 6 
#
# 1 54.5782 26.4855 32.3196 0.0000 0.0000 0.0000
# 2 26.4855 115.1076 39.8072 0.0000 0.0000 0.0000
# 3 32.3196 39.8072 104.0586 0.0000 0.0000 0.0000
# 4 0.0000 0.0000 0.0000 24.0900 0.0000 0.0000
# 5 0.0000 0.0000 0.0000 0.0000 23.5748 0.0000
# 6 0.0000 0.0000 0.0000 0.0000 0.0000 25.2939
#
#
#
# Elastic Compliance Matrix: (Units=1/GPa)
#
#
# Indices 1 2 3 4 5 6 
#
# 1 0.023505 -0.003323 -0.006029 0.000000 0.000000 0.000000
# 2 -0.003323 0.010482 -0.002978 0.000000 0.000000 0.000000
# 3 -0.006029 -0.002978 0.012622 0.000000 0.000000 0.000000
# 4 0.000000 0.000000 0.000000 0.041511 0.000000 0.000000
# 5 0.000000 0.000000 0.000000 0.000000 0.042418 0.000000
# 6 0.000000 0.000000 0.000000 0.000000 0.000000 0.039535
#
#
# Mechanical properties :
#
#
# Convention : Reuss Voigt Hill
#
# Bulk Modulus (GPa) = 45.56099 52.32990 48.94544
# Shear Modulus (GPa) = 24.74633 26.26721 25.50677
#
# Velocity S-wave (km/s) = 3.54276 3.65000 3.59678
# Velocity P-wave (km/s) = 6.31213 6.65617 6.48643
#
# Compressibility (1/GPa) = 0.02194860
#
# Stress axis : x y z
#
# Youngs Moduli (GPa) = 42.54336 95.40215 79.22884
#
# Poissons Ratio (x) = 0.31706 0.47769
# Poissons Ratio (y) = 0.14139 0.23591
# Poissons Ratio (z) = 0.25650 0.28407
#
# Static dielectric constant tensor:
#      x y z
#    x 3.416820 0.000000 0.000000 
#    y 0.000000 3.864670 0.000000 
#    z 0.000000 0.000000 3.543560 
# 
# 
# High freq. dielectric constant tensor:
#      x y z
#    x 1.753430 0.000000 0.000000 
#    y 0.000000 1.781070 0.000000 
#    z 0.000000 0.000000 1.763530 
# 
# From -- ./inp_files/8145.got.cif
#   From: 2010.03.12/outbox.cif.g09.slc.cpg/sg38_5_cif.got.tgz:8145.got - 2010.04.14 02:38:36.
