data_PCOD8178264
_publ_section_title
;
Structure prediction by ZEFSAII (Michael W. Deem and Ramdas Pophale) SiO2 
 PCOD8178264
Probable space group: A M M 2
;
_chemical_formula_sum "Si O2"
_cell_formula_units_Z 64
_cell_length_a 10.406220
_cell_length_b 15.398791
_cell_length_c 19.966488
_cell_angle_alpha 90.000000
_cell_angle_beta 90.000000
_cell_angle_gamma 90.000000
_cell_volume 3199.494067
_symmetry_space_group_name_H-M "A M M 2"
_symmetry_group_IT_number 38
_symmetry_cell_setting 'orthorhombic'
loop_
_space_group_symop_operation_xyz
x,y,z
-x,-y,z
-x,y,z
x,-y,z
x,1/2+y,1/2+z
-x,1/2-y,1/2+z
-x,1/2+y,1/2+z
x,1/2-y,1/2+z
loop_
_atom_site_type_symbol
_atom_site_label
_atom_site_fract_x
_atom_site_fract_y
_atom_site_fract_z
Si Si1 0.348066 0.402968 0.774320
Si Si2 0.860106 0.598896 0.247174
Si Si3 0.240048 0.597427 0.391439
Si Si4 0.351225 0.283437 0.891439
Si Si5 0.651934 0.097032 0.508558
Si Si6 0.641068 0.150634 0.651360
Si Si7 0.139894 0.098896 0.035704
Si Si8 0.358932 0.150635 0.131518
O O1 0.500000 0.390894 0.769556
O O2 0.311218 0.500000 0.799213
O O3 0.290294 0.330837 0.825612
O O4 0.295316 0.389526 0.698815
O O5 0.855877 0.500000 0.223811
O O6 0.849194 0.606864 0.326961
O O7 0.740016 0.644501 0.212381
O O8 0.000000 0.638957 0.227207
O O9 0.306929 0.500000 0.391439
O O10 0.337701 0.679136 0.391439
O O11 0.150806 0.606864 0.455917
O O12 0.500000 0.306586 0.891439
O O13 0.290294 0.330837 0.957266
O O14 0.500000 0.109107 0.513322
O O15 0.704685 0.110473 0.584063
O O16 0.688780 0.000000 0.483664
O O17 0.500000 0.107792 0.668427
O O18 0.613654 0.250000 0.641439
O O19 0.259984 0.144502 0.070497
O O20 0.000000 0.138957 0.055671
O O21 0.144123 0.000000 0.059067
O O22 0.500000 0.107792 0.114451
#
# Coordination Sequence:
#
# PCOD8178264 Si02
#       8
#     8   8   8   8   8   8   8   8
#     4   9  17  30  50  76 107 144 181 218 266 320
#     4  10  21  37  56  77 103 139 182 224 268 324
#     4  10  21  36  53  73 101 138 178 224 279 332
#     4  10  19  32  51  77 108 139 178 226 268 318
#     4   9  17  30  50  76 107 144 181 218 266 320
#     4  10  20  34  53  80 114 146 177 220 272 324
#     4  10  21  37  56  77 103 139 182 224 268 324
#     4  10  20  34  53  80 114 146 177 220 272 324
#
# _framework density 20.003163000000001
#
# number of rings (size 3 to 8) (size 9 to 14) (size 15 to 20)
#    0.000    2.250    0.000    3.000    0.000    8.250 
#    0.000    2.500    0.000    0.000    0.000    0.000 
#    0.000   10.000    0.000    0.000    0.000    0.000 
#
# Total GULP energy -396450.788041 kJ/mol
# GULP energy per Si atom -12389.087126 kJ/mol
# Density = 1.995763 g / cm^3
# Si number density = 20.003163 Si / 1000 Ang^3
#
#
#
# Elastic Constant Matrix: (Units=GPa)
#
#
# Indices 1 2 3 4 5 6 
#
# 1 93.4445 16.8258 56.8547 0.0000 0.0000 0.0000
# 2 16.8258 103.8192 35.7125 0.0000 0.0000 0.0000
# 3 56.8547 35.7125 119.2340 0.0000 0.0000 0.0000
# 4 0.0000 0.0000 0.0000 35.4259 0.0000 0.0000
# 5 0.0000 0.0000 0.0000 0.0000 12.0957 0.0000
# 6 0.0000 0.0000 0.0000 0.0000 0.0000 30.7409
#
#
#
# Elastic Compliance Matrix: (Units=1/GPa)
#
#
# Indices 1 2 3 4 5 6 
#
# 1 0.015075 0.000033 -0.007198 0.000000 0.000000 0.000000
# 2 0.000033 0.010739 -0.003232 0.000000 0.000000 0.000000
# 3 -0.007198 -0.003232 0.012787 0.000000 0.000000 0.000000
# 4 0.000000 0.000000 0.000000 0.028228 0.000000 0.000000
# 5 0.000000 0.000000 0.000000 0.000000 0.082674 0.000000
# 6 0.000000 0.000000 0.000000 0.000000 0.000000 0.032530
#
#
# Mechanical properties :
#
#
# Convention : Reuss Voigt Hill
#
# Bulk Modulus (GPa) = 56.15988 59.47598 57.81793
# Shear Modulus (GPa) = 23.95060 29.45947 26.70504
#
# Velocity S-wave (km/s) = 3.46402 3.84179 3.65778
# Velocity P-wave (km/s) = 6.64347 7.03399 6.84152
#
# Compressibility (1/GPa) = 0.01780631
#
# Stress axis : x y z
#
# Youngs Moduli (GPa) = 66.33380 93.12214 78.20273
#
# Poissons Ratio (x) = -0.00306 0.56292
# Poissons Ratio (y) = -0.00218 0.25276
# Poissons Ratio (z) = 0.47749 0.30098
#
# Static dielectric constant tensor:
#      x y z
#    x 3.274830 0.000000 0.000000 
#    y 0.000000 3.684690 0.000000 
#    z 0.000000 0.000000 3.901320 
# 
# 
# High freq. dielectric constant tensor:
#      x y z
#    x 1.725870 0.000000 0.000000 
#    y 0.000000 1.783070 0.000000 
#    z 0.000000 0.000000 1.790850 
# 
# From -- ./inp_files/17839.got.cif
#   From: 2010.03.12/outbox.cif.g09.slc.cpg/sg38_9_cif.got.tgz:17839.got - 2010.04.14 02:38:36.
