data_PCOD8178114
_publ_section_title
;
Structure prediction by ZEFSAII (Michael W. Deem and Ramdas Pophale) SiO2 
 PCOD8178114
Probable space group: A M M 2
;
_chemical_formula_sum "Si O2"
_cell_formula_units_Z 64
_cell_length_a 9.219722
_cell_length_b 14.087044
_cell_length_c 28.602250
_cell_angle_alpha 90.000000
_cell_angle_beta 90.000000
_cell_angle_gamma 90.000000
_cell_volume 3714.821030
_symmetry_space_group_name_H-M "A M M 2"
_symmetry_group_IT_number 38
_symmetry_cell_setting 'orthorhombic'
loop_
_space_group_symop_operation_xyz
x,y,z
-x,-y,z
-x,y,z
x,-y,z
x,1/2+y,1/2+z
-x,1/2-y,1/2+z
-x,1/2+y,1/2+z
x,1/2-y,1/2+z
loop_
_atom_site_type_symbol
_atom_site_label
_atom_site_fract_x
_atom_site_fract_y
_atom_site_fract_z
Si Si1 0.667764 0.293771 0.924870
Si Si2 0.333476 0.105693 0.971102
Si Si3 0.669587 0.389576 0.102591
Si Si4 0.829384 0.608140 0.737669
Si Si5 0.165280 0.611907 0.009007
Si Si6 0.169256 0.892037 0.062224
Si Si7 0.331635 0.609158 0.830482
Si Si8 0.828878 0.767451 0.149999
O O1 0.500000 0.322883 0.932850
O O2 0.689464 0.179689 0.928643
O O3 0.719907 0.326309 0.873789
O O4 0.764251 0.345158 0.963083
O O5 0.500000 0.101667 0.986203
O O6 0.279278 0.000000 0.956068
O O7 0.246940 0.145945 0.015668
O O8 0.500000 0.366963 0.098506
O O9 0.698095 0.500000 0.112731
O O10 0.746696 0.355985 0.054815
O O11 0.741336 0.331307 0.145461
O O12 0.782228 0.500000 0.725565
O O13 0.755181 0.643640 0.785150
O O14 0.778534 0.678016 0.696548
O O15 0.000000 0.613622 0.744795
O O16 0.171193 0.500000 0.003340
O O17 0.000000 0.648187 0.014474
O O18 0.218888 0.832238 0.106610
O O19 0.000000 0.882738 0.053295
O O20 0.215732 0.000000 0.072068
O O21 0.500000 0.623752 0.819711
O O22 0.295998 0.500000 0.842656
O O23 0.000000 0.746965 0.150556
#
# Coordination Sequence:
#
# PCOD8178114 Si02
#       8
#     8   8   8   8   8   8   8   8
#     4  10  19  31  49  70  94 127 163 199 240 284
#     4   9  18  31  45  64  92 124 158 194 230 270
#     4  10  21  35  49  67  95 130 164 198 236 278
#     4   9  18  33  52  74 100 127 154 188 235 289
#     4  10  20  32  47  70  99 128 159 196 237 283
#     4   9  17  29  45  67  96 126 154 186 227 276
#     4   9  18  32  49  70  95 122 155 196 241 288
#     4  10  19  31  50  73  95 123 159 196 234 279
#
# _framework density 17.228287000000002
#
# number of rings (size 3 to 8) (size 9 to 14) (size 15 to 20)
#    0.000    2.500    0.000    2.250    0.000    7.500 
#    0.000    1.250    0.000    4.500    0.000    1.750 
#    0.000    0.000    0.000    0.000    0.000    0.000 
#
# Total GULP energy -396821.415010 kJ/mol
# GULP energy per Si atom -12400.669219 kJ/mol
# Density = 1.718907 g / cm^3
# Si number density = 17.228287 Si / 1000 Ang^3
#
#
#
# Elastic Constant Matrix: (Units=GPa)
#
#
# Indices 1 2 3 4 5 6 
#
# 1 61.3607 42.3007 52.8571 0.0000 0.0000 0.0000
# 2 42.3007 74.1437 78.5713 0.0000 0.0000 0.0000
# 3 52.8571 78.5713 135.3131 0.0000 0.0000 0.0000
# 4 0.0000 0.0000 0.0000 31.0215 0.0000 0.0000
# 5 0.0000 0.0000 0.0000 0.0000 30.6457 0.0000
# 6 0.0000 0.0000 0.0000 0.0000 0.0000 24.4128
#
#
#
# Elastic Compliance Matrix: (Units=1/GPa)
#
#
# Indices 1 2 3 4 5 6 
#
# 1 0.027787 -0.011310 -0.004287 0.000000 0.000000 0.000000
# 2 -0.011310 0.039666 -0.018615 0.000000 0.000000 0.000000
# 3 -0.004287 -0.018615 0.019874 0.000000 0.000000 0.000000
# 4 0.000000 0.000000 0.000000 0.032236 0.000000 0.000000
# 5 0.000000 0.000000 0.000000 0.000000 0.032631 0.000000
# 6 0.000000 0.000000 0.000000 0.000000 0.000000 0.040962
#
#
# Mechanical properties :
#
#
# Convention : Reuss Voigt Hill
#
# Bulk Modulus (GPa) = 52.90054 68.69729 60.79891
# Shear Modulus (GPa) = 18.66505 23.68856 21.17680
#
# Velocity S-wave (km/s) = 3.29507 3.71210 3.50978
# Velocity P-wave (km/s) = 6.72673 7.63768 7.19663
#
# Compressibility (1/GPa) = 0.01890340
#
# Stress axis : x y z
#
# Youngs Moduli (GPa) = 35.98826 25.21034 50.31752
#
# Poissons Ratio (x) = 0.28513 0.21571
# Poissons Ratio (y) = 0.40703 0.93665
# Poissons Ratio (z) = 0.15428 0.46928
#
# Static dielectric constant tensor:
#      x y z
#    x 3.209800 0.000000 0.000000 
#    y 0.000000 3.387670 0.000000 
#    z 0.000000 0.000000 3.138690 
# 
# 
# High freq. dielectric constant tensor:
#      x y z
#    x 1.664350 0.000000 0.000000 
#    y 0.000000 1.667730 0.000000 
#    z 0.000000 0.000000 1.645030 
# 
# From -- ./inp_files/22115.got.cif
#   From: 2010.03.12/outbox.cif.g09.slc.cpg/sg38_12_cif.got.tgz:22115.got - 2010.04.14 02:38:36.
