data_PCOD8178073
_publ_section_title
;
Structure prediction by ZEFSAII (Michael W. Deem and Ramdas Pophale) SiO2 
 PCOD8178073
Probable space group: A M M 2
;
_chemical_formula_sum "Si O2"
_cell_formula_units_Z 64
_cell_length_a 8.770419
_cell_length_b 30.620736
_cell_length_c 14.534061
_cell_angle_alpha 90.000000
_cell_angle_beta 90.000000
_cell_angle_gamma 90.000000
_cell_volume 3903.219239
_symmetry_space_group_name_H-M "A M M 2"
_symmetry_group_IT_number 38
_symmetry_cell_setting 'orthorhombic'
loop_
_space_group_symop_operation_xyz
x,y,z
-x,-y,z
-x,y,z
x,-y,z
x,1/2+y,1/2+z
-x,1/2-y,1/2+z
-x,1/2+y,1/2+z
x,1/2-y,1/2+z
loop_
_atom_site_type_symbol
_atom_site_label
_atom_site_fract_x
_atom_site_fract_y
_atom_site_fract_z
Si Si1 0.319143 0.202880 0.352960
Si Si2 0.821946 0.225912 0.171615
Si Si3 0.679956 0.634607 0.996942
Si Si4 0.174969 0.361636 0.338563
Si Si5 0.175488 0.047798 0.777642
Si Si6 0.178355 0.716887 0.464484
Si Si7 0.318982 0.548133 0.082436
Si Si8 0.676932 0.684194 0.178270
O O1 0.500000 0.205948 0.354096
O O2 0.260513 0.196473 0.248788
O O3 0.259474 0.159320 0.406048
O O4 0.259600 0.246892 0.401953
O O5 0.785065 0.275190 0.199521
O O6 0.000000 0.216407 0.177387
O O7 0.758086 0.216775 0.068999
O O8 0.500000 0.631359 0.993102
O O9 0.745442 0.585322 0.011936
O O10 0.729922 0.664411 0.082051
O O11 0.202118 0.413931 0.354205
O O12 0.212348 0.332095 0.427461
O O13 0.291889 0.350292 0.257868
O O14 0.000000 0.353146 0.308189
O O15 0.267772 0.058891 0.685586
O O16 0.000000 0.046711 0.748076
O O17 0.224384 0.000000 0.817639
O O18 0.000000 0.728112 0.463877
O O19 0.500000 0.549685 0.082857
O O20 0.260504 0.500000 0.051190
O O21 0.500000 0.698238 0.177983
#
# Coordination Sequence:
#
# PCOD8178073 Si02
#       8
#     8   8   8   8   8   8   8   8
#     4  11  21  33  49  68  93 123 157 196 233 276
#     4  11  22  35  47  65  94 125 161 198 233 274
#     4   9  18  30  44  68  96 121 155 192 228 272
#     4  10  19  31  46  67  93 125 158 191 230 273
#     4   9  17  28  43  66  95 122 150 186 230 279
#     4  10  21  34  48  66  91 122 158 196 230 273
#     4   9  16  28  46  66  91 122 153 186 227 276
#     4  11  19  29  46  68  95 125 157 191 229 272
#
# _framework density 16.396723000000001
#
# number of rings (size 3 to 8) (size 9 to 14) (size 15 to 20)
#    0.000    2.000    3.750    1.125    0.000    0.500 
#    0.000    1.250    0.000    0.000    0.000    0.875 
#    0.000    1.000    0.000    0.000    0.000    0.000 
#
# Total GULP energy -396527.629989 kJ/mol
# GULP energy per Si atom -12391.488437 kJ/mol
# Density = 1.635940 g / cm^3
# Si number density = 16.396723 Si / 1000 Ang^3
#
#
#
# Elastic Constant Matrix: (Units=GPa)
#
#
# Indices 1 2 3 4 5 6 
#
# 1 30.1226 16.5501 22.9439 0.0000 0.0000 0.0000
# 2 16.5501 119.9042 40.3197 0.0000 0.0000 0.0000
# 3 22.9439 40.3197 86.6575 0.0000 0.0000 0.0000
# 4 0.0000 0.0000 0.0000 23.5119 0.0000 0.0000
# 5 0.0000 0.0000 0.0000 0.0000 20.5153 0.0000
# 6 0.0000 0.0000 0.0000 0.0000 0.0000 13.7587
#
#
#
# Elastic Compliance Matrix: (Units=1/GPa)
#
#
# Indices 1 2 3 4 5 6 
#
# 1 0.042182 -0.002450 -0.010028 0.000000 0.000000 0.000000
# 2 -0.002450 0.010029 -0.004018 0.000000 0.000000 0.000000
# 3 -0.010028 -0.004018 0.016064 0.000000 0.000000 0.000000
# 4 0.000000 0.000000 0.000000 0.042532 0.000000 0.000000
# 5 0.000000 0.000000 0.000000 0.000000 0.048744 0.000000
# 6 0.000000 0.000000 0.000000 0.000000 0.000000 0.072681
#
#
# Mechanical properties :
#
#
# Convention : Reuss Voigt Hill
#
# Bulk Modulus (GPa) = 28.34199 44.03461 36.18830
# Shear Modulus (GPa) = 18.05143 22.01521 20.03332
#
# Velocity S-wave (km/s) = 3.32161 3.66821 3.49920
# Velocity P-wave (km/s) = 5.65981 6.69739 6.20034
#
# Compressibility (1/GPa) = 0.03528334
#
# Stress axis : x y z
#
# Youngs Moduli (GPa) = 23.70659 99.70915 62.25026
#
# Poissons Ratio (x) = 0.24430 0.62427
# Poissons Ratio (y) = 0.05808 0.25010
# Poissons Ratio (z) = 0.23774 0.40060
#
# Static dielectric constant tensor:
#      x y z
#    x 3.000570 0.000000 0.000000 
#    y 0.000000 3.508930 0.000000 
#    z 0.000000 0.000000 3.222980 
# 
# 
# High freq. dielectric constant tensor:
#      x y z
#    x 1.624170 0.000000 0.000000 
#    y 0.000000 1.629990 0.000000 
#    z 0.000000 0.000000 1.601500 
# 
# From -- ./inp_files/13046.got.cif
#   From: 2010.03.12/outbox.cif.g09.slc.cpg/sg38_7_cif.got.tgz:13046.got - 2010.04.14 02:38:36.
