data_PCOD8178396
_publ_section_title
;
Structure prediction by ZEFSAII (Michael W. Deem and Ramdas Pophale) SiO2 
 PCOD8178396
Probable space group: A M M 2
;
_chemical_formula_sum "Si O2"
_cell_formula_units_Z 48
_cell_length_a 17.132819
_cell_length_b 15.745109
_cell_length_c 8.193569
_cell_angle_alpha 90.000000
_cell_angle_beta 90.000000
_cell_angle_gamma 90.000000
_cell_volume 2210.281627
_symmetry_space_group_name_H-M "A M M 2"
_symmetry_group_IT_number 38
_symmetry_cell_setting 'orthorhombic'
loop_
_space_group_symop_operation_xyz
x,y,z
-x,-y,z
-x,y,z
x,-y,z
x,1/2+y,1/2+z
-x,1/2-y,1/2+z
-x,1/2+y,1/2+z
x,1/2-y,1/2+z
loop_
_atom_site_type_symbol
_atom_site_label
_atom_site_fract_x
_atom_site_fract_y
_atom_site_fract_z
Si Si1 0.682892 0.602012 0.435250
Si Si2 0.412213 0.899357 0.616325
Si Si3 0.907563 0.500000 0.846628
Si Si4 0.091309 0.668749 0.025829
Si Si5 0.151873 0.333197 0.362844
Si Si6 0.587864 0.899372 0.253748
Si Si7 0.087879 0.500000 0.495825
O O1 0.697705 0.500000 0.433273
O O2 0.638423 0.632712 0.270480
O O3 0.762865 0.654673 0.438725
O O4 0.639034 0.632929 0.600210
O O5 0.500000 0.864246 0.639521
O O6 0.380660 0.870467 0.434949
O O7 0.413709 0.000000 0.621597
O O8 0.866137 0.500000 0.668485
O O9 0.000000 0.500000 0.843658
O O10 0.878712 0.414361 0.931734
O O11 0.153387 0.677175 0.169967
O O12 0.000000 0.661968 0.077397
O O13 0.103208 0.752964 0.922478
O O14 0.102630 0.417596 0.390710
O O15 0.500000 0.864469 0.229912
O O16 0.586521 0.000000 0.246838
O O17 0.000000 0.500000 0.553041
#
# Coordination Sequence:
#
# PCOD8178396 Si02
#       7
#     8   8   4   8   8   8   4
#     4  10  19  33  50  88 133 165 205 257 320 381
#     4   8  14  27  50  81 120 169 217 256 300 363
#     4   9  21  41  69  95 113 147 204 267 327 378
#     4  11  23  43  66  89 118 160 215 273 324 390
#     4  12  24  40  60  93 127 169 209 261 331 384
#     4   8  14  27  50  81 121 170 216 256 301 362
#     4  11  21  39  63  91 124 163 210 255 308 392
#
# _framework density 21.71669
#
# number of rings (size 3 to 8) (size 9 to 14) (size 15 to 20)
#    0.000    2.167    0.833    4.500    0.000    4.000 
#    6.000    0.000    0.000    0.000    0.000    4.667 
#    0.000    0.000    0.000    0.667    0.000    1.333 
#
# Total GULP energy -297379.334316 kJ/mol
# GULP energy per Si atom -12390.805596 kJ/mol
# Density = 2.166726 g / cm^3
# Si number density = 21.716690 Si / 1000 Ang^3
#
#
#
# Elastic Constant Matrix: (Units=GPa)
#
#
# Indices 1 2 3 4 5 6 
#
# 1 70.1504 11.4129 27.4919 0.0000 0.0000 0.0000
# 2 11.4129 97.2156 26.9367 0.0000 0.0000 0.0000
# 3 27.4919 26.9367 141.1319 0.0000 0.0000 0.0000
# 4 0.0000 0.0000 0.0000 -22.6961 0.0000 0.0000
# 5 0.0000 0.0000 0.0000 0.0000 30.7424 0.0000
# 6 0.0000 0.0000 0.0000 0.0000 0.0000 18.0542
#
#
#
# Elastic Compliance Matrix: (Units=1/GPa)
#
#
# Indices 1 2 3 4 5 6 
#
# 1 0.015532 -0.001040 -0.002827 0.000000 0.000000 0.000000
# 2 -0.001040 0.010930 -0.001884 0.000000 0.000000 0.000000
# 3 -0.002827 -0.001884 0.007996 0.000000 0.000000 0.000000
# 4 0.000000 0.000000 0.000000 -0.044061 0.000000 0.000000
# 5 0.000000 0.000000 0.000000 0.000000 0.032528 0.000000
# 6 0.000000 0.000000 0.000000 0.000000 0.000000 0.055389
#
#
# Mechanical properties :
#
#
# Convention : Reuss Voigt Hill
#
# Bulk Modulus (GPa) = 43.55999 48.90899 46.23449
# Shear Modulus (GPa) = 51.29839 21.39720 36.34779
#
# Velocity S-wave (km/s) = 4.86548 3.14234 4.09556
# Velocity P-wave (km/s) = 7.18789 5.97796 6.61066
#
# Compressibility (1/GPa) = 0.02295684
#
# Stress axis : x y z
#
# Youngs Moduli (GPa) = 64.38220 91.48771 125.06588
#
# Poissons Ratio (x) = 0.09516 0.35357
# Poissons Ratio (y) = 0.06696 0.23557
# Poissons Ratio (z) = 0.18201 0.17233
#
# Static dielectric constant tensor:
#      x y z
#    x 3.737470 0.000000 0.000000 
#    y 0.000000 3.585790 0.000000 
#    z 0.000000 0.000000 4.363570 
# 
# 
# High freq. dielectric constant tensor:
#      x y z
#    x 1.833840 0.000000 0.000000 
#    y 0.000000 1.827420 0.000000 
#    z 0.000000 0.000000 1.873600 
# 
# From -- ./inp_files/6201.got.cif
#   From: 2010.03.12/outbox.cif.g09.slc.cpg/sg38_4_cif.got.tgz:6201.got - 2010.04.14 02:38:36.
