data_PCOD8178219
_publ_section_title
;
Structure prediction by ZEFSAII (Michael W. Deem and Ramdas Pophale) SiO2 
 PCOD8178219
Probable space group: A M M 2
;
_chemical_formula_sum "Si O2"
_cell_formula_units_Z 64
_cell_length_a 8.903906
_cell_length_b 23.113225
_cell_length_c 18.939962
_cell_angle_alpha 90.000000
_cell_angle_beta 90.000000
_cell_angle_gamma 90.000000
_cell_volume 3897.805973
_symmetry_space_group_name_H-M "A M M 2"
_symmetry_group_IT_number 38
_symmetry_cell_setting 'orthorhombic'
loop_
_space_group_symop_operation_xyz
x,y,z
-x,-y,z
-x,y,z
x,-y,z
x,1/2+y,1/2+z
-x,1/2-y,1/2+z
-x,1/2+y,1/2+z
x,1/2-y,1/2+z
loop_
_atom_site_type_symbol
_atom_site_label
_atom_site_fract_x
_atom_site_fract_y
_atom_site_fract_z
Si Si1 0.176295 0.771908 0.420250
Si Si2 0.823648 0.624126 0.563618
Si Si3 0.673664 0.751632 0.056584
Si Si4 0.824491 0.434316 0.416558
Si Si5 0.328395 0.261130 0.213003
Si Si6 0.824344 0.342313 0.785959
Si Si7 0.326219 0.067311 0.196764
Si Si8 0.674202 0.333469 0.344642
O O1 0.242431 0.786795 0.497295
O O2 0.219075 0.822699 0.365422
O O3 0.243494 0.710737 0.396715
O O4 0.000000 0.763560 0.425454
O O5 0.737082 0.684034 0.560107
O O6 0.783506 0.587248 0.494622
O O7 0.770677 0.587109 0.630209
O O8 0.000000 0.636420 0.570105
O O9 0.500000 0.754897 0.036511
O O10 0.699377 0.720352 0.132053
O O11 0.768890 0.500000 0.409137
O O12 0.738624 0.397269 0.357232
O O13 0.000000 0.428685 0.401871
O O14 0.500000 0.239507 0.223618
O O15 0.218302 0.208474 0.231522
O O16 0.295294 0.316008 0.263152
O O17 0.731519 0.399693 0.766891
O O18 0.000000 0.355028 0.778784
O O19 0.500000 0.082004 0.183001
O O20 0.300392 0.000000 0.210653
O O21 0.500000 0.332036 0.363508
#
# Coordination Sequence:
#
# PCOD8178219 Si02
#       8
#     8   8   8   8   8   8   8   8
#     4  10  20  33  49  72 100 128 162 203 247 297
#     4  11  21  33  49  70  99 135 172 206 237 282
#     4  11  20  31  50  75 101 133 164 199 245 293
#     4  10  21  35  49  67  96 133 168 203 242 284
#     4   9  19  33  49  70  99 127 159 201 247 295
#     4  10  20  33  51  72  95 128 167 206 247 290
#     4  11  23  36  50  70  99 134 171 209 247 292
#     4  10  19  32  50  71  94 127 164 203 246 288
#
# _framework density 16.419492999999999
#
# number of rings (size 3 to 8) (size 9 to 14) (size 15 to 20)
#    0.000    1.750    2.500    2.625    0.000    4.750 
#    0.000    0.000    0.000    0.000    0.000    0.875 
#    0.000    1.000    0.000    0.000    0.000    0.000 
#
# Total GULP energy -396864.234928 kJ/mol
# GULP energy per Si atom -12402.007341 kJ/mol
# Density = 1.638212 g / cm^3
# Si number density = 16.419493 Si / 1000 Ang^3
#
#
#
# Elastic Constant Matrix: (Units=GPa)
#
#
# Indices 1 2 3 4 5 6 
#
# 1 58.3514 31.4187 39.8015 0.0000 0.0000 0.0000
# 2 31.4187 76.0494 50.6149 0.0000 0.0000 0.0000
# 3 39.8015 50.6149 115.7908 0.0000 0.0000 0.0000
# 4 0.0000 0.0000 0.0000 24.0048 0.0000 0.0000
# 5 0.0000 0.0000 0.0000 0.0000 27.0816 0.0000
# 6 0.0000 0.0000 0.0000 0.0000 0.0000 25.1414
#
#
#
# Elastic Compliance Matrix: (Units=1/GPa)
#
#
# Indices 1 2 3 4 5 6 
#
# 1 0.024376 -0.006338 -0.005608 0.000000 0.000000 0.000000
# 2 -0.006338 0.020192 -0.006648 0.000000 0.000000 0.000000
# 3 -0.005608 -0.006648 0.013470 0.000000 0.000000 0.000000
# 4 0.000000 0.000000 0.000000 0.041658 0.000000 0.000000
# 5 0.000000 0.000000 0.000000 0.000000 0.036925 0.000000
# 6 0.000000 0.000000 0.000000 0.000000 0.000000 0.039775
#
#
# Mechanical properties :
#
#
# Convention : Reuss Voigt Hill
#
# Bulk Modulus (GPa) = 47.96247 54.87353 51.41800
# Shear Modulus (GPa) = 22.67215 23.80265 23.23740
#
# Velocity S-wave (km/s) = 3.71995 3.81157 3.76604
# Velocity P-wave (km/s) = 6.90832 7.27070 7.09182
#
# Compressibility (1/GPa) = 0.02084963
#
# Stress axis : x y z
#
# Youngs Moduli (GPa) = 41.02480 49.52383 74.23854
#
# Poissons Ratio (x) = 0.31387 0.41636
# Poissons Ratio (y) = 0.26000 0.49354
# Poissons Ratio (z) = 0.23008 0.32924
#
# Static dielectric constant tensor:
#      x y z
#    x 3.245820 0.000000 0.000000 
#    y 0.000000 2.957750 0.000000 
#    z 0.000000 0.000000 3.373050 
# 
# 
# High freq. dielectric constant tensor:
#      x y z
#    x 1.648350 0.000000 0.000000 
#    y 0.000000 1.599730 0.000000 
#    z 0.000000 0.000000 1.631790 
# 
# From -- ./inp_files/17301.got.cif
#   From: 2010.03.12/outbox.cif.g09.slc.cpg/sg38_9_cif.got.tgz:17301.got - 2010.04.14 02:38:36.
