data_PCOD8178640
_publ_section_title
;
Structure prediction by ZEFSAII (Michael W. Deem and Ramdas Pophale) SiO2 
 PCOD8178640
Probable space group: A M M 2
;
_chemical_formula_sum "Si O2"
_cell_formula_units_Z 48
_cell_length_a 16.390200
_cell_length_b 18.225161
_cell_length_c 7.436068
_cell_angle_alpha 90.000000
_cell_angle_beta 90.000000
_cell_angle_gamma 90.000000
_cell_volume 2221.257868
_symmetry_space_group_name_H-M "A M M 2"
_symmetry_group_IT_number 38
_symmetry_cell_setting 'orthorhombic'
loop_
_space_group_symop_operation_xyz
x,y,z
-x,-y,z
-x,y,z
x,-y,z
x,1/2+y,1/2+z
-x,1/2-y,1/2+z
-x,1/2+y,1/2+z
x,1/2-y,1/2+z
loop_
_atom_site_type_symbol
_atom_site_label
_atom_site_fract_x
_atom_site_fract_y
_atom_site_fract_z
Si Si1 0.156440 0.840906 0.731350
Si Si2 0.153062 0.674308 0.647815
Si Si3 0.333283 0.833035 0.127388
Si Si4 0.592447 0.814698 0.495604
Si Si5 0.000000 0.415410 0.670617
Si Si6 0.000000 0.918672 0.741560
Si Si7 0.324126 0.587054 0.261266
O O1 0.138485 0.760169 0.662051
O O2 0.242552 0.876318 0.676192
O O3 0.080549 0.885176 0.650962
O O4 0.154143 0.847809 0.942961
O O5 0.244016 0.658468 0.721500
O O6 0.081494 0.626750 0.744284
O O7 0.395396 0.844401 0.291984
O O8 0.346256 0.752733 0.037836
O O9 0.343187 0.892711 0.969108
O O10 0.500000 0.786110 0.513820
O O11 0.604107 0.881197 0.636099
O O12 0.000000 0.500000 0.736360
O O13 0.000000 0.410753 0.456051
O O14 0.000000 0.000000 0.673330
O O15 0.318831 0.500000 0.244960
#
# Coordination Sequence:
#
# PCOD8178640 Si02
#       7
#     8   8   8   8   4   4   8
#     4  10  19  34  59  87 119 162 215 260 317 387
#     4  10  19  34  60  88 120 164 213 260 315 386
#     4  11  22  41  69 100 130 174 227 272 327 404
#     4  12  24  42  70 101 130 172 225 280 340 409
#     4   9  19  34  55  89 128 165 210 266 321 377
#     4   9  17  30  51  81 118 159 202 250 309 379
#     4  11  25  43  66  97 136 174 216 279 344 399
#
# _framework density 21.609376000000001
#
# number of rings (size 3 to 8) (size 9 to 14) (size 15 to 20)
#    0.000    1.500    3.333    2.500    0.000    5.667 
#    0.000    0.000    0.000    1.000    0.000    0.000 
#    0.000    0.000    0.000    0.000    0.000    0.000 
#
# Total GULP energy -297466.878385 kJ/mol
# GULP energy per Si atom -12394.453266 kJ/mol
# Density = 2.156019 g / cm^3
# Si number density = 21.609376 Si / 1000 Ang^3
#
#
#
# Elastic Constant Matrix: (Units=GPa)
#
#
# Indices 1 2 3 4 5 6 
#
# 1 134.6767 44.0411 25.3106 0.0000 0.0000 0.0000
# 2 44.0411 147.7080 16.2000 0.0000 0.0000 0.0000
# 3 25.3106 16.2000 65.3962 0.0000 0.0000 0.0000
# 4 0.0000 0.0000 0.0000 30.3533 0.0000 0.0000
# 5 0.0000 0.0000 0.0000 0.0000 10.9076 0.0000
# 6 0.0000 0.0000 0.0000 0.0000 0.0000 23.3887
#
#
#
# Elastic Compliance Matrix: (Units=1/GPa)
#
#
# Indices 1 2 3 4 5 6 
#
# 1 0.008699 -0.002287 -0.002800 0.000000 0.000000 0.000000
# 2 -0.002287 0.007560 -0.000988 0.000000 0.000000 0.000000
# 3 -0.002800 -0.000988 0.016620 0.000000 0.000000 0.000000
# 4 0.000000 0.000000 0.000000 0.032945 0.000000 0.000000
# 5 0.000000 0.000000 0.000000 0.000000 0.091679 0.000000
# 6 0.000000 0.000000 0.000000 0.000000 0.000000 0.042756
#
#
# Mechanical properties :
#
#
# Convention : Reuss Voigt Hill
#
# Bulk Modulus (GPa) = 48.24012 57.65379 52.94696
# Shear Modulus (GPa) = 22.79781 30.41187 26.60484
#
# Velocity S-wave (km/s) = 3.25159 3.75553 3.51261
# Velocity P-wave (km/s) = 6.03898 6.74857 6.40362
#
# Compressibility (1/GPa) = 0.02072963
#
# Stress axis : x y z
#
# Youngs Moduli (GPa) = 114.95231 132.27072 60.16850
#
# Poissons Ratio (x) = 0.30246 0.16850
# Poissons Ratio (y) = 0.26286 0.05944
# Poissons Ratio (z) = 0.32192 0.13066
#
# Static dielectric constant tensor:
#      x y z
#    x 4.335440 0.000000 0.000000 
#    y 0.000000 3.735310 0.000000 
#    z 0.000000 0.000000 3.711580 
# 
# 
# High freq. dielectric constant tensor:
#      x y z
#    x 1.859470 0.000000 0.000000 
#    y 0.000000 1.832450 0.000000 
#    z 0.000000 0.000000 1.839250 
# 
# From -- ./inp_files/5484.got.cif
#   From: 2010.03.12/outbox.cif.g09.slc.cpg/sg38_3_cif.got.tgz:5484.got - 2010.04.14 02:38:36.
