data_PCOD8178427
_publ_section_title
;
Structure prediction by ZEFSAII (Michael W. Deem and Ramdas Pophale) SiO2 
 PCOD8178427
Probable space group: A M M 2
;
_chemical_formula_sum "Si O2"
_cell_formula_units_Z 64
_cell_length_a 9.264470
_cell_length_b 24.944082
_cell_length_c 15.029640
_cell_angle_alpha 90.000000
_cell_angle_beta 90.000000
_cell_angle_gamma 90.000000
_cell_volume 3473.255108
_symmetry_space_group_name_H-M "A M M 2"
_symmetry_group_IT_number 38
_symmetry_cell_setting 'orthorhombic'
loop_
_space_group_symop_operation_xyz
x,y,z
-x,-y,z
-x,y,z
x,-y,z
x,1/2+y,1/2+z
-x,1/2-y,1/2+z
-x,1/2+y,1/2+z
x,1/2-y,1/2+z
loop_
_atom_site_type_symbol
_atom_site_label
_atom_site_fract_x
_atom_site_fract_y
_atom_site_fract_z
Si Si1 0.333333 0.242155 0.845650
Si Si2 0.830790 0.153299 0.313344
Si Si3 0.664777 0.778305 0.641090
Si Si4 0.165002 0.175716 0.117877
Si Si5 0.834574 0.939181 0.444984
Si Si6 0.328725 0.398045 0.113013
Si Si7 0.166636 0.438557 0.284966
Si Si8 0.165711 0.852589 0.928508
O O1 0.500000 0.249919 0.870635
O O2 0.254489 0.298704 0.860959
O O3 0.310766 0.221120 0.746312
O O4 0.264973 0.198069 0.908930
O O5 0.780458 0.148376 0.209749
O O6 0.788978 0.098292 0.362461
O O7 0.000000 0.165400 0.320917
O O8 0.500000 0.767501 0.616106
O O9 0.754909 0.731273 0.595784
O O10 0.716087 0.835759 0.604203
O O11 0.000000 0.192055 0.129954
O O12 0.186224 0.135344 0.034333
O O13 0.733300 0.929416 0.529152
O O14 0.000000 0.928303 0.473533
O O15 0.813580 0.000000 0.412315
O O16 0.500000 0.405022 0.117025
O O17 0.264874 0.422994 0.202313
O O18 0.193816 0.500000 0.310891
O O19 0.212796 0.404179 0.371510
O O20 0.000000 0.428382 0.259211
O O21 0.000000 0.837480 0.907531
#
# Coordination Sequence:
#
# PCOD8178427 Si02
#       8
#     8   8   8   8   8   8   8   8
#     4  10  19  33  53  78 108 140 175 216 264 319
#     4   9  19  37  57  78 106 140 180 223 269 319
#     4   9  19  34  50  75 109 141 174 212 262 317
#     4   9  19  34  54  79 108 141 177 217 264 318
#     4  10  22  39  57  78 106 142 185 228 272 323
#     4  11  22  36  54  80 111 143 180 224 273 323
#     4  10  21  37  56  78 109 148 185 222 267 320
#     4  10  20  34  53  80 111 142 179 220 265 317
#
# _framework density 18.426518000000002
#
# number of rings (size 3 to 8) (size 9 to 14) (size 15 to 20)
#    0.000    2.250    1.250    1.125    1.750    4.500 
#    0.000    0.625    0.000    3.750    0.000    0.000 
#    0.000    5.000    0.000    0.000    0.000    0.000 
#
# Total GULP energy -396803.951986 kJ/mol
# GULP energy per Si atom -12400.123500 kJ/mol
# Density = 1.838458 g / cm^3
# Si number density = 18.426518 Si / 1000 Ang^3
#
#
#
# Elastic Constant Matrix: (Units=GPa)
#
#
# Indices 1 2 3 4 5 6 
#
# 1 64.1425 50.6658 42.4508 0.0000 0.0000 0.0000
# 2 50.6658 130.9172 72.5177 0.0000 0.0000 0.0000
# 3 42.4508 72.5177 107.5511 0.0000 0.0000 0.0000
# 4 0.0000 0.0000 0.0000 27.0690 0.0000 0.0000
# 5 0.0000 0.0000 0.0000 0.0000 14.2113 0.0000
# 6 0.0000 0.0000 0.0000 0.0000 0.0000 17.0916
#
#
#
# Elastic Compliance Matrix: (Units=1/GPa)
#
#
# Indices 1 2 3 4 5 6 
#
# 1 0.024118 -0.006482 -0.005149 0.000000 0.000000 0.000000
# 2 -0.006482 0.013934 -0.006837 0.000000 0.000000 0.000000
# 3 -0.005149 -0.006837 0.015940 0.000000 0.000000 0.000000
# 4 0.000000 0.000000 0.000000 0.036943 0.000000 0.000000
# 5 0.000000 0.000000 0.000000 0.000000 0.070367 0.000000
# 6 0.000000 0.000000 0.000000 0.000000 0.000000 0.058508
#
#
# Mechanical properties :
#
#
# Convention : Reuss Voigt Hill
#
# Bulk Modulus (GPa) = 58.62754 70.43103 64.52928
# Shear Modulus (GPa) = 19.05270 20.80613 19.92942
#
# Velocity S-wave (km/s) = 3.21905 3.36391 3.29228
# Velocity P-wave (km/s) = 6.76035 7.30709 7.03903
#
# Compressibility (1/GPa) = 0.01705683
#
# Stress axis : x y z
#
# Youngs Moduli (GPa) = 41.46313 71.76767 62.73496
#
# Poissons Ratio (x) = 0.46517 0.32303
# Poissons Ratio (y) = 0.26875 0.42891
# Poissons Ratio (z) = 0.21350 0.49066
#
# Static dielectric constant tensor:
#      x y z
#    x 3.397320 0.000000 0.000000 
#    y 0.000000 3.408110 0.000000 
#    z 0.000000 0.000000 3.492080 
# 
# 
# High freq. dielectric constant tensor:
#      x y z
#    x 1.712050 0.000000 0.000000 
#    y 0.000000 1.704040 0.000000 
#    z 0.000000 0.000000 1.717470 
# 
# From -- ./inp_files/12746.got.cif
#   From: 2010.03.12/outbox.cif.g09.slc.cpg/sg38_7_cif.got.tgz:12746.got - 2010.04.14 02:38:36.
