data_PCOD8178657
_publ_section_title
;
Structure prediction by ZEFSAII (Michael W. Deem and Ramdas Pophale) SiO2 
 PCOD8178657
Probable space group: A M M 2
;
_chemical_formula_sum "Si O2"
_cell_formula_units_Z 48
_cell_length_a 10.293465
_cell_length_b 9.140504
_cell_length_c 27.940612
_cell_angle_alpha 90.000000
_cell_angle_beta 90.000000
_cell_angle_gamma 90.000000
_cell_volume 2628.861158
_symmetry_space_group_name_H-M "A M M 2"
_symmetry_group_IT_number 38
_symmetry_cell_setting 'orthorhombic'
loop_
_space_group_symop_operation_xyz
x,y,z
-x,-y,z
-x,y,z
x,-y,z
x,1/2+y,1/2+z
-x,1/2-y,1/2+z
-x,1/2+y,1/2+z
x,1/2-y,1/2+z
loop_
_atom_site_type_symbol
_atom_site_label
_atom_site_fract_x
_atom_site_fract_y
_atom_site_fract_z
Si Si1 0.000000 0.827876 0.325090
Si Si2 0.349865 0.828174 0.676889
Si Si3 0.747517 0.173084 0.266610
Si Si4 0.737581 0.330789 0.479475
Si Si5 0.500000 0.173713 0.431927
Si Si6 0.649065 0.166172 0.082268
Si Si7 0.500000 0.673428 0.824517
Si Si8 0.000000 0.170854 0.926502
O O1 0.124254 0.778069 0.294684
O O2 0.000000 0.753388 0.376442
O O3 0.000000 0.000000 0.334288
O O4 0.500000 0.784040 0.686321
O O5 0.256976 0.750970 0.715317
O O6 0.306593 0.773341 0.624601
O O7 0.328658 0.000000 0.679680
O O8 0.626951 0.231923 0.297588
O O9 0.742692 0.000000 0.258366
O O10 0.704581 0.500000 0.468676
O O11 0.628906 0.229654 0.456858
O O12 0.740314 0.303567 0.536544
O O13 0.875220 0.283661 0.457600
O O14 0.500000 0.235343 0.378007
O O15 0.500000 0.000000 0.433656
O O16 0.500000 0.196455 0.067012
O O17 0.665027 0.000000 0.100488
O O18 0.500000 0.500000 0.825459
O O19 0.000000 0.000000 0.915202
#
# Coordination Sequence:
#
# PCOD8178657 Si02
#       8
#     4   8   8   8   4   8   4   4
#     4  10  22  38  57  80 111 147 188 231 271 324
#     4  10  20  33  52  82 114 139 173 225 279 327
#     4  10  19  35  56  77 104 143 184 222 267 323
#     4  10  20  37  56  81 112 147 188 228 273 333
#     4  11  21  33  54  83 110 141 182 235 286 325
#     4   9  17  32  55  78 106 146 184 221 270 325
#     4   9  18  31  50  75 102 133 176 221 264 317
#     4  10  22  38  59  82 113 153 188 227 281 334
#
# _framework density 18.258856999999999
#
# number of rings (size 3 to 8) (size 9 to 14) (size 15 to 20)
#    0.000    2.167    1.667    1.750    0.000    4.000 
#    0.000    2.500    0.000    3.000    0.000    0.000 
#    0.000    0.000    0.000    0.000    0.000    0.000 
#
# Total GULP energy -297664.042696 kJ/mol
# GULP energy per Si atom -12402.668446 kJ/mol
# Density = 1.821730 g / cm^3
# Si number density = 18.258857 Si / 1000 Ang^3
#
#
#
# Elastic Constant Matrix: (Units=GPa)
#
#
# Indices 1 2 3 4 5 6 
#
# 1 133.1272 43.7905 74.8851 0.0000 0.0000 0.0000
# 2 43.7905 59.3672 56.4057 0.0000 0.0000 0.0000
# 3 74.8851 56.4057 154.0617 0.0000 0.0000 0.0000
# 4 0.0000 0.0000 0.0000 34.8201 0.0000 0.0000
# 5 0.0000 0.0000 0.0000 0.0000 36.5670 0.0000
# 6 0.0000 0.0000 0.0000 0.0000 0.0000 4.1263
#
#
#
# Elastic Compliance Matrix: (Units=1/GPa)
#
#
# Indices 1 2 3 4 5 6 
#
# 1 0.011135 -0.004709 -0.003688 0.000000 0.000000 0.000000
# 2 -0.004709 0.027821 -0.007897 0.000000 0.000000 0.000000
# 3 -0.003688 -0.007897 0.011175 0.000000 0.000000 0.000000
# 4 0.000000 0.000000 0.000000 0.028719 0.000000 0.000000
# 5 0.000000 0.000000 0.000000 0.000000 0.027347 0.000000
# 6 0.000000 0.000000 0.000000 0.000000 0.000000 0.242346
#
#
# Mechanical properties :
#
#
# Convention : Reuss Voigt Hill
#
# Bulk Modulus (GPa) = 57.00548 77.41319 67.20934
# Shear Modulus (GPa) = 12.92057 26.53435 19.72746
#
# Velocity S-wave (km/s) = 2.66302 3.81626 3.29056
# Velocity P-wave (km/s) = 6.38311 7.86817 7.16422
#
# Compressibility (1/GPa) = 0.01754217
#
# Stress axis : x y z
#
# Youngs Moduli (GPa) = 89.80318 35.94413 89.48558
#
# Poissons Ratio (x) = 0.16927 0.33006
# Poissons Ratio (y) = 0.42291 0.70666
# Poissons Ratio (z) = 0.33123 0.28385
#
# Static dielectric constant tensor:
#      x y z
#    x 3.186810 0.000000 0.000000 
#    y 0.000000 3.194180 0.000000 
#    z 0.000000 0.000000 3.458130 
# 
# 
# High freq. dielectric constant tensor:
#      x y z
#    x 1.693950 0.000000 0.000000 
#    y 0.000000 1.695830 0.000000 
#    z 0.000000 0.000000 1.721130 
# 
# From -- ./inp_files/24467.got.cif
#   From: 2010.03.12/outbox.cif.g09.slc.cpg/sg38_13_cif.got.tgz:24467.got - 2010.04.14 02:38:36.
