data_PCOD8178416
_publ_section_title
;
Structure prediction by ZEFSAII (Michael W. Deem and Ramdas Pophale) SiO2 
 PCOD8178416
Probable space group: A M M 2
;
_chemical_formula_sum "Si O2"
_cell_formula_units_Z 64
_cell_length_a 9.600603
_cell_length_b 28.223180
_cell_length_c 12.653357
_cell_angle_alpha 90.000000
_cell_angle_beta 90.000000
_cell_angle_gamma 90.000000
_cell_volume 3428.547875
_symmetry_space_group_name_H-M "A M M 2"
_symmetry_group_IT_number 38
_symmetry_cell_setting 'orthorhombic'
loop_
_space_group_symop_operation_xyz
x,y,z
-x,-y,z
-x,y,z
x,-y,z
x,1/2+y,1/2+z
-x,1/2-y,1/2+z
-x,1/2+y,1/2+z
x,1/2-y,1/2+z
loop_
_atom_site_type_symbol
_atom_site_label
_atom_site_fract_x
_atom_site_fract_y
_atom_site_fract_z
Si Si1 0.842377 0.947573 0.606490
Si Si2 0.843535 0.685527 0.953854
Si Si3 0.845918 0.078435 0.380567
Si Si4 0.334497 0.554272 0.475589
Si Si5 0.340626 0.203880 0.265999
Si Si6 0.339957 0.393067 0.268040
Si Si7 0.657734 0.699166 0.154805
Si Si8 0.337141 0.900379 0.193396
O O1 0.797434 0.950677 0.483478
O O2 0.738629 0.914375 0.668428
O O3 0.000000 0.927135 0.614401
O O4 0.834457 0.000000 0.655437
O O5 0.848493 0.632580 0.913957
O O6 0.755508 0.714522 0.867294
O O7 0.000000 0.706563 0.963711
O O8 0.768873 0.686633 0.066182
O O9 0.739370 0.069785 0.284959
O O10 0.000000 0.062227 0.343643
O O11 0.500000 0.554169 0.475499
O O12 0.278549 0.500000 0.468241
O O13 0.277893 0.586044 0.377506
O O14 0.280452 0.579982 0.581695
O O15 0.500000 0.201751 0.305543
O O16 0.315624 0.246904 0.186731
O O17 0.302189 0.155521 0.203598
O O18 0.500000 0.408699 0.259437
O O19 0.322895 0.336065 0.256313
O O20 0.500000 0.692994 0.110982
O O21 0.500000 0.910290 0.205771
#
# Coordination Sequence:
#
# PCOD8178416 Si02
#       8
#     8   8   8   8   8   8   8   8
#     4  10  20  34  52  75 105 139 172 212 267 323
#     4  10  19  33  53  74 103 140 173 215 269 323
#     4   9  18  33  51  73 102 136 169 211 265 315
#     4   9  18  33  52  75 105 138 173 219 272 320
#     4   9  19  34  52  77 106 138 177 223 270 321
#     4  10  20  34  54  78 104 137 179 223 268 321
#     4  10  20  33  53  79 105 138 179 225 274 325
#     4   9  18  33  54  76 101 136 176 217 263 317
#
# _framework density 18.666795
#
# number of rings (size 3 to 8) (size 9 to 14) (size 15 to 20)
#    0.000    2.500    1.250    0.750    0.000    3.750 
#    0.000    4.375    0.000    0.750    0.000    0.000 
#    0.000    0.000    0.000    0.000    0.000    0.000 
#
# Total GULP energy -396680.238504 kJ/mol
# GULP energy per Si atom -12396.257453 kJ/mol
# Density = 1.862431 g / cm^3
# Si number density = 18.666795 Si / 1000 Ang^3
#
#
#
# Elastic Constant Matrix: (Units=GPa)
#
#
# Indices 1 2 3 4 5 6 
#
# 1 71.1312 24.4049 55.6914 0.0000 0.0000 0.0000
# 2 24.4049 69.5361 43.1492 0.0000 0.0000 0.0000
# 3 55.6914 43.1492 125.1820 0.0000 0.0000 0.0000
# 4 0.0000 0.0000 0.0000 15.9766 0.0000 0.0000
# 5 0.0000 0.0000 0.0000 0.0000 14.2687 0.0000
# 6 0.0000 0.0000 0.0000 0.0000 0.0000 11.5699
#
#
#
# Elastic Compliance Matrix: (Units=1/GPa)
#
#
# Indices 1 2 3 4 5 6 
#
# 1 0.021806 -0.002078 -0.008985 0.000000 0.000000 0.000000
# 2 -0.002078 0.018492 -0.005450 0.000000 0.000000 0.000000
# 3 -0.008985 -0.005450 0.013864 0.000000 0.000000 0.000000
# 4 0.000000 0.000000 0.000000 0.062592 0.000000 0.000000
# 5 0.000000 0.000000 0.000000 0.000000 0.070084 0.000000
# 6 0.000000 0.000000 0.000000 0.000000 0.000000 0.086431
#
#
# Mechanical properties :
#
#
# Convention : Reuss Voigt Hill
#
# Bulk Modulus (GPa) = 47.30977 56.92671 52.11824
# Shear Modulus (GPa) = 15.95716 17.86996 16.91356
#
# Velocity S-wave (km/s) = 2.92694 3.09740 3.01338
# Velocity P-wave (km/s) = 6.06811 6.58440 6.33152
#
# Compressibility (1/GPa) = 0.02113728
#
# Stress axis : x y z
#
# Youngs Moduli (GPa) = 45.85873 54.07774 72.12890
#
# Poissons Ratio (x) = 0.11236 0.64808
# Poissons Ratio (y) = 0.09529 0.39308
# Poissons Ratio (z) = 0.41204 0.29470
#
# Static dielectric constant tensor:
#      x y z
#    x 3.478020 0.000000 0.000000 
#    y 0.000000 3.519810 0.000000 
#    z 0.000000 0.000000 3.485870 
# 
# 
# High freq. dielectric constant tensor:
#      x y z
#    x 1.708050 0.000000 0.000000 
#    y 0.000000 1.722440 0.000000 
#    z 0.000000 0.000000 1.719410 
# 
# From -- ./inp_files/8658.got.cif
#   From: 2010.03.12/outbox.cif.g09.slc.cpg/sg38_5_cif.got.tgz:8658.got - 2010.04.14 02:38:36.
