data_PCOD8178521
_publ_section_title
;
Structure prediction by ZEFSAII (Michael W. Deem and Ramdas Pophale) SiO2 
 PCOD8178521
Probable space group: A M M 2
;
_chemical_formula_sum "Si O2"
_cell_formula_units_Z 64
_cell_length_a 8.835233
_cell_length_b 19.505472
_cell_length_c 20.756383
_cell_angle_alpha 90.000000
_cell_angle_beta 90.000000
_cell_angle_gamma 90.000000
_cell_volume 3577.059357
_symmetry_space_group_name_H-M "A M M 2"
_symmetry_group_IT_number 38
_symmetry_cell_setting 'orthorhombic'
loop_
_space_group_symop_operation_xyz
x,y,z
-x,-y,z
-x,y,z
x,-y,z
x,1/2+y,1/2+z
-x,1/2-y,1/2+z
-x,1/2+y,1/2+z
x,1/2-y,1/2+z
loop_
_atom_site_type_symbol
_atom_site_label
_atom_site_fract_x
_atom_site_fract_y
_atom_site_fract_z
Si Si1 0.675840 0.578131 0.592300
Si Si2 0.178198 0.700546 0.527330
Si Si3 0.321108 0.207104 0.274326
Si Si4 0.322024 0.206100 0.897045
Si Si5 0.824799 0.422170 0.342735
Si Si6 0.179140 0.073839 0.696807
Si Si7 0.821989 0.077537 0.229067
Si Si8 0.178251 0.217711 0.653479
O O1 0.500000 0.593668 0.604101
O O2 0.702383 0.500000 0.570192
O O3 0.742383 0.626925 0.537174
O O4 0.764425 0.594415 0.657724
O O5 0.240031 0.733549 0.461392
O O6 0.224612 0.751640 0.584829
O O7 0.000000 0.689544 0.523230
O O8 0.500000 0.204291 0.271485
O O9 0.264922 0.248125 0.337148
O O10 0.256048 0.129789 0.278923
O O11 0.261472 0.242600 0.210047
O O12 0.500000 0.211764 0.906670
O O13 0.275743 0.127132 0.886749
O O14 0.801530 0.500000 0.366665
O O15 0.765232 0.414084 0.269715
O O16 0.000000 0.400439 0.348550
O O17 0.231966 0.137862 0.653189
O O18 0.000000 0.068984 0.698099
O O19 0.243201 0.000000 0.671136
O O20 0.000000 0.089246 0.229867
O O21 0.778410 0.000000 0.249194
O O22 0.000000 0.224053 0.666347
#
# Coordination Sequence:
#
# PCOD8178521 Si02
#       8
#     8   8   8   8   8   8   8   8
#     4  10  20  34  53  78 110 146 180 218 265 319
#     4  11  23  36  53  78 106 144 187 226 269 318
#     4  11  22  35  55  81 107 141 182 223 273 323
#     4  11  24  38  52  75 108 148 186 223 272 323
#     4   9  17  31  53  79 106 140 178 216 263 318
#     4   8  14  27  51  81 108 133 165 210 266 321
#     4  10  20  34  55  83 111 139 175 221 270 321
#     4  10  19  33  56  82 106 136 177 223 271 319
#
# _framework density 17.891791999999999
#
# number of rings (size 3 to 8) (size 9 to 14) (size 15 to 20)
#    0.000    2.000    2.500    2.625    0.000    4.250 
#    0.000    0.000    0.000    1.125    0.000    1.750 
#    0.000    0.000    0.000    0.000    0.000    0.000 
#
# Total GULP energy -396791.386151 kJ/mol
# GULP energy per Si atom -12399.730817 kJ/mol
# Density = 1.785107 g / cm^3
# Si number density = 17.891792 Si / 1000 Ang^3
#
#
#
# Elastic Constant Matrix: (Units=GPa)
#
#
# Indices 1 2 3 4 5 6 
#
# 1 53.4835 37.9759 38.8650 0.0000 0.0000 0.0000
# 2 37.9759 121.4866 64.3257 0.0000 0.0000 0.0000
# 3 38.8650 64.3257 108.9039 0.0000 0.0000 0.0000
# 4 0.0000 0.0000 0.0000 20.0576 0.0000 0.0000
# 5 0.0000 0.0000 0.0000 0.0000 25.7059 0.0000
# 6 0.0000 0.0000 0.0000 0.0000 0.0000 23.5535
#
#
#
# Elastic Compliance Matrix: (Units=1/GPa)
#
#
# Indices 1 2 3 4 5 6 
#
# 1 0.027092 -0.004874 -0.006790 0.000000 0.000000 0.000000
# 2 -0.004874 0.012854 -0.005853 0.000000 0.000000 0.000000
# 3 -0.006790 -0.005853 0.015063 0.000000 0.000000 0.000000
# 4 0.000000 0.000000 0.000000 0.049856 0.000000 0.000000
# 5 0.000000 0.000000 0.000000 0.000000 0.038902 0.000000
# 6 0.000000 0.000000 0.000000 0.000000 0.000000 0.042456
#
#
# Mechanical properties :
#
#
# Convention : Reuss Voigt Hill
#
# Bulk Modulus (GPa) = 50.06111 62.91189 56.48650
# Shear Modulus (GPa) = 21.93808 23.37724 22.65766
#
# Velocity S-wave (km/s) = 3.50545 3.61860 3.56247
# Velocity P-wave (km/s) = 6.66520 7.25932 6.96860
#
# Compressibility (1/GPa) = 0.01997559
#
# Stress axis : x y z
#
# Youngs Moduli (GPa) = 36.91162 77.79688 66.38924
#
# Poissons Ratio (x) = 0.37916 0.45076
# Poissons Ratio (y) = 0.17989 0.38858
# Poissons Ratio (z) = 0.25062 0.45535
#
# Static dielectric constant tensor:
#      x y z
#    x 3.197490 0.000000 0.000000 
#    y 0.000000 3.890940 0.000000 
#    z 0.000000 0.000000 3.194790 
# 
# 
# High freq. dielectric constant tensor:
#      x y z
#    x 1.687470 0.000000 0.000000 
#    y 0.000000 1.699740 0.000000 
#    z 0.000000 0.000000 1.666650 
# 
# From -- ./inp_files/20251.got.cif
#   From: 2010.03.12/outbox.cif.g09.slc.cpg/sg38_11_cif.got.tgz:20251.got - 2010.04.14 02:38:36.
