data_PCOD8178022
_publ_section_title
;
Structure prediction by ZEFSAII (Michael W. Deem and Ramdas Pophale) SiO2 
 PCOD8178022
Probable space group: A M M 2
;
_chemical_formula_sum "Si O2"
_cell_formula_units_Z 56
_cell_length_a 17.985235
_cell_length_b 8.486379
_cell_length_c 19.273954
_cell_angle_alpha 90.000000
_cell_angle_beta 90.000000
_cell_angle_gamma 90.000000
_cell_volume 2941.774359
_symmetry_space_group_name_H-M "A M M 2"
_symmetry_group_IT_number 38
_symmetry_cell_setting 'orthorhombic'
loop_
_space_group_symop_operation_xyz
x,y,z
-x,-y,z
-x,y,z
x,-y,z
x,1/2+y,1/2+z
-x,1/2-y,1/2+z
-x,1/2+y,1/2+z
x,1/2-y,1/2+z
loop_
_atom_site_type_symbol
_atom_site_label
_atom_site_fract_x
_atom_site_fract_y
_atom_site_fract_z
Si Si1 0.417735 0.184346 0.469130
Si Si2 0.416166 0.173272 0.821056
Si Si3 0.800108 0.815525 0.854875
Si Si4 0.189798 0.681451 0.142421
Si Si5 0.253832 0.812638 0.497155
Si Si6 0.084645 0.315611 0.754857
Si Si7 0.300463 0.318956 0.740692
O O1 0.500000 0.256118 0.493288
O O2 0.405513 0.221965 0.388908
O O3 0.340983 0.246050 0.505901
O O4 0.423271 0.000000 0.480198
O O5 0.500000 0.147400 0.801138
O O6 0.384539 0.266306 0.754352
O O7 0.378728 0.000000 0.832046
O O8 0.791242 0.769562 0.935066
O O9 0.880190 0.772982 0.821386
O O10 0.739535 0.713623 0.813955
O O11 0.786552 0.000000 0.845069
O O12 0.166660 0.500000 0.145633
O O13 0.125908 0.779403 0.181862
O O14 0.267548 0.708250 0.181357
O O15 0.204694 0.736599 0.063816
O O16 0.254219 0.000000 0.486298
O O17 0.090812 0.500000 0.769149
O O18 0.000000 0.259109 0.747642
O O19 0.293130 0.500000 0.718618
#
# Coordination Sequence:
#
# PCOD8178022 Si02
#       7
#     8   8   8   8   8   8   8
#     4   9  17  30  50  75 104 143 186 228 278 330
#     4  10  19  30  47  74 104 135 179 234 284 326
#     4  11  21  33  56  84 109 139 177 222 270 318
#     4  10  21  36  56  81 111 147 185 221 268 326
#     4  10  20  35  54  80 114 149 186 229 274 326
#     4  10  21  39  62  85 110 141 178 223 276 332
#     4  11  20  33  52  74 104 141 182 225 270 324
#
# _framework density 19.03613
#
# number of rings (size 3 to 8) (size 9 to 14) (size 15 to 20)
#    0.000    1.857    1.429    5.571    0.000    3.143 
#    0.000    1.429    0.000    3.429    0.000    0.000 
#    0.000    0.000    0.000    0.000    0.000    0.000 
#
# Total GULP energy -346925.257837 kJ/mol
# GULP energy per Si atom -12390.187780 kJ/mol
# Density = 1.899280 g / cm^3
# Si number density = 19.036130 Si / 1000 Ang^3
#
#
#
# Elastic Constant Matrix: (Units=GPa)
#
#
# Indices 1 2 3 4 5 6 
#
# 1 113.4945 26.9623 45.3146 0.0000 0.0000 0.0000
# 2 26.9623 39.0809 15.0587 0.0000 0.0000 0.0000
# 3 45.3146 15.0587 97.5834 0.0000 0.0000 0.0000
# 4 0.0000 0.0000 0.0000 25.4384 0.0000 0.0000
# 5 0.0000 0.0000 0.0000 0.0000 20.0736 0.0000
# 6 0.0000 0.0000 0.0000 0.0000 0.0000 21.9331
#
#
#
# Elastic Compliance Matrix: (Units=1/GPa)
#
#
# Indices 1 2 3 4 5 6 
#
# 1 0.012254 -0.006658 -0.004663 0.000000 0.000000 0.000000
# 2 -0.006658 0.030823 -0.001665 0.000000 0.000000 0.000000
# 3 -0.004663 -0.001665 0.012670 0.000000 0.000000 0.000000
# 4 0.000000 0.000000 0.000000 0.039311 0.000000 0.000000
# 5 0.000000 0.000000 0.000000 0.000000 0.049817 0.000000
# 6 0.000000 0.000000 0.000000 0.000000 0.000000 0.045593
#
#
# Mechanical properties :
#
#
# Convention : Reuss Voigt Hill
#
# Bulk Modulus (GPa) = 33.58438 47.20333 40.39385
# Shear Modulus (GPa) = 22.08830 24.34391 23.21610
#
# Velocity S-wave (km/s) = 3.41007 3.57995 3.49604
# Velocity P-wave (km/s) = 5.76068 6.47600 6.12879
#
# Compressibility (1/GPa) = 0.02977575
#
# Stress axis : x y z
#
# Youngs Moduli (GPa) = 81.60271 32.44365 78.92661
#
# Poissons Ratio (x) = 0.21600 0.36805
# Poissons Ratio (y) = 0.54328 0.13140
# Poissons Ratio (z) = 0.38053 0.05401
#
# Static dielectric constant tensor:
#      x y z
#    x 3.810280 0.000000 0.000000 
#    y 0.000000 3.560150 0.000000 
#    z 0.000000 0.000000 3.361080 
# 
# 
# High freq. dielectric constant tensor:
#      x y z
#    x 1.739960 0.000000 0.000000 
#    y 0.000000 1.742560 0.000000 
#    z 0.000000 0.000000 1.714610 
# 
# From -- ./inp_files/21295.got.cif
#   From: 2010.03.12/outbox.cif.g09.slc.cpg/sg38_11_cif.got.tgz:21295.got - 2010.04.14 02:38:36.
