data_PCOD8178644
_publ_section_title
;
Structure prediction by ZEFSAII (Michael W. Deem and Ramdas Pophale) SiO2 
 PCOD8178644
Probable space group: A M M 2
;
_chemical_formula_sum "Si O2"
_cell_formula_units_Z 48
_cell_length_a 8.717416
_cell_length_b 18.130241
_cell_length_c 14.955644
_cell_angle_alpha 90.000000
_cell_angle_beta 90.000000
_cell_angle_gamma 90.000000
_cell_volume 2363.722380
_symmetry_space_group_name_H-M "A M M 2"
_symmetry_group_IT_number 38
_symmetry_cell_setting 'orthorhombic'
loop_
_space_group_symop_operation_xyz
x,y,z
-x,-y,z
-x,y,z
x,-y,z
x,1/2+y,1/2+z
-x,1/2-y,1/2+z
-x,1/2+y,1/2+z
x,1/2-y,1/2+z
loop_
_atom_site_type_symbol
_atom_site_label
_atom_site_fract_x
_atom_site_fract_y
_atom_site_fract_z
Si Si1 0.820589 0.271374 0.488000
Si Si2 0.328019 0.622700 0.233037
Si Si3 0.675608 0.500000 0.091843
Si Si4 0.178654 0.500000 0.906919
Si Si5 0.325936 0.918740 0.929078
Si Si6 0.680786 0.346362 0.850483
Si Si7 0.177577 0.766691 0.191746
O O1 0.787258 0.356192 0.464267
O O2 0.737616 0.213707 0.422870
O O3 0.762903 0.261709 0.589851
O O4 0.000000 0.255617 0.479461
O O5 0.500000 0.656157 0.224910
O O6 0.290535 0.572279 0.148857
O O7 0.314057 0.575076 0.322279
O O8 0.204554 0.687721 0.237364
O O9 0.500000 0.500000 0.056632
O O10 0.796394 0.500000 0.012659
O O11 0.253494 0.572913 0.866752
O O12 0.000000 0.500000 0.884757
O O13 0.500000 0.899063 0.957837
O O14 0.279825 0.000000 0.966803
O O15 0.500000 0.349128 0.858674
O O16 0.728937 0.326163 0.749475
O O17 0.000000 0.788269 0.196116
#
# Coordination Sequence:
#
# PCOD8178644 Si02
#       7
#     8   8   4   4   8   8   8
#     4  11  24  42  65  95 129 167 210 261 320 378
#     4  10  19  34  59  90 123 160 203 254 310 371
#     4  10  20  36  60  93 130 165 208 257 311 377
#     4  12  26  44  64  91 128 165 208 263 321 377
#     4  10  20  37  61  91 126 165 206 255 310 367
#     4  12  25  44  69  94 125 167 215 265 317 377
#     4  11  24  41  62  91 125 165 211 261 316 377
#
# _framework density 20.306953
#
# number of rings (size 3 to 8) (size 9 to 14) (size 15 to 20)
#    0.000    1.167    2.500    4.250    0.000    6.333 
#    1.500    0.000    0.000    0.000    0.000    0.000 
#    0.000    0.000    0.000    0.000    0.000    0.000 
#
# Total GULP energy -297621.177648 kJ/mol
# GULP energy per Si atom -12400.882402 kJ/mol
# Density = 2.026073 g / cm^3
# Si number density = 20.306953 Si / 1000 Ang^3
#
#
#
# Elastic Constant Matrix: (Units=GPa)
#
#
# Indices 1 2 3 4 5 6 
#
# 1 108.7363 48.4343 45.6266 0.0000 0.0000 0.0000
# 2 48.4343 137.0240 37.2865 0.0000 0.0000 0.0000
# 3 45.6266 37.2865 88.5150 0.0000 0.0000 0.0000
# 4 0.0000 0.0000 0.0000 22.1761 0.0000 0.0000
# 5 0.0000 0.0000 0.0000 0.0000 30.9313 0.0000
# 6 0.0000 0.0000 0.0000 0.0000 0.0000 12.5500
#
#
#
# Elastic Compliance Matrix: (Units=1/GPa)
#
#
# Indices 1 2 3 4 5 6 
#
# 1 0.012791 -0.003080 -0.005296 0.000000 0.000000 0.000000
# 2 -0.003080 0.008985 -0.002197 0.000000 0.000000 0.000000
# 3 -0.005296 -0.002197 0.014953 0.000000 0.000000 0.000000
# 4 0.000000 0.000000 0.000000 0.045094 0.000000 0.000000
# 5 0.000000 0.000000 0.000000 0.000000 0.032330 0.000000
# 6 0.000000 0.000000 0.000000 0.000000 0.000000 0.079681
#
#
# Mechanical properties :
#
#
# Convention : Reuss Voigt Hill
#
# Bulk Modulus (GPa) = 64.17508 66.32998 65.25253
# Shear Modulus (GPa) = 22.70947 26.66000 24.68474
#
# Velocity S-wave (km/s) = 3.34774 3.62726 3.49030
# Velocity P-wave (km/s) = 6.82747 7.09065 6.96030
#
# Compressibility (1/GPa) = 0.01558237
#
# Stress axis : x y z
#
# Youngs Moduli (GPa) = 78.18221 111.30193 66.87738
#
# Poissons Ratio (x) = 0.34282 0.35416
# Poissons Ratio (y) = 0.24081 0.14693
# Poissons Ratio (z) = 0.41403 0.24453
#
# Static dielectric constant tensor:
#      x y z
#    x 3.646730 0.000000 0.000000 
#    y 0.000000 3.871150 0.000000 
#    z 0.000000 0.000000 3.807360 
# 
# 
# High freq. dielectric constant tensor:
#      x y z
#    x 1.791020 0.000000 0.000000 
#    y 0.000000 1.801330 0.000000 
#    z 0.000000 0.000000 1.793170 
# 
# From -- ./inp_files/12065.got.cif
#   From: 2010.03.12/outbox.cif.g09.slc.cpg/sg38_7_cif.got.tgz:12065.got - 2010.04.14 02:38:36.
