data_PCOD8178943
_publ_section_title
;
Structure prediction by ZEFSAII (Michael W. Deem and Ramdas Pophale) SiO2 
 PCOD8178943
Probable space group: A M M 2
;
_chemical_formula_sum "Si O2"
_cell_formula_units_Z 64
_cell_length_a 8.785680
_cell_length_b 23.039245
_cell_length_c 19.005662
_cell_angle_alpha 90.000000
_cell_angle_beta 90.000000
_cell_angle_gamma 90.000000
_cell_volume 3847.039322
_symmetry_space_group_name_H-M "A M M 2"
_symmetry_group_IT_number 38
_symmetry_cell_setting 'orthorhombic'
loop_
_space_group_symop_operation_xyz
x,y,z
-x,-y,z
-x,y,z
x,-y,z
x,1/2+y,1/2+z
-x,1/2-y,1/2+z
-x,1/2+y,1/2+z
x,1/2-y,1/2+z
loop_
_atom_site_type_symbol
_atom_site_label
_atom_site_fract_x
_atom_site_fract_y
_atom_site_fract_z
Si Si1 0.820425 0.564704 0.170250
Si Si2 0.680349 0.722012 0.670412
Si Si3 0.321943 0.932760 0.387455
Si Si4 0.177661 0.255418 0.526467
Si Si5 0.179708 0.661738 0.798017
Si Si6 0.674960 0.836778 0.750666
Si Si7 0.677274 0.735777 0.382870
Si Si8 0.177949 0.619669 0.024530
O O1 0.753654 0.500000 0.180431
O O2 0.766871 0.604962 0.234419
O O3 0.763280 0.590103 0.096113
O O4 0.000000 0.563416 0.171020
O O5 0.500000 0.716641 0.665341
O O6 0.755342 0.712569 0.594643
O O7 0.741670 0.672726 0.722920
O O8 0.731295 0.784492 0.700652
O O9 0.500000 0.922124 0.376340
O O10 0.230134 0.901315 0.325087
O O11 0.275149 0.907820 0.462722
O O12 0.278280 0.000000 0.383939
O O13 0.261997 0.282668 0.459092
O O14 0.213407 0.187453 0.530579
O O15 0.000000 0.268639 0.521132
O O16 0.230443 0.708405 0.856358
O O17 0.000000 0.664687 0.789048
O O18 0.500000 0.849944 0.735972
O O19 0.704144 0.818883 0.831460
O O20 0.500000 0.752879 0.384851
O O21 0.000000 0.607948 0.010473
#
# Coordination Sequence:
#
# PCOD8178943 Si02
#       8
#     8   8   8   8   8   8   8   8
#     4  10  20  33  49  69  97 134 171 207 247 289
#     4  10  20  34  52  73 101 134 166 208 256 304
#     4  11  23  36  51  72 100 137 178 215 253 301
#     4  11  20  31  51  79 103 134 170 205 251 302
#     4  11  21  34  52  74  99 131 170 214 257 302
#     4   9  19  33  49  70  95 128 167 206 249 292
#     4  10  20  34  51  72 100 132 167 208 257 307
#     4  10  20  33  48  70 102 138 175 210 245 293
#
# _framework density 16.63617
#
# number of rings (size 3 to 8) (size 9 to 14) (size 15 to 20)
#    0.000    1.750    2.500    3.750    0.000    5.250 
#    0.000    0.000    0.000    0.000    0.000    0.875 
#    0.000    3.000    0.000    0.000    0.000    0.000 
#
# Total GULP energy -396919.412868 kJ/mol
# GULP energy per Si atom -12403.731652 kJ/mol
# Density = 1.659831 g / cm^3
# Si number density = 16.636170 Si / 1000 Ang^3
#
#
#
# Elastic Constant Matrix: (Units=GPa)
#
#
# Indices 1 2 3 4 5 6 
#
# 1 58.0207 24.6023 27.1696 0.0000 0.0000 0.0000
# 2 24.6023 61.7960 35.3066 0.0000 0.0000 0.0000
# 3 27.1696 35.3066 111.3786 0.0000 0.0000 0.0000
# 4 0.0000 0.0000 0.0000 18.9923 0.0000 0.0000
# 5 0.0000 0.0000 0.0000 0.0000 33.1686 0.0000
# 6 0.0000 0.0000 0.0000 0.0000 0.0000 23.8226
#
#
#
# Elastic Compliance Matrix: (Units=1/GPa)
#
#
# Indices 1 2 3 4 5 6 
#
# 1 0.021579 -0.006819 -0.003103 0.000000 0.000000 0.000000
# 2 -0.006819 0.021916 -0.005284 0.000000 0.000000 0.000000
# 3 -0.003103 -0.005284 0.011410 0.000000 0.000000 0.000000
# 4 0.000000 0.000000 0.000000 0.052653 0.000000 0.000000
# 5 0.000000 0.000000 0.000000 0.000000 0.030149 0.000000
# 6 0.000000 0.000000 0.000000 0.000000 0.000000 0.041977
#
#
# Mechanical properties :
#
#
# Convention : Reuss Voigt Hill
#
# Bulk Modulus (GPa) = 40.82427 45.03914 42.93170
# Shear Modulus (GPa) = 22.90852 24.80449 23.85651
#
# Velocity S-wave (km/s) = 3.71486 3.86553 3.79095
# Velocity P-wave (km/s) = 6.55691 6.85966 6.70999
#
# Compressibility (1/GPa) = 0.02449523
#
# Stress axis : x y z
#
# Youngs Moduli (GPa) = 46.34055 45.62911 87.64081
#
# Poissons Ratio (x) = 0.31113 0.27191
# Poissons Ratio (y) = 0.31598 0.46309
# Poissons Ratio (z) = 0.14378 0.24110
#
# Static dielectric constant tensor:
#      x y z
#    x 3.129640 0.000000 0.000000 
#    y 0.000000 3.032710 0.000000 
#    z 0.000000 0.000000 3.203510 
# 
# 
# High freq. dielectric constant tensor:
#      x y z
#    x 1.651240 0.000000 0.000000 
#    y 0.000000 1.610950 0.000000 
#    z 0.000000 0.000000 1.640250 
# 
# From -- ./inp_files/17224.got.cif
#   From: 2010.03.12/outbox.cif.g09.slc.cpg/sg38_9_cif.got.tgz:17224.got - 2010.04.14 02:38:36.
