data_PCOD8178590
_publ_section_title
;
Structure prediction by ZEFSAII (Michael W. Deem and Ramdas Pophale) SiO2 
 PCOD8178590
Probable space group: A M M 2
;
_chemical_formula_sum "Si O2"
_cell_formula_units_Z 48
_cell_length_a 13.963686
_cell_length_b 9.178888
_cell_length_c 20.563103
_cell_angle_alpha 90.000000
_cell_angle_beta 90.000000
_cell_angle_gamma 90.000000
_cell_volume 2635.595734
_symmetry_space_group_name_H-M "A M M 2"
_symmetry_group_IT_number 38
_symmetry_cell_setting 'orthorhombic'
loop_
_space_group_symop_operation_xyz
x,y,z
-x,-y,z
-x,y,z
x,-y,z
x,1/2+y,1/2+z
-x,1/2-y,1/2+z
-x,1/2+y,1/2+z
x,1/2-y,1/2+z
loop_
_atom_site_type_symbol
_atom_site_label
_atom_site_fract_x
_atom_site_fract_y
_atom_site_fract_z
Si Si1 0.109733 0.331059 0.217910
Si Si2 0.891740 0.329429 0.069068
Si Si3 0.388164 0.169806 0.887798
Si Si4 0.281300 0.327154 0.772657
Si Si5 0.606576 0.826912 0.145732
Si Si6 0.717378 0.828937 0.020160
O O1 0.136418 0.500000 0.225794
O O2 0.126715 0.280329 0.143540
O O3 0.174299 0.236611 0.266912
O O4 0.000000 0.303709 0.237833
O O5 0.873964 0.500000 0.062104
O O6 0.000000 0.289353 0.048878
O O7 0.821438 0.245977 0.019869
O O8 0.500000 0.210095 0.889550
O O9 0.335125 0.266166 0.834906
O O10 0.342214 0.212478 0.956578
O O11 0.373015 0.000000 0.872130
O O12 0.275931 0.500000 0.778042
O O13 0.338816 0.272567 0.709556
O O14 0.500000 0.760976 0.147540
O O15 0.602415 0.000000 0.143527
O O16 0.659016 0.766911 0.081757
O O17 0.733782 0.000000 0.025685
#
# Coordination Sequence:
#
# PCOD8178590 Si02
#       6
#     8   8   8   8   8   8
#     4   9  18  34  56  81 111 146 181 221 273 331
#     4   9  18  33  54  81 113 145 174 215 275 331
#     4  10  22  39  57  77 108 151 190 224 269 327
#     4  11  21  34  55  83 112 143 180 227 279 327
#     4   9  17  30  50  77 106 134 171 221 271 317
#     4  10  19  34  56  81 106 139 184 228 269 317
#
# _framework density 18.212201
#
# number of rings (size 3 to 8) (size 9 to 14) (size 15 to 20)
#    0.000    2.333    1.667    2.500    0.000    4.333 
#    0.000    2.500    0.000    3.500    0.000    0.000 
#    0.000    0.000    0.000    0.000    0.000    0.000 
#
# Total GULP energy -297632.525639 kJ/mol
# GULP energy per Si atom -12401.355235 kJ/mol
# Density = 1.817075 g / cm^3
# Si number density = 18.212201 Si / 1000 Ang^3
#
#
#
# Elastic Constant Matrix: (Units=GPa)
#
#
# Indices 1 2 3 4 5 6 
#
# 1 146.9193 56.8247 64.2043 0.0000 0.0000 0.0000
# 2 56.8247 56.1793 48.5447 0.0000 0.0000 0.0000
# 3 64.2043 48.5447 109.1651 0.0000 0.0000 0.0000
# 4 0.0000 0.0000 0.0000 28.4801 0.0000 0.0000
# 5 0.0000 0.0000 0.0000 0.0000 36.1977 0.0000
# 6 0.0000 0.0000 0.0000 0.0000 0.0000 29.5979
#
#
#
# Elastic Compliance Matrix: (Units=1/GPa)
#
#
# Indices 1 2 3 4 5 6 
#
# 1 0.011621 -0.009499 -0.002611 0.000000 0.000000 0.000000
# 2 -0.009499 0.036672 -0.010721 0.000000 0.000000 0.000000
# 3 -0.002611 -0.010721 0.015464 0.000000 0.000000 0.000000
# 4 0.000000 0.000000 0.000000 0.035112 0.000000 0.000000
# 5 0.000000 0.000000 0.000000 0.000000 0.027626 0.000000
# 6 0.000000 0.000000 0.000000 0.000000 0.000000 0.033786
#
#
# Mechanical properties :
#
#
# Convention : Reuss Voigt Hill
#
# Bulk Modulus (GPa) = 55.26262 72.37900 63.82081
# Shear Modulus (GPa) = 23.58767 28.36782 25.97775
#
# Velocity S-wave (km/s) = 3.60273 3.95096 3.78086
# Velocity P-wave (km/s) = 6.90767 7.78728 7.36063
#
# Compressibility (1/GPa) = 0.01809542
#
# Stress axis : x y z
#
# Youngs Moduli (GPa) = 86.04886 27.26866 64.66762
#
# Poissons Ratio (x) = 0.25902 0.16885
# Poissons Ratio (y) = 0.81735 0.69332
# Poissons Ratio (z) = 0.22467 0.29235
#
# Static dielectric constant tensor:
#      x y z
#    x 3.505080 0.000000 0.000000 
#    y 0.000000 3.081320 0.000000 
#    z 0.000000 0.000000 3.280840 
# 
# 
# High freq. dielectric constant tensor:
#      x y z
#    x 1.721230 0.000000 0.000000 
#    y 0.000000 1.685890 0.000000 
#    z 0.000000 0.000000 1.693100 
# 
# From -- ./inp_files/18156.got.cif
#   From: 2010.03.12/outbox.cif.g09.slc.cpg/sg38_10_cif.got.tgz:18156.got - 2010.04.14 02:38:36.
