data_PCOD8178584
_publ_section_title
;
Structure prediction by ZEFSAII (Michael W. Deem and Ramdas Pophale) SiO2 
 PCOD8178584
Probable space group: A M M 2
;
_chemical_formula_sum "Si O2"
_cell_formula_units_Z 48
_cell_length_a 8.966061
_cell_length_b 18.500841
_cell_length_c 15.130503
_cell_angle_alpha 90.000000
_cell_angle_beta 90.000000
_cell_angle_gamma 90.000000
_cell_volume 2509.842829
_symmetry_space_group_name_H-M "A M M 2"
_symmetry_group_IT_number 38
_symmetry_cell_setting 'orthorhombic'
loop_
_space_group_symop_operation_xyz
x,y,z
-x,-y,z
-x,y,z
x,-y,z
x,1/2+y,1/2+z
-x,1/2-y,1/2+z
-x,1/2+y,1/2+z
x,1/2-y,1/2+z
loop_
_atom_site_type_symbol
_atom_site_label
_atom_site_fract_x
_atom_site_fract_y
_atom_site_fract_z
Si Si1 0.668355 0.000000 0.302240
Si Si2 0.677011 0.276624 0.214089
Si Si3 0.331254 0.500000 0.593939
Si Si4 0.325688 0.154524 0.348595
Si Si5 0.673957 0.244987 0.515071
Si Si6 0.328766 0.078430 0.803556
Si Si7 0.175637 0.389539 0.477847
O O1 0.671577 0.000000 0.197942
O O2 0.747272 0.074516 0.335849
O O3 0.500000 0.000000 0.339085
O O4 0.500000 0.274612 0.215334
O O5 0.741542 0.213699 0.278880
O O6 0.734911 0.268477 0.113797
O O7 0.733356 0.355925 0.244231
O O8 0.500000 0.500000 0.557530
O O9 0.248158 0.427894 0.562472
O O10 0.500000 0.149327 0.326313
O O11 0.298543 0.176788 0.450525
O O12 0.500000 0.266466 0.515790
O O13 0.769659 0.307889 0.471781
O O14 0.500000 0.094423 0.830746
O O15 0.317549 0.000000 0.754235
O O16 0.228832 0.070184 0.890286
O O17 0.000000 0.394167 0.486864
#
# Coordination Sequence:
#
# PCOD8178584 Si02
#       7
#     4   8   4   8   8   8   8
#     4   9  18  31  51  82 111 138 176 227 277 320
#     4   9  17  31  53  81 106 138 188 233 266 321
#     4  11  21  35  57  80 107 144 184 225 283 338
#     4   9  16  29  50  77 110 140 177 228 273 321
#     4  10  19  34  57  79 107 149 185 222 275 327
#     4  10  19  34  56  79 109 145 182 223 274 329
#     4  12  23  34  52  81 115 141 179 229 276 334
#
# _framework density 19.124704999999999
#
# number of rings (size 3 to 8) (size 9 to 14) (size 15 to 20)
#    0.000    2.000    2.500    2.750    0.000    2.667 
#    1.500    0.833    0.000    1.000    0.000    0.000 
#    0.000    0.000    0.000    0.000    0.000    0.000 
#
# Total GULP energy -297483.782757 kJ/mol
# GULP energy per Si atom -12395.157615 kJ/mol
# Density = 1.908118 g / cm^3
# Si number density = 19.124705 Si / 1000 Ang^3
#
#
#
# Elastic Constant Matrix: (Units=GPa)
#
#
# Indices 1 2 3 4 5 6 
#
# 1 63.7205 23.4231 14.6243 0.0000 0.0000 0.0000
# 2 23.4231 170.6756 56.7668 0.0000 0.0000 0.0000
# 3 14.6243 56.7668 105.5227 0.0000 0.0000 0.0000
# 4 0.0000 0.0000 0.0000 33.8118 0.0000 0.0000
# 5 0.0000 0.0000 0.0000 0.0000 2.2356 0.0000
# 6 0.0000 0.0000 0.0000 0.0000 0.0000 5.2063
#
#
#
# Elastic Compliance Matrix: (Units=1/GPa)
#
#
# Indices 1 2 3 4 5 6 
#
# 1 0.016676 -0.001851 -0.001315 0.000000 0.000000 0.000000
# 2 -0.001851 0.007341 -0.003693 0.000000 0.000000 0.000000
# 3 -0.001315 -0.003693 0.011645 0.000000 0.000000 0.000000
# 4 0.000000 0.000000 0.000000 0.029575 0.000000 0.000000
# 5 0.000000 0.000000 0.000000 0.000000 0.447317 0.000000
# 6 0.000000 0.000000 0.000000 0.000000 0.000000 0.192076
#
#
# Mechanical properties :
#
#
# Convention : Reuss Voigt Hill
#
# Bulk Modulus (GPa) = 45.56981 58.83858 52.20420
# Shear Modulus (GPa) = 6.89024 24.59103 15.74064
#
# Velocity S-wave (km/s) = 1.90016 3.58973 2.87200
# Velocity P-wave (km/s) = 5.35664 6.92922 6.19305
#
# Compressibility (1/GPa) = 0.02194435
#
# Stress axis : x y z
#
# Youngs Moduli (GPa) = 59.96694 136.21511 85.87020
#
# Poissons Ratio (x) = 0.25215 0.11294
# Poissons Ratio (y) = 0.11100 0.31710
# Poissons Ratio (z) = 0.07887 0.50301
#
# Static dielectric constant tensor:
#      x y z
#    x 2.992600 0.000000 0.000000 
#    y 0.000000 3.884590 0.000000 
#    z 0.000000 0.000000 3.507280 
# 
# 
# High freq. dielectric constant tensor:
#      x y z
#    x 1.683460 0.000000 0.000000 
#    y 0.000000 1.762230 0.000000 
#    z 0.000000 0.000000 1.735590 
# 
# From -- ./inp_files/12127.got.cif
#   From: 2010.03.12/outbox.cif.g09.slc.cpg/sg38_7_cif.got.tgz:12127.got - 2010.04.14 02:38:36.
