data_PCOD8178215
_publ_section_title
;
Structure prediction by ZEFSAII (Michael W. Deem and Ramdas Pophale) SiO2 
 PCOD8178215
Probable space group: A M M 2
;
_chemical_formula_sum "Si O2"
_cell_formula_units_Z 64
_cell_length_a 8.873560
_cell_length_b 27.834689
_cell_length_c 14.314449
_cell_angle_alpha 90.000000
_cell_angle_beta 90.000000
_cell_angle_gamma 90.000000
_cell_volume 3535.565595
_symmetry_space_group_name_H-M "A M M 2"
_symmetry_group_IT_number 38
_symmetry_cell_setting 'orthorhombic'
loop_
_space_group_symop_operation_xyz
x,y,z
-x,-y,z
-x,y,z
x,-y,z
x,1/2+y,1/2+z
-x,1/2-y,1/2+z
-x,1/2+y,1/2+z
x,1/2-y,1/2+z
loop_
_atom_site_type_symbol
_atom_site_label
_atom_site_fract_x
_atom_site_fract_y
_atom_site_fract_z
Si Si1 0.179131 0.130307 0.361380
Si Si2 0.321509 0.177845 0.194753
Si Si3 0.674655 0.056184 0.491471
Si Si4 0.325258 0.634638 0.300112
Si Si5 0.176377 0.777655 0.695870
Si Si6 0.672510 0.316718 0.485253
Si Si7 0.174595 0.779940 0.480229
Si Si8 0.175718 0.555913 0.185067
O O1 0.242003 0.136890 0.256686
O O2 0.248708 0.082032 0.403872
O O3 0.239192 0.175039 0.422977
O O4 0.000000 0.125844 0.360377
O O5 0.500000 0.174589 0.207071
O O6 0.263763 0.229964 0.228470
O O7 0.267909 0.168194 0.087822
O O8 0.500000 0.070002 0.498546
O O9 0.754959 0.072943 0.586862
O O10 0.698869 0.000000 0.475139
O O11 0.500000 0.637302 0.271556
O O12 0.234970 0.677161 0.251984
O O13 0.304779 0.639681 0.412281
O O14 0.255819 0.583900 0.269464
O O15 0.211472 0.788623 0.588224
O O16 0.000000 0.769679 0.714613
O O17 0.500000 0.301758 0.495284
O O18 0.754185 0.269679 0.444682
O O19 0.000000 0.775128 0.459933
O O20 0.206263 0.500000 0.202958
O O21 0.000000 0.568498 0.183282
#
# Coordination Sequence:
#
# PCOD8178215 Si02
#       8
#     8   8   8   8   8   8   8   8
#     4  11  21  33  52  78 105 136 174 213 257 307
#     4  10  20  35  51  70 101 139 178 219 260 302
#     4  10  21  37  57  81 107 135 167 205 252 306
#     4  11  21  33  52  77 102 133 174 215 258 309
#     4  10  19  32  49  73 105 138 172 210 257 311
#     4   9  20  35  50  70  99 135 174 215 256 298
#     4   9  19  32  47  70 102 136 168 204 248 302
#     4  10  21  37  56  79 107 136 165 203 254 309
#
# _framework density 18.101770999999999
#
# number of rings (size 3 to 8) (size 9 to 14) (size 15 to 20)
#    0.000    2.000    0.000    3.750    0.000    7.500 
#    0.000    0.000    0.000    0.750    0.000    1.750 
#    0.000    0.000    0.000    0.000    0.000    0.000 
#
# Total GULP energy -396905.304299 kJ/mol
# GULP energy per Si atom -12403.290759 kJ/mol
# Density = 1.806057 g / cm^3
# Si number density = 18.101771 Si / 1000 Ang^3
#
#
#
# Elastic Constant Matrix: (Units=GPa)
#
#
# Indices 1 2 3 4 5 6 
#
# 1 69.0333 32.3880 38.7323 0.0000 0.0000 0.0000
# 2 32.3880 68.0920 51.0504 0.0000 0.0000 0.0000
# 3 38.7323 51.0504 85.8584 0.0000 0.0000 0.0000
# 4 0.0000 0.0000 0.0000 32.9496 0.0000 0.0000
# 5 0.0000 0.0000 0.0000 0.0000 27.5056 0.0000
# 6 0.0000 0.0000 0.0000 0.0000 0.0000 32.2265
#
#
#
# Elastic Compliance Matrix: (Units=1/GPa)
#
#
# Indices 1 2 3 4 5 6 
#
# 1 0.020309 -0.005036 -0.006167 0.000000 0.000000 0.000000
# 2 -0.005036 0.027747 -0.014226 0.000000 0.000000 0.000000
# 3 -0.006167 -0.014226 0.022888 0.000000 0.000000 0.000000
# 4 0.000000 0.000000 0.000000 0.030349 0.000000 0.000000
# 5 0.000000 0.000000 0.000000 0.000000 0.036356 0.000000
# 6 0.000000 0.000000 0.000000 0.000000 0.000000 0.031030
#
#
# Mechanical properties :
#
#
# Convention : Reuss Voigt Hill
#
# Bulk Modulus (GPa) = 49.78907 51.92501 50.85704
# Shear Modulus (GPa) = 22.10095 25.25720 23.67908
#
# Velocity S-wave (km/s) = 3.49797 3.73941 3.62070
# Velocity P-wave (km/s) = 6.62414 6.88415 6.75540
#
# Compressibility (1/GPa) = 0.02008473
#
# Stress axis : x y z
#
# Youngs Moduli (GPa) = 49.23982 36.03945 43.69086
#
# Poissons Ratio (x) = 0.18150 0.26945
# Poissons Ratio (y) = 0.24798 0.62156
# Poissons Ratio (z) = 0.30367 0.51271
#
# Static dielectric constant tensor:
#      x y z
#    x 3.417810 0.000000 0.000000 
#    y 0.000000 3.235330 0.000000 
#    z 0.000000 0.000000 3.518400 
# 
# 
# High freq. dielectric constant tensor:
#      x y z
#    x 1.713560 0.000000 0.000000 
#    y 0.000000 1.679270 0.000000 
#    z 0.000000 0.000000 1.703110 
# 
# From -- ./inp_files/12704.got.cif
#   From: 2010.03.12/outbox.cif.g09.slc.cpg/sg38_7_cif.got.tgz:12704.got - 2010.04.14 02:38:36.
