data_PCOD8178407
_publ_section_title
;
Structure prediction by ZEFSAII (Michael W. Deem and Ramdas Pophale) SiO2 
 PCOD8178407
Probable space group: A M M 2
;
_chemical_formula_sum "Si O2"
_cell_formula_units_Z 56
_cell_length_a 15.600293
_cell_length_b 8.881622
_cell_length_c 20.668846
_cell_angle_alpha 90.000000
_cell_angle_beta 90.000000
_cell_angle_gamma 90.000000
_cell_volume 2863.790673
_symmetry_space_group_name_H-M "A M M 2"
_symmetry_group_IT_number 38
_symmetry_cell_setting 'orthorhombic'
loop_
_space_group_symop_operation_xyz
x,y,z
-x,-y,z
-x,y,z
x,-y,z
x,1/2+y,1/2+z
-x,1/2-y,1/2+z
-x,1/2+y,1/2+z
x,1/2-y,1/2+z
loop_
_atom_site_type_symbol
_atom_site_label
_atom_site_fract_x
_atom_site_fract_y
_atom_site_fract_z
Si Si1 0.406502 0.678478 0.987200
Si Si2 0.904164 0.679529 0.041328
Si Si3 0.772091 0.320783 0.932978
Si Si4 0.372786 0.169202 0.629717
Si Si5 0.405056 0.172458 0.258298
Si Si6 0.761204 0.679170 0.301468
Si Si7 0.180065 0.667702 0.166116
O O1 0.500000 0.728003 0.958193
O O2 0.398258 0.500000 0.987607
O O3 0.324711 0.740152 0.947173
O O4 0.402088 0.735556 0.060967
O O5 0.895982 0.500000 0.044939
O O6 0.882648 0.746828 0.113375
O O7 0.000000 0.730483 0.022042
O O8 0.837573 0.739716 0.987619
O O9 0.775250 0.500000 0.927564
O O10 0.803472 0.249875 0.865224
O O11 0.410121 0.279070 0.683690
O O12 0.270731 0.164665 0.630449
O O13 0.408596 0.000000 0.641058
O O14 0.500000 0.190899 0.288923
O O15 0.338621 0.274035 0.298049
O O16 0.374538 0.000000 0.263078
O O17 0.765965 0.500000 0.303077
O O18 0.810959 0.744429 0.237376
O O19 0.145905 0.500000 0.179135
#
# Coordination Sequence:
#
# PCOD8178407 Si02
#       7
#     8   8   8   8   8   8   8
#     4   9  16  26  45  72 100 135 177 217 257 302
#     4   9  16  29  54  83 105 130 169 217 267 318
#     4  10  19  33  52  76 108 139 175 221 263 313
#     4   9  15  27  48  72  99 131 171 219 264 308
#     4  10  20  32  47  71 103 137 177 223 267 313
#     4  10  21  35  53  73 101 142 180 217 267 318
#     4   8  14  28  49  73  98 126 167 216 255 300
#
# _framework density 19.554500999999998
#
# number of rings (size 3 to 8) (size 9 to 14) (size 15 to 20)
#    0.000    2.714    1.429    2.143    0.000    2.286 
#    0.000    2.857    0.000    2.143    0.000    0.000 
#    0.000    0.000    0.000    0.000    0.000    0.000 
#
# Total GULP energy -346915.784185 kJ/mol
# GULP energy per Si atom -12389.849435 kJ/mol
# Density = 1.950999 g / cm^3
# Si number density = 19.554501 Si / 1000 Ang^3
#
#
#
# Elastic Constant Matrix: (Units=GPa)
#
#
# Indices 1 2 3 4 5 6 
#
# 1 107.5392 15.1261 63.6193 0.0000 0.0000 0.0000
# 2 15.1261 31.5317 20.1514 0.0000 0.0000 0.0000
# 3 63.6193 20.1514 142.9998 0.0000 0.0000 0.0000
# 4 0.0000 0.0000 0.0000 25.2147 0.0000 0.0000
# 5 0.0000 0.0000 0.0000 0.0000 10.7872 0.0000
# 6 0.0000 0.0000 0.0000 0.0000 0.0000 9.7661
#
#
#
# Elastic Compliance Matrix: (Units=1/GPa)
#
#
# Indices 1 2 3 4 5 6 
#
# 1 0.012835 -0.002756 -0.005322 0.000000 0.000000 0.000000
# 2 -0.002756 0.035445 -0.003769 0.000000 0.000000 0.000000
# 3 -0.005322 -0.003769 0.009892 0.000000 0.000000 0.000000
# 4 0.000000 0.000000 0.000000 0.039659 0.000000 0.000000
# 5 0.000000 0.000000 0.000000 0.000000 0.092703 0.000000
# 6 0.000000 0.000000 0.000000 0.000000 0.000000 0.102395
#
#
# Mechanical properties :
#
#
# Convention : Reuss Voigt Hill
#
# Bulk Modulus (GPa) = 29.00365 53.31827 41.16096
# Shear Modulus (GPa) = 15.23858 21.36518 18.30188
#
# Velocity S-wave (km/s) = 2.79460 3.30903 3.06264
# Velocity P-wave (km/s) = 5.02767 6.47497 5.79667
#
# Compressibility (1/GPa) = 0.03447842
#
# Stress axis : x y z
#
# Youngs Moduli (GPa) = 77.91265 28.21290 101.09483
#
# Poissons Ratio (x) = 0.07775 0.53800
# Poissons Ratio (y) = 0.21473 0.38100
# Poissons Ratio (z) = 0.41463 0.10633
#
# Static dielectric constant tensor:
#      x y z
#    x 3.572270 0.000000 0.000000 
#    y 0.000000 3.038680 0.000000 
#    z 0.000000 0.000000 3.721850 
# 
# 
# High freq. dielectric constant tensor:
#      x y z
#    x 1.748770 0.000000 0.000000 
#    y 0.000000 1.701530 0.000000 
#    z 0.000000 0.000000 1.768410 
# 
# From -- ./inp_files/21071.got.cif
#   From: 2010.03.12/outbox.cif.g09.slc.cpg/sg38_11_cif.got.tgz:21071.got - 2010.04.14 02:38:36.
