data_PCOD8178596
_publ_section_title
;
Structure prediction by ZEFSAII (Michael W. Deem and Ramdas Pophale) SiO2 
 PCOD8178596
Probable space group: A M M 2
;
_chemical_formula_sum "Si O2"
_cell_formula_units_Z 64
_cell_length_a 19.438274
_cell_length_b 9.169201
_cell_length_c 19.760550
_cell_angle_alpha 90.000000
_cell_angle_beta 90.000000
_cell_angle_gamma 90.000000
_cell_volume 3521.990830
_symmetry_space_group_name_H-M "A M M 2"
_symmetry_group_IT_number 38
_symmetry_cell_setting 'orthorhombic'
loop_
_space_group_symop_operation_xyz
x,y,z
-x,-y,z
-x,y,z
x,-y,z
x,1/2+y,1/2+z
-x,1/2-y,1/2+z
-x,1/2+y,1/2+z
x,1/2-y,1/2+z
loop_
_atom_site_type_symbol
_atom_site_label
_atom_site_fract_x
_atom_site_fract_y
_atom_site_fract_z
Si Si1 0.689945 0.165779 0.453470
Si Si2 0.810055 0.334220 0.611331
Si Si3 0.326437 0.831409 0.299980
Si Si4 0.154156 0.830541 0.483229
Si Si5 0.419830 0.832118 0.696531
Si Si6 0.080170 0.667882 0.368270
Si Si7 0.654156 0.830540 0.081572
Si Si8 0.173563 0.168591 0.264821
O O1 0.658819 0.190783 0.379359
O O2 0.771084 0.201304 0.451401
O O3 0.650255 0.270875 0.505061
O O4 0.679123 0.000000 0.477878
O O5 0.820875 0.500000 0.586923
O O6 0.849746 0.229126 0.559740
O O7 0.728916 0.298693 0.613400
O O8 0.841182 0.309217 0.685442
O O9 0.381228 0.736127 0.260338
O O10 0.250000 0.776984 0.282400
O O11 0.334566 0.000000 0.278056
O O12 0.098457 0.748955 0.437758
O O13 0.135911 0.000000 0.484374
O O14 0.500000 0.813426 0.710511
O O15 0.401543 0.751046 0.627043
O O16 0.398297 0.000000 0.689393
O O17 0.101705 0.500000 0.375408
O O18 0.118772 0.736127 0.304463
O O19 0.000000 0.686571 0.354290
O O20 0.635912 0.000000 0.080428
O O21 0.165434 0.000000 0.286745
#
# Coordination Sequence:
#
# PCOD8178596 Si02
#       8
#     8   8   8   8   8   8   8   8
#     4   9  18  33  55  84 115 141 176 229 281 329
#     4   9  18  33  55  84 115 141 176 229 281 329
#     4  10  19  36  59  85 114 145 186 233 281 337
#     4  10  19  34  56  82 111 144 185 229 275 332
#     4  11  24  39  55  80 115 152 191 234 282 337
#     4  11  24  39  55  80 115 152 191 234 282 337
#     4  10  19  34  56  82 111 144 185 229 275 332
#     4  10  19  36  59  85 114 145 186 233 281 337
#
# _framework density 18.171541000000001
#
# number of rings (size 3 to 8) (size 9 to 14) (size 15 to 20)
#    0.000    2.000    2.500    1.500    0.000    4.500 
#    0.000    1.250    0.000    1.500    0.000    0.000 
#    0.000    0.000    0.000    0.000    0.000    0.000 
#
# Total GULP energy -396944.742368 kJ/mol
# GULP energy per Si atom -12404.523199 kJ/mol
# Density = 1.813018 g / cm^3
# Si number density = 18.171541 Si / 1000 Ang^3
#
#
#
# Elastic Constant Matrix: (Units=GPa)
#
#
# Indices 1 2 3 4 5 6 
#
# 1 73.3697 59.1554 47.9552 0.0000 0.0000 0.0000
# 2 59.1554 122.6035 67.8321 0.0000 0.0000 0.0000
# 3 47.9552 67.8321 108.2323 0.0000 0.0000 0.0000
# 4 0.0000 0.0000 0.0000 38.3057 0.0000 0.0000
# 5 0.0000 0.0000 0.0000 0.0000 25.5046 0.0000
# 6 0.0000 0.0000 0.0000 0.0000 0.0000 27.6197
#
#
#
# Elastic Compliance Matrix: (Units=1/GPa)
#
#
# Indices 1 2 3 4 5 6 
#
# 1 0.024068 -0.008745 -0.005183 0.000000 0.000000 0.000000
# 2 -0.008745 0.015663 -0.005942 0.000000 0.000000 0.000000
# 3 -0.005183 -0.005942 0.015260 0.000000 0.000000 0.000000
# 4 0.000000 0.000000 0.000000 0.026106 0.000000 0.000000
# 5 0.000000 0.000000 0.000000 0.000000 0.039209 0.000000
# 6 0.000000 0.000000 0.000000 0.000000 0.000000 0.036206
#
#
# Mechanical properties :
#
#
# Convention : Reuss Voigt Hill
#
# Bulk Modulus (GPa) = 65.56957 72.67677 69.12317
# Shear Modulus (GPa) = 24.83410 26.90351 25.86880
#
# Velocity S-wave (km/s) = 3.70083 3.85194 3.77714
# Velocity P-wave (km/s) = 7.37723 7.73724 7.55938
#
# Compressibility (1/GPa) = 0.01525098
#
# Stress axis : x y z
#
# Youngs Moduli (GPa) = 41.54838 63.84391 65.53117
#
# Poissons Ratio (x) = 0.55832 0.33967
# Poissons Ratio (y) = 0.36334 0.38937
# Poissons Ratio (z) = 0.21536 0.37935
#
# Static dielectric constant tensor:
#      x y z
#    x 3.069460 0.000000 0.000000 
#    y 0.000000 3.425020 0.000000 
#    z 0.000000 0.000000 3.398190 
# 
# 
# High freq. dielectric constant tensor:
#      x y z
#    x 1.674290 0.000000 0.000000 
#    y 0.000000 1.710410 0.000000 
#    z 0.000000 0.000000 1.716200 
# 
# From -- ./inp_files/21445.got.cif
#   From: 2010.03.12/outbox.cif.g09.slc.cpg/sg38_11_cif.got.tgz:21445.got - 2010.04.14 02:38:36.
