data_PCOD8178334
_publ_section_title
;
Structure prediction by ZEFSAII (Michael W. Deem and Ramdas Pophale) SiO2 
 PCOD8178334
Probable space group: A M M 2
;
_chemical_formula_sum "Si O2"
_cell_formula_units_Z 56
_cell_length_a 19.903351
_cell_length_b 8.884746
_cell_length_c 15.546769
_cell_angle_alpha 90.000000
_cell_angle_beta 90.000000
_cell_angle_gamma 90.000000
_cell_volume 2749.231835
_symmetry_space_group_name_H-M "A M M 2"
_symmetry_group_IT_number 38
_symmetry_cell_setting 'orthorhombic'
loop_
_space_group_symop_operation_xyz
x,y,z
-x,-y,z
-x,y,z
x,-y,z
x,1/2+y,1/2+z
-x,1/2-y,1/2+z
-x,1/2+y,1/2+z
x,1/2-y,1/2+z
loop_
_atom_site_type_symbol
_atom_site_label
_atom_site_fract_x
_atom_site_fract_y
_atom_site_fract_z
Si Si1 0.839096 0.678057 0.602670
Si Si2 0.075670 0.820857 0.263658
Si Si3 0.293345 0.327285 0.160932
Si Si4 0.284994 0.330000 0.364700
Si Si5 0.573672 0.325451 0.667281
Si Si6 0.571710 0.670959 0.344380
Si Si7 0.157184 0.823219 0.428139
O O1 0.841510 0.500000 0.599127
O O2 0.884361 0.741088 0.680895
O O3 0.762729 0.730595 0.612846
O O4 0.869197 0.743798 0.514410
O O5 0.112187 0.761444 0.349526
O O6 0.000000 0.757230 0.261459
O O7 0.075840 0.000000 0.262998
O O8 0.283247 0.500000 0.135389
O O9 0.286820 0.300469 0.262724
O O10 0.366032 0.271871 0.125972
O O11 0.261173 0.500000 0.385177
O O12 0.361128 0.300426 0.401443
O O13 0.235041 0.215311 0.410582
O O14 0.500000 0.287778 0.626136
O O15 0.591005 0.500000 0.654887
O O16 0.569862 0.290136 0.768150
O O17 0.500000 0.684158 0.395972
O O18 0.578781 0.500000 0.306316
O O19 0.149605 0.000000 0.439476
#
# Coordination Sequence:
#
# PCOD8178334 Si02
#       7
#     8   8   8   8   8   8   8
#     4  11  22  38  61  88 118 154 194 239 289 343
#     4   9  20  40  64  89 119 154 189 229 284 348
#     4  10  19  32  53  79 111 150 194 244 293 344
#     4   9  17  30  51  78 110 148 190 239 287 339
#     4   9  16  25  41  70 107 146 191 240 289 344
#     4   8  14  25  42  68 103 144 189 238 291 340
#     4  11  22  37  59  87 118 154 193 235 283 343
#
# _framework density 20.369325
#
# number of rings (size 3 to 8) (size 9 to 14) (size 15 to 20)
#    0.000    2.429    1.429    2.571    0.000    3.714 
#    0.000    0.000    0.000    6.857    0.000    2.000 
#    0.000    0.000    0.000    0.000    0.000    0.000 
#
# Total GULP energy -347029.508288 kJ/mol
# GULP energy per Si atom -12393.911010 kJ/mol
# Density = 2.032296 g / cm^3
# Si number density = 20.369325 Si / 1000 Ang^3
#
#
#
# Elastic Constant Matrix: (Units=GPa)
#
#
# Indices 1 2 3 4 5 6 
#
# 1 157.5742 32.6203 58.7262 0.0000 0.0000 0.0000
# 2 32.6203 66.9055 33.8510 0.0000 0.0000 0.0000
# 3 58.7262 33.8510 104.0877 0.0000 0.0000 0.0000
# 4 0.0000 0.0000 0.0000 24.9188 0.0000 0.0000
# 5 0.0000 0.0000 0.0000 0.0000 5.0409 0.0000
# 6 0.0000 0.0000 0.0000 0.0000 0.0000 20.8763
#
#
#
# Elastic Compliance Matrix: (Units=1/GPa)
#
#
# Indices 1 2 3 4 5 6 
#
# 1 0.008253 -0.001996 -0.004007 0.000000 0.000000 0.000000
# 2 -0.001996 0.018373 -0.004849 0.000000 0.000000 0.000000
# 3 -0.004007 -0.004849 0.013445 0.000000 0.000000 0.000000
# 4 0.000000 0.000000 0.000000 0.040130 0.000000 0.000000
# 5 0.000000 0.000000 0.000000 0.000000 0.198378 0.000000
# 6 0.000000 0.000000 0.000000 0.000000 0.000000 0.047901
#
#
# Mechanical properties :
#
#
# Convention : Reuss Voigt Hill
#
# Bulk Modulus (GPa) = 54.44722 64.32915 59.38818
# Shear Modulus (GPa) = 14.11206 23.72518 18.91862
#
# Velocity S-wave (km/s) = 2.63498 3.41655 3.05090
# Velocity P-wave (km/s) = 6.00379 6.87122 6.45210
#
# Compressibility (1/GPa) = 0.01836641
#
# Stress axis : x y z
#
# Youngs Moduli (GPa) = 121.16992 54.42739 74.37727
#
# Poissons Ratio (x) = 0.10866 0.29803
# Poissons Ratio (y) = 0.24190 0.36065
# Poissons Ratio (z) = 0.48553 0.26391
#
# Static dielectric constant tensor:
#      x y z
#    x 4.099660 0.000000 0.000000 
#    y 0.000000 3.497030 0.000000 
#    z 0.000000 0.000000 3.437750 
# 
# 
# High freq. dielectric constant tensor:
#      x y z
#    x 1.809330 0.000000 0.000000 
#    y 0.000000 1.781630 0.000000 
#    z 0.000000 0.000000 1.759740 
# 
# From -- ./inp_files/15425.got.cif
#   From: 2010.03.12/outbox.cif.g09.slc.cpg/sg38_8_cif.got.tgz:15425.got - 2010.04.14 02:38:36.
