data_PCOD8178548
_publ_section_title
;
Structure prediction by ZEFSAII (Michael W. Deem and Ramdas Pophale) SiO2 
 PCOD8178548
Probable space group: A M M 2
;
_chemical_formula_sum "Si O2"
_cell_formula_units_Z 64
_cell_length_a 8.748056
_cell_length_b 23.146146
_cell_length_c 19.145993
_cell_angle_alpha 90.000000
_cell_angle_beta 90.000000
_cell_angle_gamma 90.000000
_cell_volume 3876.753061
_symmetry_space_group_name_H-M "A M M 2"
_symmetry_group_IT_number 38
_symmetry_cell_setting 'orthorhombic'
loop_
_space_group_symop_operation_xyz
x,y,z
-x,-y,z
-x,y,z
x,-y,z
x,1/2+y,1/2+z
-x,1/2-y,1/2+z
-x,1/2+y,1/2+z
x,1/2-y,1/2+z
loop_
_atom_site_type_symbol
_atom_site_label
_atom_site_fract_x
_atom_site_fract_y
_atom_site_fract_z
Si Si1 0.819352 0.249839 0.993990
Si Si2 0.176516 0.434690 0.369281
Si Si3 0.679752 0.279600 0.855455
Si Si4 0.820602 0.265362 0.146966
Si Si5 0.679620 0.934357 0.139577
Si Si6 0.321002 0.874150 0.995847
Si Si7 0.819360 0.656527 0.733274
Si Si8 0.822225 0.327363 0.280660
O O1 0.737663 0.287649 0.934646
O O2 0.000000 0.257236 0.986548
O O3 0.754550 0.273055 0.068827
O O4 0.778412 0.182803 0.984805
O O5 0.213218 0.500000 0.345386
O O6 0.282636 0.419079 0.434554
O O7 0.213673 0.392852 0.303523
O O8 0.000000 0.427922 0.391730
O O9 0.500000 0.285332 0.852854
O O10 0.752174 0.330971 0.809817
O O11 0.727590 0.216211 0.828768
O O12 0.756710 0.206383 0.181170
O O13 0.777583 0.318681 0.198652
O O14 0.000000 0.258619 0.138761
O O15 0.500000 0.930823 0.151216
O O16 0.728440 0.903234 0.068269
O O17 0.761594 0.904770 0.205379
O O18 0.737030 0.000000 0.136041
O O19 0.500000 0.858892 0.993961
O O20 0.000000 0.656793 0.738765
O O21 0.000000 0.311187 0.290993
#
# Coordination Sequence:
#
# PCOD8178548 Si02
#       8
#     8   8   8   8   8   8   8   8
#     4  11  19  31  49  71  97 129 165 203 244 296
#     4  10  20  32  48  69  96 133 171 204 240 285
#     4  11  21  32  48  72  98 126 160 200 252 303
#     4   8  16  29  48  69  91 121 158 199 246 289
#     4  10  21  35  49  69 101 138 171 206 248 291
#     4  11  21  32  46  68 100 136 170 205 242 283
#     4  10  19  34  52  72  95 127 167 207 248 291
#     4   9  17  32  49  68  95 126 161 202 243 291
#
# _framework density 16.508659999999999
#
# number of rings (size 3 to 8) (size 9 to 14) (size 15 to 20)
#    0.000    2.000    2.500    3.375    0.000    1.500 
#    0.000    0.625    0.000    0.000    0.000    0.875 
#    0.000    3.000    0.000    0.000    0.000    0.000 
#
# Total GULP energy -396780.668930 kJ/mol
# GULP energy per Si atom -12399.395904 kJ/mol
# Density = 1.647109 g / cm^3
# Si number density = 16.508660 Si / 1000 Ang^3
#
#
#
# Elastic Constant Matrix: (Units=GPa)
#
#
# Indices 1 2 3 4 5 6 
#
# 1 51.6585 24.5457 31.9607 0.0000 0.0000 0.0000
# 2 24.5457 66.4615 45.4536 0.0000 0.0000 0.0000
# 3 31.9607 45.4536 126.2621 0.0000 0.0000 0.0000
# 4 0.0000 0.0000 0.0000 24.8721 0.0000 0.0000
# 5 0.0000 0.0000 0.0000 0.0000 21.9864 0.0000
# 6 0.0000 0.0000 0.0000 0.0000 0.0000 18.5808
#
#
#
# Elastic Compliance Matrix: (Units=1/GPa)
#
#
# Indices 1 2 3 4 5 6 
#
# 1 0.024892 -0.006479 -0.003968 0.000000 0.000000 0.000000
# 2 -0.006479 0.021647 -0.006153 0.000000 0.000000 0.000000
# 3 -0.003968 -0.006153 0.011140 0.000000 0.000000 0.000000
# 4 0.000000 0.000000 0.000000 0.040206 0.000000 0.000000
# 5 0.000000 0.000000 0.000000 0.000000 0.045483 0.000000
# 6 0.000000 0.000000 0.000000 0.000000 0.000000 0.053819
#
#
# Mechanical properties :
#
#
# Convention : Reuss Voigt Hill
#
# Bulk Modulus (GPa) = 40.85327 49.81134 45.33230
# Shear Modulus (GPa) = 20.96038 22.58266 21.77152
#
# Velocity S-wave (km/s) = 3.56709 3.70256 3.63546
# Velocity P-wave (km/s) = 6.46265 6.96541 6.71874
#
# Compressibility (1/GPa) = 0.02447785
#
# Stress axis : x y z
#
# Youngs Moduli (GPa) = 40.17414 46.19565 89.77052
#
# Poissons Ratio (x) = 0.29930 0.35625
# Poissons Ratio (y) = 0.26029 0.55234
# Poissons Ratio (z) = 0.15943 0.28423
#
# Static dielectric constant tensor:
#      x y z
#    x 2.999960 0.000000 0.000000 
#    y 0.000000 2.968940 0.000000 
#    z 0.000000 0.000000 3.394970 
# 
# 
# High freq. dielectric constant tensor:
#      x y z
#    x 1.632430 0.000000 0.000000 
#    y 0.000000 1.603710 0.000000 
#    z 0.000000 0.000000 1.637000 
# 
# From -- ./inp_files/17225.got.cif
#   From: 2010.03.12/outbox.cif.g09.slc.cpg/sg38_9_cif.got.tgz:17225.got - 2010.04.14 02:38:36.
