data_PCOD8178317
_publ_section_title
;
Structure prediction by ZEFSAII (Michael W. Deem and Ramdas Pophale) SiO2 
 PCOD8178317
Probable space group: A M M 2
;
_chemical_formula_sum "Si O2"
_cell_formula_units_Z 56
_cell_length_a 9.198980
_cell_length_b 14.292090
_cell_length_c 22.544532
_cell_angle_alpha 90.000000
_cell_angle_beta 90.000000
_cell_angle_gamma 90.000000
_cell_volume 2963.989367
_symmetry_space_group_name_H-M "A M M 2"
_symmetry_group_IT_number 38
_symmetry_cell_setting 'orthorhombic'
loop_
_space_group_symop_operation_xyz
x,y,z
-x,-y,z
-x,y,z
x,-y,z
x,1/2+y,1/2+z
-x,1/2-y,1/2+z
-x,1/2+y,1/2+z
x,1/2-y,1/2+z
loop_
_atom_site_type_symbol
_atom_site_label
_atom_site_fract_x
_atom_site_fract_y
_atom_site_fract_z
Si Si1 0.170437 0.106620 0.104780
Si Si2 0.670113 0.107541 0.401282
Si Si3 0.329718 0.276763 0.143197
Si Si4 0.827579 0.396965 0.471826
Si Si5 0.331469 0.109417 0.760165
Si Si6 0.672581 0.603066 0.034963
Si Si7 0.827277 0.220789 0.861257
O O1 0.252073 0.176220 0.149883
O O2 0.000000 0.123889 0.110517
O O3 0.209375 0.000000 0.121952
O O4 0.226417 0.128960 0.037891
O O5 0.500000 0.126664 0.392519
O O6 0.719941 0.131171 0.468535
O O7 0.759790 0.175069 0.357296
O O8 0.707008 0.000000 0.385629
O O9 0.500000 0.258813 0.138523
O O10 0.291334 0.342979 0.197992
O O11 0.266038 0.325210 0.083610
O O12 0.767883 0.500000 0.454529
O O13 0.771667 0.323365 0.423377
O O14 0.000000 0.400228 0.472289
O O15 0.500000 0.125637 0.776377
O O16 0.230450 0.155763 0.809179
O O17 0.294853 0.000000 0.755348
O O18 0.500000 0.599417 0.038738
O O19 0.734556 0.500000 0.049721
O O20 0.000000 0.226749 0.856724
#
# Coordination Sequence:
#
# PCOD8178317 Si02
#       7
#     8   8   8   8   8   8   8
#     4   9  18  33  52  74 103 137 168 201 248 306
#     4   9  18  33  53  77 106 138 170 207 254 308
#     4  10  19  32  53  78 102 131 169 212 254 296
#     4   8  15  29  49  74 104 136 167 201 249 307
#     4  10  22  39  56  75 102 136 172 209 251 302
#     4   8  14  27  50  79 107 134 165 203 250 304
#     4  11  21  33  53  78 104 136 174 216 258 300
#
# _framework density 18.893456
#
# number of rings (size 3 to 8) (size 9 to 14) (size 15 to 20)
#    0.000    2.714    0.000    3.857    0.000    3.714 
#    0.000    1.429    0.000    4.714    0.000    0.000 
#    0.000    0.000    0.000    0.000    0.000    0.000 
#
# Total GULP energy -347116.026115 kJ/mol
# GULP energy per Si atom -12397.000933 kJ/mol
# Density = 1.885045 g / cm^3
# Si number density = 18.893456 Si / 1000 Ang^3
#
#
#
# Elastic Constant Matrix: (Units=GPa)
#
#
# Indices 1 2 3 4 5 6 
#
# 1 51.8482 59.5401 38.9813 0.0000 0.0000 0.0000
# 2 59.5401 153.9829 67.5530 0.0000 0.0000 0.0000
# 3 38.9813 67.5530 67.0692 0.0000 0.0000 0.0000
# 4 0.0000 0.0000 0.0000 32.7978 0.0000 0.0000
# 5 0.0000 0.0000 0.0000 0.0000 24.5471 0.0000
# 6 0.0000 0.0000 0.0000 0.0000 0.0000 26.6617
#
#
#
# Elastic Compliance Matrix: (Units=1/GPa)
#
#
# Indices 1 2 3 4 5 6 
#
# 1 0.040971 -0.009667 -0.014076 0.000000 0.000000 0.000000
# 2 -0.009667 0.013916 -0.008398 0.000000 0.000000 0.000000
# 3 -0.014076 -0.008398 0.031550 0.000000 0.000000 0.000000
# 4 0.000000 0.000000 0.000000 0.030490 0.000000 0.000000
# 5 0.000000 0.000000 0.000000 0.000000 0.040738 0.000000
# 6 0.000000 0.000000 0.000000 0.000000 0.000000 0.037507
#
#
# Mechanical properties :
#
#
# Convention : Reuss Voigt Hill
#
# Bulk Modulus (GPa) = 45.13695 67.22768 56.18232
# Shear Modulus (GPa) = 18.73778 23.92304 21.33041
#
# Velocity S-wave (km/s) = 3.15264 3.56224 3.36368
# Velocity P-wave (km/s) = 6.09871 7.25115 6.69976
#
# Compressibility (1/GPa) = 0.02215480
#
# Stress axis : x y z
#
# Youngs Moduli (GPa) = 24.40746 71.85720 31.69548
#
# Poissons Ratio (x) = 0.69463 0.44615
# Poissons Ratio (y) = 0.23594 0.26619
# Poissons Ratio (z) = 0.34357 0.60349
#
# Static dielectric constant tensor:
#      x y z
#    x 3.042740 0.000000 0.000000 
#    y 0.000000 3.621170 0.000000 
#    z 0.000000 0.000000 3.444230 
# 
# 
# High freq. dielectric constant tensor:
#      x y z
#    x 1.700510 0.000000 0.000000 
#    y 0.000000 1.749620 0.000000 
#    z 0.000000 0.000000 1.718480 
# 
# From -- ./inp_files/19817.got.cif
#   From: 2010.03.12/outbox.cif.g09.slc.cpg/sg38_10_cif.got.tgz:19817.got - 2010.04.14 02:38:36.
