data_PCOD8178243
_publ_section_title
;
Structure prediction by ZEFSAII (Michael W. Deem and Ramdas Pophale) SiO2 
 PCOD8178243
Probable space group: A M M 2
;
_chemical_formula_sum "Si O2"
_cell_formula_units_Z 52
_cell_length_a 12.316592
_cell_length_b 13.282055
_cell_length_c 18.114084
_cell_angle_alpha 90.000000
_cell_angle_beta 90.000000
_cell_angle_gamma 90.000000
_cell_volume 2963.276704
_symmetry_space_group_name_H-M "A M M 2"
_symmetry_group_IT_number 38
_symmetry_cell_setting 'orthorhombic'
loop_
_space_group_symop_operation_xyz
x,y,z
-x,-y,z
-x,y,z
x,-y,z
x,1/2+y,1/2+z
-x,1/2-y,1/2+z
-x,1/2+y,1/2+z
x,1/2-y,1/2+z
loop_
_atom_site_type_symbol
_atom_site_label
_atom_site_fract_x
_atom_site_fract_y
_atom_site_fract_z
Si Si1 0.500000 0.326357 0.667450
Si Si2 0.500000 0.889831 0.325520
Si Si3 0.264455 0.620432 0.513497
Si Si4 0.500000 0.110138 0.008688
Si Si5 0.125358 0.884146 0.731869
Si Si6 0.263850 0.880516 0.323471
Si Si7 0.126518 0.285721 0.386907
Si Si8 0.735250 0.782909 0.168882
O O1 0.500000 0.400653 0.736879
O O2 0.500000 0.399707 0.597483
O O3 0.606978 0.255557 0.667984
O O4 0.384967 0.838464 0.347234
O O5 0.500000 0.000000 0.360999
O O6 0.267409 0.500000 0.516945
O O7 0.384743 0.662578 0.487383
O O8 0.174696 0.657603 0.456983
O O9 0.230881 0.661142 0.593875
O O10 0.500000 0.000000 0.972644
O O11 0.151617 0.854077 0.815881
O O12 0.197854 0.820456 0.675105
O O13 0.000000 0.863006 0.713589
O O14 0.155944 0.000000 0.720811
O O15 0.179197 0.824612 0.376749
O O16 0.237275 0.855238 0.238215
O O17 0.254338 0.000000 0.335132
O O18 0.000000 0.270198 0.400646
#
# Coordination Sequence:
#
# PCOD8178243 Si02
#       8
#     4   4   8   4   8   8   8   8
#     4   8  13  24  43  70 104 128 142 180 236 290
#     4   8  13  23  45  74  97 122 156 190 231 283
#     4  10  19  32  51  74 100 126 156 197 240 284
#     4   8  15  27  45  70  97 126 154 184 235 291
#     4   9  18  34  52  67  90 127 166 200 234 278
#     4   9  17  31  51  74 100 127 157 196 239 284
#     4  10  21  34  48  68  96 132 168 197 236 288
#     4   9  17  30  51  77  99 122 156 194 238 286
#
# _framework density 17.548141999999999
#
# number of rings (size 3 to 8) (size 9 to 14) (size 15 to 20)
#    0.000    2.923    0.000    1.154    0.000    6.154 
#    0.000    1.923    0.000    2.769    0.000    1.077 
#    0.000    0.000    0.000    0.000    0.000    0.000 
#
# Total GULP energy -322124.649297 kJ/mol
# GULP energy per Si atom -12389.409588 kJ/mol
# Density = 1.750820 g / cm^3
# Si number density = 17.548142 Si / 1000 Ang^3
#
#
#
# Elastic Constant Matrix: (Units=GPa)
#
#
# Indices 1 2 3 4 5 6 
#
# 1 122.4955 60.0829 50.8988 0.0000 0.0000 0.0000
# 2 60.0829 102.4043 37.3594 0.0000 0.0000 0.0000
# 3 50.8988 37.3594 68.0460 0.0000 0.0000 0.0000
# 4 0.0000 0.0000 0.0000 22.2654 0.0000 0.0000
# 5 0.0000 0.0000 0.0000 0.0000 28.6691 0.0000
# 6 0.0000 0.0000 0.0000 0.0000 0.0000 26.8139
#
#
#
# Elastic Compliance Matrix: (Units=1/GPa)
#
#
# Indices 1 2 3 4 5 6 
#
# 1 0.013925 -0.005465 -0.007416 0.000000 0.000000 0.000000
# 2 -0.005465 0.014356 -0.003794 0.000000 0.000000 0.000000
# 3 -0.007416 -0.003794 0.022326 0.000000 0.000000 0.000000
# 4 0.000000 0.000000 0.000000 0.044913 0.000000 0.000000
# 5 0.000000 0.000000 0.000000 0.000000 0.034881 0.000000
# 6 0.000000 0.000000 0.000000 0.000000 0.000000 0.037294
#
#
# Mechanical properties :
#
#
# Convention : Reuss Voigt Hill
#
# Bulk Modulus (GPa) = 57.94511 65.51421 61.72966
# Shear Modulus (GPa) = 24.17828 25.18999 24.68413
#
# Velocity S-wave (km/s) = 3.71593 3.79288 3.75461
# Velocity P-wave (km/s) = 7.17657 7.52305 7.35185
#
# Compressibility (1/GPa) = 0.01725771
#
# Stress axis : x y z
#
# Youngs Moduli (GPa) = 71.81081 69.65868 44.79053
#
# Poissons Ratio (x) = 0.38068 0.33216
# Poissons Ratio (y) = 0.39244 0.16993
# Poissons Ratio (z) = 0.53255 0.26428
#
# Static dielectric constant tensor:
#      x y z
#    x 3.565560 0.000000 0.000000 
#    y 0.000000 3.010660 0.000000 
#    z 0.000000 0.000000 3.013680 
# 
# 
# High freq. dielectric constant tensor:
#      x y z
#    x 1.692380 0.000000 0.000000 
#    y 0.000000 1.652650 0.000000 
#    z 0.000000 0.000000 1.655390 
# 
# From -- ./inp_files/17787.got.cif
#   From: 2010.03.12/outbox.cif.g09.slc.cpg/sg38_9_cif.got.tgz:17787.got - 2010.04.14 02:38:36.
