data_PCOD8178278
_publ_section_title
;
Structure prediction by ZEFSAII (Michael W. Deem and Ramdas Pophale) SiO2 
 PCOD8178278
Probable space group: A M M 2
;
_chemical_formula_sum "Si O2"
_cell_formula_units_Z 48
_cell_length_a 15.948241
_cell_length_b 20.101559
_cell_length_c 8.485187
_cell_angle_alpha 90.000000
_cell_angle_beta 90.000000
_cell_angle_gamma 90.000000
_cell_volume 2720.219495
_symmetry_space_group_name_H-M "A M M 2"
_symmetry_group_IT_number 38
_symmetry_cell_setting 'orthorhombic'
loop_
_space_group_symop_operation_xyz
x,y,z
-x,-y,z
-x,y,z
x,-y,z
x,1/2+y,1/2+z
-x,1/2-y,1/2+z
-x,1/2+y,1/2+z
x,1/2-y,1/2+z
loop_
_atom_site_type_symbol
_atom_site_label
_atom_site_fract_x
_atom_site_fract_y
_atom_site_fract_z
Si Si1 0.347667 0.724772 0.510000
Si Si2 0.256172 0.673595 0.798849
Si Si3 0.407996 0.843047 0.713840
Si Si4 0.741881 0.578305 0.074150
Si Si5 0.092170 0.727288 0.856852
Si Si6 0.906380 0.348470 0.170668
O O1 0.308451 0.673988 0.637987
O O2 0.276675 0.762166 0.408383
O O3 0.402995 0.779829 0.598184
O O4 0.404338 0.680843 0.394791
O O5 0.158079 0.682196 0.759107
O O6 0.271515 0.606105 0.897048
O O7 0.500000 0.875878 0.687818
O O8 0.333567 0.895238 0.683320
O O9 0.736481 0.500000 0.065737
O O10 0.832481 0.597955 0.147420
O O11 0.106613 0.806995 0.832481
O O12 0.000000 0.707631 0.793775
O O13 0.101363 0.709711 0.040472
O O14 0.000000 0.382149 0.164764
#
# Coordination Sequence:
#
# PCOD8178278 Si02
#       6
#     8   8   8   8   8   8
#     4   9  17  30  51  76  96 116 148 197 256 299
#     4   9  16  29  48  70  99 127 155 196 242 288
#     4  10  19  32  52  75  98 122 153 198 248 296
#     4  10  21  34  47  66  96 137 174 197 226 273
#     4   9  15  24  42  70  97 119 149 191 242 285
#     4   9  17  29  48  73  98 123 154 197 243 287
#
# _framework density 17.645636
#
# number of rings (size 3 to 8) (size 9 to 14) (size 15 to 20)
#    0.000    2.667    0.000    4.500    0.000    0.667 
#    0.000    1.667    0.000    0.000    0.000    0.000 
#    0.000   14.667    0.000    0.000    0.000    0.000 
#
# Total GULP energy -297395.686983 kJ/mol
# GULP energy per Si atom -12391.486958 kJ/mol
# Density = 1.760547 g / cm^3
# Si number density = 17.645636 Si / 1000 Ang^3
#
#
#
# Elastic Constant Matrix: (Units=GPa)
#
#
# Indices 1 2 3 4 5 6 
#
# 1 131.2618 46.8803 37.1829 0.0000 0.0000 0.0000
# 2 46.8803 95.4370 33.1965 0.0000 0.0000 0.0000
# 3 37.1829 33.1965 72.0961 0.0000 0.0000 0.0000
# 4 0.0000 0.0000 0.0000 15.9351 0.0000 0.0000
# 5 0.0000 0.0000 0.0000 0.0000 17.5509 0.0000
# 6 0.0000 0.0000 0.0000 0.0000 0.0000 12.8116
#
#
#
# Elastic Compliance Matrix: (Units=1/GPa)
#
#
# Indices 1 2 3 4 5 6 
#
# 1 0.009897 -0.003675 -0.003412 0.000000 0.000000 0.000000
# 2 -0.003675 0.013841 -0.004478 0.000000 0.000000 0.000000
# 3 -0.003412 -0.004478 0.017692 0.000000 0.000000 0.000000
# 4 0.000000 0.000000 0.000000 0.062755 0.000000 0.000000
# 5 0.000000 0.000000 0.000000 0.000000 0.056977 0.000000
# 6 0.000000 0.000000 0.000000 0.000000 0.000000 0.078054
#
#
# Mechanical properties :
#
#
# Convention : Reuss Voigt Hill
#
# Bulk Modulus (GPa) = 54.64382 59.25715 56.95048
# Shear Modulus (GPa) = 18.62571 21.36188 19.99380
#
# Velocity S-wave (km/s) = 3.25244 3.48315 3.36977
# Velocity P-wave (km/s) = 6.71856 7.05911 6.89094
#
# Compressibility (1/GPa) = 0.01830033
#
# Stress axis : x y z
#
# Youngs Moduli (GPa) = 101.03576 72.25037 56.52253
#
# Poissons Ratio (x) = 0.26551 0.19288
# Poissons Ratio (y) = 0.37129 0.25309
# Poissons Ratio (z) = 0.34478 0.32352
#
# Static dielectric constant tensor:
#      x y z
#    x 3.481670 0.000000 0.000000 
#    y 0.000000 2.784160 0.000000 
#    z 0.000000 0.000000 3.322140 
# 
# 
# High freq. dielectric constant tensor:
#      x y z
#    x 1.702020 0.000000 0.000000 
#    y 0.000000 1.622660 0.000000 
#    z 0.000000 0.000000 1.678300 
# 
# From -- ./inp_files/5579.got.cif
#   From: 2010.03.12/outbox.cif.g09.slc.cpg/sg38_3_cif.got.tgz:5579.got - 2010.04.14 02:38:36.
