data_PCOD8178255
_publ_section_title
;
Structure prediction by ZEFSAII (Michael W. Deem and Ramdas Pophale) SiO2 
 PCOD8178255
Probable space group: A M M 2
;
_chemical_formula_sum "Si O2"
_cell_formula_units_Z 48
_cell_length_a 9.259832
_cell_length_b 16.521530
_cell_length_c 18.474929
_cell_angle_alpha 90.000000
_cell_angle_beta 90.000000
_cell_angle_gamma 90.000000
_cell_volume 2826.416429
_symmetry_space_group_name_H-M "A M M 2"
_symmetry_group_IT_number 38
_symmetry_cell_setting 'orthorhombic'
loop_
_space_group_symop_operation_xyz
x,y,z
-x,-y,z
-x,y,z
x,-y,z
x,1/2+y,1/2+z
-x,1/2-y,1/2+z
-x,1/2+y,1/2+z
x,1/2-y,1/2+z
loop_
_atom_site_type_symbol
_atom_site_label
_atom_site_fract_x
_atom_site_fract_y
_atom_site_fract_z
Si Si1 0.165271 0.274978 0.465710
Si Si2 0.669954 0.806250 0.745107
Si Si3 0.170438 0.500000 0.863693
Si Si4 0.669678 0.092352 0.884570
Si Si5 0.828597 0.000000 0.523119
Si Si6 0.829346 0.336075 0.097025
Si Si7 0.166196 0.173826 0.324136
O O1 0.257983 0.354705 0.447950
O O2 0.212357 0.237125 0.542648
O O3 0.187394 0.205471 0.405774
O O4 0.000000 0.303108 0.468101
O O5 0.500000 0.800573 0.733520
O O6 0.711826 0.872793 0.805715
O O7 0.744937 0.828938 0.671111
O O8 0.729505 0.719379 0.769129
O O9 0.241546 0.500000 0.943263
O O10 0.216123 0.580332 0.820310
O O11 0.000000 0.500000 0.874877
O O12 0.500000 0.097510 0.896872
O O13 0.725156 0.000000 0.889318
O O14 0.774788 0.920424 0.564181
O O15 0.000000 0.000000 0.517810
O O16 0.000000 0.336381 0.111754
O O17 0.000000 0.185053 0.299612
#
# Coordination Sequence:
#
# PCOD8178255 Si02
#       7
#     8   8   4   8   4   8   8
#     4   9  17  30  51  76 100 126 160 205 247 289
#     4  10  21  34  49  70 102 138 168 199 243 293
#     4   9  14  26  53  81 101 124 157 200 247 295
#     4   9  19  35  52  70  96 131 168 205 245 290
#     4   9  16  28  49  79 107 128 153 194 247 297
#     4  10  19  32  51  76 105 132 161 198 243 295
#     4   9  16  30  52  76 100 128 164 202 244 292
#
# _framework density 16.982635999999999
#
# number of rings (size 3 to 8) (size 9 to 14) (size 15 to 20)
#    0.000    2.667    1.667    0.500    1.167    1.667 
#    0.000    0.417    1.833    1.000    0.000    0.000 
#    0.000    0.000    0.000    0.000    0.000    0.000 
#
# Total GULP energy -297565.712483 kJ/mol
# GULP energy per Si atom -12398.571353 kJ/mol
# Density = 1.694398 g / cm^3
# Si number density = 16.982636 Si / 1000 Ang^3
#
#
#
# Elastic Constant Matrix: (Units=GPa)
#
#
# Indices 1 2 3 4 5 6 
#
# 1 48.1426 46.0681 39.2352 0.0000 0.0000 0.0000
# 2 46.0681 157.6831 57.8686 0.0000 0.0000 0.0000
# 3 39.2352 57.8686 82.9844 0.0000 0.0000 0.0000
# 4 0.0000 0.0000 0.0000 14.7842 0.0000 0.0000
# 5 0.0000 0.0000 0.0000 0.0000 24.3882 0.0000
# 6 0.0000 0.0000 0.0000 0.0000 0.0000 17.7240
#
#
#
# Elastic Compliance Matrix: (Units=1/GPa)
#
#
# Indices 1 2 3 4 5 6 
#
# 1 0.037581 -0.005992 -0.013590 0.000000 0.000000 0.000000
# 2 -0.005992 0.009478 -0.003777 0.000000 0.000000 0.000000
# 3 -0.013590 -0.003777 0.021109 0.000000 0.000000 0.000000
# 4 0.000000 0.000000 0.000000 0.067640 0.000000 0.000000
# 5 0.000000 0.000000 0.000000 0.000000 0.041003 0.000000
# 6 0.000000 0.000000 0.000000 0.000000 0.000000 0.056421
#
#
# Mechanical properties :
#
#
# Convention : Reuss Voigt Hill
#
# Bulk Modulus (GPa) = 46.61646 63.90596 55.26121
# Shear Modulus (GPa) = 17.41552 21.08851 19.25202
#
# Velocity S-wave (km/s) = 3.20580 3.52770 3.37059
# Velocity P-wave (km/s) = 6.41965 7.36917 6.91074
#
# Compressibility (1/GPa) = 0.02145165
#
# Stress axis : x y z
#
# Youngs Moduli (GPa) = 26.60924 105.50211 47.37246
#
# Poissons Ratio (x) = 0.63219 0.64378
# Poissons Ratio (y) = 0.15945 0.17891
# Poissons Ratio (z) = 0.36161 0.39844
#
# Static dielectric constant tensor:
#      x y z
#    x 2.976680 0.000000 0.000000 
#    y 0.000000 3.406240 0.000000 
#    z 0.000000 0.000000 3.063840 
# 
# 
# High freq. dielectric constant tensor:
#      x y z
#    x 1.634570 0.000000 0.000000 
#    y 0.000000 1.660560 0.000000 
#    z 0.000000 0.000000 1.641790 
# 
# From -- ./inp_files/12090.got.cif
#   From: 2010.03.12/outbox.cif.g09.slc.cpg/sg38_7_cif.got.tgz:12090.got - 2010.04.14 02:38:36.
