data_PCOD8178477
_publ_section_title
;
Structure prediction by ZEFSAII (Michael W. Deem and Ramdas Pophale) SiO2 
 PCOD8178477
Probable space group: A M M 2
;
_chemical_formula_sum "Si O2"
_cell_formula_units_Z 48
_cell_length_a 15.590083
_cell_length_b 8.684931
_cell_length_c 17.986189
_cell_angle_alpha 90.000000
_cell_angle_beta 90.000000
_cell_angle_gamma 90.000000
_cell_volume 2435.308320
_symmetry_space_group_name_H-M "A M M 2"
_symmetry_group_IT_number 38
_symmetry_cell_setting 'orthorhombic'
loop_
_space_group_symop_operation_xyz
x,y,z
-x,-y,z
-x,y,z
x,-y,z
x,1/2+y,1/2+z
-x,1/2-y,1/2+z
-x,1/2+y,1/2+z
x,1/2-y,1/2+z
loop_
_atom_site_type_symbol
_atom_site_label
_atom_site_fract_x
_atom_site_fract_y
_atom_site_fract_z
Si Si1 0.835583 0.681523 0.309480
Si Si2 0.327673 0.180682 0.387317
Si Si3 0.000000 0.683520 0.057046
Si Si4 0.167101 0.683302 0.140676
Si Si5 0.500000 0.321759 0.800201
Si Si6 0.000000 0.817815 0.388870
Si Si7 0.333725 0.183192 0.556880
Si Si8 0.500000 0.318017 0.140042
O O1 0.849197 0.500000 0.312160
O O2 0.747360 0.725031 0.348638
O O3 0.832021 0.742712 0.225080
O O4 0.915177 0.760236 0.348982
O O5 0.416891 0.221272 0.348072
O O6 0.334458 0.238511 0.471917
O O7 0.306343 0.000000 0.383113
O O8 0.916737 0.748551 0.099353
O O9 0.000000 0.500000 0.058155
O O10 0.000000 0.745714 0.973010
O O11 0.167812 0.500000 0.138520
O O12 0.249876 0.749627 0.097960
O O13 0.500000 0.500000 0.778141
O O14 0.500000 0.222446 0.726199
O O15 0.000000 0.000000 0.388449
O O16 0.416408 0.251321 0.599362
O O17 0.334717 0.000000 0.560339
O O18 0.500000 0.500000 0.131967
#
# Coordination Sequence:
#
# PCOD8178477 Si02
#       8
#     8   8   4   8   4   4   8   4
#     4  11  22  36  56  83 113 142 176 224 278 327
#     4  10  20  36  57  80 109 145 184 226 271 323
#     4   9  17  31  53  77  98 129 176 220 256 303
#     4   9  17  30  50  76 103 132 171 220 266 307
#     4  10  21  35  53  81 115 146 176 220 282 336
#     4  11  22  37  59  83 108 143 184 224 268 323
#     4   9  17  31  53  78 101 133 183 230 260 301
#     4  10  19  33  55  79 103 138 186 230 264 310
#
# _framework density 19.710031000000001
#
# number of rings (size 3 to 8) (size 9 to 14) (size 15 to 20)
#    0.000    2.167    0.000    3.750    0.000    8.000 
#    0.000    0.833    0.000   17.000    0.000    0.000 
#    0.000    0.000    0.000    0.000    0.000    0.000 
#
# Total GULP energy -297656.424996 kJ/mol
# GULP energy per Si atom -12402.351042 kJ/mol
# Density = 1.966517 g / cm^3
# Si number density = 19.710031 Si / 1000 Ang^3
#
#
#
# Elastic Constant Matrix: (Units=GPa)
#
#
# Indices 1 2 3 4 5 6 
#
# 1 194.1112 20.4796 97.3493 0.0000 0.0000 0.0000
# 2 20.4796 26.0772 22.5115 0.0000 0.0000 0.0000
# 3 97.3493 22.5115 195.1570 0.0000 0.0000 0.0000
# 4 0.0000 0.0000 0.0000 28.4036 0.0000 0.0000
# 5 0.0000 0.0000 0.0000 0.0000 48.4429 0.0000
# 6 0.0000 0.0000 0.0000 0.0000 0.0000 24.1764
#
#
#
# Elastic Compliance Matrix: (Units=1/GPa)
#
#
# Indices 1 2 3 4 5 6 
#
# 1 0.007047 -0.002776 -0.003195 0.000000 0.000000 0.000000
# 2 -0.002776 0.043682 -0.003654 0.000000 0.000000 0.000000
# 3 -0.003195 -0.003654 0.007139 0.000000 0.000000 0.000000
# 4 0.000000 0.000000 0.000000 0.035207 0.000000 0.000000
# 5 0.000000 0.000000 0.000000 0.000000 0.020643 0.000000
# 6 0.000000 0.000000 0.000000 0.000000 0.000000 0.041363
#
#
# Mechanical properties :
#
#
# Convention : Reuss Voigt Hill
#
# Bulk Modulus (GPa) = 25.89443 77.33625 51.61534
# Shear Modulus (GPa) = 26.70885 38.53822 32.62354
#
# Velocity S-wave (km/s) = 3.68515 4.42663 4.07280
# Velocity P-wave (km/s) = 5.59225 8.09005 6.95421
#
# Compressibility (1/GPa) = 0.03861835
#
# Stress axis : x y z
#
# Youngs Moduli (GPa) = 141.90666 22.89255 140.07012
#
# Poissons Ratio (x) = 0.06355 0.44751
# Poissons Ratio (y) = 0.39396 0.51181
# Poissons Ratio (z) = 0.45338 0.08365
#
# Static dielectric constant tensor:
#      x y z
#    x 3.796770 0.000000 0.000000 
#    y 0.000000 3.101240 0.000000 
#    z 0.000000 0.000000 3.835420 
# 
# 
# High freq. dielectric constant tensor:
#      x y z
#    x 1.790920 0.000000 0.000000 
#    y 0.000000 1.719180 0.000000 
#    z 0.000000 0.000000 1.788680 
# 
# From -- ./inp_files/18228.got.cif
#   From: 2010.03.12/outbox.cif.g09.slc.cpg/sg38_10_cif.got.tgz:18228.got - 2010.04.14 02:38:36.
