data_PCOD8178075
_publ_section_title
;
Structure prediction by ZEFSAII (Michael W. Deem and Ramdas Pophale) SiO2 
 PCOD8178075
Probable space group: A M M 2
;
_chemical_formula_sum "Si O2"
_cell_formula_units_Z 64
_cell_length_a 13.695951
_cell_length_b 29.906394
_cell_length_c 9.535515
_cell_angle_alpha 90.000000
_cell_angle_beta 90.000000
_cell_angle_gamma 90.000000
_cell_volume 3905.713635
_symmetry_space_group_name_H-M "A M M 2"
_symmetry_group_IT_number 38
_symmetry_cell_setting 'orthorhombic'
loop_
_space_group_symop_operation_xyz
x,y,z
-x,-y,z
-x,y,z
x,-y,z
x,1/2+y,1/2+z
-x,1/2-y,1/2+z
-x,1/2+y,1/2+z
x,1/2-y,1/2+z
loop_
_atom_site_type_symbol
_atom_site_label
_atom_site_fract_x
_atom_site_fract_y
_atom_site_fract_z
Si Si1 0.113792 0.876297 0.490520
Si Si2 0.115887 0.292654 0.493744
Si Si3 0.609186 0.052212 0.179996
Si Si4 0.116057 0.290732 0.814357
Si Si5 0.262089 0.551104 0.435430
Si Si6 0.263897 0.051981 0.442911
Si Si7 0.114116 0.121208 0.818318
Si Si8 0.394440 0.449006 0.183079
O O1 0.150750 0.833994 0.401077
O O2 0.166053 0.919473 0.422778
O O3 0.136943 0.868822 0.655189
O O4 0.000000 0.884612 0.467465
O O5 0.157128 0.291468 0.653977
O O6 0.157508 0.251639 0.401032
O O7 0.149001 0.337387 0.413501
O O8 0.000000 0.289564 0.499602
O O9 0.500000 0.073698 0.165837
O O10 0.650276 0.061200 0.333360
O O11 0.600197 0.000000 0.146121
O O12 0.693709 0.071915 0.078363
O O13 0.000000 0.288405 0.808648
O O14 0.225032 0.500000 0.451726
O O15 0.171164 0.578098 0.374319
O O16 0.358117 0.554036 0.340443
O O17 0.311146 0.071710 0.585041
O O18 0.232391 0.000000 0.447627
O O19 0.000000 0.111286 0.839364
O O20 0.500000 0.424778 0.171148
O O21 0.406840 0.500000 0.133171
#
# Coordination Sequence:
#
# PCOD8178075 Si02
#       8
#     8   8   8   8   8   8   8   8
#     4  10  20  32  46  67  99 135 166 196 230 274
#     4   9  17  30  49  70  92 120 156 199 244 283
#     4   9  18  32  49  67  90 121 157 205 259 294
#     4   9  17  30  49  70  92 120 156 199 244 283
#     4  10  19  31  46  68  96 129 166 200 236 282
#     4  10  19  31  46  68  96 129 166 200 236 282
#     4  10  20  32  46  67  99 135 166 196 230 274
#     4   9  16  28  47  67  88 117 159 209 251 280
#
# _framework density 16.386251000000001
#
# number of rings (size 3 to 8) (size 9 to 14) (size 15 to 20)
#    0.000    2.500    1.250    1.500    1.750    6.500 
#    0.000    1.250    0.000    2.250    0.000    0.000 
#    0.000    6.000    0.000    0.000    0.000    0.000 
#
# Total GULP energy -396541.528640 kJ/mol
# GULP energy per Si atom -12391.922770 kJ/mol
# Density = 1.634895 g / cm^3
# Si number density = 16.386251 Si / 1000 Ang^3
#
#
#
# Elastic Constant Matrix: (Units=GPa)
#
#
# Indices 1 2 3 4 5 6 
#
# 1 57.3820 40.7094 24.7729 0.0000 0.0000 0.0000
# 2 40.7094 89.4331 45.0807 0.0000 0.0000 0.0000
# 3 24.7729 45.0807 97.4718 0.0000 0.0000 0.0000
# 4 0.0000 0.0000 0.0000 24.9654 0.0000 0.0000
# 5 0.0000 0.0000 0.0000 0.0000 15.7688 0.0000
# 6 0.0000 0.0000 0.0000 0.0000 0.0000 2.7063
#
#
#
# Elastic Compliance Matrix: (Units=1/GPa)
#
#
# Indices 1 2 3 4 5 6 
#
# 1 0.025900 -0.011047 -0.001473 0.000000 0.000000 0.000000
# 2 -0.011047 0.019293 -0.006115 0.000000 0.000000 0.000000
# 3 -0.001473 -0.006115 0.013462 0.000000 0.000000 0.000000
# 4 0.000000 0.000000 0.000000 0.040055 0.000000 0.000000
# 5 0.000000 0.000000 0.000000 0.000000 0.063416 0.000000
# 6 0.000000 0.000000 0.000000 0.000000 0.000000 0.369511
#
#
# Mechanical properties :
#
#
# Convention : Reuss Voigt Hill
#
# Bulk Modulus (GPa) = 46.76423 51.71253 49.23838
# Shear Modulus (GPa) = 8.68000 17.60303 13.14152
#
# Velocity S-wave (km/s) = 2.30405 3.28114 2.83501
# Velocity P-wave (km/s) = 5.97318 6.78097 6.38985
#
# Compressibility (1/GPa) = 0.02138386
#
# Stress axis : x y z
#
# Youngs Moduli (GPa) = 38.60941 51.83353 74.28243
#
# Poissons Ratio (x) = 0.57260 0.10945
# Poissons Ratio (y) = 0.42652 0.45425
# Poissons Ratio (z) = 0.05689 0.31697
#
# Static dielectric constant tensor:
#      x y z
#    x 2.883740 0.000000 0.000000 
#    y 0.000000 2.893350 0.000000 
#    z 0.000000 0.000000 3.326580 
# 
# 
# High freq. dielectric constant tensor:
#      x y z
#    x 1.600270 0.000000 0.000000 
#    y 0.000000 1.597200 0.000000 
#    z 0.000000 0.000000 1.652650 
# 
# From -- ./inp_files/5911.got.cif
#   From: 2010.03.12/outbox.cif.g09.slc.cpg/sg38_3_cif.got.tgz:5911.got - 2010.04.14 02:38:36.
