data_PCOD8178062
_publ_section_title
;
Structure prediction by ZEFSAII (Michael W. Deem and Ramdas Pophale) SiO2 
 PCOD8178062
Probable space group: A M M 2
;
_chemical_formula_sum "Si O2"
_cell_formula_units_Z 64
_cell_length_a 19.857564
_cell_length_b 8.940279
_cell_length_c 19.882856
_cell_angle_alpha 90.000000
_cell_angle_beta 90.000000
_cell_angle_gamma 90.000000
_cell_volume 3529.846421
_symmetry_space_group_name_H-M "A M M 2"
_symmetry_group_IT_number 38
_symmetry_cell_setting 'orthorhombic'
loop_
_space_group_symop_operation_xyz
x,y,z
-x,-y,z
-x,y,z
x,-y,z
x,1/2+y,1/2+z
-x,1/2-y,1/2+z
-x,1/2+y,1/2+z
x,1/2-y,1/2+z
loop_
_atom_site_type_symbol
_atom_site_label
_atom_site_fract_x
_atom_site_fract_y
_atom_site_fract_z
Si Si1 0.163325 0.173300 0.351700
Si Si2 0.324236 0.823750 0.669396
Si Si3 0.792203 0.828479 0.977811
Si Si4 0.074803 0.677617 0.729400
Si Si5 0.346615 0.175368 0.452306
Si Si6 0.421791 0.827691 0.064581
Si Si7 0.313115 0.171218 0.304508
Si Si8 0.186620 0.827634 0.128260
O O1 0.157714 0.268307 0.420152
O O2 0.105259 0.228441 0.301119
O O3 0.234279 0.202369 0.315378
O O4 0.155765 0.000000 0.371026
O O5 0.380977 0.756938 0.621709
O O6 0.341011 0.776512 0.745796
O O7 0.251219 0.766694 0.648504
O O8 0.326400 0.000000 0.662850
O O9 0.724425 0.732320 0.980570
O O10 0.773355 0.000000 0.962830
O O11 0.829455 0.811572 0.049256
O O12 0.071444 0.500000 0.727123
O O13 0.121917 0.734964 0.668558
O O14 0.000000 0.746698 0.721548
O O15 0.406483 0.258182 0.491317
O O16 0.353418 0.209370 0.372929
O O17 0.350169 0.000000 0.466893
O O18 0.500000 0.808206 0.080426
O O19 0.399619 0.000000 0.064163
O O20 0.325034 0.000000 0.283341
O O21 0.201158 0.000000 0.148005
#
# Coordination Sequence:
#
# PCOD8178062 Si02
#       8
#     8   8   8   8   8   8   8   8
#     4   9  17  31  52  77 106 139 179 231 279 328
#     4  12  23  34  56  86 113 146 188 235 280 328
#     4  10  19  30  51  79 109 143 178 224 278 328
#     4   9  17  32  55  79 104 144 195 236 279 339
#     4  10  20  35  57  84 111 143 181 227 276 327
#     4  11  24  41  60  82 113 152 187 226 281 339
#     4   9  18  34  55  80 112 144 178 225 279 328
#     4  10  19  34  54  78 109 145 185 234 282 330
#
# _framework density 18.131101999999998
#
# number of rings (size 3 to 8) (size 9 to 14) (size 15 to 20)
#    0.000    2.000    2.500    3.000    0.000    4.000 
#    0.000    1.250    0.000    3.000    0.000    0.000 
#    0.000    0.000    0.000    0.000    0.000    0.000 
#
# Total GULP energy -396837.049678 kJ/mol
# GULP energy per Si atom -12401.157802 kJ/mol
# Density = 1.808983 g / cm^3
# Si number density = 18.131102 Si / 1000 Ang^3
#
#
#
# Elastic Constant Matrix: (Units=GPa)
#
#
# Indices 1 2 3 4 5 6 
#
# 1 94.0613 50.8558 61.9426 0.0000 0.0000 0.0000
# 2 50.8558 106.2671 65.6386 0.0000 0.0000 0.0000
# 3 61.9426 65.6386 139.6590 0.0000 0.0000 0.0000
# 4 0.0000 0.0000 0.0000 32.7128 0.0000 0.0000
# 5 0.0000 0.0000 0.0000 0.0000 26.9399 0.0000
# 6 0.0000 0.0000 0.0000 0.0000 0.0000 14.7625
#
#
#
# Elastic Compliance Matrix: (Units=1/GPa)
#
#
# Indices 1 2 3 4 5 6 
#
# 1 0.016578 -0.004780 -0.005107 0.000000 0.000000 0.000000
# 2 -0.004780 0.014638 -0.004760 0.000000 0.000000 0.000000
# 3 -0.005107 -0.004760 0.011662 0.000000 0.000000 0.000000
# 4 0.000000 0.000000 0.000000 0.030569 0.000000 0.000000
# 5 0.000000 0.000000 0.000000 0.000000 0.037120 0.000000
# 6 0.000000 0.000000 0.000000 0.000000 0.000000 0.067739
#
#
# Mechanical properties :
#
#
# Convention : Reuss Voigt Hill
#
# Bulk Modulus (GPa) = 73.60285 77.42905 75.51595
# Shear Modulus (GPa) = 23.57083 25.65306 24.61194
#
# Velocity S-wave (km/s) = 3.60949 3.76555 3.68835
# Velocity P-wave (km/s) = 7.61933 7.85517 7.73815
#
# Compressibility (1/GPa) = 0.01358643
#
# Stress axis : x y z
#
# Youngs Moduli (GPa) = 60.31938 68.31758 85.74726
#
# Poissons Ratio (x) = 0.32653 0.43788
# Poissons Ratio (y) = 0.28831 0.40812
# Poissons Ratio (z) = 0.30803 0.32516
#
# Static dielectric constant tensor:
#      x y z
#    x 3.237010 0.000000 0.000000 
#    y 0.000000 3.304280 0.000000 
#    z 0.000000 0.000000 3.648220 
# 
# 
# High freq. dielectric constant tensor:
#      x y z
#    x 1.672310 0.000000 0.000000 
#    y 0.000000 1.694050 0.000000 
#    z 0.000000 0.000000 1.718750 
# 
# From -- ./inp_files/21407.got.cif
#   From: 2010.03.12/outbox.cif.g09.slc.cpg/sg38_11_cif.got.tgz:21407.got - 2010.04.14 02:38:36.
