data_PCOD8178769
_publ_section_title
;
Structure prediction by ZEFSAII (Michael W. Deem and Ramdas Pophale) SiO2 
 PCOD8178769
Probable space group: A M M 2
;
_chemical_formula_sum "Si O2"
_cell_formula_units_Z 48
_cell_length_a 8.543797
_cell_length_b 30.299584
_cell_length_c 9.127630
_cell_angle_alpha 90.000000
_cell_angle_beta 90.000000
_cell_angle_gamma 90.000000
_cell_volume 2362.901478
_symmetry_space_group_name_H-M "A M M 2"
_symmetry_group_IT_number 38
_symmetry_cell_setting 'orthorhombic'
loop_
_space_group_symop_operation_xyz
x,y,z
-x,-y,z
-x,y,z
x,-y,z
x,1/2+y,1/2+z
-x,1/2-y,1/2+z
-x,1/2+y,1/2+z
x,1/2-y,1/2+z
loop_
_atom_site_type_symbol
_atom_site_label
_atom_site_fract_x
_atom_site_fract_y
_atom_site_fract_z
Si Si1 0.681228 0.051193 0.514550
Si Si2 0.313922 0.704223 0.005387
Si Si3 0.685056 0.290786 0.340042
Si Si4 0.683574 0.375707 0.512340
Si Si5 0.181950 0.550303 0.322265
Si Si6 0.818537 0.875122 0.326989
O O1 0.500000 0.061670 0.487710
O O2 0.723949 0.066160 0.678989
O O3 0.782735 0.077227 0.395885
O O4 0.721675 0.000000 0.492911
O O5 0.500000 0.698195 0.991523
O O6 0.259814 0.709493 0.172765
O O7 0.250968 0.746852 0.918399
O O8 0.228639 0.661446 0.944427
O O9 0.500000 0.290667 0.353351
O O10 0.750777 0.334062 0.421605
O O11 0.500000 0.381625 0.487353
O O12 0.770232 0.419827 0.459476
O O13 0.717159 0.367651 0.682111
O O14 0.225114 0.500000 0.363118
O O15 0.000000 0.555348 0.287247
O O16 0.000000 0.871998 0.286769
#
# Coordination Sequence:
#
# PCOD8178769 Si02
#       6
#     8   8   8   8   8   8
#     4  10  21  39  63  88 113 148 196 243 287 343
#     4  10  19  37  62  87 115 148 190 236 287 349
#     4   9  19  35  61  90 114 146 189 239 289 341
#     4  11  22  38  60  86 116 154 200 244 287 340
#     4  10  21  38  60  88 122 156 189 232 289 347
#     4  12  25  39  56  83 118 155 194 241 299 350
#
# _framework density 20.314008000000001
#
# number of rings (size 3 to 8) (size 9 to 14) (size 15 to 20)
#    0.000    1.667    0.000    5.000    0.000    6.667 
#    0.000    5.000    0.000    0.000    0.000    0.000 
#    0.000    0.000    0.000    0.000    0.000    0.000 
#
# Total GULP energy -297754.729490 kJ/mol
# GULP energy per Si atom -12406.447062 kJ/mol
# Density = 2.026777 g / cm^3
# Si number density = 20.314008 Si / 1000 Ang^3
#
#
#
# Elastic Constant Matrix: (Units=GPa)
#
#
# Indices 1 2 3 4 5 6 
#
# 1 50.9539 29.5684 13.2132 0.0000 0.0000 0.0000
# 2 29.5684 114.0062 61.3234 0.0000 0.0000 0.0000
# 3 13.2132 61.3234 129.0773 0.0000 0.0000 0.0000
# 4 0.0000 0.0000 0.0000 43.9255 0.0000 0.0000
# 5 0.0000 0.0000 0.0000 0.0000 23.1290 0.0000
# 6 0.0000 0.0000 0.0000 0.0000 0.0000 23.4329
#
#
#
# Elastic Compliance Matrix: (Units=1/GPa)
#
#
# Indices 1 2 3 4 5 6 
#
# 1 0.023143 -0.006351 0.000648 0.000000 0.000000 0.000000
# 2 -0.006351 0.013525 -0.005776 0.000000 0.000000 0.000000
# 3 0.000648 -0.005776 0.010425 0.000000 0.000000 0.000000
# 4 0.000000 0.000000 0.000000 0.022766 0.000000 0.000000
# 5 0.000000 0.000000 0.000000 0.000000 0.043236 0.000000
# 6 0.000000 0.000000 0.000000 0.000000 0.000000 0.042675
#
#
# Mechanical properties :
#
#
# Convention : Reuss Voigt Hill
#
# Bulk Modulus (GPa) = 41.43122 55.80526 48.61824
# Shear Modulus (GPa) = 26.77062 30.75965 28.76513
#
# Velocity S-wave (km/s) = 3.63415 3.89550 3.76709
# Velocity P-wave (km/s) = 6.16839 6.91117 6.55031
#
# Compressibility (1/GPa) = 0.02413639
#
# Stress axis : x y z
#
# Youngs Moduli (GPa) = 43.20974 73.93550 95.92435
#
# Poissons Ratio (x) = 0.46956 -0.06218
# Poissons Ratio (y) = 0.27442 0.55402
# Poissons Ratio (z) = -0.02801 0.42702
#
# Static dielectric constant tensor:
#      x y z
#    x 3.445200 0.000000 0.000000 
#    y 0.000000 3.840510 0.000000 
#    z 0.000000 0.000000 3.665010 
# 
# 
# High freq. dielectric constant tensor:
#      x y z
#    x 1.777700 0.000000 0.000000 
#    y 0.000000 1.807320 0.000000 
#    z 0.000000 0.000000 1.799540 
# 
# From -- ./inp_files/3734.got.cif
#   From: 2010.03.12/outbox.cif.g09.slc.cpg/sg38_2_cif.got.tgz:3734.got - 2010.04.14 02:38:36.
