data_PCOD8178359
_publ_section_title
;
Structure prediction by ZEFSAII (Michael W. Deem and Ramdas Pophale) SiO2 
 PCOD8178359
Probable space group: A M M 2
;
_chemical_formula_sum "Si O2"
_cell_formula_units_Z 64
_cell_length_a 14.078504
_cell_length_b 9.129751
_cell_length_c 26.153137
_cell_angle_alpha 90.000000
_cell_angle_beta 90.000000
_cell_angle_gamma 90.000000
_cell_volume 3361.547329
_symmetry_space_group_name_H-M "A M M 2"
_symmetry_group_IT_number 38
_symmetry_cell_setting 'orthorhombic'
loop_
_space_group_symop_operation_xyz
x,y,z
-x,-y,z
-x,y,z
x,-y,z
x,1/2+y,1/2+z
-x,1/2-y,1/2+z
-x,1/2+y,1/2+z
x,1/2-y,1/2+z
loop_
_atom_site_type_symbol
_atom_site_label
_atom_site_fract_x
_atom_site_fract_y
_atom_site_fract_z
Si Si1 0.392813 0.325969 0.940660
Si Si2 0.296304 0.829215 0.337759
Si Si3 0.612226 0.668834 0.242640
Si Si4 0.612762 0.167790 0.141768
Si Si5 0.103752 0.172969 0.582931
Si Si6 0.112116 0.339011 0.194214
Si Si7 0.105411 0.668811 0.791544
Si Si8 0.300330 0.826749 0.544824
O O1 0.500000 0.265007 0.937567
O O2 0.392491 0.500000 0.941762
O O3 0.333912 0.268678 0.891909
O O4 0.343788 0.266166 0.992128
O O5 0.346400 0.740690 0.293246
O O6 0.181743 0.804702 0.336745
O O7 0.321965 0.000000 0.330805
O O8 0.500000 0.687969 0.245025
O O9 0.642580 0.500000 0.240063
O O10 0.653087 0.749012 0.191934
O O11 0.500000 0.177781 0.140778
O O12 0.650022 0.245744 0.091217
O O13 0.647530 0.000000 0.143239
O O14 0.134994 0.234215 0.638970
O O15 0.187253 0.211633 0.543186
O O16 0.000000 0.236286 0.565467
O O17 0.093139 0.000000 0.589759
O O18 0.158909 0.500000 0.198987
O O19 0.150463 0.242642 0.240979
O O20 0.000000 0.350787 0.199617
O O21 0.096378 0.500000 0.777978
O O22 0.000000 0.729445 0.807028
O O23 0.317158 0.000000 0.551443
#
# Coordination Sequence:
#
# PCOD8178359 Si02
#       8
#     8   8   8   8   8   8   8   8
#     4   9  18  33  53  76 102 135 178 224 268 315
#     4  10  20  34  53  75 102 140 180 216 262 318
#     4  10  21  36  54  78 106 134 168 215 267 317
#     4  10  21  36  53  76 108 141 169 206 264 327
#     4   8  15  28  46  72 105 136 169 212 259 305
#     4   8  14  26  44  65  93 131 168 202 248 306
#     4   9  18  31  46  69 102 135 171 216 260 304
#     4  10  19  32  54  80 104 136 180 223 259 303
#
# _framework density 19.038851000000001
#
# number of rings (size 3 to 8) (size 9 to 14) (size 15 to 20)
#    0.000    2.750    0.000    2.250    1.750    3.000 
#    0.000    1.250    0.000    6.375    0.000    0.000 
#    0.000    2.000    0.000    0.000    0.000    0.000 
#
# Total GULP energy -396619.873091 kJ/mol
# GULP energy per Si atom -12394.371034 kJ/mol
# Density = 1.899552 g / cm^3
# Si number density = 19.038851 Si / 1000 Ang^3
#
#
#
# Elastic Constant Matrix: (Units=GPa)
#
#
# Indices 1 2 3 4 5 6 
#
# 1 86.5101 28.2850 77.7590 0.0000 0.0000 0.0000
# 2 28.2850 62.9561 49.1668 0.0000 0.0000 0.0000
# 3 77.7590 49.1668 163.8530 0.0000 0.0000 0.0000
# 4 0.0000 0.0000 0.0000 23.3181 0.0000 0.0000
# 5 0.0000 0.0000 0.0000 0.0000 34.2469 0.0000
# 6 0.0000 0.0000 0.0000 0.0000 0.0000 15.2841
#
#
#
# Elastic Compliance Matrix: (Units=1/GPa)
#
#
# Indices 1 2 3 4 5 6 
#
# 1 0.020367 -0.002092 -0.009038 0.000000 0.000000 0.000000
# 2 -0.002092 0.020961 -0.005297 0.000000 0.000000 0.000000
# 3 -0.009038 -0.005297 0.011981 0.000000 0.000000 0.000000
# 4 0.000000 0.000000 0.000000 0.042885 0.000000 0.000000
# 5 0.000000 0.000000 0.000000 0.000000 0.029200 0.000000
# 6 0.000000 0.000000 0.000000 0.000000 0.000000 0.065428
#
#
# Mechanical properties :
#
#
# Convention : Reuss Voigt Hill
#
# Bulk Modulus (GPa) = 48.88628 69.30455 59.09542
# Shear Modulus (GPa) = 21.69265 25.11036 23.40150
#
# Velocity S-wave (km/s) = 3.37914 3.63561 3.50972
# Velocity P-wave (km/s) = 6.39982 7.35556 6.89427
#
# Compressibility (1/GPa) = 0.02045564
#
# Stress axis : x y z
#
# Youngs Moduli (GPa) = 49.09960 47.70847 83.46371
#
# Poissons Ratio (x) = 0.09983 0.75430
# Poissons Ratio (y) = 0.10274 0.44207
# Poissons Ratio (z) = 0.44374 0.25269
#
# Static dielectric constant tensor:
#      x y z
#    x 3.789280 0.000000 0.000000 
#    y 0.000000 3.327760 0.000000 
#    z 0.000000 0.000000 3.525020 
# 
# 
# High freq. dielectric constant tensor:
#      x y z
#    x 1.755890 0.000000 0.000000 
#    y 0.000000 1.705910 0.000000 
#    z 0.000000 0.000000 1.724910 
# 
# From -- ./inp_files/22965.got.cif
#   From: 2010.03.12/outbox.cif.g09.slc.cpg/sg38_12_cif.got.tgz:22965.got - 2010.04.14 02:38:36.
