data_PCOD8178829
_publ_section_title
;
Structure prediction by ZEFSAII (Michael W. Deem and Ramdas Pophale) SiO2 
 PCOD8178829
Probable space group: A M M 2
;
_chemical_formula_sum "Si O2"
_cell_formula_units_Z 48
_cell_length_a 9.218326
_cell_length_b 9.038005
_cell_length_c 31.591635
_cell_angle_alpha 90.000000
_cell_angle_beta 90.000000
_cell_angle_gamma 90.000000
_cell_volume 2632.065804
_symmetry_space_group_name_H-M "A M M 2"
_symmetry_group_IT_number 38
_symmetry_cell_setting 'orthorhombic'
loop_
_space_group_symop_operation_xyz
x,y,z
-x,-y,z
-x,y,z
x,-y,z
x,1/2+y,1/2+z
-x,1/2-y,1/2+z
-x,1/2+y,1/2+z
x,1/2-y,1/2+z
loop_
_atom_site_type_symbol
_atom_site_label
_atom_site_fract_x
_atom_site_fract_y
_atom_site_fract_z
Si Si1 0.328319 0.161531 0.527720
Si Si2 0.335510 0.676698 0.936225
Si Si3 0.336726 0.822762 0.618263
Si Si4 0.163477 0.176562 0.698544
Si Si5 0.336154 0.323831 0.279574
Si Si6 0.168547 0.827366 0.862176
O O1 0.500000 0.141535 0.529413
O O2 0.289527 0.240930 0.483010
O O3 0.282550 0.241173 0.572135
O O4 0.254131 0.000000 0.526930
O O5 0.500000 0.726507 0.924988
O O6 0.325927 0.500000 0.936585
O O7 0.223381 0.741838 0.903120
O O8 0.500000 0.769103 0.628423
O O9 0.232854 0.761746 0.655129
O O10 0.332932 0.000000 0.616294
O O11 0.254497 0.238674 0.738240
O O12 0.000000 0.236417 0.702045
O O13 0.166406 0.000000 0.698720
O O14 0.500000 0.262245 0.280058
O O15 0.335340 0.500000 0.278515
O O16 0.253553 0.266596 0.321244
O O17 0.000000 0.793996 0.855195
O O18 0.198515 0.000000 0.868984
#
# Coordination Sequence:
#
# PCOD8178829 Si02
#       6
#     8   8   8   8   8   8
#     4   7  11  21  37  56  78 105 137 173 211 249
#     4   9  17  30  48  68  89 115 149 187 224 262
#     4   8  12  19  32  49  71 102 137 167 198 244
#     4   9  15  21  30  48  76 106 134 167 208 253
#     4   9  16  26  40  56  75 104 142 179 215 257
#     4  10  20  32  45  63  89 119 149 183 224 267
#
# _framework density 18.236626999999999
#
# number of rings (size 3 to 8) (size 9 to 14) (size 15 to 20)
#    0.000    3.333    0.000    3.500    0.000    5.333 
#    0.000    0.833    0.000    3.000    0.000    0.000 
#    0.000    1.333    0.000    7.000    0.000   13.167 
#
# Total GULP energy -297325.829014 kJ/mol
# GULP energy per Si atom -12388.576209 kJ/mol
# Density = 1.819512 g / cm^3
# Si number density = 18.236627 Si / 1000 Ang^3
#
#
#
# Elastic Constant Matrix: (Units=GPa)
#
#
# Indices 1 2 3 4 5 6 
#
# 1 119.1285 13.4094 85.8020 0.0000 0.0000 0.0000
# 2 13.4094 8.2114 16.5775 0.0000 0.0000 0.0000
# 3 85.8020 16.5775 200.0351 0.0000 0.0000 0.0000
# 4 0.0000 0.0000 0.0000 14.3186 0.0000 0.0000
# 5 0.0000 0.0000 0.0000 0.0000 17.4223 0.0000
# 6 0.0000 0.0000 0.0000 0.0000 0.0000 12.5476
#
#
#
# Elastic Compliance Matrix: (Units=1/GPa)
#
#
# Indices 1 2 3 4 5 6 
#
# 1 0.013068 -0.012038 -0.004608 0.000000 0.000000 0.000000
# 2 -0.012038 0.157340 -0.007876 0.000000 0.000000 0.000000
# 3 -0.004608 -0.007876 0.007628 0.000000 0.000000 0.000000
# 4 0.000000 0.000000 0.000000 0.069839 0.000000 0.000000
# 5 0.000000 0.000000 0.000000 0.000000 0.057398 0.000000
# 6 0.000000 0.000000 0.000000 0.000000 0.000000 0.079697
#
#
# Mechanical properties :
#
#
# Convention : Reuss Voigt Hill
#
# Bulk Modulus (GPa) = 7.75236 62.10586 34.92911
# Shear Modulus (GPa) = 10.48196 22.96343 16.72269
#
# Velocity S-wave (km/s) = 2.40005 3.55236 3.03146
# Velocity P-wave (km/s) = 3.45551 7.13829 5.60784
#
# Compressibility (1/GPa) = 0.12899298
#
# Stress axis : x y z
#
# Youngs Moduli (GPa) = 76.52269 6.35568 131.09262
#
# Poissons Ratio (x) = 0.07651 0.60403
# Poissons Ratio (y) = 0.92119 1.03243
# Poissons Ratio (z) = 0.35259 0.05005
#
# Static dielectric constant tensor:
#      x y z
#    x 3.296150 0.000000 0.000000 
#    y 0.000000 2.566390 0.000000 
#    z 0.000000 0.000000 3.909320 
# 
# 
# High freq. dielectric constant tensor:
#      x y z
#    x 1.693250 0.000000 0.000000 
#    y 0.000000 1.616570 0.000000 
#    z 0.000000 0.000000 1.736840 
# 
# From -- ./inp_files/23341.got.cif
#   From: 2010.03.12/outbox.cif.g09.slc.cpg/sg38_12_cif.got.tgz:23341.got - 2010.04.14 02:38:36.
