data_PCOD8178283
_publ_section_title
;
Structure prediction by ZEFSAII (Michael W. Deem and Ramdas Pophale) SiO2 
 PCOD8178283
Probable space group: A M M 2
;
_chemical_formula_sum "Si O2"
_cell_formula_units_Z 40
_cell_length_a 11.670860
_cell_length_b 8.595662
_cell_length_c 20.619588
_cell_angle_alpha 90.000000
_cell_angle_beta 90.000000
_cell_angle_gamma 90.000000
_cell_volume 2068.531661
_symmetry_space_group_name_H-M "A M M 2"
_symmetry_group_IT_number 38
_symmetry_cell_setting 'orthorhombic'
loop_
_space_group_symop_operation_xyz
x,y,z
-x,-y,z
-x,y,z
x,-y,z
x,1/2+y,1/2+z
-x,1/2-y,1/2+z
-x,1/2+y,1/2+z
x,1/2-y,1/2+z
loop_
_atom_site_type_symbol
_atom_site_label
_atom_site_fract_x
_atom_site_fract_y
_atom_site_fract_z
Si Si1 0.127095 0.185183 0.038490
Si Si2 0.741218 0.185294 0.162867
Si Si3 0.259313 0.684119 0.412461
Si Si4 0.500000 0.315788 0.465980
Si Si5 0.500000 0.685237 0.613806
Si Si6 0.130715 0.184236 0.289863
O O1 0.190008 0.251810 0.101501
O O2 0.000000 0.253910 0.037692
O O3 0.127067 0.000000 0.040623
O O4 0.189674 0.243908 0.974399
O O5 0.610338 0.243940 0.154450
O O6 0.802048 0.252062 0.227273
O O7 0.744626 0.000000 0.164017
O O8 0.249995 0.500000 0.402925
O O9 0.389956 0.738669 0.424565
O O10 0.205434 0.766967 0.350951
O O11 0.500000 0.500000 0.473182
O O12 0.500000 0.247920 0.539740
O O13 0.500000 0.500000 0.608898
O O14 0.000000 0.250701 0.292833
O O15 0.124894 0.000000 0.286024
#
# Coordination Sequence:
#
# PCOD8178283 Si02
#       6
#     8   8   8   4   4   8
#     4   9  15  24  43  70  94 120 162 210 247 282
#     4   9  16  27  45  69  97 128 162 204 252 294
#     4  10  19  32  52  76 101 132 169 208 252 298
#     4   9  16  29  49  77 107 128 157 212 264 294
#     4   9  14  25  46  73 101 124 157 212 262 292
#     4  10  21  35  49  71 106 140 167 203 253 303
#
# _framework density 19.337389000000002
#
# number of rings (size 3 to 8) (size 9 to 14) (size 15 to 20)
#    0.000    2.600    2.000    1.200    0.000    4.400 
#    0.000    1.500    0.000    1.200    0.000    0.000 
#    0.000    0.000    0.000    0.000    0.000    0.000 
#
# Total GULP energy -247906.463856 kJ/mol
# GULP energy per Si atom -12395.323193 kJ/mol
# Density = 1.929338 g / cm^3
# Si number density = 19.337389 Si / 1000 Ang^3
#
#
#
# Elastic Constant Matrix: (Units=GPa)
#
#
# Indices 1 2 3 4 5 6 
#
# 1 216.5708 8.6287 104.4050 0.0000 0.0000 0.0000
# 2 8.6287 5.0102 7.8690 0.0000 0.0000 0.0000
# 3 104.4050 7.8690 181.0346 0.0000 0.0000 0.0000
# 4 0.0000 0.0000 0.0000 22.4160 0.0000 0.0000
# 5 0.0000 0.0000 0.0000 0.0000 42.1757 0.0000
# 6 0.0000 0.0000 0.0000 0.0000 0.0000 13.8181
#
#
#
# Elastic Compliance Matrix: (Units=1/GPa)
#
#
# Indices 1 2 3 4 5 6 
#
# 1 0.006546 -0.005736 -0.003526 0.000000 0.000000 0.000000
# 2 -0.005736 0.219245 -0.006222 0.000000 0.000000 0.000000
# 3 -0.003526 -0.006222 0.007828 0.000000 0.000000 0.000000
# 4 0.000000 0.000000 0.000000 0.044611 0.000000 0.000000
# 5 0.000000 0.000000 0.000000 0.000000 0.023710 0.000000
# 6 0.000000 0.000000 0.000000 0.000000 0.000000 0.072369
#
#
# Mechanical properties :
#
#
# Convention : Reuss Voigt Hill
#
# Bulk Modulus (GPa) = 4.93458 71.60230 38.26844
# Shear Modulus (GPa) = 10.57472 34.46281 22.51877
#
# Velocity S-wave (km/s) = 2.34103 4.22617 3.41621
# Velocity P-wave (km/s) = 3.14079 7.80528 5.94924
#
# Compressibility (1/GPa) = 0.20265162
#
# Stress axis : x y z
#
# Youngs Moduli (GPa) = 152.77469 4.56110 127.75434
#
# Poissons Ratio (x) = 0.02616 0.45041
# Poissons Ratio (y) = 0.87627 0.79489
# Poissons Ratio (z) = 0.53862 0.02838
#
# Static dielectric constant tensor:
#      x y z
#    x 4.026630 0.000000 0.000000 
#    y 0.000000 2.782090 0.000000 
#    z 0.000000 0.000000 3.664070 
# 
# 
# High freq. dielectric constant tensor:
#      x y z
#    x 1.776260 0.000000 0.000000 
#    y 0.000000 1.676640 0.000000 
#    z 0.000000 0.000000 1.761000 
# 
# From -- ./inp_files/20458.got.cif
#   From: 2010.03.12/outbox.cif.g09.slc.cpg/sg38_11_cif.got.tgz:20458.got - 2010.04.14 02:38:36.
