data_PCOD8178914
_publ_section_title
;
Structure prediction by ZEFSAII (Michael W. Deem and Ramdas Pophale) SiO2 
 PCOD8178914
Probable space group: A M M 2
;
_chemical_formula_sum "Si O2"
_cell_formula_units_Z 64
_cell_length_a 9.187090
_cell_length_b 31.938452
_cell_length_c 11.726620
_cell_angle_alpha 90.000000
_cell_angle_beta 90.000000
_cell_angle_gamma 90.000000
_cell_volume 3440.841644
_symmetry_space_group_name_H-M "A M M 2"
_symmetry_group_IT_number 38
_symmetry_cell_setting 'orthorhombic'
loop_
_space_group_symop_operation_xyz
x,y,z
-x,-y,z
-x,y,z
x,-y,z
x,1/2+y,1/2+z
-x,1/2-y,1/2+z
-x,1/2+y,1/2+z
x,1/2-y,1/2+z
loop_
_atom_site_type_symbol
_atom_site_label
_atom_site_fract_x
_atom_site_fract_y
_atom_site_fract_z
Si Si1 0.169145 0.872204 0.716410
Si Si2 0.831092 0.452666 0.079464
Si Si3 0.170544 0.647587 0.474393
Si Si4 0.839513 0.904510 0.183569
Si Si5 0.667904 0.187095 0.545373
Si Si6 0.331911 0.783113 0.108224
Si Si7 0.339169 0.049287 0.357914
Si Si8 0.163665 0.318271 0.813500
O O1 0.203058 0.920443 0.681839
O O2 0.211184 0.866862 0.848102
O O3 0.267534 0.840094 0.647545
O O4 0.000000 0.861680 0.694308
O O5 0.779993 0.500000 0.113349
O O6 0.000000 0.453003 0.048481
O O7 0.751457 0.435090 0.966979
O O8 0.213062 0.608990 0.557427
O O9 0.260244 0.688818 0.508894
O O10 0.000000 0.658317 0.488982
O O11 0.730177 0.937713 0.237590
O O12 0.842753 0.864060 0.262296
O O13 0.000000 0.924918 0.177640
O O14 0.500000 0.174870 0.528087
O O15 0.685827 0.235530 0.572928
O O16 0.755920 0.177210 0.432332
O O17 0.500000 0.796163 0.122185
O O18 0.251936 0.787926 0.229292
O O19 0.500000 0.068962 0.366547
O O20 0.345956 0.000000 0.359335
O O21 0.000000 0.300404 0.830247
#
# Coordination Sequence:
#
# PCOD8178914 Si02
#       8
#     8   8   8   8   8   8   8   8
#     4  10  21  37  57  83 111 144 188 232 274 328
#     4   9  18  34  56  81 111 145 180 224 279 331
#     4   9  20  38  57  79 108 143 185 228 271 327
#     4   9  18  34  54  76 103 135 174 219 266 320
#     4  11  24  37  53  80 113 144 179 225 274 327
#     4  10  22  38  55  77 108 143 180 224 275 327
#     4  10  20  32  50  79 111 140 175 221 270 324
#     4  10  21  37  57  79 103 135 178 223 269 319
#
# _framework density 18.600100000000001
#
# number of rings (size 3 to 8) (size 9 to 14) (size 15 to 20)
#    0.000    2.250    0.000    3.000    1.750    9.250 
#    0.000    0.625    0.000    2.250    0.000    1.750 
#    0.000    0.000    0.000    0.000    0.000    0.000 
#
# Total GULP energy -396820.538574 kJ/mol
# GULP energy per Si atom -12400.641830 kJ/mol
# Density = 1.855777 g / cm^3
# Si number density = 18.600100 Si / 1000 Ang^3
#
#
#
# Elastic Constant Matrix: (Units=GPa)
#
#
# Indices 1 2 3 4 5 6 
#
# 1 108.6892 40.8307 69.6473 0.0000 0.0000 0.0000
# 2 40.8307 55.6253 48.9482 0.0000 0.0000 0.0000
# 3 69.6473 48.9482 155.9337 0.0000 0.0000 0.0000
# 4 0.0000 0.0000 0.0000 3.3953 0.0000 0.0000
# 5 0.0000 0.0000 0.0000 0.0000 16.9761 0.0000
# 6 0.0000 0.0000 0.0000 0.0000 0.0000 24.4426
#
#
#
# Elastic Compliance Matrix: (Units=1/GPa)
#
#
# Indices 1 2 3 4 5 6 
#
# 1 0.014568 -0.006863 -0.004352 0.000000 0.000000 0.000000
# 2 -0.006863 0.028072 -0.005746 0.000000 0.000000 0.000000
# 3 -0.004352 -0.005746 0.010161 0.000000 0.000000 0.000000
# 4 0.000000 0.000000 0.000000 0.294529 0.000000 0.000000
# 5 0.000000 0.000000 0.000000 0.000000 0.058906 0.000000
# 6 0.000000 0.000000 0.000000 0.000000 0.000000 0.040912
#
#
# Mechanical properties :
#
#
# Convention : Reuss Voigt Hill
#
# Bulk Modulus (GPa) = 52.97608 71.01117 61.99362
# Shear Modulus (GPa) = 10.25927 19.68426 14.97176
#
# Velocity S-wave (km/s) = 2.35110 3.25666 2.84021
# Velocity P-wave (km/s) = 5.99280 7.23891 6.64513
#
# Compressibility (1/GPa) = 0.01887644
#
# Stress axis : x y z
#
# Youngs Moduli (GPa) = 68.64489 35.62274 98.41860
#
# Poissons Ratio (x) = 0.24449 0.42834
# Poissons Ratio (y) = 0.47114 0.56555
# Poissons Ratio (z) = 0.29875 0.20470
#
# Static dielectric constant tensor:
#      x y z
#    x 3.710120 0.000000 0.000000 
#    y 0.000000 3.369910 0.000000 
#    z 0.000000 0.000000 3.828260 
# 
# 
# High freq. dielectric constant tensor:
#      x y z
#    x 1.728400 0.000000 0.000000 
#    y 0.000000 1.714850 0.000000 
#    z 0.000000 0.000000 1.721840 
# 
# From -- ./inp_files/8578.got.cif
#   From: 2010.03.12/outbox.cif.g09.slc.cpg/sg38_5_cif.got.tgz:8578.got - 2010.04.14 02:38:36.
