data_PCOD8178101
_publ_section_title
;
Structure prediction by ZEFSAII (Michael W. Deem and Ramdas Pophale) SiO2 
 PCOD8178101
Probable space group: A M M 2
;
_chemical_formula_sum "Si O2"
_cell_formula_units_Z 64
_cell_length_a 24.503988
_cell_length_b 9.013313
_cell_length_c 15.338790
_cell_angle_alpha 90.000000
_cell_angle_beta 90.000000
_cell_angle_gamma 90.000000
_cell_volume 3387.757579
_symmetry_space_group_name_H-M "A M M 2"
_symmetry_group_IT_number 38
_symmetry_cell_setting 'orthorhombic'
loop_
_space_group_symop_operation_xyz
x,y,z
-x,-y,z
-x,y,z
x,-y,z
x,1/2+y,1/2+z
-x,1/2-y,1/2+z
-x,1/2+y,1/2+z
x,1/2-y,1/2+z
loop_
_atom_site_type_symbol
_atom_site_label
_atom_site_fract_x
_atom_site_fract_y
_atom_site_fract_z
Si Si1 0.062325 0.674696 0.783480
Si Si2 0.673904 0.178218 0.955669
Si Si3 0.937607 0.825541 0.960092
Si Si4 0.559733 0.165517 0.762787
Si Si5 0.868100 0.176883 0.121903
Si Si6 0.442684 0.334893 0.469443
Si Si7 0.745565 0.824001 0.115333
Si Si8 0.667968 0.324339 0.770555
O O1 0.068279 0.500000 0.794057
O O2 0.082855 0.749338 0.871990
O O3 0.100523 0.736857 0.706776
O O4 0.000000 0.719336 0.762266
O O5 0.615419 0.237757 0.995743
O O6 0.719461 0.231484 0.024161
O O7 0.685453 0.249421 0.861621
O O8 0.671891 0.000000 0.944632
O O9 0.000000 0.782323 0.981451
O O10 0.931088 0.000000 0.948578
O O11 0.899763 0.763586 0.037209
O O12 0.500000 0.221586 0.728594
O O13 0.558423 0.157813 0.865973
O O14 0.608269 0.275889 0.734862
O O15 0.571296 0.000000 0.726000
O O16 0.868505 0.000000 0.122001
O O17 0.806695 0.240560 0.121728
O O18 0.500000 0.252704 0.498880
O O19 0.444988 0.500000 0.508614
O O20 0.746506 0.000000 0.114534
O O21 0.711430 0.769397 0.198731
O O22 0.668217 0.500000 0.782862
#
# Coordination Sequence:
#
# PCOD8178101 Si02
#       8
#     8   8   8   8   8   8   8   8
#     4   9  17  30  50  75 100 127 160 198 244 297
#     4   9  17  32  51  67  88 124 165 197 232 287
#     4   9  17  30  50  75  99 124 159 203 246 287
#     4   8  14  27  48  71  94 124 160 193 234 294
#     4   9  17  31  50  69  94 131 169 201 236 285
#     4   7  10  19  39  64  83 103 139 183 220 260
#     4   9  19  33  48  69  97 130 168 204 237 282
#     4  10  19  31  48  72 100 125 154 200 251 287
#
# _framework density 18.891552000000001
#
# number of rings (size 3 to 8) (size 9 to 14) (size 15 to 20)
#    0.000    3.250    0.000    2.250    0.000    2.750 
#    0.000    2.500    0.000    8.250    0.000    0.000 
#    0.000    0.000    0.000    0.000    0.000    0.000 
#
# Total GULP energy -396459.035629 kJ/mol
# GULP energy per Si atom -12389.344863 kJ/mol
# Density = 1.884855 g / cm^3
# Si number density = 18.891552 Si / 1000 Ang^3
#
#
#
# Elastic Constant Matrix: (Units=GPa)
#
#
# Indices 1 2 3 4 5 6 
#
# 1 167.5408 27.7798 96.3276 0.0000 0.0000 0.0000
# 2 27.7798 29.4033 29.5988 0.0000 0.0000 0.0000
# 3 96.3276 29.5988 134.1153 0.0000 0.0000 0.0000
# 4 0.0000 0.0000 0.0000 23.1511 0.0000 0.0000
# 5 0.0000 0.0000 0.0000 0.0000 18.3760 0.0000
# 6 0.0000 0.0000 0.0000 0.0000 0.0000 16.8911
#
#
#
# Elastic Compliance Matrix: (Units=1/GPa)
#
#
# Indices 1 2 3 4 5 6 
#
# 1 0.010363 -0.002955 -0.006791 0.000000 0.000000 0.000000
# 2 -0.002955 0.044566 -0.007713 0.000000 0.000000 0.000000
# 3 -0.006791 -0.007713 0.014036 0.000000 0.000000 0.000000
# 4 0.000000 0.000000 0.000000 0.043194 0.000000 0.000000
# 5 0.000000 0.000000 0.000000 0.000000 0.054419 0.000000
# 6 0.000000 0.000000 0.000000 0.000000 0.000000 0.059203
#
#
# Mechanical properties :
#
#
# Convention : Reuss Voigt Hill
#
# Bulk Modulus (GPa) = 29.37116 70.94133 50.15625
# Shear Modulus (GPa) = 18.37902 23.50719 20.94311
#
# Velocity S-wave (km/s) = 3.12247 3.53132 3.33317
# Velocity P-wave (km/s) = 5.34610 7.36617 6.43588
#
# Compressibility (1/GPa) = 0.03404700
#
# Stress axis : x y z
#
# Youngs Moduli (GPa) = 96.49494 22.43861 71.24328
#
# Poissons Ratio (x) = 0.06630 0.48383
# Poissons Ratio (y) = 0.28510 0.54953
# Poissons Ratio (z) = 0.65532 0.17308
#
# Static dielectric constant tensor:
#      x y z
#    x 4.017440 0.000000 0.000000 
#    y 0.000000 3.016600 0.000000 
#    z 0.000000 0.000000 3.369670 
# 
# 
# High freq. dielectric constant tensor:
#      x y z
#    x 1.745550 0.000000 0.000000 
#    y 0.000000 1.684040 0.000000 
#    z 0.000000 0.000000 1.723960 
# 
# From -- ./inp_files/15765.got.cif
#   From: 2010.03.12/outbox.cif.g09.slc.cpg/sg38_8_cif.got.tgz:15765.got - 2010.04.14 02:38:36.
