data_PCOD8178810
_publ_section_title
;
Structure prediction by ZEFSAII (Michael W. Deem and Ramdas Pophale) SiO2 
 PCOD8178810
Probable space group: A M M 2
;
_chemical_formula_sum "Si O2"
_cell_formula_units_Z 64
_cell_length_a 9.309295
_cell_length_b 27.682443
_cell_length_c 14.653687
_cell_angle_alpha 90.000000
_cell_angle_beta 90.000000
_cell_angle_gamma 90.000000
_cell_volume 3776.314168
_symmetry_space_group_name_H-M "A M M 2"
_symmetry_group_IT_number 38
_symmetry_cell_setting 'orthorhombic'
loop_
_space_group_symop_operation_xyz
x,y,z
-x,-y,z
-x,y,z
x,-y,z
x,1/2+y,1/2+z
-x,1/2-y,1/2+z
-x,1/2+y,1/2+z
x,1/2-y,1/2+z
loop_
_atom_site_type_symbol
_atom_site_label
_atom_site_fract_x
_atom_site_fract_y
_atom_site_fract_z
Si Si1 0.665655 0.358054 0.147580
Si Si2 0.837600 0.781051 0.535894
Si Si3 0.668381 0.945412 0.525830
Si Si4 0.833651 0.224233 0.329656
Si Si5 0.831442 0.670299 0.518582
Si Si6 0.667700 0.822409 0.841377
Si Si7 0.831728 0.054947 0.343101
Si Si8 0.830158 0.136551 0.210229
O O1 0.500000 0.350367 0.125360
O O2 0.742067 0.312934 0.101478
O O3 0.717867 0.409384 0.106617
O O4 0.693357 0.358415 0.256221
O O5 0.818563 0.797464 0.431245
O O6 0.792301 0.725161 0.544933
O O7 0.000000 0.787878 0.569182
O O8 0.500000 0.941563 0.505741
O O9 0.750429 0.929645 0.434599
O O10 0.710811 0.000000 0.554808
O O11 0.738383 0.271455 0.316366
O O12 0.770834 0.184038 0.261306
O O13 0.000000 0.237820 0.310051
O O14 0.742291 0.653729 0.429964
O O15 0.784165 0.636709 0.603902
O O16 0.000000 0.665805 0.495631
O O17 0.500000 0.814592 0.861452
O O18 0.774666 0.088040 0.259703
O O19 0.000000 0.062747 0.361060
O O20 0.796419 0.000000 0.315840
O O21 0.000000 0.139165 0.217268
#
# Coordination Sequence:
#
# PCOD8178810 Si02
#       8
#     8   8   8   8   8   8   8   8
#     4  10  20  31  45  66  90 117 149 184 223 265
#     4   9  17  28  45  68  91 117 148 181 216 258
#     4   9  18  33  50  67  90 119 147 176 215 266
#     4   9  17  30  46  65  91 121 151 179 212 261
#     4   9  18  32  47  63  86 120 158 186 212 255
#     4  10  20  32  44  62  90 119 149 188 228 259
#     4   9  17  30  49  73  97 117 140 176 222 266
#     4   9  16  28  48  69  89 117 152 184 214 258
#
# _framework density 16.947742000000002
#
# number of rings (size 3 to 8) (size 9 to 14) (size 15 to 20)
#    0.000    2.750    0.000    2.625    0.000    5.500 
#    0.000    1.875    0.000    0.750    0.000    0.000 
#    0.000    0.000    0.000    0.000    0.000    0.000 
#
# Total GULP energy -396730.688359 kJ/mol
# GULP energy per Si atom -12397.834011 kJ/mol
# Density = 1.690917 g / cm^3
# Si number density = 16.947742 Si / 1000 Ang^3
#
#
#
# Elastic Constant Matrix: (Units=GPa)
#
#
# Indices 1 2 3 4 5 6 
#
# 1 49.9981 34.7284 47.7607 0.0000 0.0000 0.0000
# 2 34.7284 79.4400 73.5454 0.0000 0.0000 0.0000
# 3 47.7607 73.5454 136.5090 0.0000 0.0000 0.0000
# 4 0.0000 0.0000 0.0000 29.4800 0.0000 0.0000
# 5 0.0000 0.0000 0.0000 0.0000 26.0882 0.0000
# 6 0.0000 0.0000 0.0000 0.0000 0.0000 15.0760
#
#
#
# Elastic Compliance Matrix: (Units=1/GPa)
#
#
# Indices 1 2 3 4 5 6 
#
# 1 0.031995 -0.007229 -0.007299 0.000000 0.000000 0.000000
# 2 -0.007229 0.026749 -0.011882 0.000000 0.000000 0.000000
# 3 -0.007299 -0.011882 0.016281 0.000000 0.000000 0.000000
# 4 0.000000 0.000000 0.000000 0.033921 0.000000 0.000000
# 5 0.000000 0.000000 0.000000 0.000000 0.038332 0.000000
# 6 0.000000 0.000000 0.000000 0.000000 0.000000 0.066331
#
#
# Mechanical properties :
#
#
# Convention : Reuss Voigt Hill
#
# Bulk Modulus (GPa) = 45.03793 64.22401 54.63097
# Shear Modulus (GPa) = 18.25955 21.45633 19.85794
#
# Velocity S-wave (km/s) = 3.28594 3.56199 3.42675
# Velocity P-wave (km/s) = 6.40538 7.40909 6.92544
#
# Compressibility (1/GPa) = 0.02220351
#
# Stress axis : x y z
#
# Youngs Moduli (GPa) = 31.25504 37.38519 61.42266
#
# Poissons Ratio (x) = 0.27027 0.44834
# Poissons Ratio (y) = 0.22596 0.72980
# Poissons Ratio (z) = 0.22814 0.44420
#
# Static dielectric constant tensor:
#      x y z
#    x 3.045830 0.000000 0.000000 
#    y 0.000000 3.146760 0.000000 
#    z 0.000000 0.000000 3.391560 
# 
# 
# High freq. dielectric constant tensor:
#      x y z
#    x 1.638480 0.000000 0.000000 
#    y 0.000000 1.632340 0.000000 
#    z 0.000000 0.000000 1.657480 
# 
# From -- ./inp_files/13071.got.cif
#   From: 2010.03.12/outbox.cif.g09.slc.cpg/sg38_7_cif.got.tgz:13071.got - 2010.04.14 02:38:36.
