data_PCOD8178658
_publ_section_title
;
Structure prediction by ZEFSAII (Michael W. Deem and Ramdas Pophale) SiO2 
 PCOD8178658
Probable space group: A M M 2
;
_chemical_formula_sum "Si O2"
_cell_formula_units_Z 48
_cell_length_a 8.884278
_cell_length_b 16.501764
_cell_length_c 18.183884
_cell_angle_alpha 90.000000
_cell_angle_beta 90.000000
_cell_angle_gamma 90.000000
_cell_volume 2665.871205
_symmetry_space_group_name_H-M "A M M 2"
_symmetry_group_IT_number 38
_symmetry_cell_setting 'orthorhombic'
loop_
_space_group_symop_operation_xyz
x,y,z
-x,-y,z
-x,y,z
x,-y,z
x,1/2+y,1/2+z
-x,1/2-y,1/2+z
-x,1/2+y,1/2+z
x,1/2-y,1/2+z
loop_
_atom_site_type_symbol
_atom_site_label
_atom_site_fract_x
_atom_site_fract_y
_atom_site_fract_z
Si Si1 0.677773 0.666063 0.349930
Si Si2 0.822802 0.090974 0.287887
Si Si3 0.826335 0.500000 0.153624
Si Si4 0.822334 0.807509 0.429218
Si Si5 0.323126 0.653545 0.081430
Si Si6 0.828119 0.000000 0.827412
Si Si7 0.325519 0.268734 0.710953
O O1 0.500000 0.659135 0.356473
O O2 0.740538 0.722370 0.414996
O O3 0.747916 0.578156 0.361003
O O4 0.729551 0.703468 0.271651
O O5 0.775316 0.128132 0.366507
O O6 0.759202 0.146012 0.221646
O O7 0.000000 0.089186 0.279561
O O8 0.756493 0.000000 0.282107
O O9 0.739258 0.422353 0.125114
O O10 0.813524 0.500000 0.240459
O O11 0.000000 0.500000 0.127240
O O12 0.765958 0.842134 0.505893
O O13 0.000000 0.793787 0.431166
O O14 0.500000 0.642480 0.066965
O O15 0.291358 0.733841 0.130077
O O16 0.000000 0.000000 0.853233
O O17 0.500000 0.286080 0.722869
#
# Coordination Sequence:
#
# PCOD8178658 Si02
#       7
#     8   8   4   8   8   4   8
#     4  10  19  35  56  79 109 146 184 224 273 323
#     4   9  19  35  55  79 107 138 176 222 269 318
#     4  11  23  35  53  83 115 146 179 220 275 329
#     4  10  21  36  55  80 112 146 181 222 273 330
#     4  11  22  37  55  80 113 146 182 223 273 329
#     4  11  21  33  55  85 113 140 181 228 273 327
#     4   9  19  34  54  78 106 140 180 223 266 319
#
# _framework density 18.005371
#
# number of rings (size 3 to 8) (size 9 to 14) (size 15 to 20)
#    0.000    2.000    1.667    2.000    1.167    3.667 
#    0.000    0.000    1.833    0.000    0.000    0.000 
#    0.000    0.000    0.000    0.000    0.000    0.000 
#
# Total GULP energy -297662.810955 kJ/mol
# GULP energy per Si atom -12402.617123 kJ/mol
# Density = 1.796439 g / cm^3
# Si number density = 18.005371 Si / 1000 Ang^3
#
#
#
# Elastic Constant Matrix: (Units=GPa)
#
#
# Indices 1 2 3 4 5 6 
#
# 1 66.6940 45.0611 17.2268 0.0000 0.0000 0.0000
# 2 45.0611 144.7422 22.0919 0.0000 0.0000 0.0000
# 3 17.2268 22.0919 42.1227 0.0000 0.0000 0.0000
# 4 0.0000 0.0000 0.0000 -109.6827 0.0000 0.0000
# 5 0.0000 0.0000 0.0000 0.0000 28.6302 0.0000
# 6 0.0000 0.0000 0.0000 0.0000 0.0000 28.3731
#
#
#
# Elastic Compliance Matrix: (Units=1/GPa)
#
#
# Indices 1 2 3 4 5 6 
#
# 1 0.020039 -0.005422 -0.005352 0.000000 0.000000 0.000000
# 2 -0.005422 0.008977 -0.002491 0.000000 0.000000 0.000000
# 3 -0.005352 -0.002491 0.027235 0.000000 0.000000 0.000000
# 4 0.000000 0.000000 0.000000 -0.009117 0.000000 0.000000
# 5 0.000000 0.000000 0.000000 0.000000 0.034928 0.000000
# 6 0.000000 0.000000 0.000000 0.000000 0.000000 0.035245
#
#
# Mechanical properties :
#
#
# Convention : Reuss Voigt Hill
#
# Bulk Modulus (GPa) = 33.64436 46.92426 40.28431
# Shear Modulus (GPa) = 32.52168 0.74273 16.63220
#
# Velocity S-wave (km/s) = 4.25458 0.64296 3.04260
# Velocity P-wave (km/s) = 6.54687 5.16421 5.89621
#
# Compressibility (1/GPa) = 0.02972266
#
# Stress axis : x y z
#
# Youngs Moduli (GPa) = 49.90166 111.39687 36.71713
#
# Poissons Ratio (x) = 0.60397 0.19651
# Poissons Ratio (y) = 0.27056 0.09145
# Poissons Ratio (z) = 0.26707 0.27746
#
# Static dielectric constant tensor:
#      x y z
#    x 3.385470 0.000000 0.000000 
#    y 0.000000 3.560740 0.000000 
#    z 0.000000 0.000000 3.172820 
# 
# 
# High freq. dielectric constant tensor:
#      x y z
#    x 1.706880 0.000000 0.000000 
#    y 0.000000 1.701820 0.000000 
#    z 0.000000 0.000000 1.677170 
# 
# From -- ./inp_files/16662.got.cif
#   From: 2010.03.12/outbox.cif.g09.slc.cpg/sg38_9_cif.got.tgz:16662.got - 2010.04.14 02:38:36.
