data_PCOD8178106
_publ_section_title
;
Structure prediction by ZEFSAII (Michael W. Deem and Ramdas Pophale) SiO2 
 PCOD8178106
Probable space group: A M M 2
;
_chemical_formula_sum "Si O2"
_cell_formula_units_Z 48
_cell_length_a 15.748188
_cell_length_b 18.319288
_cell_length_c 9.269103
_cell_angle_alpha 90.000000
_cell_angle_beta 90.000000
_cell_angle_gamma 90.000000
_cell_volume 2674.095352
_symmetry_space_group_name_H-M "A M M 2"
_symmetry_group_IT_number 38
_symmetry_cell_setting 'orthorhombic'
loop_
_space_group_symop_operation_xyz
x,y,z
-x,-y,z
-x,y,z
x,-y,z
x,1/2+y,1/2+z
-x,1/2-y,1/2+z
-x,1/2+y,1/2+z
x,1/2-y,1/2+z
loop_
_atom_site_type_symbol
_atom_site_label
_atom_site_fract_x
_atom_site_fract_y
_atom_site_fract_z
Si Si1 0.500000 0.693044 0.538331
Si Si2 0.683384 0.317035 0.515533
Si Si3 0.316024 0.834261 0.350799
Si Si4 0.500000 0.833363 0.361693
Si Si5 0.000000 0.320585 0.819478
Si Si6 0.000000 0.332244 0.477507
Si Si7 0.844621 0.080777 0.332594
Si Si8 0.833779 0.081624 0.990879
O O1 0.413183 0.652639 0.487207
O O2 0.500000 0.775161 0.486644
O O3 0.500000 0.706442 0.708473
O O4 0.693838 0.237383 0.447832
O O5 0.699664 0.309960 0.686083
O O6 0.749948 0.373139 0.444160
O O7 0.408676 0.874915 0.372363
O O8 0.244498 0.891674 0.398601
O O9 0.000000 0.313829 0.646850
O O10 0.918402 0.363889 0.878535
O O11 0.000000 0.241011 0.886151
O O12 0.917485 0.378432 0.431336
O O13 0.839282 0.076181 0.161588
O O14 0.863601 0.000000 0.394879
O O15 0.828145 0.000000 0.924751
#
# Coordination Sequence:
#
# PCOD8178106 Si02
#       8
#     4   8   8   4   4   4   8   8
#     4   8  14  24  39  61  85 109 139 174 212 248
#     4   9  16  27  44  64  86 112 143 178 212 249
#     4   9  16  27  44  64  86 112 143 178 212 249
#     4   8  14  24  39  61  85 109 139 174 212 248
#     4  10  19  31  49  69  87 110 142 178 212 250
#     4  10  19  31  49  69  87 110 142 178 212 250
#     4   9  17  29  45  65  88 114 143 174 210 253
#     4   9  17  29  45  65  88 114 143 174 210 253
#
# _framework density 17.949995999999999
#
# number of rings (size 3 to 8) (size 9 to 14) (size 15 to 20)
#    0.000    3.000    0.000    1.500    0.000    2.000 
#    0.000    0.833    0.000   10.000    0.000    0.000 
#    0.000   13.333    0.000    0.000    0.000    0.000 
#
# Total GULP energy -297325.958955 kJ/mol
# GULP energy per Si atom -12388.581623 kJ/mol
# Density = 1.790914 g / cm^3
# Si number density = 17.949996 Si / 1000 Ang^3
#
#
#
# Elastic Constant Matrix: (Units=GPa)
#
#
# Indices 1 2 3 4 5 6 
#
# 1 130.0577 42.4685 8.3485 0.0000 0.0000 0.0000
# 2 42.4685 96.0051 9.1237 0.0000 0.0000 0.0000
# 3 8.3485 9.1237 16.7821 0.0000 0.0000 0.0000
# 4 0.0000 0.0000 0.0000 17.3522 0.0000 0.0000
# 5 0.0000 0.0000 0.0000 0.0000 14.8696 0.0000
# 6 0.0000 0.0000 0.0000 0.0000 0.0000 15.4500
#
#
#
# Elastic Compliance Matrix: (Units=1/GPa)
#
#
# Indices 1 2 3 4 5 6 
#
# 1 0.009082 -0.003784 -0.002461 0.000000 0.000000 0.000000
# 2 -0.003784 0.012560 -0.004946 0.000000 0.000000 0.000000
# 3 -0.002461 -0.004946 0.063500 0.000000 0.000000 0.000000
# 4 0.000000 0.000000 0.000000 0.057629 0.000000 0.000000
# 5 0.000000 0.000000 0.000000 0.000000 0.067251 0.000000
# 6 0.000000 0.000000 0.000000 0.000000 0.000000 0.064725
#
#
# Mechanical properties :
#
#
# Convention : Reuss Voigt Hill
#
# Bulk Modulus (GPa) = 15.93344 40.30292 28.11818
# Shear Modulus (GPa) = 15.72077 21.72798 18.72437
#
# Velocity S-wave (km/s) = 2.96262 3.48296 3.23327
# Velocity P-wave (km/s) = 4.53857 6.21903 5.44403
#
# Compressibility (1/GPa) = 0.06276107
#
# Stress axis : x y z
#
# Youngs Moduli (GPa) = 110.10287 79.61827 15.74792
#
# Poissons Ratio (x) = 0.30126 0.03876
# Poissons Ratio (y) = 0.41661 0.07789
# Poissons Ratio (z) = 0.27097 0.39379
#
# Static dielectric constant tensor:
#      x y z
#    x 3.990960 0.000000 0.000000 
#    y 0.000000 3.214600 0.000000 
#    z 0.000000 0.000000 2.956640 
# 
# 
# High freq. dielectric constant tensor:
#      x y z
#    x 1.726420 0.000000 0.000000 
#    y 0.000000 1.666860 0.000000 
#    z 0.000000 0.000000 1.652700 
# 
# From -- ./inp_files/6257.got.cif
#   From: 2010.03.12/outbox.cif.g09.slc.cpg/sg38_4_cif.got.tgz:6257.got - 2010.04.14 02:38:36.
