data_PCOD8178533
_publ_section_title
;
Structure prediction by ZEFSAII (Michael W. Deem and Ramdas Pophale) SiO2 
 PCOD8178533
Probable space group: A M M 2
;
_chemical_formula_sum "Si O2"
_cell_formula_units_Z 64
_cell_length_a 20.230876
_cell_length_b 18.439384
_cell_length_c 8.941930
_cell_angle_alpha 90.000000
_cell_angle_beta 90.000000
_cell_angle_gamma 90.000000
_cell_volume 3335.741304
_symmetry_space_group_name_H-M "A M M 2"
_symmetry_group_IT_number 38
_symmetry_cell_setting 'orthorhombic'
loop_
_space_group_symop_operation_xyz
x,y,z
-x,-y,z
-x,y,z
x,-y,z
x,1/2+y,1/2+z
-x,1/2-y,1/2+z
-x,1/2+y,1/2+z
x,1/2-y,1/2+z
loop_
_atom_site_type_symbol
_atom_site_label
_atom_site_fract_x
_atom_site_fract_y
_atom_site_fract_z
Si Si1 0.188549 0.919443 0.708240
Si Si2 0.799778 0.820568 0.973040
Si Si3 0.337112 0.916470 0.675895
Si Si4 0.650070 0.679164 0.457818
Si Si5 0.573102 0.917984 0.169853
Si Si6 0.878281 0.282958 0.752719
Si Si7 0.927598 0.337887 0.048737
Si Si8 0.425679 0.830537 0.464756
O O1 0.259937 0.910707 0.629842
O O2 0.134548 0.882472 0.604829
O O3 0.163552 0.000000 0.718215
O O4 0.193138 0.894781 0.881030
O O5 0.724106 0.799619 0.006104
O O6 0.835112 0.829498 0.134193
O O7 0.829548 0.760294 0.862826
O O8 0.383163 0.894378 0.539455
O O9 0.352547 0.000000 0.726520
O O10 0.352824 0.853084 0.792737
O O11 0.626200 0.610927 0.553740
O O12 0.605470 0.750505 0.473889
O O13 0.500000 0.920576 0.096536
O O14 0.571662 0.857511 0.296867
O O15 0.592826 0.000000 0.221774
O O16 0.926158 0.235663 0.646728
O O17 0.922309 0.329414 0.868167
O O18 0.000000 0.373533 0.077845
O O19 0.500000 0.826592 0.532962
#
# Coordination Sequence:
#
# PCOD8178533 Si02
#       8
#     8   8   8   8   8   8   8   8
#     4   9  20  38  56  82 114 147 191 235 279 337
#     4   9  20  33  57  81 112 150 180 231 288 338
#     4  10  22  40  60  82 112 153 195 235 285 350
#     4  11  22  34  59  84 111 144 189 241 291 342
#     4  10  22  39  54  73 107 148 187 232 289 351
#     4   9  19  34  53  85 116 143 185 229 279 336
#     4  10  19  33  57  83 114 151 186 230 278 332
#     4  11  24  38  56  84 114 144 188 244 297 342
#
# _framework density 19.186140000000002
#
# number of rings (size 3 to 8) (size 9 to 14) (size 15 to 20)
#    0.000    2.125    0.000    2.250    8.750    3.500 
#    0.000    1.250    0.000    0.000    0.000    0.000 
#    0.000    0.000    0.000    0.000    0.000    0.000 
#
# Total GULP energy -396480.778792 kJ/mol
# GULP energy per Si atom -12390.024337 kJ/mol
# Density = 1.914247 g / cm^3
# Si number density = 19.186140 Si / 1000 Ang^3
#
#
#
# Elastic Constant Matrix: (Units=GPa)
#
#
# Indices 1 2 3 4 5 6 
#
# 1 125.8843 39.8902 43.4887 0.0000 0.0000 0.0000
# 2 39.8902 88.8311 20.7083 0.0000 0.0000 0.0000
# 3 43.4887 20.7083 85.8016 0.0000 0.0000 0.0000
# 4 0.0000 0.0000 0.0000 23.6970 0.0000 0.0000
# 5 0.0000 0.0000 0.0000 0.0000 21.1667 0.0000
# 6 0.0000 0.0000 0.0000 0.0000 0.0000 8.5694
#
#
#
# Elastic Compliance Matrix: (Units=1/GPa)
#
#
# Indices 1 2 3 4 5 6 
#
# 1 0.010691 -0.003749 -0.004514 0.000000 0.000000 0.000000
# 2 -0.003749 0.013243 -0.001296 0.000000 0.000000 0.000000
# 3 -0.004514 -0.001296 0.014256 0.000000 0.000000 0.000000
# 4 0.000000 0.000000 0.000000 0.042199 0.000000 0.000000
# 5 0.000000 0.000000 0.000000 0.000000 0.047244 0.000000
# 6 0.000000 0.000000 0.000000 0.000000 0.000000 0.116694
#
#
# Mechanical properties :
#
#
# Convention : Reuss Voigt Hill
#
# Bulk Modulus (GPa) = 52.43343 56.52129 54.47736
# Shear Modulus (GPa) = 18.53210 23.78195 21.15702
#
# Velocity S-wave (km/s) = 3.11128 3.52453 3.32433
# Velocity P-wave (km/s) = 6.34783 6.78870 6.57196
#
# Compressibility (1/GPa) = 0.01907180
#
# Stress axis : x y z
#
# Youngs Moduli (GPa) = 93.53559 75.51265 70.14787
#
# Poissons Ratio (x) = 0.28307 0.31665
# Poissons Ratio (y) = 0.35063 0.09092
# Poissons Ratio (z) = 0.42223 0.09788
#
# Static dielectric constant tensor:
#      x y z
#    x 3.740780 0.000000 0.000000 
#    y 0.000000 3.437920 0.000000 
#    z 0.000000 0.000000 3.560090 
# 
# 
# High freq. dielectric constant tensor:
#      x y z
#    x 1.755220 0.000000 0.000000 
#    y 0.000000 1.735070 0.000000 
#    z 0.000000 0.000000 1.741690 
# 
# From -- ./inp_files/6830.got.cif
#   From: 2010.03.12/outbox.cif.g09.slc.cpg/sg38_4_cif.got.tgz:6830.got - 2010.04.14 02:38:36.
