data_PCOD8178491
_publ_section_title
;
Structure prediction by ZEFSAII (Michael W. Deem and Ramdas Pophale) SiO2 
 PCOD8178491
Probable space group: A M M 2
;
_chemical_formula_sum "Si O2"
_cell_formula_units_Z 64
_cell_length_a 13.293364
_cell_length_b 26.484530
_cell_length_c 9.574531
_cell_angle_alpha 90.000000
_cell_angle_beta 90.000000
_cell_angle_gamma 90.000000
_cell_volume 3370.890745
_symmetry_space_group_name_H-M "A M M 2"
_symmetry_group_IT_number 38
_symmetry_cell_setting 'orthorhombic'
loop_
_space_group_symop_operation_xyz
x,y,z
-x,-y,z
-x,y,z
x,-y,z
x,1/2+y,1/2+z
-x,1/2-y,1/2+z
-x,1/2+y,1/2+z
x,1/2-y,1/2+z
loop_
_atom_site_type_symbol
_atom_site_label
_atom_site_fract_x
_atom_site_fract_y
_atom_site_fract_z
Si Si1 0.694222 0.696447 0.741300
Si Si2 0.617205 0.380881 0.078465
Si Si3 0.385432 0.910582 0.279648
Si Si4 0.737874 0.058053 0.778593
Si Si5 0.619536 0.269514 0.020877
Si Si6 0.883336 0.943499 0.528595
Si Si7 0.787031 0.443284 0.589050
Si Si8 0.115503 0.368196 0.781959
O O1 0.623071 0.647527 0.732132
O O2 0.683648 0.726259 0.596891
O O3 0.810550 0.679880 0.768691
O O4 0.651500 0.734100 0.859159
O O5 0.500000 0.375138 0.067098
O O6 0.645688 0.408902 0.220902
O O7 0.659393 0.323892 0.075869
O O8 0.651679 0.413500 0.942023
O O9 0.500000 0.929441 0.261542
O O10 0.313901 0.944372 0.183173
O O11 0.830889 0.068101 0.675622
O O12 0.704124 0.000000 0.781158
O O13 0.763462 0.076579 0.933653
O O14 0.500000 0.261129 0.039583
O O15 0.852776 0.900908 0.417198
O O16 0.000000 0.940358 0.561205
O O17 0.855035 0.000000 0.473117
O O18 0.831205 0.500000 0.583446
O O19 0.870422 0.405457 0.649973
O O20 0.000000 0.349554 0.787781
#
# Coordination Sequence:
#
# PCOD8178491 Si02
#       8
#     8   8   8   8   8   8   8   8
#     4  10  20  35  55  80 106 134 172 218 266 316
#     4   9  19  34  52  74 101 139 181 215 251 303
#     4   9  18  34  53  74 105 142 181 223 265 315
#     4  10  20  33  49  75 111 141 169 212 264 312
#     4  10  19  33  55  81 107 135 172 216 262 313
#     4   9  17  31  54  79 100 132 179 223 260 303
#     4  10  21  33  49  77 109 141 175 217 270 322
#     4  10  21  38  58  77 102 138 180 222 264 314
#
# _framework density 18.986079
#
# number of rings (size 3 to 8) (size 9 to 14) (size 15 to 20)
#    0.000    2.375    0.000    4.500    0.000    5.750 
#    0.000    5.625    0.000    0.750    0.000    0.000 
#    0.000    0.000    0.000    0.000    0.000    0.000 
#
# Total GULP energy -396706.662357 kJ/mol
# GULP energy per Si atom -12397.083199 kJ/mol
# Density = 1.894287 g / cm^3
# Si number density = 18.986079 Si / 1000 Ang^3
#
#
#
# Elastic Constant Matrix: (Units=GPa)
#
#
# Indices 1 2 3 4 5 6 
#
# 1 77.8986 18.0390 15.3814 0.0000 0.0000 0.0000
# 2 18.0390 49.9386 30.8104 0.0000 0.0000 0.0000
# 3 15.3814 30.8104 100.8154 0.0000 0.0000 0.0000
# 4 0.0000 0.0000 0.0000 33.0026 0.0000 0.0000
# 5 0.0000 0.0000 0.0000 0.0000 21.1599 0.0000
# 6 0.0000 0.0000 0.0000 0.0000 0.0000 28.2485
#
#
#
# Elastic Compliance Matrix: (Units=1/GPa)
#
#
# Indices 1 2 3 4 5 6 
#
# 1 0.014053 -0.004625 -0.000730 0.000000 0.000000 0.000000
# 2 -0.004625 0.026200 -0.007301 0.000000 0.000000 0.000000
# 3 -0.000730 -0.007301 0.012262 0.000000 0.000000 0.000000
# 4 0.000000 0.000000 0.000000 0.030301 0.000000 0.000000
# 5 0.000000 0.000000 0.000000 0.000000 0.047259 0.000000
# 6 0.000000 0.000000 0.000000 0.000000 0.000000 0.035400
#
#
# Mechanical properties :
#
#
# Convention : Reuss Voigt Hill
#
# Bulk Modulus (GPa) = 36.76453 39.67934 38.22194
# Shear Modulus (GPa) = 25.01808 27.44367 26.23087
#
# Velocity S-wave (km/s) = 3.63396 3.80605 3.72100
# Velocity P-wave (km/s) = 6.08388 6.34502 6.21582
#
# Compressibility (1/GPa) = 0.02720013
#
# Stress axis : x y z
#
# Youngs Moduli (GPa) = 71.16154 38.16785 81.55328
#
# Poissons Ratio (x) = 0.17654 0.05957
# Poissons Ratio (y) = 0.32916 0.59545
# Poissons Ratio (z) = 0.05198 0.27868
#
# Static dielectric constant tensor:
#      x y z
#    x 3.353210 0.000000 0.000000 
#    y 0.000000 3.315140 0.000000 
#    z 0.000000 0.000000 3.567310 
# 
# 
# High freq. dielectric constant tensor:
#      x y z
#    x 1.730870 0.000000 0.000000 
#    y 0.000000 1.720360 0.000000 
#    z 0.000000 0.000000 1.737860 
# 
# From -- ./inp_files/5878.got.cif
#   From: 2010.03.12/outbox.cif.g09.slc.cpg/sg38_3_cif.got.tgz:5878.got - 2010.04.14 02:38:36.
