data_PCOD8178381
_publ_section_title
;
Structure prediction by ZEFSAII (Michael W. Deem and Ramdas Pophale) SiO2 
 PCOD8178381
Probable space group: A M M 2
;
_chemical_formula_sum "Si O2"
_cell_formula_units_Z 64
_cell_length_a 19.617051
_cell_length_b 9.047891
_cell_length_c 19.893810
_cell_angle_alpha 90.000000
_cell_angle_beta 90.000000
_cell_angle_gamma 90.000000
_cell_volume 3531.010809
_symmetry_space_group_name_H-M "A M M 2"
_symmetry_group_IT_number 38
_symmetry_cell_setting 'orthorhombic'
loop_
_space_group_symop_operation_xyz
x,y,z
-x,-y,z
-x,y,z
x,-y,z
x,1/2+y,1/2+z
-x,1/2-y,1/2+z
-x,1/2+y,1/2+z
x,1/2-y,1/2+z
loop_
_atom_site_type_symbol
_atom_site_label
_atom_site_fract_x
_atom_site_fract_y
_atom_site_fract_z
Si Si1 0.175035 0.674469 0.706720
Si Si2 0.678671 0.673342 0.651533
Si Si3 0.314392 0.172243 0.515133
Si Si4 0.079568 0.170456 0.603424
Si Si5 0.162189 0.170082 0.474648
Si Si6 0.578527 0.169673 0.269866
Si Si7 0.655433 0.173255 0.882868
Si Si8 0.808028 0.326817 0.343901
O O1 0.172041 0.500000 0.715726
O O2 0.247834 0.726305 0.678057
O O3 0.115922 0.725605 0.656994
O O4 0.161819 0.748079 0.778654
O O5 0.678502 0.500000 0.635986
O O6 0.658864 0.759547 0.584307
O O7 0.622350 0.719107 0.705865
O O8 0.234279 0.206631 0.509154
O O9 0.355012 0.247756 0.454221
O O10 0.330777 0.000000 0.514173
O O11 0.104001 0.210313 0.528264
O O12 0.000000 0.202476 0.607751
O O13 0.097448 0.000000 0.619421
O O14 0.150676 0.269935 0.408936
O O15 0.158922 0.000000 0.451972
O O16 0.500000 0.193672 0.251375
O O17 0.596986 0.270308 0.333298
O O18 0.594683 0.000000 0.288477
O O19 0.728670 0.215724 0.851656
O O20 0.648072 0.000000 0.894049
O O21 0.819461 0.500000 0.336741
#
# Coordination Sequence:
#
# PCOD8178381 Si02
#       8
#     8   8   8   8   8   8   8   8
#     4  11  21  34  56  83 113 147 187 233 277 329
#     4  10  20  34  54  82 112 144 184 232 282 328
#     4  10  19  32  55  82 109 141 182 229 274 323
#     4  10  21  38  58  81 113 150 186 227 279 337
#     4   9  18  33  53  79 108 140 180 225 275 327
#     4  10  21  38  58  80 111 150 188 227 278 338
#     4  10  20  34  54  81 112 143 181 229 277 329
#     4  10  20  33  54  82 110 141 182 230 278 325
#
# _framework density 18.125122000000001
#
# number of rings (size 3 to 8) (size 9 to 14) (size 15 to 20)
#    0.000    2.000    2.500    1.500    0.000    3.500 
#    0.000    1.250    0.000    4.500    0.000    0.000 
#    0.000    0.000    0.000    0.000    0.000    0.000 
#
# Total GULP energy -396971.488562 kJ/mol
# GULP energy per Si atom -12405.359018 kJ/mol
# Density = 1.808387 g / cm^3
# Si number density = 18.125122 Si / 1000 Ang^3
#
#
#
# Elastic Constant Matrix: (Units=GPa)
#
#
# Indices 1 2 3 4 5 6 
#
# 1 82.1639 35.1575 54.9059 0.0000 0.0000 0.0000
# 2 35.1575 79.1346 67.3247 0.0000 0.0000 0.0000
# 3 54.9059 67.3247 150.5044 0.0000 0.0000 0.0000
# 4 0.0000 0.0000 0.0000 39.7049 0.0000 0.0000
# 5 0.0000 0.0000 0.0000 0.0000 26.7035 0.0000
# 6 0.0000 0.0000 0.0000 0.0000 0.0000 22.4955
#
#
#
# Elastic Compliance Matrix: (Units=1/GPa)
#
#
# Indices 1 2 3 4 5 6 
#
# 1 0.016710 -0.003612 -0.004480 0.000000 0.000000 0.000000
# 2 -0.003612 0.021181 -0.008157 0.000000 0.000000 0.000000
# 3 -0.004480 -0.008157 0.011928 0.000000 0.000000 0.000000
# 4 0.000000 0.000000 0.000000 0.025186 0.000000 0.000000
# 5 0.000000 0.000000 0.000000 0.000000 0.037448 0.000000
# 6 0.000000 0.000000 0.000000 0.000000 0.000000 0.044453
#
#
# Mechanical properties :
#
#
# Convention : Reuss Voigt Hill
#
# Bulk Modulus (GPa) = 57.73706 69.61990 63.67848
# Shear Modulus (GPa) = 25.61737 28.07508 26.84623
#
# Velocity S-wave (km/s) = 3.76355 3.93995 3.85276
# Velocity P-wave (km/s) = 7.12809 7.69362 7.41624
#
# Compressibility (1/GPa) = 0.01731990
#
# Stress axis : x y z
#
# Youngs Moduli (GPa) = 59.84279 47.21123 83.83844
#
# Poissons Ratio (x) = 0.17055 0.37562
# Poissons Ratio (y) = 0.21618 0.68388
# Poissons Ratio (z) = 0.26811 0.38511
#
# Static dielectric constant tensor:
#      x y z
#    x 3.116450 0.000000 0.000000 
#    y 0.000000 3.313480 0.000000 
#    z 0.000000 0.000000 3.382260 
# 
# 
# High freq. dielectric constant tensor:
#      x y z
#    x 1.673710 0.000000 0.000000 
#    y 0.000000 1.706400 0.000000 
#    z 0.000000 0.000000 1.713300 
# 
# From -- ./inp_files/18849.got.cif
#   From: 2010.03.12/outbox.cif.g09.slc.cpg/sg38_10_cif.got.tgz:18849.got - 2010.04.14 02:38:36.
