data_PCOD8178774
_publ_section_title
;
Structure prediction by ZEFSAII (Michael W. Deem and Ramdas Pophale) SiO2 
 PCOD8178774
Probable space group: A M M 2
;
_chemical_formula_sum "Si O2"
_cell_formula_units_Z 64
_cell_length_a 8.969787
_cell_length_b 30.279449
_cell_length_c 11.900997
_cell_angle_alpha 90.000000
_cell_angle_beta 90.000000
_cell_angle_gamma 90.000000
_cell_volume 3232.313261
_symmetry_space_group_name_H-M "A M M 2"
_symmetry_group_IT_number 38
_symmetry_cell_setting 'orthorhombic'
loop_
_space_group_symop_operation_xyz
x,y,z
-x,-y,z
-x,y,z
x,-y,z
x,1/2+y,1/2+z
-x,1/2-y,1/2+z
-x,1/2+y,1/2+z
x,1/2-y,1/2+z
loop_
_atom_site_type_symbol
_atom_site_label
_atom_site_fract_x
_atom_site_fract_y
_atom_site_fract_z
Si Si1 0.669724 0.450443 0.442760
Si Si2 0.831795 0.570386 0.224156
Si Si3 0.175074 0.791537 0.940949
Si Si4 0.167422 0.327914 0.205972
Si Si5 0.172296 0.949060 0.473152
Si Si6 0.177081 0.624556 0.581857
Si Si7 0.673821 0.799844 0.489506
Si Si8 0.323721 0.623018 0.823614
O O1 0.500000 0.433105 0.445400
O O2 0.679398 0.500000 0.492035
O O3 0.725577 0.452379 0.314395
O O4 0.772198 0.419408 0.518267
O O5 0.829611 0.622225 0.248684
O O6 0.771128 0.559134 0.100053
O O7 0.000000 0.551819 0.237008
O O8 0.217553 0.797964 0.810700
O O9 0.246317 0.746677 0.982383
O O10 0.000000 0.787927 0.956610
O O11 0.235016 0.832329 0.015224
O O12 0.000000 0.315414 0.165410
O O13 0.284410 0.321981 0.107116
O O14 0.270194 0.920391 0.388742
O O15 0.000000 0.934279 0.463259
O O16 0.193361 0.000000 0.439800
O O17 0.245876 0.625763 0.704524
O O18 0.000000 0.623570 0.590748
O O19 0.500000 0.791179 0.485699
O O20 0.723742 0.832946 0.390933
O O21 0.500000 0.619844 0.808023
#
# Coordination Sequence:
#
# PCOD8178774 Si02
#       8
#     8   8   8   8   8   8   8   8
#     4  11  24  40  61  92 128 164 200 244 305 368
#     4  10  19  37  64  93 125 159 202 252 299 353
#     4  10  23  42  64  92 121 157 204 252 304 357
#     4  10  20  39  66  93 122 157 201 251 301 355
#     4  10  21  38  63  93 122 159 207 255 303 356
#     4  11  24  44  67  90 117 158 210 258 303 357
#     4  11  25  41  61  92 126 162 202 245 301 365
#     4  11  25  43  61  88 125 164 203 249 307 367
#
# _framework density 19.800060999999999
#
# number of rings (size 3 to 8) (size 9 to 14) (size 15 to 20)
#    0.000    1.500    2.500    1.875    1.750    6.250 
#    0.000    0.000    0.000    0.000    0.000    0.000 
#    0.000    0.000    0.000    0.000    0.000    0.000 
#
# Total GULP energy -396939.477833 kJ/mol
# GULP energy per Si atom -12404.358682 kJ/mol
# Density = 1.975500 g / cm^3
# Si number density = 19.800061 Si / 1000 Ang^3
#
#
#
# Elastic Constant Matrix: (Units=GPa)
#
#
# Indices 1 2 3 4 5 6 
#
# 1 61.4878 39.6951 52.6754 0.0000 0.0000 0.0000
# 2 39.6951 107.3472 49.0439 0.0000 0.0000 0.0000
# 3 52.6754 49.0439 126.2828 0.0000 0.0000 0.0000
# 4 0.0000 0.0000 0.0000 21.4135 0.0000 0.0000
# 5 0.0000 0.0000 0.0000 0.0000 29.1087 0.0000
# 6 0.0000 0.0000 0.0000 0.0000 0.0000 29.3439
#
#
#
# Elastic Compliance Matrix: (Units=1/GPa)
#
#
# Indices 1 2 3 4 5 6 
#
# 1 0.028309 -0.006168 -0.009413 0.000000 0.000000 0.000000
# 2 -0.006168 0.012669 -0.002347 0.000000 0.000000 0.000000
# 3 -0.009413 -0.002347 0.012757 0.000000 0.000000 0.000000
# 4 0.000000 0.000000 0.000000 0.046699 0.000000 0.000000
# 5 0.000000 0.000000 0.000000 0.000000 0.034354 0.000000
# 6 0.000000 0.000000 0.000000 0.000000 0.000000 0.034079
#
#
# Mechanical properties :
#
#
# Convention : Reuss Voigt Hill
#
# Bulk Modulus (GPa) = 55.93363 64.21630 60.07497
# Shear Modulus (GPa) = 23.73240 26.22011 24.97626
#
# Velocity S-wave (km/s) = 3.46584 3.64296 3.55551
# Velocity P-wave (km/s) = 6.65782 7.08503 6.87475
#
# Compressibility (1/GPa) = 0.01787833
#
# Stress axis : x y z
#
# Youngs Moduli (GPa) = 35.32434 78.93454 78.38953
#
# Poissons Ratio (x) = 0.48684 0.73789
# Poissons Ratio (y) = 0.21787 0.18401
# Poissons Ratio (z) = 0.33251 0.18529
#
# Static dielectric constant tensor:
#      x y z
#    x 3.576540 0.000000 0.000000 
#    y 0.000000 3.754710 0.000000 
#    z 0.000000 0.000000 3.616690 
# 
# 
# High freq. dielectric constant tensor:
#      x y z
#    x 1.768140 0.000000 0.000000 
#    y 0.000000 1.783640 0.000000 
#    z 0.000000 0.000000 1.777060 
# 
# From -- ./inp_files/8636.got.cif
#   From: 2010.03.12/outbox.cif.g09.slc.cpg/sg38_5_cif.got.tgz:8636.got - 2010.04.14 02:38:36.
