data_PCOD8178468
_publ_section_title
;
Structure prediction by ZEFSAII (Michael W. Deem and Ramdas Pophale) SiO2 
 PCOD8178468
Probable space group: A M M 2
;
_chemical_formula_sum "Si O2"
_cell_formula_units_Z 64
_cell_length_a 21.702776
_cell_length_b 8.819734
_cell_length_c 16.476793
_cell_angle_alpha 90.000000
_cell_angle_beta 90.000000
_cell_angle_gamma 90.000000
_cell_volume 3153.867623
_symmetry_space_group_name_H-M "A M M 2"
_symmetry_group_IT_number 38
_symmetry_cell_setting 'orthorhombic'
loop_
_space_group_symop_operation_xyz
x,y,z
-x,-y,z
-x,y,z
x,-y,z
x,1/2+y,1/2+z
-x,1/2-y,1/2+z
-x,1/2+y,1/2+z
x,1/2-y,1/2+z
loop_
_atom_site_type_symbol
_atom_site_label
_atom_site_fract_x
_atom_site_fract_y
_atom_site_fract_z
Si Si1 0.130264 0.680605 0.958150
Si Si2 0.318721 0.174414 0.648765
Si Si3 0.930582 0.179752 0.628055
Si Si4 0.861514 0.820213 0.791661
Si Si5 0.350327 0.663314 0.419404
Si Si6 0.728974 0.674476 0.795645
Si Si7 0.431295 0.674068 0.032252
Si Si8 0.758813 0.334486 0.530489
O O1 0.131010 0.500000 0.952117
O O2 0.104822 0.746013 0.871745
O O3 0.095274 0.736932 0.040321
O O4 0.198730 0.748941 0.964922
O O5 0.319389 0.283475 0.725661
O O6 0.382800 0.205935 0.603479
O O7 0.254327 0.218642 0.603794
O O8 0.312671 0.000000 0.674091
O O9 0.892595 0.238303 0.707047
O O10 0.000000 0.241676 0.636265
O O11 0.929287 0.000000 0.627126
O O12 0.789998 0.776243 0.790129
O O13 0.868353 0.000000 0.799709
O O14 0.360982 0.500000 0.373953
O O15 0.312456 0.790943 0.372907
O O16 0.415025 0.729189 0.451696
O O17 0.308284 0.630051 0.496647
O O18 0.749116 0.500000 0.794385
O O19 0.500000 0.718571 0.061866
O O20 0.427996 0.500000 0.005923
O O21 0.787169 0.500000 0.556622
#
# Coordination Sequence:
#
# PCOD8178468 Si02
#       8
#     8   8   8   8   8   8   8   8
#     4  11  21  35  60  89 117 155 198 246 305 366
#     4  10  20  34  55  81 114 151 188 236 294 352
#     4   9  21  41  61  83 116 160 207 249 297 364
#     4  11  22  38  62  90 121 158 200 251 308 368
#     4  10  20  34  55  82 113 148 185 233 288 344
#     4  12  23  36  56  84 118 151 190 240 299 360
#     4   9  19  37  59  82 110 149 195 238 284 346
#     4  10  19  33  54  81 113 145 185 233 285 348
#
# _framework density 20.292543999999999
#
# number of rings (size 3 to 8) (size 9 to 14) (size 15 to 20)
#    0.000    1.750    1.250    3.750    0.000    3.250 
#    0.000    2.500    0.000    7.500    0.000    0.000 
#    0.000    0.000    0.000    0.000    0.000    0.000 
#
# Total GULP energy -396438.967457 kJ/mol
# GULP energy per Si atom -12388.717733 kJ/mol
# Density = 2.024636 g / cm^3
# Si number density = 20.292544 Si / 1000 Ang^3
#
#
#
# Elastic Constant Matrix: (Units=GPa)
#
#
# Indices 1 2 3 4 5 6 
#
# 1 82.9323 27.0741 51.5519 0.0000 0.0000 0.0000
# 2 27.0741 87.3410 39.1489 0.0000 0.0000 0.0000
# 3 51.5519 39.1489 124.7298 0.0000 0.0000 0.0000
# 4 0.0000 0.0000 0.0000 34.9498 0.0000 0.0000
# 5 0.0000 0.0000 0.0000 0.0000 17.8521 0.0000
# 6 0.0000 0.0000 0.0000 0.0000 0.0000 13.7745
#
#
#
# Elastic Compliance Matrix: (Units=1/GPa)
#
#
# Indices 1 2 3 4 5 6 
#
# 1 0.016654 -0.002417 -0.006125 0.000000 0.000000 0.000000
# 2 -0.002417 0.013675 -0.003293 0.000000 0.000000 0.000000
# 3 -0.006125 -0.003293 0.011582 0.000000 0.000000 0.000000
# 4 0.000000 0.000000 0.000000 0.028612 0.000000 0.000000
# 5 0.000000 0.000000 0.000000 0.000000 0.056016 0.000000
# 6 0.000000 0.000000 0.000000 0.000000 0.000000 0.072598
#
#
# Mechanical properties :
#
#
# Convention : Reuss Voigt Hill
#
# Bulk Modulus (GPa) = 54.82020 58.95032 56.88526
# Shear Modulus (GPa) = 21.84471 25.13047 23.48759
#
# Velocity S-wave (km/s) = 3.28455 3.52292 3.40582
# Velocity P-wave (km/s) = 6.43878 6.75731 6.59997
#
# Compressibility (1/GPa) = 0.01824145
#
# Stress axis : x y z
#
# Youngs Moduli (GPa) = 60.04434 73.12764 86.33866
#
# Poissons Ratio (x) = 0.17677 0.52880
# Poissons Ratio (y) = 0.14514 0.28431
# Poissons Ratio (z) = 0.36775 0.24081
#
# Static dielectric constant tensor:
#      x y z
#    x 3.563030 0.000000 0.000000 
#    y 0.000000 3.917800 0.000000 
#    z 0.000000 0.000000 3.977710 
# 
# 
# High freq. dielectric constant tensor:
#      x y z
#    x 1.769230 0.000000 0.000000 
#    y 0.000000 1.792130 0.000000 
#    z 0.000000 0.000000 1.794880 
# 
# From -- ./inp_files/18946.got.cif
#   From: 2010.03.12/outbox.cif.g09.slc.cpg/sg38_10_cif.got.tgz:18946.got - 2010.04.14 02:38:36.
