data_PCOD8178375
_publ_section_title
;
Structure prediction by ZEFSAII (Michael W. Deem and Ramdas Pophale) SiO2 
 PCOD8178375
Probable space group: A M M 2
;
_chemical_formula_sum "Si O2"
_cell_formula_units_Z 64
_cell_length_a 23.932857
_cell_length_b 8.934512
_cell_length_c 15.570372
_cell_angle_alpha 90.000000
_cell_angle_beta 90.000000
_cell_angle_gamma 90.000000
_cell_volume 3329.387702
_symmetry_space_group_name_H-M "A M M 2"
_symmetry_group_IT_number 38
_symmetry_cell_setting 'orthorhombic'
loop_
_space_group_symop_operation_xyz
x,y,z
-x,-y,z
-x,y,z
x,-y,z
x,1/2+y,1/2+z
-x,1/2-y,1/2+z
-x,1/2+y,1/2+z
x,1/2-y,1/2+z
loop_
_atom_site_type_symbol
_atom_site_label
_atom_site_fract_x
_atom_site_fract_y
_atom_site_fract_z
Si Si1 0.869013 0.673957 0.173150
Si Si2 0.434970 0.675495 0.265964
Si Si3 0.634196 0.322077 0.619607
Si Si4 0.633251 0.827562 0.925791
Si Si5 0.242197 0.672583 0.440692
Si Si6 0.252486 0.672211 0.116342
Si Si7 0.871327 0.823808 0.860981
Si Si8 0.062933 0.677874 0.523336
O O1 0.882960 0.500000 0.156964
O O2 0.802286 0.699576 0.173718
O O3 0.890048 0.731281 0.266652
O O4 0.900503 0.771080 0.103262
O O5 0.500000 0.708900 0.275012
O O6 0.421887 0.500000 0.256396
O O7 0.413341 0.757707 0.181009
O O8 0.405510 0.744513 0.351613
O O9 0.633049 0.500000 0.622141
O O10 0.623530 0.261150 0.521878
O O11 0.695242 0.268030 0.651362
O O12 0.697507 0.803658 0.896595
O O13 0.616993 0.000000 0.931215
O O14 0.236301 0.500000 0.471723
O O15 0.235497 0.780354 0.521104
O O16 0.193672 0.718354 0.374911
O O17 0.270886 0.500000 0.117673
O O18 0.878005 0.000000 0.863645
O O19 0.910446 0.754807 0.935588
O O20 0.063716 0.500000 0.521382
O O21 0.000000 0.739619 0.531740
#
# Coordination Sequence:
#
# PCOD8178375 Si02
#       8
#     8   8   8   8   8   8   8   8
#     4  10  21  35  56  85 111 144 184 227 276 327
#     4  10  21  37  57  81 109 143 183 228 278 329
#     4  10  21  37  57  82 111 148 188 227 273 324
#     4   8  17  33  55  79 105 142 184 220 264 324
#     4   9  16  31  56  79 106 143 183 224 270 325
#     4  10  19  32  54  83 116 144 178 225 280 334
#     4   9  18  33  55  81 107 141 184 224 268 327
#     4  10  21  38  58  78 106 145 185 228 277 329
#
# _framework density 19.222753999999998
#
# number of rings (size 3 to 8) (size 9 to 14) (size 15 to 20)
#    0.000    2.500    1.250    1.500    1.750    2.000 
#    0.000    6.875    0.000    0.000    0.000    0.000 
#    0.000    0.000    0.000    0.000    0.000    0.000 
#
# Total GULP energy -396664.349832 kJ/mol
# GULP energy per Si atom -12395.760932 kJ/mol
# Density = 1.917900 g / cm^3
# Si number density = 19.222754 Si / 1000 Ang^3
#
#
#
# Elastic Constant Matrix: (Units=GPa)
#
#
# Indices 1 2 3 4 5 6 
#
# 1 105.6228 32.5723 56.9462 0.0000 0.0000 0.0000
# 2 32.5723 37.9735 24.1653 0.0000 0.0000 0.0000
# 3 56.9462 24.1653 119.3846 0.0000 0.0000 0.0000
# 4 0.0000 0.0000 0.0000 24.0437 0.0000 0.0000
# 5 0.0000 0.0000 0.0000 0.0000 23.6369 0.0000
# 6 0.0000 0.0000 0.0000 0.0000 0.0000 23.6155
#
#
#
# Elastic Compliance Matrix: (Units=1/GPa)
#
#
# Indices 1 2 3 4 5 6 
#
# 1 0.015368 -0.009776 -0.005352 0.000000 0.000000 0.000000
# 2 -0.009776 0.036447 -0.002714 0.000000 0.000000 0.000000
# 3 -0.005352 -0.002714 0.011478 0.000000 0.000000 0.000000
# 4 0.000000 0.000000 0.000000 0.041591 0.000000 0.000000
# 5 0.000000 0.000000 0.000000 0.000000 0.042307 0.000000
# 6 0.000000 0.000000 0.000000 0.000000 0.000000 0.042345
#
#
# Mechanical properties :
#
#
# Convention : Reuss Voigt Hill
#
# Bulk Modulus (GPa) = 36.21975 54.48314 45.35145
# Shear Modulus (GPa) = 21.32894 24.21236 22.77065
#
# Velocity S-wave (km/s) = 3.33463 3.55289 3.44549
# Velocity P-wave (km/s) = 5.80598 6.72572 6.28270
#
# Compressibility (1/GPa) = 0.02760924
#
# Stress axis : x y z
#
# Youngs Moduli (GPa) = 65.07125 27.43693 87.12064
#
# Poissons Ratio (x) = 0.26823 0.46623
# Poissons Ratio (y) = 0.63616 0.23646
# Poissons Ratio (z) = 0.34823 0.07447
#
# Static dielectric constant tensor:
#      x y z
#    x 3.656390 0.000000 0.000000 
#    y 0.000000 3.211220 0.000000 
#    z 0.000000 0.000000 3.761230 
# 
# 
# High freq. dielectric constant tensor:
#      x y z
#    x 1.749540 0.000000 0.000000 
#    y 0.000000 1.713390 0.000000 
#    z 0.000000 0.000000 1.752520 
# 
# From -- ./inp_files/15823.got.cif
#   From: 2010.03.12/outbox.cif.g09.slc.cpg/sg38_8_cif.got.tgz:15823.got - 2010.04.14 02:38:36.
