data_PCOD8178858
_publ_section_title
;
Structure prediction by ZEFSAII (Michael W. Deem and Ramdas Pophale) SiO2 
 PCOD8178858
Probable space group: A M M 2
;
_chemical_formula_sum "Si O2"
_cell_formula_units_Z 56
_cell_length_a 9.278968
_cell_length_b 20.003415
_cell_length_c 15.595370
_cell_angle_alpha 90.000000
_cell_angle_beta 90.000000
_cell_angle_gamma 90.000000
_cell_volume 2894.672965
_symmetry_space_group_name_H-M "A M M 2"
_symmetry_group_IT_number 38
_symmetry_cell_setting 'orthorhombic'
loop_
_space_group_symop_operation_xyz
x,y,z
-x,-y,z
-x,y,z
x,-y,z
x,1/2+y,1/2+z
-x,1/2-y,1/2+z
-x,1/2+y,1/2+z
x,1/2-y,1/2+z
loop_
_atom_site_type_symbol
_atom_site_label
_atom_site_fract_x
_atom_site_fract_y
_atom_site_fract_z
Si Si1 0.663196 0.924787 0.581260
Si Si2 0.835222 0.076875 0.046350
Si Si3 0.332919 0.205532 0.488712
Si Si4 0.167767 0.288850 0.634002
Si Si5 0.663293 0.394577 0.379585
Si Si6 0.663924 0.251972 0.805298
Si Si7 0.154079 0.073100 0.733111
O O1 0.500000 0.925561 0.614581
O O2 0.684000 0.873754 0.503600
O O3 0.752278 0.891204 0.659625
O O4 0.709088 0.000000 0.553020
O O5 0.815120 0.130281 0.123531
O O6 0.000000 0.079189 0.012869
O O7 0.796298 0.000000 0.073882
O O8 0.728479 0.104467 0.973953
O O9 0.500000 0.229271 0.496052
O O10 0.242137 0.250402 0.554647
O O11 0.278556 0.211473 0.390993
O O12 0.236337 0.268583 0.724689
O O13 0.000000 0.268740 0.634669
O O14 0.500000 0.420643 0.385338
O O15 0.673635 0.325140 0.329648
O O16 0.761662 0.441164 0.321103
O O17 0.500000 0.272764 0.782710
O O18 0.000000 0.110526 0.747217
O O19 0.123983 0.000000 0.695124
#
# Coordination Sequence:
#
# PCOD8178858 Si02
#       7
#     8   8   8   8   8   8   8
#     4   9  18  33  54  79 107 143 187 232 280 337
#     4  10  22  40  59  81 115 156 195 243 301 351
#     4  10  20  38  60  82 113 150 187 235 292 344
#     4  11  23  38  60  88 116 151 197 245 290 349
#     4  11  21  34  54  82 111 144 187 235 287 345
#     4  10  22  38  57  82 115 151 188 235 293 349
#     4  10  20  32  47  72 109 147 179 218 274 336
#
# _framework density 19.345882
#
# number of rings (size 3 to 8) (size 9 to 14) (size 15 to 20)
#    0.000    1.857    1.429    2.571    0.000    9.143 
#    0.000    0.714    0.000    0.857    0.000    0.000 
#    0.000    0.000    0.000    0.000    0.000    0.000 
#
# Total GULP energy -346902.252524 kJ/mol
# GULP energy per Si atom -12389.366162 kJ/mol
# Density = 1.930185 g / cm^3
# Si number density = 19.345882 Si / 1000 Ang^3
#
#
#
# Elastic Constant Matrix: (Units=GPa)
#
#
# Indices 1 2 3 4 5 6 
#
# 1 116.4257 39.5704 60.3458 0.0000 0.0000 0.0000
# 2 39.5704 91.2431 41.0889 0.0000 0.0000 0.0000
# 3 60.3458 41.0889 104.4102 0.0000 0.0000 0.0000
# 4 0.0000 0.0000 0.0000 27.5735 0.0000 0.0000
# 5 0.0000 0.0000 0.0000 0.0000 21.9037 0.0000
# 6 0.0000 0.0000 0.0000 0.0000 0.0000 14.2922
#
#
#
# Elastic Compliance Matrix: (Units=1/GPa)
#
#
# Indices 1 2 3 4 5 6 
#
# 1 0.012786 -0.002695 -0.006329 0.000000 0.000000 0.000000
# 2 -0.002695 0.013888 -0.003908 0.000000 0.000000 0.000000
# 3 -0.006329 -0.003908 0.014774 0.000000 0.000000 0.000000
# 4 0.000000 0.000000 0.000000 0.036267 0.000000 0.000000
# 5 0.000000 0.000000 0.000000 0.000000 0.045654 0.000000
# 6 0.000000 0.000000 0.000000 0.000000 0.000000 0.069968
#
#
# Mechanical properties :
#
#
# Convention : Reuss Voigt Hill
#
# Bulk Modulus (GPa) = 64.17006 66.00990 65.08998
# Shear Modulus (GPa) = 22.28212 24.15881 23.22046
#
# Velocity S-wave (km/s) = 3.39746 3.53765 3.46826
# Velocity P-wave (km/s) = 6.97368 7.13313 7.05386
#
# Compressibility (1/GPa) = 0.01558359
#
# Stress axis : x y z
#
# Youngs Moduli (GPa) = 78.21304 72.00332 67.68810
#
# Poissons Ratio (x) = 0.19403 0.42841
# Poissons Ratio (y) = 0.21076 0.26453
# Poissons Ratio (z) = 0.49503 0.28139
#
# Static dielectric constant tensor:
#      x y z
#    x 3.863470 0.000000 0.000000 
#    y 0.000000 3.678270 0.000000 
#    z 0.000000 0.000000 3.406310 
# 
# 
# High freq. dielectric constant tensor:
#      x y z
#    x 1.760060 0.000000 0.000000 
#    y 0.000000 1.756260 0.000000 
#    z 0.000000 0.000000 1.733380 
# 
# From -- ./inp_files/12380.got.cif
#   From: 2010.03.12/outbox.cif.g09.slc.cpg/sg38_7_cif.got.tgz:12380.got - 2010.04.14 02:38:36.
