data_PCOD8178929
_publ_section_title
;
Structure prediction by ZEFSAII (Michael W. Deem and Ramdas Pophale) SiO2 
 PCOD8178929
Probable space group: A M M 2
;
_chemical_formula_sum "Si O2"
_cell_formula_units_Z 48
_cell_length_a 8.842826
_cell_length_b 16.998568
_cell_length_c 17.019463
_cell_angle_alpha 90.000000
_cell_angle_beta 90.000000
_cell_angle_gamma 90.000000
_cell_volume 2558.287032
_symmetry_space_group_name_H-M "A M M 2"
_symmetry_group_IT_number 38
_symmetry_cell_setting 'orthorhombic'
loop_
_space_group_symop_operation_xyz
x,y,z
-x,-y,z
-x,y,z
x,-y,z
x,1/2+y,1/2+z
-x,1/2-y,1/2+z
-x,1/2+y,1/2+z
x,1/2-y,1/2+z
loop_
_atom_site_type_symbol
_atom_site_label
_atom_site_fract_x
_atom_site_fract_y
_atom_site_fract_z
Si Si1 0.823614 0.500000 0.280680
Si Si2 0.320898 0.687933 0.715027
Si Si3 0.177911 0.650521 0.178635
Si Si4 0.680260 0.500000 0.449622
Si Si5 0.679718 0.176845 0.516105
Si Si6 0.680012 0.411729 0.861979
Si Si7 0.678039 0.351032 0.542763
O O1 0.777060 0.423690 0.231266
O O2 0.729787 0.500000 0.360211
O O3 0.000000 0.500000 0.301293
O O4 0.500000 0.701190 0.719197
O O5 0.243906 0.772752 0.721173
O O6 0.259680 0.634986 0.786244
O O7 0.274531 0.644054 0.634325
O O8 0.248988 0.637319 0.092870
O O9 0.000000 0.659522 0.169140
O O10 0.500000 0.500000 0.453518
O O11 0.749135 0.423214 0.493825
O O12 0.500000 0.171964 0.524708
O O13 0.740202 0.130542 0.440328
O O14 0.733525 0.267531 0.507815
O O15 0.500000 0.412877 0.861463
O O16 0.745165 0.500000 0.859446
O O17 0.500000 0.356774 0.535170
#
# Coordination Sequence:
#
# PCOD8178929 Si02
#       7
#     4   8   8   4   8   8   8
#     4  10  24  40  52  73 106 138 174 223 266 310
#     4   9  18  34  57  81 108 138 173 215 261 310
#     4  10  21  38  56  74 102 140 180 217 265 316
#     4  10  20  32  54  81 106 136 174 213 258 314
#     4   9  18  34  54  79 109 136 172 218 261 307
#     4   9  18  30  52  85 113 138 170 213 262 311
#     4   8  16  30  49  77 107 134 166 212 257 300
#
# _framework density 18.762554999999999
#
# number of rings (size 3 to 8) (size 9 to 14) (size 15 to 20)
#    0.000    2.833    0.000    1.500    4.667    1.333 
#    0.000    4.167    0.000    1.500    0.000    0.000 
#    0.000    0.000    0.000    0.000    0.000    0.000 
#
# Total GULP energy -297572.857634 kJ/mol
# GULP energy per Si atom -12398.869068 kJ/mol
# Density = 1.871985 g / cm^3
# Si number density = 18.762555 Si / 1000 Ang^3
#
#
#
# Elastic Constant Matrix: (Units=GPa)
#
#
# Indices 1 2 3 4 5 6 
#
# 1 27.0671 26.2010 28.7873 0.0000 0.0000 0.0000
# 2 26.2010 153.3314 111.6734 0.0000 0.0000 0.0000
# 3 28.7873 111.6734 171.2478 0.0000 0.0000 0.0000
# 4 0.0000 0.0000 0.0000 35.6986 0.0000 0.0000
# 5 0.0000 0.0000 0.0000 0.0000 10.5329 0.0000
# 6 0.0000 0.0000 0.0000 0.0000 0.0000 18.1749
#
#
#
# Elastic Compliance Matrix: (Units=1/GPa)
#
#
# Indices 1 2 3 4 5 6 
#
# 1 0.046420 -0.004283 -0.005010 0.000000 0.000000 0.000000
# 2 -0.004283 0.012816 -0.007638 0.000000 0.000000 0.000000
# 3 -0.005010 -0.007638 0.011662 0.000000 0.000000 0.000000
# 4 0.000000 0.000000 0.000000 0.028012 0.000000 0.000000
# 5 0.000000 0.000000 0.000000 0.000000 0.094941 0.000000
# 6 0.000000 0.000000 0.000000 0.000000 0.000000 0.055021
#
#
# Mechanical properties :
#
#
# Convention : Reuss Voigt Hill
#
# Bulk Modulus (GPa) = 27.00038 76.10772 51.55405
# Shear Modulus (GPa) = 16.94452 25.21359 21.07906
#
# Velocity S-wave (km/s) = 3.00843 3.66980 3.35545
# Velocity P-wave (km/s) = 5.14678 7.65560 6.52294
#
# Compressibility (1/GPa) = 0.03703651
#
# Stress axis : x y z
#
# Youngs Moduli (GPa) = 21.54247 78.02496 85.74532
#
# Poissons Ratio (x) = 0.33419 0.42961
# Poissons Ratio (y) = 0.09227 0.65490
# Poissons Ratio (z) = 0.10793 0.59594
#
# Static dielectric constant tensor:
#      x y z
#    x 3.001710 0.000000 0.000000 
#    y 0.000000 3.753650 0.000000 
#    z 0.000000 0.000000 3.603820 
# 
# 
# High freq. dielectric constant tensor:
#      x y z
#    x 1.684250 0.000000 0.000000 
#    y 0.000000 1.740050 0.000000 
#    z 0.000000 0.000000 1.738800 
# 
# From -- ./inp_files/16683.got.cif
#   From: 2010.03.12/outbox.cif.g09.slc.cpg/sg38_9_cif.got.tgz:16683.got - 2010.04.14 02:38:36.
