data_PCOD8178188
_publ_section_title
;
Structure prediction by ZEFSAII (Michael W. Deem and Ramdas Pophale) SiO2 
 PCOD8178188
Probable space group: A M M 2
;
_chemical_formula_sum "Si O2"
_cell_formula_units_Z 48
_cell_length_a 16.955696
_cell_length_b 8.583967
_cell_length_c 16.011917
_cell_angle_alpha 90.000000
_cell_angle_beta 90.000000
_cell_angle_gamma 90.000000
_cell_volume 2330.488644
_symmetry_space_group_name_H-M "A M M 2"
_symmetry_group_IT_number 38
_symmetry_cell_setting 'orthorhombic'
loop_
_space_group_symop_operation_xyz
x,y,z
-x,-y,z
-x,y,z
x,-y,z
x,1/2+y,1/2+z
-x,1/2-y,1/2+z
-x,1/2+y,1/2+z
x,1/2-y,1/2+z
loop_
_atom_site_type_symbol
_atom_site_label
_atom_site_fract_x
_atom_site_fract_y
_atom_site_fract_z
Si Si1 0.335142 0.815978 0.320990
Si Si2 0.907358 0.320357 0.234284
Si Si3 0.336591 0.185012 0.137283
Si Si4 0.172547 0.316494 0.570742
Si Si5 0.500000 0.184211 0.395583
Si Si6 0.824242 0.183720 0.395280
Si Si7 0.500000 0.818430 0.072352
O O1 0.317082 0.749169 0.229112
O O2 0.422475 0.762793 0.345919
O O3 0.266285 0.756527 0.382738
O O4 0.331111 0.000000 0.318129
O O5 0.884266 0.500000 0.244678
O O6 0.875675 0.260413 0.145643
O O7 0.873703 0.227605 0.313504
O O8 0.000000 0.293726 0.233756
O O9 0.264592 0.234739 0.077491
O O10 0.420071 0.259279 0.108690
O O11 0.344863 0.000000 0.138194
O O12 0.161601 0.500000 0.579336
O O13 0.141691 0.261932 0.479759
O O14 0.500000 0.291122 0.475274
O O15 0.500000 0.000000 0.416162
O O16 0.828999 0.000000 0.407452
O O17 0.500000 0.000000 0.093682
#
# Coordination Sequence:
#
# PCOD8178188 Si02
#       7
#     8   8   8   8   4   8   4
#     4   9  17  32  55  83 113 154 203 246 291 347
#     4  11  25  45  67  92 121 154 198 251 307 367
#     4   9  17  32  55  83 113 154 203 246 291 347
#     4  11  22  39  64  93 126 162 203 248 300 362
#     4  10  19  31  51  77 113 154 198 246 290 342
#     4  11  22  39  64  93 126 162 203 248 300 362
#     4  10  19  31  51  77 113 154 198 246 290 342
#
# _framework density 20.596539
#
# number of rings (size 3 to 8) (size 9 to 14) (size 15 to 20)
#    0.000    1.833    1.667    3.000    0.000    4.000 
#    0.000    1.667    0.000    1.000    0.000    0.000 
#    0.000    0.000    0.000    0.000    0.000    0.000 
#
# Total GULP energy -297514.108088 kJ/mol
# GULP energy per Si atom -12396.421170 kJ/mol
# Density = 2.054966 g / cm^3
# Si number density = 20.596539 Si / 1000 Ang^3
#
#
#
# Elastic Constant Matrix: (Units=GPa)
#
#
# Indices 1 2 3 4 5 6 
#
# 1 98.8768 29.9886 36.6415 0.0000 0.0000 0.0000
# 2 29.9886 29.5541 4.1615 0.0000 0.0000 0.0000
# 3 36.6415 4.1615 131.6624 0.0000 0.0000 0.0000
# 4 0.0000 0.0000 0.0000 32.9956 0.0000 0.0000
# 5 0.0000 0.0000 0.0000 0.0000 19.5804 0.0000
# 6 0.0000 0.0000 0.0000 0.0000 0.0000 20.7796
#
#
#
# Elastic Compliance Matrix: (Units=1/GPa)
#
#
# Indices 1 2 3 4 5 6 
#
# 1 0.016548 -0.016215 -0.004093 0.000000 0.000000 0.000000
# 2 -0.016215 0.049876 0.002936 0.000000 0.000000 0.000000
# 3 -0.004093 0.002936 0.008641 0.000000 0.000000 0.000000
# 4 0.000000 0.000000 0.000000 0.030307 0.000000 0.000000
# 5 0.000000 0.000000 0.000000 0.000000 0.051071 0.000000
# 6 0.000000 0.000000 0.000000 0.000000 0.000000 0.048124
#
#
# Mechanical properties :
#
#
# Convention : Reuss Voigt Hill
#
# Bulk Modulus (GPa) = 24.80014 44.63072 34.71543
# Shear Modulus (GPa) = 19.78215 27.29124 23.53670
#
# Velocity S-wave (km/s) = 3.10249 3.64406 3.38413
# Velocity P-wave (km/s) = 4.99009 6.27867 5.67110
#
# Compressibility (1/GPa) = 0.04032235
#
# Stress axis : x y z
#
# Youngs Moduli (GPa) = 60.42930 20.04958 115.72187
#
# Poissons Ratio (x) = 0.32511 0.47363
# Poissons Ratio (y) = 0.97987 -0.33978
# Poissons Ratio (z) = 0.24733 -0.05887
#
# Static dielectric constant tensor:
#      x y z
#    x 4.152900 0.000000 0.000000 
#    y 0.000000 3.387660 0.000000 
#    z 0.000000 0.000000 3.833790 
# 
# 
# High freq. dielectric constant tensor:
#      x y z
#    x 1.814620 0.000000 0.000000 
#    y 0.000000 1.772950 0.000000 
#    z 0.000000 0.000000 1.818560 
# 
# From -- ./inp_files/6251.got.cif
#   From: 2010.03.12/outbox.cif.g09.slc.cpg/sg38_4_cif.got.tgz:6251.got - 2010.04.14 02:38:36.
