data_PCOD8178508
_publ_section_title
;
Structure prediction by ZEFSAII (Michael W. Deem and Ramdas Pophale) SiO2 
 PCOD8178508
Probable space group: A M M 2
;
_chemical_formula_sum "Si O2"
_cell_formula_units_Z 48
_cell_length_a 17.298091
_cell_length_b 7.695061
_cell_length_c 18.261500
_cell_angle_alpha 90.000000
_cell_angle_beta 90.000000
_cell_angle_gamma 90.000000
_cell_volume 2430.785808
_symmetry_space_group_name_H-M "A M M 2"
_symmetry_group_IT_number 38
_symmetry_cell_setting 'orthorhombic'
loop_
_space_group_symop_operation_xyz
x,y,z
-x,-y,z
-x,y,z
x,-y,z
x,1/2+y,1/2+z
-x,1/2-y,1/2+z
-x,1/2+y,1/2+z
x,1/2-y,1/2+z
loop_
_atom_site_type_symbol
_atom_site_label
_atom_site_fract_x
_atom_site_fract_y
_atom_site_fract_z
Si Si1 0.086176 0.500000 0.381220
Si Si2 0.650873 0.792732 0.803287
Si Si3 0.800702 0.702350 0.054181
Si Si4 0.348317 0.701017 0.139429
Si Si5 0.500000 0.206684 0.887859
Si Si6 0.085774 0.500000 0.554817
Si Si7 0.500000 0.295808 0.552382
Si Si8 0.195808 0.194362 0.384259
O O1 0.079878 0.500000 0.467912
O O2 0.131729 0.328504 0.354173
O O3 0.000000 0.500000 0.346669
O O4 0.644913 0.718661 0.720561
O O5 0.575835 0.723603 0.846377
O O6 0.726084 0.710947 0.839136
O O7 0.655875 0.000000 0.806488
O O8 0.819898 0.500000 0.071236
O O9 0.725318 0.775444 0.095989
O O10 0.871357 0.823687 0.080819
O O11 0.784178 0.732326 0.968644
O O12 0.333791 0.500000 0.149165
O O13 0.425277 0.731519 0.094350
O O14 0.500000 0.000000 0.887943
O O15 0.500000 0.281723 0.970358
O O16 0.000000 0.500000 0.589525
O O17 0.500000 0.500000 0.548702
O O18 0.162166 0.000000 0.374862
#
# Coordination Sequence:
#
# PCOD8178508 Si02
#       8
#     4   8   8   8   4   4   4   8
#     4   9  18  34  56  83 113 143 179 225 279 335
#     4  10  19  35  56  77 106 149 188 229 271 328
#     4   9  19  34  54  82 111 143 185 228 275 329
#     4  10  21  36  54  77 106 149 187 227 273 327
#     4   9  19  33  53  79 106 144 189 228 276 324
#     4   9  18  32  56  85 111 143 177 225 285 329
#     4  11  22  33  51  79 110 141 184 237 276 318
#     4  10  19  33  55  83 112 142 183 231 276 327
#
# _framework density 19.746701999999999
#
# number of rings (size 3 to 8) (size 9 to 14) (size 15 to 20)
#    0.000    2.333    0.833    1.750    1.167    2.667 
#    0.000    4.583    0.000    1.000    0.000    0.000 
#    0.000    0.000    0.000    0.000    0.000    0.000 
#
# Total GULP energy -297575.093697 kJ/mol
# GULP energy per Si atom -12398.962237 kJ/mol
# Density = 1.970176 g / cm^3
# Si number density = 19.746702 Si / 1000 Ang^3
#
#
#
# Elastic Constant Matrix: (Units=GPa)
#
#
# Indices 1 2 3 4 5 6 
#
# 1 189.0054 52.9591 68.2623 0.0000 0.0000 0.0000
# 2 52.9591 76.5245 29.7306 0.0000 0.0000 0.0000
# 3 68.2623 29.7306 111.8673 0.0000 0.0000 0.0000
# 4 0.0000 0.0000 0.0000 13.3303 0.0000 0.0000
# 5 0.0000 0.0000 0.0000 0.0000 -4.6361 0.0000
# 6 0.0000 0.0000 0.0000 0.0000 0.0000 24.1005
#
#
#
# Elastic Compliance Matrix: (Units=1/GPa)
#
#
# Indices 1 2 3 4 5 6 
#
# 1 0.007711 -0.003912 -0.003666 0.000000 0.000000 0.000000
# 2 -0.003912 0.016557 -0.002013 0.000000 0.000000 0.000000
# 3 -0.003666 -0.002013 0.011711 0.000000 0.000000 0.000000
# 4 0.000000 0.000000 0.000000 0.075017 0.000000 0.000000
# 5 0.000000 0.000000 0.000000 0.000000 -0.215700 0.000000
# 6 0.000000 0.000000 0.000000 0.000000 0.000000 0.041493
#
#
# Mechanical properties :
#
#
# Convention : Reuss Voigt Hill
#
# Bulk Modulus (GPa) = 59.53304 75.47790 67.50547
# Shear Modulus (GPa) = -130.10821 21.65529 -54.22646
#
# Velocity S-wave (km/s) = -8.12598 3.31517 -5.24601
# Velocity P-wave (km/s) = 7.60450 7.27735 1.56022
#
# Compressibility (1/GPa) = 0.01679740
#
# Stress axis : x y z
#
# Youngs Moduli (GPa) = 129.68609 60.39622 85.39059
#
# Poissons Ratio (x) = 0.23629 0.31300
# Poissons Ratio (y) = 0.50737 0.17190
# Poissons Ratio (z) = 0.47537 0.12158
#
# Static dielectric constant tensor:
#      x y z
#    x 3.751250 0.000000 0.000000 
#    y 0.000000 3.606190 0.000000 
#    z 0.000000 0.000000 3.671990 
# 
# 
# High freq. dielectric constant tensor:
#      x y z
#    x 1.768790 0.000000 0.000000 
#    y 0.000000 1.768660 0.000000 
#    z 0.000000 0.000000 1.753220 
# 
# From -- ./inp_files/18290.got.cif
#   From: 2010.03.12/outbox.cif.g09.slc.cpg/sg38_10_cif.got.tgz:18290.got - 2010.04.14 02:38:36.
