data_PCOD8178005
_publ_section_title
;
Structure prediction by ZEFSAII (Michael W. Deem and Ramdas Pophale) SiO2 
 PCOD8178005
Probable space group: A M M 2
;
_chemical_formula_sum "Si O2"
_cell_formula_units_Z 64
_cell_length_a 9.280520
_cell_length_b 23.292429
_cell_length_c 18.707336
_cell_angle_alpha 90.000000
_cell_angle_beta 90.000000
_cell_angle_gamma 90.000000
_cell_volume 4043.887247
_symmetry_space_group_name_H-M "A M M 2"
_symmetry_group_IT_number 38
_symmetry_cell_setting 'orthorhombic'
loop_
_space_group_symop_operation_xyz
x,y,z
-x,-y,z
-x,y,z
x,-y,z
x,1/2+y,1/2+z
-x,1/2-y,1/2+z
-x,1/2+y,1/2+z
x,1/2-y,1/2+z
loop_
_atom_site_type_symbol
_atom_site_label
_atom_site_fract_x
_atom_site_fract_y
_atom_site_fract_z
Si Si1 0.331237 0.338584 0.028950
Si Si2 0.832939 0.566853 0.103702
Si Si3 0.834058 0.754238 0.757735
Si Si4 0.665696 0.434730 0.387983
Si Si5 0.335917 0.226192 0.389614
Si Si6 0.332545 0.167242 0.986709
Si Si7 0.170108 0.115375 0.756148
Si Si8 0.831754 0.233615 0.097585
O O1 0.500000 0.336664 0.048346
O O2 0.263789 0.400567 0.045146
O O3 0.249425 0.291710 0.076478
O O4 0.307535 0.325596 0.944981
O O5 0.803808 0.500000 0.093304
O O6 0.782719 0.585723 0.182407
O O7 0.000000 0.582641 0.091706
O O8 0.756185 0.716751 0.818306
O O9 0.773166 0.819245 0.755971
O O10 0.809350 0.723525 0.681830
O O11 0.000000 0.756092 0.778358
O O12 0.500000 0.423904 0.366938
O O13 0.694115 0.500000 0.411661
O O14 0.707018 0.395173 0.455779
O O15 0.760177 0.420373 0.319618
O O16 0.500000 0.228035 0.364946
O O17 0.291914 0.286096 0.426651
O O18 0.500000 0.172987 0.008284
O O19 0.236021 0.178941 0.056744
O O20 0.000000 0.112353 0.765958
O O21 0.000000 0.240216 0.078473
#
# Coordination Sequence:
#
# PCOD8178005 Si02
#       8
#     8   8   8   8   8   8   8   8
#     4  10  20  33  48  69  95 124 159 199 239 278
#     4  10  20  34  50  68  95 131 166 199 234 274
#     4  10  19  30  47  71  95 123 157 191 234 282
#     4  10  20  33  48  67  95 130 165 199 234 275
#     4   9  18  31  47  67  93 123 154 193 238 280
#     4   9  18  32  46  67  94 122 158 197 235 277
#     4  10  19  32  46  66  97 130 164 197 229 271
#     4  10  19  32  49  69  94 123 157 195 239 287
#
# _framework density 15.826356000000001
#
# number of rings (size 3 to 8) (size 9 to 14) (size 15 to 20)
#    0.000    2.250    2.500    1.875    0.000    5.500 
#    0.000    0.000    0.000    0.000    0.000    0.875 
#    0.000    3.000    0.000    0.000    0.000    0.000 
#
# Total GULP energy -396839.124997 kJ/mol
# GULP energy per Si atom -12401.222656 kJ/mol
# Density = 1.579033 g / cm^3
# Si number density = 15.826356 Si / 1000 Ang^3
#
#
#
# Elastic Constant Matrix: (Units=GPa)
#
#
# Indices 1 2 3 4 5 6 
#
# 1 71.1925 40.5571 58.7538 0.0000 0.0000 0.0000
# 2 40.5571 87.8986 54.6412 0.0000 0.0000 0.0000
# 3 58.7538 54.6412 102.9943 0.0000 0.0000 0.0000
# 4 0.0000 0.0000 0.0000 24.6747 0.0000 0.0000
# 5 0.0000 0.0000 0.0000 0.0000 24.3453 0.0000
# 6 0.0000 0.0000 0.0000 0.0000 0.0000 23.2140
#
#
#
# Elastic Compliance Matrix: (Units=1/GPa)
#
#
# Indices 1 2 3 4 5 6 
#
# 1 0.027639 -0.004404 -0.013431 0.000000 0.000000 0.000000
# 2 -0.004404 0.017677 -0.006866 0.000000 0.000000 0.000000
# 3 -0.013431 -0.006866 0.021013 0.000000 0.000000 0.000000
# 4 0.000000 0.000000 0.000000 0.040527 0.000000 0.000000
# 5 0.000000 0.000000 0.000000 0.000000 0.041076 0.000000
# 6 0.000000 0.000000 0.000000 0.000000 0.000000 0.043078
#
#
# Mechanical properties :
#
#
# Convention : Reuss Voigt Hill
#
# Bulk Modulus (GPa) = 59.07103 63.33218 61.20160
# Shear Modulus (GPa) = 20.32076 21.65566 20.98821
#
# Velocity S-wave (km/s) = 3.58716 3.70311 3.64559
# Velocity P-wave (km/s) = 7.38664 7.64119 7.51499
#
# Compressibility (1/GPa) = 0.01692877
#
# Stress axis : x y z
#
# Youngs Moduli (GPa) = 36.18024 56.57137 47.58886
#
# Poissons Ratio (x) = 0.24914 0.63915
# Poissons Ratio (y) = 0.15934 0.32673
# Poissons Ratio (z) = 0.48592 0.38840
#
# Static dielectric constant tensor:
#      x y z
#    x 3.040750 0.000000 0.000000 
#    y 0.000000 2.928030 0.000000 
#    z 0.000000 0.000000 2.954170 
# 
# 
# High freq. dielectric constant tensor:
#      x y z
#    x 1.613250 0.000000 0.000000 
#    y 0.000000 1.583980 0.000000 
#    z 0.000000 0.000000 1.598200 
# 
# From -- ./inp_files/17273.got.cif
#   From: 2010.03.12/outbox.cif.g09.slc.cpg/sg38_9_cif.got.tgz:17273.got - 2010.04.14 02:38:36.
