data_PCOD8178473
_publ_section_title
;
Structure prediction by ZEFSAII (Michael W. Deem and Ramdas Pophale) SiO2 
 PCOD8178473
Probable space group: A M M 2
;
_chemical_formula_sum "Si O2"
_cell_formula_units_Z 40
_cell_length_a 12.853281
_cell_length_b 9.089596
_cell_length_c 18.484279
_cell_angle_alpha 90.000000
_cell_angle_beta 90.000000
_cell_angle_gamma 90.000000
_cell_volume 2159.539232
_symmetry_space_group_name_H-M "A M M 2"
_symmetry_group_IT_number 38
_symmetry_cell_setting 'orthorhombic'
loop_
_space_group_symop_operation_xyz
x,y,z
-x,-y,z
-x,y,z
x,-y,z
x,1/2+y,1/2+z
-x,1/2-y,1/2+z
-x,1/2+y,1/2+z
x,1/2-y,1/2+z
loop_
_atom_site_type_symbol
_atom_site_label
_atom_site_fract_x
_atom_site_fract_y
_atom_site_fract_z
Si Si1 0.695334 0.824967 0.597930
Si Si2 0.119855 0.829136 0.343406
Si Si3 0.500000 0.825166 0.505730
Si Si4 0.500000 0.825685 0.851406
Si Si5 0.885752 0.175087 0.506559
Si Si6 0.700056 0.825678 0.760895
O O1 0.599527 0.768589 0.550088
O O2 0.800972 0.761155 0.562188
O O3 0.684482 0.765679 0.679405
O O4 0.696972 0.000000 0.597969
O O5 0.140800 0.773652 0.425151
O O6 0.192434 0.737413 0.290485
O O7 0.000000 0.800699 0.321948
O O8 0.148098 0.000000 0.335876
O O9 0.500000 0.752239 0.427945
O O10 0.500000 0.000000 0.495919
O O11 0.601832 0.772659 0.807868
O O12 0.500000 0.000000 0.862015
O O13 0.000000 0.234174 0.529430
O O14 0.886414 0.000000 0.507521
O O15 0.708505 0.000000 0.761142
#
# Coordination Sequence:
#
# PCOD8178473 Si02
#       6
#     8   8   4   4   8   8
#     4   9  17  29  47  72  97 121 157 204 245 283
#     4   9  18  33  52  74 101 131 165 208 252 292
#     4  10  19  33  55  75  91 122 170 212 244 288
#     4  10  21  35  49  71 105 136 162 200 252 302
#     4   8  14  26  45  68  93 121 155 197 240 279
#     4  10  20  33  50  73 103 135 164 201 251 302
#
# _framework density 18.522469000000001
#
# number of rings (size 3 to 8) (size 9 to 14) (size 15 to 20)
#    0.000    2.800    0.000    3.000    0.000    6.000 
#    0.000    3.000    0.000    2.400    0.000    0.000 
#    0.000    0.000    0.000    0.000    0.000    0.000 
#
# Total GULP energy -247964.569876 kJ/mol
# GULP energy per Si atom -12398.228494 kJ/mol
# Density = 1.848031 g / cm^3
# Si number density = 18.522469 Si / 1000 Ang^3
#
#
#
# Elastic Constant Matrix: (Units=GPa)
#
#
# Indices 1 2 3 4 5 6 
#
# 1 155.2228 23.8097 102.4701 0.0000 0.0000 0.0000
# 2 23.8097 14.6896 27.0129 0.0000 0.0000 0.0000
# 3 102.4701 27.0129 175.8198 0.0000 0.0000 0.0000
# 4 0.0000 0.0000 0.0000 22.5946 0.0000 0.0000
# 5 0.0000 0.0000 0.0000 0.0000 31.5905 0.0000
# 6 0.0000 0.0000 0.0000 0.0000 0.0000 20.1897
#
#
#
# Elastic Compliance Matrix: (Units=1/GPa)
#
#
# Indices 1 2 3 4 5 6 
#
# 1 0.011195 -0.008568 -0.005208 0.000000 0.000000 0.000000
# 2 -0.008568 0.101440 -0.010592 0.000000 0.000000 0.000000
# 3 -0.005208 -0.010592 0.010350 0.000000 0.000000 0.000000
# 4 0.000000 0.000000 0.000000 0.044258 0.000000 0.000000
# 5 0.000000 0.000000 0.000000 0.000000 0.031655 0.000000
# 6 0.000000 0.000000 0.000000 0.000000 0.000000 0.049530
#
#
# Mechanical properties :
#
#
# Convention : Reuss Voigt Hill
#
# Bulk Modulus (GPa) = 13.46810 72.47972 42.97391
# Shear Modulus (GPa) = 15.53214 27.70428 21.61821
#
# Velocity S-wave (km/s) = 2.89893 3.87164 3.42004
# Velocity P-wave (km/s) = 4.30024 7.69427 6.23273
#
# Compressibility (1/GPa) = 0.07424952
#
# Stress axis : x y z
#
# Youngs Moduli (GPa) = 89.32843 9.85807 96.61586
#
# Poissons Ratio (x) = 0.08446 0.50318
# Poissons Ratio (y) = 0.76534 1.02333
# Poissons Ratio (z) = 0.46523 0.10441
#
# Static dielectric constant tensor:
#      x y z
#    x 3.721450 0.000000 0.000000 
#    y 0.000000 2.868470 0.000000 
#    z 0.000000 0.000000 3.551200 
# 
# 
# High freq. dielectric constant tensor:
#      x y z
#    x 1.737110 0.000000 0.000000 
#    y 0.000000 1.663910 0.000000 
#    z 0.000000 0.000000 1.726720 
# 
# From -- ./inp_files/14296.got.cif
#   From: 2010.03.12/outbox.cif.g09.slc.cpg/sg38_8_cif.got.tgz:14296.got - 2010.04.14 02:38:36.
