data_PCOD8178228
_publ_section_title
;
Structure prediction by ZEFSAII (Michael W. Deem and Ramdas Pophale) SiO2 
 PCOD8178228
Probable space group: A M M 2
;
_chemical_formula_sum "Si O2"
_cell_formula_units_Z 56
_cell_length_a 17.815700
_cell_length_b 8.988122
_cell_length_c 18.945694
_cell_angle_alpha 90.000000
_cell_angle_beta 90.000000
_cell_angle_gamma 90.000000
_cell_volume 3033.768015
_symmetry_space_group_name_H-M "A M M 2"
_symmetry_group_IT_number 38
_symmetry_cell_setting 'orthorhombic'
loop_
_space_group_symop_operation_xyz
x,y,z
-x,-y,z
-x,y,z
x,-y,z
x,1/2+y,1/2+z
-x,1/2-y,1/2+z
-x,1/2+y,1/2+z
x,1/2-y,1/2+z
loop_
_atom_site_type_symbol
_atom_site_label
_atom_site_fract_x
_atom_site_fract_y
_atom_site_fract_z
Si Si1 0.084693 0.837331 0.250000
Si Si2 0.300975 0.174068 0.071032
Si Si3 0.586528 0.826231 0.192295
Si Si4 0.082386 0.823485 0.408412
Si Si5 0.752255 0.823162 0.435673
Si Si6 0.689364 0.331251 0.297409
Si Si7 0.196820 0.333745 0.170041
O O1 0.091830 0.768127 0.328122
O O2 0.115612 0.722267 0.192771
O O3 0.000000 0.860629 0.228132
O O4 0.125548 0.000000 0.246840
O O5 0.371290 0.223029 0.120055
O O6 0.225466 0.221512 0.110759
O O7 0.301174 0.000000 0.055394
O O8 0.301489 0.260005 0.996889
O O9 0.500000 0.786524 0.181114
O O10 0.615463 0.739974 0.261578
O O11 0.600358 0.000000 0.205774
O O12 0.159602 0.771574 0.447599
O O13 0.000000 0.764046 0.438035
O O14 0.077944 0.000000 0.408862
O O15 0.717826 0.763665 0.363145
O O16 0.747291 0.000000 0.434700
O O17 0.671110 0.500000 0.321108
O O18 0.753683 0.327495 0.239662
O O19 0.192629 0.500000 0.138275
#
# Coordination Sequence:
#
# PCOD8178228 Si02
#       7
#     8   8   8   8   8   8   8
#     4   9  16  28  48  73 100 133 176 224 274 321
#     4  10  21  36  55  77 107 142 177 219 272 328
#     4   9  19  38  62  84 105 135 176 219 266 323
#     4   8  15  28  48  74 102 136 179 225 273 318
#     4  11  20  33  55  80 109 144 185 228 269 318
#     4  10  20  33  53  81 110 138 171 214 264 316
#     4  10  19  32  50  74 103 135 176 220 261 316
#
# _framework density 18.458891999999999
#
# number of rings (size 3 to 8) (size 9 to 14) (size 15 to 20)
#    0.000    2.429    1.429    2.571    0.000    2.286 
#    0.000    1.429    0.000    6.857    0.000    0.000 
#    0.000    0.000    0.000    0.000    0.000    0.000 
#
# Total GULP energy -346968.891238 kJ/mol
# GULP energy per Si atom -12391.746116 kJ/mol
# Density = 1.841688 g / cm^3
# Si number density = 18.458892 Si / 1000 Ang^3
#
#
#
# Elastic Constant Matrix: (Units=GPa)
#
#
# Indices 1 2 3 4 5 6 
#
# 1 94.7287 38.3349 38.6224 0.0000 0.0000 0.0000
# 2 38.3349 78.3611 38.4812 0.0000 0.0000 0.0000
# 3 38.6224 38.4812 75.1248 0.0000 0.0000 0.0000
# 4 0.0000 0.0000 0.0000 30.7766 0.0000 0.0000
# 5 0.0000 0.0000 0.0000 0.0000 20.9965 0.0000
# 6 0.0000 0.0000 0.0000 0.0000 0.0000 22.2290
#
#
#
# Elastic Compliance Matrix: (Units=1/GPa)
#
#
# Indices 1 2 3 4 5 6 
#
# 1 0.014492 -0.004584 -0.005102 0.000000 0.000000 0.000000
# 2 -0.004584 0.018500 -0.007120 0.000000 0.000000 0.000000
# 3 -0.005102 -0.007120 0.019581 0.000000 0.000000 0.000000
# 4 0.000000 0.000000 0.000000 0.032492 0.000000 0.000000
# 5 0.000000 0.000000 0.000000 0.000000 0.047627 0.000000
# 6 0.000000 0.000000 0.000000 0.000000 0.000000 0.044986
#
#
# Mechanical properties :
#
#
# Convention : Reuss Voigt Hill
#
# Bulk Modulus (GPa) = 52.73891 53.23240 52.98566
# Shear Modulus (GPa) = 22.97675 23.65216 23.31446
#
# Velocity S-wave (km/s) = 3.53193 3.58347 3.55779
# Velocity P-wave (km/s) = 6.72798 6.78400 6.75605
#
# Compressibility (1/GPa) = 0.01896133
#
# Stress axis : x y z
#
# Youngs Moduli (GPa) = 69.00463 54.05336 51.06906
#
# Poissons Ratio (x) = 0.24777 0.26057
# Poissons Ratio (y) = 0.31631 0.36360
# Poissons Ratio (z) = 0.35209 0.38485
#
# Static dielectric constant tensor:
#      x y z
#    x 3.494810 0.000000 0.000000 
#    y 0.000000 3.417710 0.000000 
#    z 0.000000 0.000000 3.307490 
# 
# 
# High freq. dielectric constant tensor:
#      x y z
#    x 1.707050 0.000000 0.000000 
#    y 0.000000 1.708060 0.000000 
#    z 0.000000 0.000000 1.698670 
# 
# From -- ./inp_files/21290.got.cif
#   From: 2010.03.12/outbox.cif.g09.slc.cpg/sg38_11_cif.got.tgz:21290.got - 2010.04.14 02:38:36.
