data_PCOD8178988
_publ_section_title
;
Structure prediction by ZEFSAII (Michael W. Deem and Ramdas Pophale) SiO2 
 PCOD8178988
Probable space group: A M M 2
;
_chemical_formula_sum "Si O2"
_cell_formula_units_Z 40
_cell_length_a 9.679121
_cell_length_b 9.087762
_cell_length_c 25.695495
_cell_angle_alpha 90.000000
_cell_angle_beta 90.000000
_cell_angle_gamma 90.000000
_cell_volume 2260.215517
_symmetry_space_group_name_H-M "A M M 2"
_symmetry_group_IT_number 38
_symmetry_cell_setting 'orthorhombic'
loop_
_space_group_symop_operation_xyz
x,y,z
-x,-y,z
-x,y,z
x,-y,z
x,1/2+y,1/2+z
-x,1/2-y,1/2+z
-x,1/2+y,1/2+z
x,1/2-y,1/2+z
loop_
_atom_site_type_symbol
_atom_site_label
_atom_site_fract_x
_atom_site_fract_y
_atom_site_fract_z
Si Si1 0.159864 0.172546 0.025880
Si Si2 0.661776 0.830086 0.440985
Si Si3 0.840471 0.172870 0.231392
Si Si4 0.835791 0.333991 0.128938
Si Si5 0.652504 0.325415 0.824192
O O1 0.217867 0.250431 0.077785
O O2 0.000000 0.213447 0.015986
O O3 0.179774 0.000000 0.033316
O O4 0.248647 0.226850 0.977569
O O5 0.500000 0.807007 0.452258
O O6 0.698131 0.779174 0.382229
O O7 0.702884 0.000000 0.450094
O O8 0.779815 0.252756 0.180399
O O9 0.759590 0.235383 0.281586
O O10 0.000000 0.211617 0.240471
O O11 0.817870 0.000000 0.223499
O O12 0.778695 0.500000 0.127994
O O13 0.000000 0.329953 0.129778
O O14 0.500000 0.261979 0.811739
O O15 0.647220 0.500000 0.822030
#
# Coordination Sequence:
#
# PCOD8178988 Si02
#       5
#     8   8   8   8   8
#     4  10  20  33  50  73  99 127 162 203 244 288
#     4   9  18  33  52  73  98 129 164 201 241 286
#     4   9  16  27  46  71  95 120 154 194 232 275
#     4   9  17  30  48  69  94 125 158 194 240 288
#     4   8  15  29  48  69  94 124 156 190 231 280
#
# _framework density 17.697426
#
# number of rings (size 3 to 8) (size 9 to 14) (size 15 to 20)
#    0.000    3.000    0.000    2.400    0.000    4.800 
#    0.000    4.000    0.000    7.800    0.000    0.000 
#    0.000    0.000    0.000    0.000    0.000    0.000 
#
# Total GULP energy -247961.122477 kJ/mol
# GULP energy per Si atom -12398.056124 kJ/mol
# Density = 1.765715 g / cm^3
# Si number density = 17.697426 Si / 1000 Ang^3
#
#
#
# Elastic Constant Matrix: (Units=GPa)
#
#
# Indices 1 2 3 4 5 6 
#
# 1 57.4163 33.9577 67.7017 0.0000 0.0000 0.0000
# 2 33.9577 69.8655 57.8064 0.0000 0.0000 0.0000
# 3 67.7017 57.8064 172.0085 0.0000 0.0000 0.0000
# 4 0.0000 0.0000 0.0000 32.0678 0.0000 0.0000
# 5 0.0000 0.0000 0.0000 0.0000 5.7371 0.0000
# 6 0.0000 0.0000 0.0000 0.0000 0.0000 19.0445
#
#
#
# Elastic Compliance Matrix: (Units=1/GPa)
#
#
# Indices 1 2 3 4 5 6 
#
# 1 0.035361 -0.007856 -0.011278 0.000000 0.000000 0.000000
# 2 -0.007856 0.021571 -0.004157 0.000000 0.000000 0.000000
# 3 -0.011278 -0.004157 0.011650 0.000000 0.000000 0.000000
# 4 0.000000 0.000000 0.000000 0.031184 0.000000 0.000000
# 5 0.000000 0.000000 0.000000 0.000000 0.174304 0.000000
# 6 0.000000 0.000000 0.000000 0.000000 0.000000 0.052509
#
#
# Mechanical properties :
#
#
# Convention : Reuss Voigt Hill
#
# Bulk Modulus (GPa) = 45.45465 68.69134 57.07300
# Shear Modulus (GPa) = 13.14081 20.69151 16.91616
#
# Velocity S-wave (km/s) = 2.72789 3.42304 3.09504
# Velocity P-wave (km/s) = 5.97176 7.38387 6.71504
#
# Compressibility (1/GPa) = 0.02199995
#
# Stress axis : x y z
#
# Youngs Moduli (GPa) = 28.27984 46.35797 85.83886
#
# Poissons Ratio (x) = 0.36418 0.96808
# Poissons Ratio (y) = 0.22216 0.35687
# Poissons Ratio (z) = 0.31894 0.19273
#
# Static dielectric constant tensor:
#      x y z
#    x 3.178300 0.000000 0.000000 
#    y 0.000000 3.107770 0.000000 
#    z 0.000000 0.000000 3.545830 
# 
# 
# High freq. dielectric constant tensor:
#      x y z
#    x 1.658030 0.000000 0.000000 
#    y 0.000000 1.665900 0.000000 
#    z 0.000000 0.000000 1.698690 
# 
# From -- ./inp_files/17460.got.cif
#   From: 2010.03.12/outbox.cif.g09.slc.cpg/sg38_9_cif.got.tgz:17460.got - 2010.04.14 02:38:36.
