data_PCOD8178765
_publ_section_title
;
Structure prediction by ZEFSAII (Michael W. Deem and Ramdas Pophale) SiO2 
 PCOD8178765
Probable space group: A M M 2
;
_chemical_formula_sum "Si O2"
_cell_formula_units_Z 40
_cell_length_a 16.593423
_cell_length_b 8.809337
_cell_length_c 14.710542
_cell_angle_alpha 90.000000
_cell_angle_beta 90.000000
_cell_angle_gamma 90.000000
_cell_volume 2150.343710
_symmetry_space_group_name_H-M "A M M 2"
_symmetry_group_IT_number 38
_symmetry_cell_setting 'orthorhombic'
loop_
_space_group_symop_operation_xyz
x,y,z
-x,-y,z
-x,y,z
x,-y,z
x,1/2+y,1/2+z
-x,1/2-y,1/2+z
-x,1/2+y,1/2+z
x,1/2-y,1/2+z
loop_
_atom_site_type_symbol
_atom_site_label
_atom_site_fract_x
_atom_site_fract_y
_atom_site_fract_z
Si Si1 0.291860 0.677461 0.598430
Si Si2 0.410922 0.178433 0.249710
Si Si3 0.000000 0.818920 0.948549
Si Si4 0.119771 0.320968 0.087292
Si Si5 0.000000 0.678415 0.241396
Si Si6 0.590974 0.827116 0.934164
O O1 0.270227 0.500000 0.608412
O O2 0.342811 0.742784 0.683022
O O3 0.212109 0.775509 0.591248
O O4 0.346128 0.710401 0.511673
O O5 0.500000 0.247510 0.228421
O O6 0.385521 0.218512 0.351517
O O7 0.415023 0.000000 0.236260
O O8 0.000000 0.753922 0.844142
O O9 0.079249 0.759775 0.000485
O O10 0.000000 0.000000 0.949329
O O11 0.109910 0.500000 0.073379
O O12 0.077979 0.269819 0.182428
O O13 0.000000 0.500000 0.252931
O O14 0.500000 0.795427 0.969528
O O15 0.598892 0.000000 0.901000
#
# Coordination Sequence:
#
# PCOD8178765 Si02
#       6
#     8   8   4   8   4   8
#     4  10  20  34  52  75 104 139 175 211 256 308
#     4   9  18  33  52  74 102 136 176 221 263 302
#     4  10  19  37  62  81 100 133 171 204 248 308
#     4  10  21  37  54  79 110 135 166 210 256 302
#     4   8  18  37  58  75  98 133 165 198 248 306
#     4   9  18  33  52  73 100 137 179 218 258 307
#
# _framework density 18.601676999999999
#
# number of rings (size 3 to 8) (size 9 to 14) (size 15 to 20)
#    0.000    2.600    0.000    2.100    0.000    5.600 
#    0.000   12.000    0.000    6.000    0.000    0.000 
#    0.000    0.000    0.000    0.000    0.000    0.000 
#
# Total GULP energy -247944.152427 kJ/mol
# GULP energy per Si atom -12397.207621 kJ/mol
# Density = 1.855934 g / cm^3
# Si number density = 18.601677 Si / 1000 Ang^3
#
#
#
# Elastic Constant Matrix: (Units=GPa)
#
#
# Indices 1 2 3 4 5 6 
#
# 1 139.6474 33.4474 73.1790 0.0000 0.0000 0.0000
# 2 33.4474 40.6305 29.7204 0.0000 0.0000 0.0000
# 3 73.1790 29.7204 131.9292 0.0000 0.0000 0.0000
# 4 0.0000 0.0000 0.0000 28.3670 0.0000 0.0000
# 5 0.0000 0.0000 0.0000 0.0000 31.6929 0.0000
# 6 0.0000 0.0000 0.0000 0.0000 0.0000 28.5796
#
#
#
# Elastic Compliance Matrix: (Units=1/GPa)
#
#
# Indices 1 2 3 4 5 6 
#
# 1 0.011040 -0.005518 -0.004881 0.000000 0.000000 0.000000
# 2 -0.005518 0.032226 -0.004199 0.000000 0.000000 0.000000
# 3 -0.004881 -0.004199 0.011233 0.000000 0.000000 0.000000
# 4 0.000000 0.000000 0.000000 0.035252 0.000000 0.000000
# 5 0.000000 0.000000 0.000000 0.000000 0.031553 0.000000
# 6 0.000000 0.000000 0.000000 0.000000 0.000000 0.034990
#
#
# Mechanical properties :
#
#
# Convention : Reuss Voigt Hill
#
# Bulk Modulus (GPa) = 39.52002 64.98897 52.25450
# Shear Modulus (GPa) = 25.78323 29.45191 27.61757
#
# Velocity S-wave (km/s) = 3.72703 3.98338 3.85734
# Velocity P-wave (km/s) = 6.30972 7.49463 6.92755
#
# Compressibility (1/GPa) = 0.02530363
#
# Stress axis : x y z
#
# Youngs Moduli (GPa) = 90.57808 31.03074 89.02373
#
# Poissons Ratio (x) = 0.17124 0.43450
# Poissons Ratio (y) = 0.49983 0.37380
# Poissons Ratio (z) = 0.44208 0.13029
#
# Static dielectric constant tensor:
#      x y z
#    x 3.455140 0.000000 0.000000 
#    y 0.000000 3.245250 0.000000 
#    z 0.000000 0.000000 3.584960 
# 
# 
# High freq. dielectric constant tensor:
#      x y z
#    x 1.725510 0.000000 0.000000 
#    y 0.000000 1.705410 0.000000 
#    z 0.000000 0.000000 1.727460 
# 
# From -- ./inp_files/14284.got.cif
#   From: 2010.03.12/outbox.cif.g09.slc.cpg/sg38_8_cif.got.tgz:14284.got - 2010.04.14 02:38:36.
