data_PCOD8178463
_publ_section_title
;
Structure prediction by ZEFSAII (Michael W. Deem and Ramdas Pophale) SiO2 
 PCOD8178463
Probable space group: A M M 2
;
_chemical_formula_sum "Si O2"
_cell_formula_units_Z 52
_cell_length_a 11.443101
_cell_length_b 9.450236
_cell_length_c 25.265527
_cell_angle_alpha 90.000000
_cell_angle_beta 90.000000
_cell_angle_gamma 90.000000
_cell_volume 2732.214217
_symmetry_space_group_name_H-M "A M M 2"
_symmetry_group_IT_number 38
_symmetry_cell_setting 'orthorhombic'
loop_
_space_group_symop_operation_xyz
x,y,z
-x,-y,z
-x,y,z
x,-y,z
x,1/2+y,1/2+z
-x,1/2-y,1/2+z
-x,1/2+y,1/2+z
x,1/2-y,1/2+z
loop_
_atom_site_type_symbol
_atom_site_label
_atom_site_fract_x
_atom_site_fract_y
_atom_site_fract_z
Si Si1 0.871583 0.337210 0.333230
Si Si2 0.500000 0.826964 0.277337
Si Si3 0.500000 0.339076 0.507192
Si Si4 0.500000 0.788577 0.398870
Si Si5 0.718004 0.834653 0.732720
Si Si6 0.131224 0.167312 0.633331
Si Si7 0.754987 0.850428 0.416699
Si Si8 0.276331 0.664086 0.032930
O O1 0.880754 0.500000 0.347033
O O2 0.815399 0.311380 0.276848
O O3 0.792950 0.274293 0.379175
O O4 0.000000 0.267338 0.332964
O O5 0.500000 0.753021 0.335753
O O6 0.388913 0.770085 0.244915
O O7 0.500000 0.000000 0.281217
O O8 0.500000 0.500000 0.526313
O O9 0.500000 0.339650 0.442253
O O10 0.389666 0.262085 0.533435
O O11 0.615802 0.876106 0.412173
O O12 0.779828 0.782253 0.679026
O O13 0.677429 0.000000 0.730245
O O14 0.186234 0.216006 0.577680
O O15 0.000000 0.232361 0.639500
O O16 0.120123 0.000000 0.636569
O O17 0.790142 0.816335 0.476969
O O18 0.813239 0.000000 0.399584
O O19 0.312950 0.500000 0.041711
#
# Coordination Sequence:
#
# PCOD8178463 Si02
#       8
#     8   4   4   4   8   8   8   8
#     4  10  21  35  51  75 109 145 180 224 277 330
#     4  12  23  37  58  84 117 150 181 228 287 342
#     4  10  21  35  56  84 117 152 185 226 281 342
#     4  10  20  34  54  78 110 148 184 220 270 334
#     4  10  21  37  58  84 111 144 190 236 278 329
#     4   9  18  36  62  85 108 147 197 242 279 324
#     4  10  19  33  54  81 110 141 180 226 277 333
#     4   9  19  35  57  84 112 145 188 235 281 330
#
# _framework density 19.032181999999999
#
# number of rings (size 3 to 8) (size 9 to 14) (size 15 to 20)
#    0.000    2.154    1.538    1.615    0.000    8.923 
#    0.000    5.385    0.000    2.769    0.000    0.000 
#    0.000    0.000    0.000    0.000    0.000    0.000 
#
# Total GULP energy -322197.461550 kJ/mol
# GULP energy per Si atom -12392.210060 kJ/mol
# Density = 1.898886 g / cm^3
# Si number density = 19.032182 Si / 1000 Ang^3
#
#
#
# Elastic Constant Matrix: (Units=GPa)
#
#
# Indices 1 2 3 4 5 6 
#
# 1 102.3725 40.4292 56.6270 0.0000 0.0000 0.0000
# 2 40.4292 62.7264 32.6760 0.0000 0.0000 0.0000
# 3 56.6270 32.6760 141.3983 0.0000 0.0000 0.0000
# 4 0.0000 0.0000 0.0000 18.1476 0.0000 0.0000
# 5 0.0000 0.0000 0.0000 0.0000 25.0345 0.0000
# 6 0.0000 0.0000 0.0000 0.0000 0.0000 11.1511
#
#
#
# Elastic Compliance Matrix: (Units=1/GPa)
#
#
# Indices 1 2 3 4 5 6 
#
# 1 0.015118 -0.007492 -0.004323 0.000000 0.000000 0.000000
# 2 -0.007492 0.021837 -0.002046 0.000000 0.000000 0.000000
# 3 -0.004323 -0.002046 0.009276 0.000000 0.000000 0.000000
# 4 0.000000 0.000000 0.000000 0.055104 0.000000 0.000000
# 5 0.000000 0.000000 0.000000 0.000000 0.039945 0.000000
# 6 0.000000 0.000000 0.000000 0.000000 0.000000 0.089677
#
#
# Mechanical properties :
#
#
# Convention : Reuss Voigt Hill
#
# Bulk Modulus (GPa) = 54.02732 62.88459 58.45596
# Shear Modulus (GPa) = 18.87862 22.65098 20.76480
#
# Velocity S-wave (km/s) = 3.15291 3.45358 3.30667
# Velocity P-wave (km/s) = 6.45782 7.00114 6.73496
#
# Compressibility (1/GPa) = 0.01850915
#
# Stress axis : x y z
#
# Youngs Moduli (GPa) = 66.14416 45.79385 107.80086
#
# Poissons Ratio (x) = 0.34310 0.46605
# Poissons Ratio (y) = 0.49557 0.22055
# Poissons Ratio (z) = 0.28596 0.09369
#
# Static dielectric constant tensor:
#      x y z
#    x 3.592460 0.000000 0.000000 
#    y 0.000000 3.193820 0.000000 
#    z 0.000000 0.000000 3.631960 
# 
# 
# High freq. dielectric constant tensor:
#      x y z
#    x 1.741800 0.000000 0.000000 
#    y 0.000000 1.708970 0.000000 
#    z 0.000000 0.000000 1.745520 
# 
# From -- ./inp_files/23776.got.cif
#   From: 2010.03.12/outbox.cif.g09.slc.cpg/sg38_12_cif.got.tgz:23776.got - 2010.04.14 02:38:36.
