data_PCOD8178123
_publ_section_title
;
Structure prediction by ZEFSAII (Michael W. Deem and Ramdas Pophale) SiO2 
 PCOD8178123
Probable space group: A M M 2
;
_chemical_formula_sum "Si O2"
_cell_formula_units_Z 64
_cell_length_a 17.714784
_cell_length_b 9.047832
_cell_length_c 22.900008
_cell_angle_alpha 90.000000
_cell_angle_beta 90.000000
_cell_angle_gamma 90.000000
_cell_volume 3670.422203
_symmetry_space_group_name_H-M "A M M 2"
_symmetry_group_IT_number 38
_symmetry_cell_setting 'orthorhombic'
loop_
_space_group_symop_operation_xyz
x,y,z
-x,-y,z
-x,y,z
x,-y,z
x,1/2+y,1/2+z
-x,1/2-y,1/2+z
-x,1/2+y,1/2+z
x,1/2-y,1/2+z
loop_
_atom_site_type_symbol
_atom_site_label
_atom_site_fract_x
_atom_site_fract_y
_atom_site_fract_z
Si Si1 0.302075 0.666828 0.472400
Si Si2 0.858881 0.163114 0.911300
Si Si3 0.083287 0.330148 0.016752
Si Si4 0.766052 0.675622 0.078738
Si Si5 0.362962 0.834474 0.370314
Si Si6 0.281139 0.823492 0.197978
Si Si7 0.798795 0.162185 0.312375
Si Si8 0.585508 0.330064 0.259857
O O1 0.328838 0.500000 0.487686
O O2 0.224244 0.660595 0.437787
O O3 0.292564 0.762628 0.531070
O O4 0.364588 0.747584 0.432087
O O5 0.913836 0.249281 0.954672
O O6 0.857713 0.234334 0.846561
O O7 0.891930 0.000000 0.903896
O O8 0.097516 0.500000 0.002094
O O9 0.000000 0.302776 0.044457
O O10 0.148213 0.277576 0.061447
O O11 0.756100 0.500000 0.084506
O O12 0.749210 0.755197 0.138900
O O13 0.277924 0.847563 0.348523
O O14 0.411866 0.743864 0.323690
O O15 0.396558 0.000000 0.378365
O O16 0.220584 0.777270 0.247800
O O17 0.362689 0.756064 0.213484
O O18 0.289333 0.000000 0.193779
O O19 0.835560 0.000000 0.307826
O O20 0.500000 0.320981 0.236521
O O21 0.612650 0.500000 0.264922
#
# Coordination Sequence:
#
# PCOD8178123 Si02
#       8
#     8   8   8   8   8   8   8   8
#     4   9  16  27  44  67  95 123 153 191 235 282
#     4   9  16  25  42  68  93 117 147 187 234 280
#     4   9  18  32  49  69  95 128 162 198 246 301
#     4  10  19  31  49  72  98 129 169 212 250 293
#     4   9  16  27  45  69  95 122 153 189 233 283
#     4  10  20  33  50  72  98 130 170 210 247 292
#     4   8  15  27  43  64  90 119 150 187 230 278
#     4  10  20  33  50  73 100 129 162 202 249 299
#
# _framework density 17.436686000000002
#
# number of rings (size 3 to 8) (size 9 to 14) (size 15 to 20)
#    0.000    2.750    0.000    3.000    0.000    8.250 
#    0.000    0.000    0.000    1.500    0.000    3.500 
#    0.000    0.000    0.000    0.000    0.000    0.000 
#
# Total GULP energy -396665.104163 kJ/mol
# GULP energy per Si atom -12395.784505 kJ/mol
# Density = 1.739700 g / cm^3
# Si number density = 17.436686 Si / 1000 Ang^3
#
#
#
# Elastic Constant Matrix: (Units=GPa)
#
#
# Indices 1 2 3 4 5 6 
#
# 1 56.0316 38.1655 43.7216 0.0000 0.0000 0.0000
# 2 38.1655 120.1258 62.4844 0.0000 0.0000 0.0000
# 3 43.7216 62.4844 130.5174 0.0000 0.0000 0.0000
# 4 0.0000 0.0000 0.0000 33.7630 0.0000 0.0000
# 5 0.0000 0.0000 0.0000 0.0000 15.1629 0.0000
# 6 0.0000 0.0000 0.0000 0.0000 0.0000 16.5765
#
#
#
# Elastic Compliance Matrix: (Units=1/GPa)
#
#
# Indices 1 2 3 4 5 6 
#
# 1 0.026252 -0.005015 -0.006393 0.000000 0.000000 0.000000
# 2 -0.005015 0.012043 -0.004086 0.000000 0.000000 0.000000
# 3 -0.006393 -0.004086 0.011759 0.000000 0.000000 0.000000
# 4 0.000000 0.000000 0.000000 0.029618 0.000000 0.000000
# 5 0.000000 0.000000 0.000000 0.000000 0.065950 0.000000
# 6 0.000000 0.000000 0.000000 0.000000 0.000000 0.060326
#
#
# Mechanical properties :
#
#
# Convention : Reuss Voigt Hill
#
# Bulk Modulus (GPa) = 52.44752 66.15754 59.30253
# Shear Modulus (GPa) = 20.55148 23.92071 22.23609
#
# Velocity S-wave (km/s) = 3.43685 3.70788 3.57494
# Velocity P-wave (km/s) = 6.77446 7.50701 7.15012
#
# Compressibility (1/GPa) = 0.01906668
#
# Stress axis : x y z
#
# Youngs Moduli (GPa) = 38.09304 83.03502 85.03894
#
# Poissons Ratio (x) = 0.41643 0.54365
# Poissons Ratio (y) = 0.19104 0.34743
# Poissons Ratio (z) = 0.24353 0.33925
#
# Static dielectric constant tensor:
#      x y z
#    x 2.927800 0.000000 0.000000 
#    y 0.000000 3.533840 0.000000 
#    z 0.000000 0.000000 3.214270 
# 
# 
# High freq. dielectric constant tensor:
#      x y z
#    x 1.630830 0.000000 0.000000 
#    y 0.000000 1.691610 0.000000 
#    z 0.000000 0.000000 1.660440 
# 
# From -- ./inp_files/21411.got.cif
#   From: 2010.03.12/outbox.cif.g09.slc.cpg/sg38_11_cif.got.tgz:21411.got - 2010.04.14 02:38:36.
