data_PCOD8178332
_publ_section_title
;
Structure prediction by ZEFSAII (Michael W. Deem and Ramdas Pophale) SiO2 
 PCOD8178332
Probable space group: A M M 2
;
_chemical_formula_sum "Si O2"
_cell_formula_units_Z 56
_cell_length_a 19.378182
_cell_length_b 9.600742
_cell_length_c 15.778595
_cell_angle_alpha 90.000000
_cell_angle_beta 90.000000
_cell_angle_gamma 90.000000
_cell_volume 2935.527536
_symmetry_space_group_name_H-M "A M M 2"
_symmetry_group_IT_number 38
_symmetry_cell_setting 'orthorhombic'
loop_
_space_group_symop_operation_xyz
x,y,z
-x,-y,z
-x,y,z
x,-y,z
x,1/2+y,1/2+z
-x,1/2-y,1/2+z
-x,1/2+y,1/2+z
x,1/2-y,1/2+z
loop_
_atom_site_type_symbol
_atom_site_label
_atom_site_fract_x
_atom_site_fract_y
_atom_site_fract_z
Si Si1 0.422674 0.337592 0.176610
Si Si2 0.283504 0.341518 0.434511
Si Si3 0.845807 0.838828 0.188855
Si Si4 0.080100 0.837420 0.544976
Si Si5 0.426104 0.164788 0.869955
Si Si6 0.298687 0.343751 0.624730
Si Si7 0.838003 0.338734 0.878088
O O1 0.500000 0.302580 0.142984
O O2 0.407216 0.500000 0.166050
O O3 0.415962 0.289067 0.273276
O O4 0.364553 0.255720 0.125514
O O5 0.279347 0.500000 0.400216
O O6 0.361238 0.280246 0.423575
O O7 0.263703 0.333505 0.532531
O O8 0.231827 0.248967 0.380628
O O9 0.763786 0.801633 0.187352
O O10 0.872243 0.812134 0.285350
O O11 0.856569 0.000000 0.162825
O O12 0.887621 0.744719 0.123547
O O13 0.111206 0.791703 0.453856
O O14 0.000000 0.800838 0.540911
O O15 0.093433 0.000000 0.561352
O O16 0.500000 0.225513 0.903669
O O17 0.430137 0.000000 0.875493
O O18 0.325118 0.500000 0.643220
O O19 0.818111 0.500000 0.887794
#
# Coordination Sequence:
#
# PCOD8178332 Si02
#       7
#     8   8   8   8   8   8   8
#     4   9  18  32  49  70  98 136 184 232 278 332
#     4  10  19  32  53  79 107 141 185 233 275 327
#     4  10  21  38  59  86 117 150 188 229 280 336
#     4  10  22  40  60  85 115 146 185 228 271 330
#     4   8  15  29  48  70  97 133 180 229 274 323
#     4  10  20  32  49  77 110 140 179 230 279 332
#     4  10  21  37  59  84 114 151 185 225 278 333
#
# _framework density 19.076639
#
# number of rings (size 3 to 8) (size 9 to 14) (size 15 to 20)
#    0.000    2.429    1.429    1.714    0.000    3.429 
#    0.000    2.857    0.000    1.286    0.000    0.000 
#    0.000    0.000    0.000    0.000    0.000    0.000 
#
# Total GULP energy -347068.745710 kJ/mol
# GULP energy per Si atom -12395.312347 kJ/mol
# Density = 1.903322 g / cm^3
# Si number density = 19.076639 Si / 1000 Ang^3
#
#
#
# Elastic Constant Matrix: (Units=GPa)
#
#
# Indices 1 2 3 4 5 6 
#
# 1 120.2351 54.8940 57.3497 0.0000 0.0000 0.0000
# 2 54.8940 60.4101 43.3601 0.0000 0.0000 0.0000
# 3 57.3497 43.3601 106.0305 0.0000 0.0000 0.0000
# 4 0.0000 0.0000 0.0000 24.4533 0.0000 0.0000
# 5 0.0000 0.0000 0.0000 0.0000 31.6385 0.0000
# 6 0.0000 0.0000 0.0000 0.0000 0.0000 31.8343
#
#
#
# Elastic Compliance Matrix: (Units=1/GPa)
#
#
# Indices 1 2 3 4 5 6 
#
# 1 0.015139 -0.011153 -0.003628 0.000000 0.000000 0.000000
# 2 -0.011153 0.031648 -0.006909 0.000000 0.000000 0.000000
# 3 -0.003628 -0.006909 0.014219 0.000000 0.000000 0.000000
# 4 0.000000 0.000000 0.000000 0.040894 0.000000 0.000000
# 5 0.000000 0.000000 0.000000 0.000000 0.031607 0.000000
# 6 0.000000 0.000000 0.000000 0.000000 0.000000 0.031413
#
#
# Mechanical properties :
#
#
# Convention : Reuss Voigt Hill
#
# Bulk Modulus (GPa) = 56.73619 66.43146 61.58382
# Shear Modulus (GPa) = 23.34531 26.32333 24.83432
#
# Velocity S-wave (km/s) = 3.50203 3.71869 3.61199
# Velocity P-wave (km/s) = 6.79397 7.30324 7.05320
#
# Compressibility (1/GPa) = 0.01762543
#
# Stress axis : x y z
#
# Youngs Moduli (GPa) = 66.05276 31.59786 70.32909
#
# Poissons Ratio (x) = 0.35242 0.25512
# Poissons Ratio (y) = 0.73670 0.48593
# Poissons Ratio (z) = 0.23961 0.21832
#
# Static dielectric constant tensor:
#      x y z
#    x 3.119530 0.000000 0.000000 
#    y 0.000000 3.257720 0.000000 
#    z 0.000000 0.000000 3.493110 
# 
# 
# High freq. dielectric constant tensor:
#      x y z
#    x 1.742330 0.000000 0.000000 
#    y 0.000000 1.718480 0.000000 
#    z 0.000000 0.000000 1.742090 
# 
# From -- ./inp_files/15444.got.cif
#   From: 2010.03.12/outbox.cif.g09.slc.cpg/sg38_8_cif.got.tgz:15444.got - 2010.04.14 02:38:36.
