data_PCOD8178293
_publ_section_title
;
Structure prediction by ZEFSAII (Michael W. Deem and Ramdas Pophale) SiO2 
 PCOD8178293
Probable space group: A M M 2
;
_chemical_formula_sum "Si O2"
_cell_formula_units_Z 64
_cell_length_a 19.630261
_cell_length_b 9.066905
_cell_length_c 20.116210
_cell_angle_alpha 90.000000
_cell_angle_beta 90.000000
_cell_angle_gamma 90.000000
_cell_volume 3580.397952
_symmetry_space_group_name_H-M "A M M 2"
_symmetry_group_IT_number 38
_symmetry_cell_setting 'orthorhombic'
loop_
_space_group_symop_operation_xyz
x,y,z
-x,-y,z
-x,y,z
x,-y,z
x,1/2+y,1/2+z
-x,1/2-y,1/2+z
-x,1/2+y,1/2+z
x,1/2-y,1/2+z
loop_
_atom_site_type_symbol
_atom_site_label
_atom_site_fract_x
_atom_site_fract_y
_atom_site_fract_z
Si Si1 0.294351 0.175005 0.659900
Si Si2 0.677760 0.326254 0.014723
Si Si3 0.819857 0.171982 0.839385
Si Si4 0.170691 0.173516 0.471429
Si Si5 0.577439 0.824825 0.916217
Si Si6 0.670829 0.675030 0.299941
Si Si7 0.078194 0.830183 0.079321
Si Si8 0.856721 0.327984 0.193510
O O1 0.325705 0.232266 0.590880
O O2 0.338192 0.232391 0.723698
O O3 0.216717 0.227859 0.667754
O O4 0.293327 0.000000 0.659160
O O5 0.664769 0.500000 0.009962
O O6 0.750741 0.283837 0.984209
O O7 0.617551 0.242897 0.977689
O O8 0.852472 0.261901 0.900282
O O9 0.742902 0.230275 0.828626
O O10 0.863542 0.201330 0.772586
O O11 0.820427 0.000000 0.857797
O O12 0.124323 0.240533 0.528503
O O13 0.159592 0.000000 0.472069
O O14 0.500000 0.769066 0.918418
O O15 0.610085 0.766974 0.846819
O O16 0.582189 0.000000 0.921069
O O17 0.672226 0.500000 0.298754
O O18 0.087363 0.765828 0.153772
O O19 0.000000 0.811523 0.058216
O O20 0.100445 0.000000 0.078430
O O21 0.867280 0.500000 0.177909
#
# Coordination Sequence:
#
# PCOD8178293 Si02
#       8
#     8   8   8   8   8   8   8   8
#     4   8  14  28  50  76 103 127 164 217 262 305
#     4  10  19  32  52  78 107 136 172 219 268 320
#     4   9  17  31  55  82 108 138 174 219 271 319
#     4  11  21  34  55  82 111 142 180 227 273 321
#     4  10  20  33  50  74 105 141 180 219 264 321
#     4   8  14  27  49  74 100 131 168 214 261 305
#     4  11  24  39  55  78 110 146 182 221 269 328
#     4   9  17  33  56  81 107 137 173 217 269 322
#
# _framework density 17.875108000000001
#
# number of rings (size 3 to 8) (size 9 to 14) (size 15 to 20)
#    0.000    2.500    2.500    2.250    0.000    2.250 
#    0.000    1.250    0.000    3.750    0.000    0.000 
#    0.000    0.000    0.000    0.000    0.000    0.000 
#
# Total GULP energy -396684.911223 kJ/mol
# GULP energy per Si atom -12396.403476 kJ/mol
# Density = 1.783442 g / cm^3
# Si number density = 17.875108 Si / 1000 Ang^3
#
#
#
# Elastic Constant Matrix: (Units=GPa)
#
#
# Indices 1 2 3 4 5 6 
#
# 1 65.5856 35.0439 40.6760 0.0000 0.0000 0.0000
# 2 35.0439 56.6136 45.1360 0.0000 0.0000 0.0000
# 3 40.6760 45.1360 142.2011 0.0000 0.0000 0.0000
# 4 0.0000 0.0000 0.0000 29.7749 0.0000 0.0000
# 5 0.0000 0.0000 0.0000 0.0000 23.9420 0.0000
# 6 0.0000 0.0000 0.0000 0.0000 0.0000 22.2070
#
#
#
# Elastic Compliance Matrix: (Units=1/GPa)
#
#
# Indices 1 2 3 4 5 6 
#
# 1 0.023604 -0.012354 -0.002830 0.000000 0.000000 0.000000
# 2 -0.012354 0.030114 -0.006025 0.000000 0.000000 0.000000
# 3 -0.002830 -0.006025 0.009754 0.000000 0.000000 0.000000
# 4 0.000000 0.000000 0.000000 0.033585 0.000000 0.000000
# 5 0.000000 0.000000 0.000000 0.000000 0.041768 0.000000
# 6 0.000000 0.000000 0.000000 0.000000 0.000000 0.045031
#
#
# Mechanical properties :
#
#
# Convention : Reuss Voigt Hill
#
# Bulk Modulus (GPa) = 47.49788 56.23470 51.86629
# Shear Modulus (GPa) = 21.43234 24.75441 23.09338
#
# Velocity S-wave (km/s) = 3.46642 3.72540 3.59824
# Velocity P-wave (km/s) = 6.53079 7.07339 6.80750
#
# Compressibility (1/GPa) = 0.02105357
#
# Stress axis : x y z
#
# Youngs Moduli (GPa) = 42.36607 33.20701 102.51992
#
# Poissons Ratio (x) = 0.41025 0.29017
# Poissons Ratio (y) = 0.52340 0.61765
# Poissons Ratio (z) = 0.11991 0.20006
#
# Static dielectric constant tensor:
#      x y z
#    x 3.156780 0.000000 0.000000 
#    y 0.000000 3.025440 0.000000 
#    z 0.000000 0.000000 3.762130 
# 
# 
# High freq. dielectric constant tensor:
#      x y z
#    x 1.662820 0.000000 0.000000 
#    y 0.000000 1.665050 0.000000 
#    z 0.000000 0.000000 1.711120 
# 
# From -- ./inp_files/21537.got.cif
#   From: 2010.03.12/outbox.cif.g09.slc.cpg/sg38_11_cif.got.tgz:21537.got - 2010.04.14 02:38:36.
