data_PCOD8178453
_publ_section_title
;
Structure prediction by ZEFSAII (Michael W. Deem and Ramdas Pophale) SiO2 
 PCOD8178453
Probable space group: A M M 2
;
_chemical_formula_sum "Si O2"
_cell_formula_units_Z 48
_cell_length_a 9.715637
_cell_length_b 18.132355
_cell_length_c 15.095517
_cell_angle_alpha 90.000000
_cell_angle_beta 90.000000
_cell_angle_gamma 90.000000
_cell_volume 2659.337667
_symmetry_space_group_name_H-M "A M M 2"
_symmetry_group_IT_number 38
_symmetry_cell_setting 'orthorhombic'
loop_
_space_group_symop_operation_xyz
x,y,z
-x,-y,z
-x,y,z
x,-y,z
x,1/2+y,1/2+z
-x,1/2-y,1/2+z
-x,1/2+y,1/2+z
x,1/2-y,1/2+z
loop_
_atom_site_type_symbol
_atom_site_label
_atom_site_fract_x
_atom_site_fract_y
_atom_site_fract_z
Si Si1 0.660415 0.343955 0.965810
Si Si2 0.847167 0.375817 0.590646
Si Si3 0.155484 0.417788 0.395263
Si Si4 0.659606 0.755532 0.632934
Si Si5 0.336403 0.783908 0.833914
Si Si6 0.843837 0.000000 0.230175
Si Si7 0.664321 0.000000 0.400071
O O1 0.500000 0.345722 0.946249
O O2 0.720000 0.282369 0.896973
O O3 0.719666 0.426156 0.949315
O O4 0.691859 0.324909 0.068463
O O5 0.833367 0.421985 0.501101
O O6 0.736875 0.311782 0.588613
O O7 0.816716 0.427879 0.672928
O O8 0.000000 0.341414 0.598777
O O9 0.189733 0.500000 0.359208
O O10 0.264598 0.360413 0.357546
O O11 0.000000 0.394938 0.367074
O O12 0.500000 0.735464 0.630465
O O13 0.708527 0.768618 0.732869
O O14 0.500000 0.794520 0.843175
O O15 0.728374 0.000000 0.303785
O O16 0.000000 0.000000 0.268176
O O17 0.500000 0.000000 0.391986
#
# Coordination Sequence:
#
# PCOD8178453 Si02
#       7
#     8   8   8   8   8   4   4
#     4   9  18  34  54  77 109 142 176 222 266 311
#     4  10  19  33  54  79 107 140 176 216 269 329
#     4  10  20  36  56  78 108 144 178 217 269 323
#     4  10  20  35  55  80 109 142 178 222 270 315
#     4  10  20  35  55  80 108 141 183 225 267 319
#     4  10  20  34  52  79 112 136 170 227 276 317
#     4  10  20  36  56  77 106 146 184 215 262 323
#
# _framework density 18.049607000000002
#
# number of rings (size 3 to 8) (size 9 to 14) (size 15 to 20)
#    0.000    2.167    2.500    1.000    0.000    3.000 
#    1.500    1.667    0.000    0.000    0.000    0.000 
#    0.000    0.000    0.000    0.000    0.000    0.000 
#
# Total GULP energy -297510.848695 kJ/mol
# GULP energy per Si atom -12396.285362 kJ/mol
# Density = 1.800852 g / cm^3
# Si number density = 18.049607 Si / 1000 Ang^3
#
#
#
# Elastic Constant Matrix: (Units=GPa)
#
#
# Indices 1 2 3 4 5 6 
#
# 1 37.7716 37.5268 20.7165 0.0000 0.0000 0.0000
# 2 37.5268 128.0366 37.5591 0.0000 0.0000 0.0000
# 3 20.7165 37.5591 89.0448 0.0000 0.0000 0.0000
# 4 0.0000 0.0000 0.0000 19.9423 0.0000 0.0000
# 5 0.0000 0.0000 0.0000 0.0000 20.3962 0.0000
# 6 0.0000 0.0000 0.0000 0.0000 0.0000 11.7041
#
#
#
# Elastic Compliance Matrix: (Units=1/GPa)
#
#
# Indices 1 2 3 4 5 6 
#
# 1 0.039116 -0.010037 -0.004867 0.000000 0.000000 0.000000
# 2 -0.010037 0.011489 -0.002511 0.000000 0.000000 0.000000
# 3 -0.004867 -0.002511 0.013422 0.000000 0.000000 0.000000
# 4 0.000000 0.000000 0.000000 0.050145 0.000000 0.000000
# 5 0.000000 0.000000 0.000000 0.000000 0.049029 0.000000
# 6 0.000000 0.000000 0.000000 0.000000 0.000000 0.085440
#
#
# Mechanical properties :
#
#
# Convention : Reuss Voigt Hill
#
# Bulk Modulus (GPa) = 34.24996 49.60641 41.92818
# Shear Modulus (GPa) = 17.05310 21.01188 19.03249
#
# Velocity S-wave (km/s) = 3.07708 3.41562 3.25076
# Velocity P-wave (km/s) = 5.62505 6.56493 6.11308
#
# Compressibility (1/GPa) = 0.02919712
#
# Stress axis : x y z
#
# Youngs Moduli (GPa) = 25.56488 87.04290 74.50668
#
# Poissons Ratio (x) = 0.87365 0.36261
# Poissons Ratio (y) = 0.25660 0.18707
# Poissons Ratio (z) = 0.12442 0.21854
#
# Static dielectric constant tensor:
#      x y z
#    x 3.152780 0.000000 0.000000 
#    y 0.000000 3.541630 0.000000 
#    z 0.000000 0.000000 3.402620 
# 
# 
# High freq. dielectric constant tensor:
#      x y z
#    x 1.679890 0.000000 0.000000 
#    y 0.000000 1.701860 0.000000 
#    z 0.000000 0.000000 1.698470 
# 
# From -- ./inp_files/12101.got.cif
#   From: 2010.03.12/outbox.cif.g09.slc.cpg/sg38_7_cif.got.tgz:12101.got - 2010.04.14 02:38:36.
