data_PCOD8178995
_publ_section_title
;
Structure prediction by ZEFSAII (Michael W. Deem and Ramdas Pophale) SiO2 
 PCOD8178995
Probable space group: A M M 2
;
_chemical_formula_sum "Si O2"
_cell_formula_units_Z 64
_cell_length_a 20.146782
_cell_length_b 9.155497
_cell_length_c 18.582334
_cell_angle_alpha 90.000000
_cell_angle_beta 90.000000
_cell_angle_gamma 90.000000
_cell_volume 3427.582159
_symmetry_space_group_name_H-M "A M M 2"
_symmetry_group_IT_number 38
_symmetry_cell_setting 'orthorhombic'
loop_
_space_group_symop_operation_xyz
x,y,z
-x,-y,z
-x,y,z
x,-y,z
x,1/2+y,1/2+z
-x,1/2-y,1/2+z
-x,1/2+y,1/2+z
x,1/2-y,1/2+z
loop_
_atom_site_type_symbol
_atom_site_label
_atom_site_fract_x
_atom_site_fract_y
_atom_site_fract_z
Si Si1 0.926192 0.826577 0.022030
Si Si2 0.805935 0.171732 0.116487
Si Si3 0.422910 0.169812 0.619238
Si Si4 0.926192 0.173422 0.861167
Si Si5 0.422911 0.169813 0.263958
Si Si6 0.805935 0.671731 0.266708
Si Si7 0.322495 0.168496 0.858403
Si Si8 0.322495 0.168497 0.024794
O O1 0.872031 0.765015 0.077820
O O2 0.000000 0.778246 0.047271
O O3 0.920828 0.000000 0.019484
O O4 0.912069 0.765816 0.941598
O O5 0.795836 0.249997 0.191599
O O6 0.744143 0.211306 0.066286
O O7 0.811650 0.000000 0.130042
O O8 0.500000 0.199487 0.604123
O O9 0.399003 0.249999 0.691598
O O10 0.383142 0.233074 0.551836
O O11 0.407193 0.000000 0.628706
O O12 0.872030 0.234984 0.805377
O O13 0.000000 0.221753 0.835926
O O14 0.920828 0.000000 0.863714
O O15 0.500000 0.199492 0.279074
O O16 0.383141 0.233070 0.331360
O O17 0.407196 0.000000 0.254488
O O18 0.811653 0.500000 0.253150
O O19 0.744144 0.711298 0.316910
O O20 0.341309 0.000000 0.845845
O O21 0.310165 0.202898 0.941598
O O22 0.341306 0.000000 0.037353
#
# Coordination Sequence:
#
# PCOD8178995 Si02
#       8
#     8   8   8   8   8   8   8   8
#     4   8  14  27  49  74  98 128 168 210 249 293
#     4  10  20  33  50  74 103 133 168 210 254 301
#     4  10  21  37  57  80 106 136 170 209 253 303
#     4   8  14  27  49  74  98 128 168 210 249 293
#     4  10  21  37  57  80 106 136 170 209 253 303
#     4  10  20  33  50  74 103 133 168 210 254 301
#     4  10  21  36  54  76 103 136 173 214 259 306
#     4  10  21  36  54  76 103 136 173 214 259 306
#
# _framework density 18.672053999999999
#
# number of rings (size 3 to 8) (size 9 to 14) (size 15 to 20)
#    0.000    2.500    0.000    3.000    0.000    9.000 
#    0.000    2.500    0.000    2.250    0.000    1.750 
#    0.000    0.000    0.000    0.000    0.000    0.000 
#
# Total GULP energy -396842.698279 kJ/mol
# GULP energy per Si atom -12401.334321 kJ/mol
# Density = 1.862956 g / cm^3
# Si number density = 18.672054 Si / 1000 Ang^3
#
#
#
# Elastic Constant Matrix: (Units=GPa)
#
#
# Indices 1 2 3 4 5 6 
#
# 1 119.4891 54.4533 83.4841 0.0000 0.0000 0.0000
# 2 54.4533 57.2533 55.6833 0.0000 0.0000 0.0000
# 3 83.4841 55.6833 151.4363 0.0000 0.0000 0.0000
# 4 0.0000 0.0000 0.0000 28.8278 0.0000 0.0000
# 5 0.0000 0.0000 0.0000 0.0000 41.2013 0.0000
# 6 0.0000 0.0000 0.0000 0.0000 0.0000 11.7359
#
#
#
# Elastic Compliance Matrix: (Units=1/GPa)
#
#
# Indices 1 2 3 4 5 6 
#
# 1 0.017205 -0.011113 -0.005399 0.000000 0.000000 0.000000
# 2 -0.011113 0.034368 -0.006511 0.000000 0.000000 0.000000
# 3 -0.005399 -0.006511 0.011974 0.000000 0.000000 0.000000
# 4 0.000000 0.000000 0.000000 0.034689 0.000000 0.000000
# 5 0.000000 0.000000 0.000000 0.000000 0.024271 0.000000
# 6 0.000000 0.000000 0.000000 0.000000 0.000000 0.085209
#
#
# Mechanical properties :
#
#
# Convention : Reuss Voigt Hill
#
# Bulk Modulus (GPa) = 57.13663 79.49113 68.31388
# Shear Modulus (GPa) = 19.26078 25.32353 22.29215
#
# Velocity S-wave (km/s) = 3.21523 3.68669 3.45900
# Velocity P-wave (km/s) = 6.66709 7.79660 7.25386
#
# Compressibility (1/GPa) = 0.01750191
#
# Stress axis : x y z
#
# Youngs Moduli (GPa) = 58.12115 29.09668 83.51732
#
# Poissons Ratio (x) = 0.32336 0.45088
# Poissons Ratio (y) = 0.64592 0.54375
# Poissons Ratio (z) = 0.31378 0.18944
#
# Static dielectric constant tensor:
#      x y z
#    x 3.644660 0.000000 0.000000 
#    y 0.000000 3.134610 0.000000 
#    z 0.000000 0.000000 3.462760 
# 
# 
# High freq. dielectric constant tensor:
#      x y z
#    x 1.738500 0.000000 0.000000 
#    y 0.000000 1.692580 0.000000 
#    z 0.000000 0.000000 1.728450 
# 
# From -- ./inp_files/18874.got.cif
#   From: 2010.03.12/outbox.cif.g09.slc.cpg/sg38_10_cif.got.tgz:18874.got - 2010.04.14 02:38:36.
