data_PCOD8178791
_publ_section_title
;
Structure prediction by ZEFSAII (Michael W. Deem and Ramdas Pophale) SiO2 
 PCOD8178791
Probable space group: A M M 2
;
_chemical_formula_sum "Si O2"
_cell_formula_units_Z 64
_cell_length_a 8.797338
_cell_length_b 26.063044
_cell_length_c 18.724263
_cell_angle_alpha 90.000000
_cell_angle_beta 90.000000
_cell_angle_gamma 90.000000
_cell_volume 4293.200270
_symmetry_space_group_name_H-M "A M M 2"
_symmetry_group_IT_number 38
_symmetry_cell_setting 'orthorhombic'
loop_
_space_group_symop_operation_xyz
x,y,z
-x,-y,z
-x,y,z
x,-y,z
x,1/2+y,1/2+z
-x,1/2-y,1/2+z
-x,1/2+y,1/2+z
x,1/2-y,1/2+z
loop_
_atom_site_type_symbol
_atom_site_label
_atom_site_fract_x
_atom_site_fract_y
_atom_site_fract_z
Si Si1 0.682538 0.257594 0.989370
Si Si2 0.824024 0.559253 0.136117
Si Si3 0.668059 0.196891 0.280494
Si Si4 0.680744 0.255979 0.149138
Si Si5 0.821491 0.148723 0.407998
Si Si6 0.666407 0.696603 0.362439
Si Si7 0.682212 0.142811 0.728051
Si Si8 0.322274 0.940695 0.487047
O O1 0.500000 0.259792 0.985105
O O2 0.742867 0.312198 0.962828
O O3 0.747484 0.211491 0.937816
O O4 0.742256 0.246495 0.069132
O O5 0.797001 0.500000 0.154455
O O6 0.759385 0.590409 0.203322
O O7 0.000000 0.571721 0.123483
O O8 0.733149 0.575716 0.065544
O O9 0.500000 0.171503 0.275106
O O10 0.736756 0.209681 0.201456
O O11 0.777174 0.159531 0.325455
O O12 0.651523 0.251068 0.318872
O O13 0.500000 0.255826 0.150678
O O14 0.737673 0.311621 0.175617
O O15 0.766044 0.091745 0.427447
O O16 0.000000 0.153338 0.416519
O O17 0.500000 0.675049 0.381116
O O18 0.744111 0.655145 0.309149
O O19 0.500000 0.137934 0.728016
O O20 0.500000 0.929182 0.481854
O O21 0.283679 0.000000 0.472434
#
# Coordination Sequence:
#
# PCOD8178791 Si02
#       8
#     8   8   8   8   8   8   8   8
#     4   9  15  26  43  61  82 109 139 167 198 236
#     4  10  20  31  41  57  81 104 129 167 209 241
#     4   8  14  27  42  56  77 105 135 163 192 230
#     4   8  14  24  42  63  79 101 135 169 195 226
#     4  11  20  28  40  60  84 109 135 163 199 236
#     4   7  12  22  37  56  78 104 134 168 197 226
#     4   9  15  25  40  57  78 107 141 167 192 232
#     4  10  20  33  47  60  75 101 136 168 198 235
#
# _framework density 14.907294
#
# number of rings (size 3 to 8) (size 9 to 14) (size 15 to 20)
#    0.000    3.000    0.000    4.875    0.000    2.500 
#    0.000    6.250    0.000    0.000    0.000    0.000 
#    0.000    1.000    0.000    8.250    0.000    2.000 
#
# Total GULP energy -396471.351707 kJ/mol
# GULP energy per Si atom -12389.729741 kJ/mol
# Density = 1.487336 g / cm^3
# Si number density = 14.907294 Si / 1000 Ang^3
#
#
#
# Elastic Constant Matrix: (Units=GPa)
#
#
# Indices 1 2 3 4 5 6 
#
# 1 42.1742 22.6821 24.1110 0.0000 0.0000 0.0000
# 2 22.6821 61.2461 48.2819 0.0000 0.0000 0.0000
# 3 24.1110 48.2819 119.9497 0.0000 0.0000 0.0000
# 4 0.0000 0.0000 0.0000 27.1180 0.0000 0.0000
# 5 0.0000 0.0000 0.0000 0.0000 8.2433 0.0000
# 6 0.0000 0.0000 0.0000 0.0000 0.0000 13.9033
#
#
#
# Elastic Compliance Matrix: (Units=1/GPa)
#
#
# Indices 1 2 3 4 5 6 
#
# 1 0.030030 -0.009320 -0.002285 0.000000 0.000000 0.000000
# 2 -0.009320 0.026809 -0.008918 0.000000 0.000000 0.000000
# 3 -0.002285 -0.008918 0.012386 0.000000 0.000000 0.000000
# 4 0.000000 0.000000 0.000000 0.036876 0.000000 0.000000
# 5 0.000000 0.000000 0.000000 0.000000 0.121310 0.000000
# 6 0.000000 0.000000 0.000000 0.000000 0.000000 0.071925
#
#
# Mechanical properties :
#
#
# Convention : Reuss Voigt Hill
#
# Bulk Modulus (GPa) = 35.48689 45.94667 40.71678
# Shear Modulus (GPa) = 14.29490 18.40593 16.35042
#
# Velocity S-wave (km/s) = 3.10000 3.51763 3.31540
# Velocity P-wave (km/s) = 6.05558 6.88381 6.48294
#
# Compressibility (1/GPa) = 0.02817942
#
# Stress axis : x y z
#
# Youngs Moduli (GPa) = 33.30003 37.30036 80.73865
#
# Poissons Ratio (x) = 0.34765 0.18446
# Poissons Ratio (y) = 0.31037 0.72001
# Poissons Ratio (z) = 0.07608 0.33264
#
# Static dielectric constant tensor:
#      x y z
#    x 2.679590 0.000000 0.000000 
#    y 0.000000 2.714500 0.000000 
#    z 0.000000 0.000000 3.329050 
# 
# 
# High freq. dielectric constant tensor:
#      x y z
#    x 1.552000 0.000000 0.000000 
#    y 0.000000 1.535130 0.000000 
#    z 0.000000 0.000000 1.567680 
# 
# From -- ./inp_files/20264.got.cif
#   From: 2010.03.12/outbox.cif.g09.slc.cpg/sg38_11_cif.got.tgz:20264.got - 2010.04.14 02:38:36.
