data_PCOD8178729
_publ_section_title
;
Structure prediction by ZEFSAII (Michael W. Deem and Ramdas Pophale) SiO2 
 PCOD8178729
Probable space group: A M M 2
;
_chemical_formula_sum "Si O2"
_cell_formula_units_Z 56
_cell_length_a 19.538253
_cell_length_b 15.241639
_cell_length_c 10.027991
_cell_angle_alpha 90.000000
_cell_angle_beta 90.000000
_cell_angle_gamma 90.000000
_cell_volume 2986.285569
_symmetry_space_group_name_H-M "A M M 2"
_symmetry_group_IT_number 38
_symmetry_cell_setting 'orthorhombic'
loop_
_space_group_symop_operation_xyz
x,y,z
-x,-y,z
-x,y,z
x,-y,z
x,1/2+y,1/2+z
-x,1/2-y,1/2+z
-x,1/2+y,1/2+z
x,1/2-y,1/2+z
loop_
_atom_site_type_symbol
_atom_site_label
_atom_site_fract_x
_atom_site_fract_y
_atom_site_fract_z
Si Si1 0.921517 0.100861 0.413260
Si Si2 0.353975 0.401240 0.669846
Si Si3 0.829149 0.249333 0.804989
Si Si4 0.500000 0.669874 0.675015
Si Si5 0.352457 0.400956 0.977316
Si Si6 0.078903 0.901031 0.723534
Si Si7 0.500000 0.168346 0.478579
Si Si8 0.263326 0.254225 0.554321
O O1 0.871731 0.161782 0.327609
O O2 0.910143 0.121307 0.568476
O O3 0.000000 0.119728 0.373109
O O4 0.902802 0.000000 0.381928
O O5 0.333551 0.500000 0.631320
O O6 0.434598 0.390165 0.646298
O O7 0.312840 0.336609 0.574197
O O8 0.335113 0.381375 0.823112
O O9 0.878642 0.165323 0.815258
O O10 0.798061 0.253769 0.658286
O O11 0.767995 0.237468 0.908158
O O12 0.500000 0.751761 0.578634
O O13 0.500000 0.704700 0.827295
O O14 0.331598 0.500000 0.015823
O O15 0.433125 0.390317 0.005021
O O16 0.307866 0.334861 0.066967
O O17 0.000000 0.890584 0.762625
O O18 0.103663 0.000000 0.753339
#
# Coordination Sequence:
#
# PCOD8178729 Si02
#       8
#     8   8   8   4   8   8   4   8
#     4   9  19  38  64  89 113 150 197 239 284 345
#     4  10  21  39  61  86 115 153 200 244 293 347
#     4  12  23  38  59  88 121 154 195 232 290 344
#     4  10  19  35  65  86 112 148 193 251 297 340
#     4  10  21  39  62  86 114 154 202 242 287 350
#     4   9  19  38  63  88 115 150 193 241 291 343
#     4  10  19  35  65  88 112 146 193 251 299 336
#     4  12  24  37  58  85 120 162 191 234 288 346
#
# _framework density 18.752393000000001
#
# number of rings (size 3 to 8) (size 9 to 14) (size 15 to 20)
#    0.000    1.714    4.286    1.714    0.000    4.000 
#    0.000    0.000    0.000    2.571    0.000    0.000 
#    0.000    0.000    0.000    0.000    0.000    0.000 
#
# Total GULP energy -347282.907410 kJ/mol
# GULP energy per Si atom -12402.960979 kJ/mol
# Density = 1.870971 g / cm^3
# Si number density = 18.752393 Si / 1000 Ang^3
#
#
#
# Elastic Constant Matrix: (Units=GPa)
#
#
# Indices 1 2 3 4 5 6 
#
# 1 100.3064 66.5073 27.0514 0.0000 0.0000 0.0000
# 2 66.5073 146.3997 37.3309 0.0000 0.0000 0.0000
# 3 27.0514 37.3309 38.4039 0.0000 0.0000 0.0000
# 4 0.0000 0.0000 0.0000 31.9882 0.0000 0.0000
# 5 0.0000 0.0000 0.0000 0.0000 32.4406 0.0000
# 6 0.0000 0.0000 0.0000 0.0000 0.0000 18.5876
#
#
#
# Elastic Compliance Matrix: (Units=1/GPa)
#
#
# Indices 1 2 3 4 5 6 
#
# 1 0.015023 -0.005486 -0.005249 0.000000 0.000000 0.000000
# 2 -0.005486 0.011085 -0.006911 0.000000 0.000000 0.000000
# 3 -0.005249 -0.006911 0.036454 0.000000 0.000000 0.000000
# 4 0.000000 0.000000 0.000000 0.031262 0.000000 0.000000
# 5 0.000000 0.000000 0.000000 0.000000 0.030826 0.000000
# 6 0.000000 0.000000 0.000000 0.000000 0.000000 0.053799
#
#
# Mechanical properties :
#
#
# Convention : Reuss Voigt Hill
#
# Bulk Modulus (GPa) = 36.67062 60.76549 48.71805
# Shear Modulus (GPa) = 22.43857 26.88463 24.66160
#
# Velocity S-wave (km/s) = 3.46290 3.79048 3.63039
# Velocity P-wave (km/s) = 5.96545 7.18551 6.60371
#
# Compressibility (1/GPa) = 0.02726979
#
# Stress axis : x y z
#
# Youngs Moduli (GPa) = 66.56669 90.21079 27.43157
#
# Poissons Ratio (x) = 0.49490 0.14399
# Poissons Ratio (y) = 0.36519 0.18958
# Poissons Ratio (z) = 0.34941 0.62346
#
# Static dielectric constant tensor:
#      x y z
#    x 3.549500 0.000000 0.000000 
#    y 0.000000 3.507200 0.000000 
#    z 0.000000 0.000000 3.221250 
# 
# 
# High freq. dielectric constant tensor:
#      x y z
#    x 1.742160 0.000000 0.000000 
#    y 0.000000 1.734190 0.000000 
#    z 0.000000 0.000000 1.703340 
# 
# From -- ./inp_files/6770.got.cif
#   From: 2010.03.12/outbox.cif.g09.slc.cpg/sg38_4_cif.got.tgz:6770.got - 2010.04.14 02:38:36.
