data_PCOD8178917
_publ_section_title
;
Structure prediction by ZEFSAII (Michael W. Deem and Ramdas Pophale) SiO2 
 PCOD8178917
Probable space group: A M M 2
;
_chemical_formula_sum "Si O2"
_cell_formula_units_Z 48
_cell_length_a 17.471242
_cell_length_b 7.624010
_cell_length_c 18.022460
_cell_angle_alpha 90.000000
_cell_angle_beta 90.000000
_cell_angle_gamma 90.000000
_cell_volume 2400.608320
_symmetry_space_group_name_H-M "A M M 2"
_symmetry_group_IT_number 38
_symmetry_cell_setting 'orthorhombic'
loop_
_space_group_symop_operation_xyz
x,y,z
-x,-y,z
-x,y,z
x,-y,z
x,1/2+y,1/2+z
-x,1/2-y,1/2+z
-x,1/2+y,1/2+z
x,1/2-y,1/2+z
loop_
_atom_site_type_symbol
_atom_site_label
_atom_site_fract_x
_atom_site_fract_y
_atom_site_fract_z
Si Si1 0.649851 0.198682 0.304360
Si Si2 0.352363 0.206380 0.972071
Si Si3 0.914645 0.000000 0.553982
Si Si4 0.500000 0.289884 0.727358
Si Si5 0.198461 0.699833 0.555812
Si Si6 0.915215 0.000000 0.729750
Si Si7 0.500000 0.791560 0.059606
Si Si8 0.198211 0.702012 0.730030
O O1 0.647683 0.203855 0.392570
O O2 0.574574 0.289033 0.269140
O O3 0.727885 0.281573 0.272367
O O4 0.650814 0.000000 0.276142
O O5 0.358713 0.000000 0.960897
O O6 0.275707 0.258984 0.015144
O O7 0.424721 0.279454 0.017914
O O8 0.869799 0.825413 0.527738
O O9 0.921018 0.000000 0.641774
O O10 0.000000 0.000000 0.518846
O O11 0.500000 0.500000 0.731729
O O12 0.500000 0.219646 0.643343
O O13 0.175749 0.500000 0.536010
O O14 0.213853 0.720948 0.642857
O O15 0.872391 0.176940 0.755967
O O16 0.000000 0.000000 0.765147
O O17 0.500000 0.000000 0.061229
O O18 0.179727 0.500000 0.751563
#
# Coordination Sequence:
#
# PCOD8178917 Si02
#       8
#     8   8   4   4   8   4   4   8
#     4  10  20  32  51  77 103 142 178 218 264 314
#     4  10  20  32  51  77 103 142 178 218 264 314
#     4   9  18  32  54  83 109 135 169 219 277 321
#     4   9  17  32  53  75 104 139 180 222 261 309
#     4   9  18  33  53  78 106 139 180 220 264 318
#     4   9  18  32  54  83 109 135 169 219 277 321
#     4   9  17  32  53  75 104 139 180 222 261 309
#     4   9  18  33  53  78 106 139 180 220 264 318
#
# _framework density 19.994933
#
# number of rings (size 3 to 8) (size 9 to 14) (size 15 to 20)
#    0.000    2.667    0.000    1.500    2.333    4.667 
#    0.000    3.333    0.000    2.000    0.000    0.000 
#    0.000    0.000    0.000    0.000    0.000    0.000 
#
# Total GULP energy -297566.147428 kJ/mol
# GULP energy per Si atom -12398.589476 kJ/mol
# Density = 1.994942 g / cm^3
# Si number density = 19.994933 Si / 1000 Ang^3
#
#
#
# Elastic Constant Matrix: (Units=GPa)
#
#
# Indices 1 2 3 4 5 6 
#
# 1 214.4311 67.5508 64.1265 0.0000 0.0000 0.0000
# 2 67.5508 76.1641 22.6394 0.0000 0.0000 0.0000
# 3 64.1265 22.6394 88.3297 0.0000 0.0000 0.0000
# 4 0.0000 0.0000 0.0000 19.8969 0.0000 0.0000
# 5 0.0000 0.0000 0.0000 0.0000 11.1472 0.0000
# 6 0.0000 0.0000 0.0000 0.0000 0.0000 9.9677
#
#
#
# Elastic Compliance Matrix: (Units=1/GPa)
#
#
# Indices 1 2 3 4 5 6 
#
# 1 0.007649 -0.005556 -0.004129 0.000000 0.000000 0.000000
# 2 -0.005556 0.018249 -0.000643 0.000000 0.000000 0.000000
# 3 -0.004129 -0.000643 0.014484 0.000000 0.000000 0.000000
# 4 0.000000 0.000000 0.000000 0.050259 0.000000 0.000000
# 5 0.000000 0.000000 0.000000 0.000000 0.089708 0.000000
# 6 0.000000 0.000000 0.000000 0.000000 0.000000 0.100324
#
#
# Mechanical properties :
#
#
# Convention : Reuss Voigt Hill
#
# Bulk Modulus (GPa) = 50.69961 76.39538 63.54749
# Shear Modulus (GPa) = 16.23881 23.17623 19.70752
#
# Velocity S-wave (km/s) = 2.85291 3.40826 3.14287
# Velocity P-wave (km/s) = 6.02191 7.33339 6.70977
#
# Compressibility (1/GPa) = 0.01972402
#
# Stress axis : x y z
#
# Youngs Moduli (GPa) = 130.74291 54.79801 69.04404
#
# Poissons Ratio (x) = 0.30448 0.28506
# Poissons Ratio (y) = 0.72646 0.04442
# Poissons Ratio (z) = 0.53979 0.03526
#
# Static dielectric constant tensor:
#      x y z
#    x 3.942080 0.000000 0.000000 
#    y 0.000000 3.509180 0.000000 
#    z 0.000000 0.000000 3.346450 
# 
# 
# High freq. dielectric constant tensor:
#      x y z
#    x 1.784550 0.000000 0.000000 
#    y 0.000000 1.770500 0.000000 
#    z 0.000000 0.000000 1.757170 
# 
# From -- ./inp_files/18303.got.cif
#   From: 2010.03.12/outbox.cif.g09.slc.cpg/sg38_10_cif.got.tgz:18303.got - 2010.04.14 02:38:36.
