data_PCOD8178789
_publ_section_title
;
Structure prediction by ZEFSAII (Michael W. Deem and Ramdas Pophale) SiO2 
 PCOD8178789
Probable space group: A M M 2
;
_chemical_formula_sum "Si O2"
_cell_formula_units_Z 48
_cell_length_a 7.863181
_cell_length_b 7.712741
_cell_length_c 37.942555
_cell_angle_alpha 90.000000
_cell_angle_beta 90.000000
_cell_angle_gamma 90.000000
_cell_volume 2301.089934
_symmetry_space_group_name_H-M "A M M 2"
_symmetry_group_IT_number 38
_symmetry_cell_setting 'orthorhombic'
loop_
_space_group_symop_operation_xyz
x,y,z
-x,-y,z
-x,y,z
x,-y,z
x,1/2+y,1/2+z
-x,1/2-y,1/2+z
-x,1/2+y,1/2+z
x,1/2-y,1/2+z
loop_
_atom_site_type_symbol
_atom_site_label
_atom_site_fract_x
_atom_site_fract_y
_atom_site_fract_z
Si Si1 0.000000 0.196731 0.002260
Si Si2 0.000000 0.700166 0.923971
Si Si3 0.690912 0.706780 0.546112
Si Si4 0.688961 0.295318 0.623455
Si Si5 0.305279 0.000000 0.818533
Si Si6 0.806508 0.809430 0.197160
Si Si7 0.194730 0.000000 0.741003
Si Si8 0.695470 0.199966 0.372436
O O1 0.172327 0.283479 0.018059
O O2 0.000000 0.000000 0.015426
O O3 0.000000 0.197293 0.960211
O O4 0.172139 0.749588 0.903086
O O5 0.000000 0.500000 0.933555
O O6 0.500000 0.777146 0.537541
O O7 0.684780 0.500000 0.544515
O O8 0.750833 0.772626 0.585109
O O9 0.500000 0.225769 0.630448
O O10 0.692699 0.500000 0.621122
O O11 0.799624 0.235041 0.657010
O O12 0.198120 0.000000 0.783054
O O13 0.261020 0.174100 0.840059
O O14 0.500000 0.000000 0.807234
O O15 0.718731 0.672930 0.224234
O O16 0.000000 0.833760 0.208230
O O17 0.716101 0.000000 0.200067
O O18 0.000000 0.000000 0.728323
O O19 0.500000 0.230329 0.385341
O O20 0.721999 0.000000 0.360497
#
# Coordination Sequence:
#
# PCOD8178789 Si02
#       8
#     4   4   8   8   4   8   4   8
#     4  10  20  30  50  82 106 137 179 222 274 332
#     4  10  22  38  58  82 110 147 185 217 275 339
#     4   8  15  28  45  72 108 139 178 230 277 323
#     4   8  14  26  47  71  95 133 182 228 269 314
#     4  10  22  38  60  86 110 148 188 223 281 338
#     4   9  18  32  50  73 103 141 184 224 273 328
#     4  10  22  36  50  78 116 144 174 230 284 323
#     4   9  20  39  60  86 116 144 184 232 274 328
#
# _framework density 20.859680000000001
#
# number of rings (size 3 to 8) (size 9 to 14) (size 15 to 20)
#    0.000    3.000    0.000    1.000    3.500    2.000 
#    0.000    0.000    1.833    0.000    0.000    0.000 
#    0.000    0.000    0.000    0.000    0.000    0.000 
#
# Total GULP energy -297323.342233 kJ/mol
# GULP energy per Si atom -12388.472593 kJ/mol
# Density = 2.081220 g / cm^3
# Si number density = 20.859680 Si / 1000 Ang^3
#
#
#
# Elastic Constant Matrix: (Units=GPa)
#
#
# Indices 1 2 3 4 5 6 
#
# 1 92.1418 29.2776 62.0639 0.0000 0.0000 0.0000
# 2 29.2776 75.8790 54.8221 0.0000 0.0000 0.0000
# 3 62.0639 54.8221 157.0455 0.0000 0.0000 0.0000
# 4 0.0000 0.0000 0.0000 1.6699 0.0000 0.0000
# 5 0.0000 0.0000 0.0000 0.0000 24.1402 0.0000
# 6 0.0000 0.0000 0.0000 0.0000 0.0000 8.0369
#
#
#
# Elastic Compliance Matrix: (Units=1/GPa)
#
#
# Indices 1 2 3 4 5 6 
#
# 1 0.015017 -0.002015 -0.005231 0.000000 0.000000 0.000000
# 2 -0.002015 0.017894 -0.005450 0.000000 0.000000 0.000000
# 3 -0.005231 -0.005450 0.010338 0.000000 0.000000 0.000000
# 4 0.000000 0.000000 0.000000 0.598847 0.000000 0.000000
# 5 0.000000 0.000000 0.000000 0.000000 0.041425 0.000000
# 6 0.000000 0.000000 0.000000 0.000000 0.000000 0.124426
#
#
# Mechanical properties :
#
#
# Convention : Reuss Voigt Hill
#
# Bulk Modulus (GPa) = 56.00404 68.59926 62.30165
# Shear Modulus (GPa) = 5.95742 18.69625 12.32683
#
# Velocity S-wave (km/s) = 1.69179 2.99705 2.43356
# Velocity P-wave (km/s) = 5.54279 6.70327 6.15046
#
# Compressibility (1/GPa) = 0.01785585
#
# Stress axis : x y z
#
# Youngs Moduli (GPa) = 66.59322 55.88454 96.73422
#
# Poissons Ratio (x) = 0.11258 0.50604
# Poissons Ratio (y) = 0.13415 0.52724
# Poissons Ratio (z) = 0.34837 0.30459
#
# Static dielectric constant tensor:
#      x y z
#    x 3.879470 0.000000 0.000000 
#    y 0.000000 3.744520 0.000000 
#    z 0.000000 0.000000 3.654950 
# 
# 
# High freq. dielectric constant tensor:
#      x y z
#    x 1.808490 0.000000 0.000000 
#    y 0.000000 1.797850 0.000000 
#    z 0.000000 0.000000 1.803040 
# 
# From -- ./inp_files/24444.got.cif
#   From: 2010.03.12/outbox.cif.g09.slc.cpg/sg38_13_cif.got.tgz:24444.got - 2010.04.14 02:38:36.
