data_PCOD8178722
_publ_section_title
;
Structure prediction by ZEFSAII (Michael W. Deem and Ramdas Pophale) SiO2 
 PCOD8178722
Probable space group: A M M 2
;
_chemical_formula_sum "Si O2"
_cell_formula_units_Z 48
_cell_length_a 8.645271
_cell_length_b 28.052857
_cell_length_c 9.841912
_cell_angle_alpha 90.000000
_cell_angle_beta 90.000000
_cell_angle_gamma 90.000000
_cell_volume 2386.905290
_symmetry_space_group_name_H-M "A M M 2"
_symmetry_group_IT_number 38
_symmetry_cell_setting 'orthorhombic'
loop_
_space_group_symop_operation_xyz
x,y,z
-x,-y,z
-x,y,z
x,-y,z
x,1/2+y,1/2+z
-x,1/2-y,1/2+z
-x,1/2+y,1/2+z
x,1/2-y,1/2+z
loop_
_atom_site_type_symbol
_atom_site_label
_atom_site_fract_x
_atom_site_fract_y
_atom_site_fract_z
Si Si1 0.183363 0.053777 0.261050
Si Si2 0.183620 0.710205 0.081342
Si Si3 0.679028 0.387501 0.002416
Si Si4 0.183775 0.703627 0.390924
Si Si5 0.176704 0.054208 0.725789
Si Si6 0.178336 0.103964 0.997000
O O1 0.227041 0.080690 0.397258
O O2 0.000000 0.051082 0.247617
O O3 0.251372 0.000000 0.262941
O O4 0.255303 0.083591 0.134578
O O5 0.243769 0.714043 0.237309
O O6 0.000000 0.704203 0.076877
O O7 0.259134 0.666054 0.003213
O O8 0.239046 0.756203 0.996625
O O9 0.500000 0.387805 0.964553
O O10 0.707234 0.410748 0.149191
O O11 0.254249 0.653579 0.445472
O O12 0.000000 0.701050 0.384364
O O13 0.198688 0.062806 0.885361
O O14 0.000000 0.065985 0.682968
O O15 0.218763 0.000000 0.691324
O O16 0.000000 0.114968 0.026605
#
# Coordination Sequence:
#
# PCOD8178722 Si02
#       6
#     8   8   8   8   8   8
#     4  10  21  37  60  88 116 150 194 244 293 340
#     4  10  20  37  61  89 115 145 189 241 291 344
#     4  12  25  39  55  80 118 162 197 233 282 343
#     4   9  18  32  59  92 116 141 181 235 292 339
#     4  10  19  35  62  89 112 143 187 242 296 344
#     4   9  17  33  59  91 118 142 182 239 295 347
#
# _framework density 20.109721
#
# number of rings (size 3 to 8) (size 9 to 14) (size 15 to 20)
#    0.000    2.000    1.667    2.500    2.333    4.667 
#    0.000    1.667    0.000    2.000    0.000    0.000 
#    0.000    0.000    0.000    0.000    0.000    0.000 
#
# Total GULP energy -297589.490739 kJ/mol
# GULP energy per Si atom -12399.562114 kJ/mol
# Density = 2.006395 g / cm^3
# Si number density = 20.109721 Si / 1000 Ang^3
#
#
#
# Elastic Constant Matrix: (Units=GPa)
#
#
# Indices 1 2 3 4 5 6 
#
# 1 21.5142 16.9016 10.5215 0.0000 0.0000 0.0000
# 2 16.9016 144.3700 61.9442 0.0000 0.0000 0.0000
# 3 10.5215 61.9442 116.7484 0.0000 0.0000 0.0000
# 4 0.0000 0.0000 0.0000 43.5935 0.0000 0.0000
# 5 0.0000 0.0000 0.0000 0.0000 2.1445 0.0000
# 6 0.0000 0.0000 0.0000 0.0000 0.0000 7.4589
#
#
#
# Elastic Compliance Matrix: (Units=1/GPa)
#
#
# Indices 1 2 3 4 5 6 
#
# 1 0.051501 -0.005228 -0.001867 0.000000 0.000000 0.000000
# 2 -0.005228 0.009499 -0.004569 0.000000 0.000000 0.000000
# 3 -0.001867 -0.004569 0.011158 0.000000 0.000000 0.000000
# 4 0.000000 0.000000 0.000000 0.022939 0.000000 0.000000
# 5 0.000000 0.000000 0.000000 0.000000 0.466305 0.000000
# 6 0.000000 0.000000 0.000000 0.000000 0.000000 0.134067
#
#
# Mechanical properties :
#
#
# Convention : Reuss Voigt Hill
#
# Bulk Modulus (GPa) = 20.47944 51.26301 35.87123
# Shear Modulus (GPa) = 6.80203 23.52375 15.16289
#
# Velocity S-wave (km/s) = 1.84114 3.42390 2.74890
# Velocity P-wave (km/s) = 3.83741 6.41699 5.28694
#
# Compressibility (1/GPa) = 0.04882947
#
# Stress axis : x y z
#
# Youngs Moduli (GPa) = 19.41700 105.27395 89.62303
#
# Poissons Ratio (x) = 0.55038 0.16737
# Poissons Ratio (y) = 0.10151 0.40947
# Poissons Ratio (z) = 0.03626 0.48098
#
# Static dielectric constant tensor:
#      x y z
#    x 3.089340 0.000000 0.000000 
#    y 0.000000 3.883310 0.000000 
#    z 0.000000 0.000000 3.774660 
# 
# 
# High freq. dielectric constant tensor:
#      x y z
#    x 1.724210 0.000000 0.000000 
#    y 0.000000 1.801240 0.000000 
#    z 0.000000 0.000000 1.797410 
# 
# From -- ./inp_files/3724.got.cif
#   From: 2010.03.12/outbox.cif.g09.slc.cpg/sg38_2_cif.got.tgz:3724.got - 2010.04.14 02:38:36.
