data_PCOD8178612
_publ_section_title
;
Structure prediction by ZEFSAII (Michael W. Deem and Ramdas Pophale) SiO2 
 PCOD8178612
Probable space group: A M M 2
;
_chemical_formula_sum "Si O2"
_cell_formula_units_Z 56
_cell_length_a 16.514034
_cell_length_b 8.982535
_cell_length_c 20.359651
_cell_angle_alpha 90.000000
_cell_angle_beta 90.000000
_cell_angle_gamma 90.000000
_cell_volume 3020.107638
_symmetry_space_group_name_H-M "A M M 2"
_symmetry_group_IT_number 38
_symmetry_cell_setting 'orthorhombic'
loop_
_space_group_symop_operation_xyz
x,y,z
-x,-y,z
-x,y,z
x,-y,z
x,1/2+y,1/2+z
-x,1/2-y,1/2+z
-x,1/2+y,1/2+z
x,1/2-y,1/2+z
loop_
_atom_site_type_symbol
_atom_site_label
_atom_site_fract_x
_atom_site_fract_y
_atom_site_fract_z
Si Si1 0.500000 0.824731 0.305600
Si Si2 0.240662 0.327275 0.990029
Si Si3 0.329275 0.826446 0.356637
Si Si4 0.338039 0.675592 0.118280
Si Si5 0.908251 0.174090 0.932692
Si Si6 0.091818 0.671005 0.794098
Si Si7 0.234551 0.825060 0.742826
Si Si8 0.500000 0.322877 0.656377
O O1 0.421558 0.771500 0.346229
O O2 0.500000 0.759641 0.231326
O O3 0.500000 0.000000 0.299252
O O4 0.217247 0.500000 0.993441
O O5 0.286199 0.274942 0.055463
O O6 0.302677 0.294424 0.930844
O O7 0.156629 0.236796 0.984627
O O8 0.273599 0.728174 0.310337
O O9 0.319676 0.000000 0.338144
O O10 0.355574 0.500000 0.118117
O O11 0.288479 0.727450 0.182060
O O12 0.422357 0.762343 0.117680
O O13 0.892307 0.252911 0.863742
O O14 0.000000 0.207030 0.957523
O O15 0.894194 0.000000 0.922709
O O16 0.116828 0.500000 0.802289
O O17 0.146397 0.748290 0.738195
O O18 0.000000 0.689751 0.770562
O O19 0.222645 0.000000 0.742975
O O20 0.500000 0.500000 0.654667
#
# Coordination Sequence:
#
# PCOD8178612 Si02
#       8
#     4   8   8   8   8   8   8   4
#     4   9  18  32  53  83 111 136 182 239 284 326
#     4  10  21  37  58  83 113 152 193 231 276 334
#     4  10  19  34  57  82 108 141 187 237 279 328
#     4  10  23  40  57  82 117 155 191 230 281 338
#     4  10  20  34  55  84 116 147 182 230 286 338
#     4  10  20  34  55  83 113 146 188 235 280 333
#     4  11  21  34  55  82 113 147 185 232 283 331
#     4  11  21  36  59  85 111 146 192 237 282 338
#
# _framework density 18.542386
#
# number of rings (size 3 to 8) (size 9 to 14) (size 15 to 20)
#    0.000    1.857    2.857    1.500    0.000    3.429 
#    0.000    3.214    0.000    4.286    0.000    0.000 
#    0.000    0.000    0.000    0.000    0.000    0.000 
#
# Total GULP energy -347262.740369 kJ/mol
# GULP energy per Si atom -12402.240727 kJ/mol
# Density = 1.850018 g / cm^3
# Si number density = 18.542386 Si / 1000 Ang^3
#
#
#
# Elastic Constant Matrix: (Units=GPa)
#
#
# Indices 1 2 3 4 5 6 
#
# 1 152.7973 62.2551 50.4715 0.0000 0.0000 0.0000
# 2 62.2551 78.4897 39.9283 0.0000 0.0000 0.0000
# 3 50.4715 39.9283 79.7190 0.0000 0.0000 0.0000
# 4 0.0000 0.0000 0.0000 23.2080 0.0000 0.0000
# 5 0.0000 0.0000 0.0000 0.0000 26.7772 0.0000
# 6 0.0000 0.0000 0.0000 0.0000 0.0000 34.4309
#
#
#
# Elastic Compliance Matrix: (Units=1/GPa)
#
#
# Indices 1 2 3 4 5 6 
#
# 1 0.010260 -0.006486 -0.003247 0.000000 0.000000 0.000000
# 2 -0.006486 0.021197 -0.006510 0.000000 0.000000 0.000000
# 3 -0.003247 -0.006510 0.017861 0.000000 0.000000 0.000000
# 4 0.000000 0.000000 0.000000 0.043089 0.000000 0.000000
# 5 0.000000 0.000000 0.000000 0.000000 0.037345 0.000000
# 6 0.000000 0.000000 0.000000 0.000000 0.000000 0.029044
#
#
# Mechanical properties :
#
#
# Convention : Reuss Voigt Hill
#
# Bulk Modulus (GPa) = 59.41586 68.47955 63.94771
# Shear Modulus (GPa) = 25.39469 27.43994 26.41732
#
# Velocity S-wave (km/s) = 3.70476 3.85105 3.77861
# Velocity P-wave (km/s) = 7.10022 7.53563 7.32116
#
# Compressibility (1/GPa) = 0.01683052
#
# Stress axis : x y z
#
# Youngs Moduli (GPa) = 97.46817 47.17713 55.98888
#
# Poissons Ratio (x) = 0.30598 0.18180
# Poissons Ratio (y) = 0.63216 0.36451
# Poissons Ratio (z) = 0.31649 0.30714
#
# Static dielectric constant tensor:
#      x y z
#    x 3.873940 0.000000 0.000000 
#    y 0.000000 3.338850 0.000000 
#    z 0.000000 0.000000 3.283750 
# 
# 
# High freq. dielectric constant tensor:
#      x y z
#    x 1.738330 0.000000 0.000000 
#    y 0.000000 1.715370 0.000000 
#    z 0.000000 0.000000 1.697030 
# 
# From -- ./inp_files/21171.got.cif
#   From: 2010.03.12/outbox.cif.g09.slc.cpg/sg38_11_cif.got.tgz:21171.got - 2010.04.14 02:38:36.
