data_PCOD8178180
_publ_section_title
;
Structure prediction by ZEFSAII (Michael W. Deem and Ramdas Pophale) SiO2 
 PCOD8178180
Probable space group: A M M 2
;
_chemical_formula_sum "Si O2"
_cell_formula_units_Z 48
_cell_length_a 14.170093
_cell_length_b 9.060752
_cell_length_c 20.694045
_cell_angle_alpha 90.000000
_cell_angle_beta 90.000000
_cell_angle_gamma 90.000000
_cell_volume 2656.943586
_symmetry_space_group_name_H-M "A M M 2"
_symmetry_group_IT_number 38
_symmetry_cell_setting 'orthorhombic'
loop_
_space_group_symop_operation_xyz
x,y,z
-x,-y,z
-x,y,z
x,-y,z
x,1/2+y,1/2+z
-x,1/2-y,1/2+z
-x,1/2+y,1/2+z
x,1/2-y,1/2+z
loop_
_atom_site_type_symbol
_atom_site_label
_atom_site_fract_x
_atom_site_fract_y
_atom_site_fract_z
Si Si1 0.109993 0.829284 0.088700
Si Si2 0.216466 0.825286 0.703213
Si Si3 0.397127 0.675504 0.513026
Si Si4 0.606859 0.171707 0.160319
Si Si5 0.106809 0.675932 0.329360
Si Si6 0.205609 0.674912 0.457206
O O1 0.164307 0.730950 0.139821
O O2 0.000000 0.800717 0.096902
O O3 0.136960 0.000000 0.099994
O O4 0.140274 0.778420 0.017232
O O5 0.322892 0.763307 0.706015
O O6 0.160627 0.766993 0.765904
O O7 0.220026 0.000000 0.702079
O O8 0.500000 0.735069 0.489288
O O9 0.398572 0.500000 0.511994
O O10 0.378784 0.725799 0.586607
O O11 0.312558 0.736429 0.467865
O O12 0.500000 0.203245 0.183087
O O13 0.631441 0.000000 0.166576
O O14 0.105292 0.500000 0.331909
O O15 0.161116 0.741642 0.391900
O O16 0.000000 0.737380 0.328447
O O17 0.208987 0.500000 0.451302
#
# Coordination Sequence:
#
# PCOD8178180 Si02
#       6
#     8   8   8   8   8   8
#     4  10  19  31  51  76  97 123 171 227 261 289
#     4  11  21  32  48  73 107 139 165 201 252 311
#     4   8  13  23  44  73  98 118 149 201 257 295
#     4   9  17  32  54  77 101 130 166 209 253 298
#     4   9  18  31  45  65  99 141 173 200 248 304
#     4   9  15  27  48  72  96 124 167 216 255 291
#
# _framework density 18.065871000000001
#
# number of rings (size 3 to 8) (size 9 to 14) (size 15 to 20)
#    0.000    2.667    1.667    2.500    0.000    3.333 
#    0.000    0.833    0.000    5.000    0.000    0.000 
#    0.000    0.000    0.000    0.000    0.000    0.000 
#
# Total GULP energy -297510.125923 kJ/mol
# GULP energy per Si atom -12396.255247 kJ/mol
# Density = 1.802475 g / cm^3
# Si number density = 18.065871 Si / 1000 Ang^3
#
#
#
# Elastic Constant Matrix: (Units=GPa)
#
#
# Indices 1 2 3 4 5 6 
#
# 1 163.5456 30.9958 70.4077 0.0000 0.0000 0.0000
# 2 30.9958 29.0052 25.4148 0.0000 0.0000 0.0000
# 3 70.4077 25.4148 109.4366 0.0000 0.0000 0.0000
# 4 0.0000 0.0000 0.0000 17.0087 0.0000 0.0000
# 5 0.0000 0.0000 0.0000 0.0000 36.4463 0.0000
# 6 0.0000 0.0000 0.0000 0.0000 0.0000 22.6927
#
#
#
# Elastic Compliance Matrix: (Units=1/GPa)
#
#
# Indices 1 2 3 4 5 6 
#
# 1 0.009177 -0.005817 -0.004553 0.000000 0.000000 0.000000
# 2 -0.005817 0.046972 -0.007166 0.000000 0.000000 0.000000
# 3 -0.004553 -0.007166 0.013731 0.000000 0.000000 0.000000
# 4 0.000000 0.000000 0.000000 0.058793 0.000000 0.000000
# 5 0.000000 0.000000 0.000000 0.000000 0.027438 0.000000
# 6 0.000000 0.000000 0.000000 0.000000 0.000000 0.044067
#
#
# Mechanical properties :
#
#
# Convention : Reuss Voigt Hill
#
# Bulk Modulus (GPa) = 28.72941 61.73600 45.23270
# Shear Modulus (GPa) = 20.25489 26.90748 23.58119
#
# Velocity S-wave (km/s) = 3.35202 3.86347 3.61680
# Velocity P-wave (km/s) = 5.56044 7.35859 6.52178
#
# Compressibility (1/GPa) = 0.03480754
#
# Stress axis : x y z
#
# Youngs Moduli (GPa) = 108.96453 21.28935 72.82631
#
# Poissons Ratio (x) = 0.12385 0.33161
# Poissons Ratio (y) = 0.63389 0.52185
# Poissons Ratio (z) = 0.49616 0.15255
#
# Static dielectric constant tensor:
#      x y z
#    x 3.831980 0.000000 0.000000 
#    y 0.000000 2.817180 0.000000 
#    z 0.000000 0.000000 3.369320 
# 
# 
# High freq. dielectric constant tensor:
#      x y z
#    x 1.724570 0.000000 0.000000 
#    y 0.000000 1.641340 0.000000 
#    z 0.000000 0.000000 1.685600 
# 
# From -- ./inp_files/18152.got.cif
#   From: 2010.03.12/outbox.cif.g09.slc.cpg/sg38_10_cif.got.tgz:18152.got - 2010.04.14 02:38:36.
