data_PCOD8178794
_publ_section_title
;
Structure prediction by ZEFSAII (Michael W. Deem and Ramdas Pophale) SiO2 
 PCOD8178794
Probable space group: A M M 2
;
_chemical_formula_sum "Si O2"
_cell_formula_units_Z 48
_cell_length_a 8.867239
_cell_length_b 13.831342
_cell_length_c 24.236501
_cell_angle_alpha 90.000000
_cell_angle_beta 90.000000
_cell_angle_gamma 90.000000
_cell_volume 2972.505423
_symmetry_space_group_name_H-M "A M M 2"
_symmetry_group_IT_number 38
_symmetry_cell_setting 'orthorhombic'
loop_
_space_group_symop_operation_xyz
x,y,z
-x,-y,z
-x,y,z
x,-y,z
x,1/2+y,1/2+z
-x,1/2-y,1/2+z
-x,1/2+y,1/2+z
x,1/2-y,1/2+z
loop_
_atom_site_type_symbol
_atom_site_label
_atom_site_fract_x
_atom_site_fract_y
_atom_site_fract_z
Si Si1 0.179334 0.608668 0.897930
Si Si2 0.822054 0.606053 0.108203
Si Si3 0.324743 0.111169 0.065028
Si Si4 0.179117 0.608340 0.776270
Si Si5 0.821477 0.723925 0.002073
Si Si6 0.820523 0.708052 0.667790
O O1 0.239881 0.500000 0.909373
O O2 0.233398 0.643473 0.836979
O O3 0.240697 0.683087 0.943816
O O4 0.000000 0.606383 0.901042
O O5 0.748063 0.500000 0.117856
O O6 0.767280 0.681972 0.154994
O O7 0.000000 0.595803 0.110850
O O8 0.774497 0.646112 0.048463
O O9 0.500000 0.134531 0.071323
O O10 0.245155 0.134973 0.122794
O O11 0.294809 0.000000 0.050118
O O12 0.257028 0.174056 0.014856
O O13 0.239523 0.500000 0.765024
O O14 0.240952 0.679219 0.728452
O O15 0.000000 0.607436 0.774904
O O16 0.000000 0.740674 0.001444
O O17 0.000000 0.699436 0.663908
#
# Coordination Sequence:
#
# PCOD8178794 Si02
#       6
#     8   8   8   8   8   8
#     4   8  13  22  39  64  90 112 134 164 204 246
#     4   8  13  21  35  57  81 103 131 167 202 234
#     4  10  20  31  42  58  82 110 137 169 211 252
#     4   8  13  21  36  61  89 111 133 166 205 241
#     4   9  16  26  43  63  80 103 137 173 205 243
#     4   9  16  26  43  64  84 110 142 171 199 238
#
# _framework density 16.147993
#
# number of rings (size 3 to 8) (size 9 to 14) (size 15 to 20)
#    0.000    3.333    0.000    3.500    0.000    4.000 
#    0.000    0.000    0.000   14.500    0.000    7.000 
#    0.000    0.000    0.000    0.000    0.000    0.000 
#
# Total GULP energy -297394.842074 kJ/mol
# GULP energy per Si atom -12391.451753 kJ/mol
# Density = 1.611124 g / cm^3
# Si number density = 16.147993 Si / 1000 Ang^3
#
#
#
# Elastic Constant Matrix: (Units=GPa)
#
#
# Indices 1 2 3 4 5 6 
#
# 1 22.0007 23.5523 18.7905 0.0000 0.0000 0.0000
# 2 23.5523 127.0603 84.5766 0.0000 0.0000 0.0000
# 3 18.7905 84.5766 154.7497 0.0000 0.0000 0.0000
# 4 0.0000 0.0000 0.0000 29.4775 0.0000 0.0000
# 5 0.0000 0.0000 0.0000 0.0000 3.9122 0.0000
# 6 0.0000 0.0000 0.0000 0.0000 0.0000 10.2012
#
#
#
# Elastic Compliance Matrix: (Units=1/GPa)
#
#
# Indices 1 2 3 4 5 6 
#
# 1 0.057024 -0.009370 -0.001803 0.000000 0.000000 0.000000
# 2 -0.009370 0.013910 -0.006465 0.000000 0.000000 0.000000
# 3 -0.001803 -0.006465 0.010214 0.000000 0.000000 0.000000
# 4 0.000000 0.000000 0.000000 0.033924 0.000000 0.000000
# 5 0.000000 0.000000 0.000000 0.000000 0.255608 0.000000
# 6 0.000000 0.000000 0.000000 0.000000 0.000000 0.098028
#
#
# Mechanical properties :
#
#
# Convention : Reuss Voigt Hill
#
# Bulk Modulus (GPa) = 21.79938 61.96106 41.88022
# Shear Modulus (GPa) = 9.62880 20.51094 15.06987
#
# Velocity S-wave (km/s) = 2.44454 3.56783 3.05820
# Velocity P-wave (km/s) = 4.63646 7.44491 6.20175
#
# Compressibility (1/GPa) = 0.04587286
#
# Stress axis : x y z
#
# Youngs Moduli (GPa) = 17.53650 71.88898 97.90252
#
# Poissons Ratio (x) = 0.67359 0.17653
# Poissons Ratio (y) = 0.16432 0.63292
# Poissons Ratio (z) = 0.03162 0.46475
#
# Static dielectric constant tensor:
#      x y z
#    x 2.604870 0.000000 0.000000 
#    y 0.000000 3.269160 0.000000 
#    z 0.000000 0.000000 3.352430 
# 
# 
# High freq. dielectric constant tensor:
#      x y z
#    x 1.573180 0.000000 0.000000 
#    y 0.000000 1.614590 0.000000 
#    z 0.000000 0.000000 1.617310 
# 
# From -- ./inp_files/19634.got.cif
#   From: 2010.03.12/outbox.cif.g09.slc.cpg/sg38_10_cif.got.tgz:19634.got - 2010.04.14 02:38:36.
