data_PCOD8178417
_publ_section_title
;
Structure prediction by ZEFSAII (Michael W. Deem and Ramdas Pophale) SiO2 
 PCOD8178417
Probable space group: A M M 2
;
_chemical_formula_sum "Si O2"
_cell_formula_units_Z 48
_cell_length_a 9.398374
_cell_length_b 7.944933
_cell_length_c 34.381502
_cell_angle_alpha 90.000000
_cell_angle_beta 90.000000
_cell_angle_gamma 90.000000
_cell_volume 2567.247904
_symmetry_space_group_name_H-M "A M M 2"
_symmetry_group_IT_number 38
_symmetry_cell_setting 'orthorhombic'
loop_
_space_group_symop_operation_xyz
x,y,z
-x,-y,z
-x,y,z
x,-y,z
x,1/2+y,1/2+z
-x,1/2-y,1/2+z
-x,1/2+y,1/2+z
x,1/2-y,1/2+z
loop_
_atom_site_type_symbol
_atom_site_label
_atom_site_fract_x
_atom_site_fract_y
_atom_site_fract_z
Si Si1 0.658493 0.303234 0.023780
Si Si2 0.669420 0.311653 0.108637
Si Si3 0.168708 0.185962 0.792434
Si Si4 0.669277 0.000000 0.161225
Si Si5 0.841880 0.308565 0.873273
Si Si6 0.829952 0.500000 0.741905
Si Si7 0.336523 0.308184 0.443111
O O1 0.500000 0.227023 0.025939
O O2 0.655132 0.500000 0.015972
O O3 0.733127 0.266800 0.065601
O O4 0.733426 0.218216 0.986163
O O5 0.500000 0.314891 0.105103
O O6 0.721394 0.500000 0.121638
O O7 0.719171 0.168262 0.138462
O O8 0.225735 0.208718 0.836595
O O9 0.225674 0.332407 0.764070
O O10 0.000000 0.202125 0.794111
O O11 0.216013 0.000000 0.777318
O O12 0.500000 0.000000 0.168143
O O13 0.753454 0.000000 0.200893
O O14 0.851376 0.500000 0.859374
O O15 0.745705 0.299223 0.911308
O O16 0.000000 0.239719 0.883320
O O17 0.000000 0.500000 0.736402
O O18 0.500000 0.246459 0.443725
O O19 0.322909 0.500000 0.430463
#
# Coordination Sequence:
#
# PCOD8178417 Si02
#       7
#     8   8   8   4   8   4   8
#     4   8  14  26  44  66  94 129 168 206 244 285
#     4   8  15  28  47  72 100 131 166 204 246 295
#     4   9  17  32  55  77  97 127 167 209 246 291
#     4  10  20  32  52  78 102 128 164 208 254 298
#     4  10  19  33  53  74  97 129 172 215 253 298
#     4  10  20  36  54  76 102 128 166 206 248 306
#     4  10  20  30  44  72 106 135 167 209 254 301
#
# _framework density 18.697064000000001
#
# number of rings (size 3 to 8) (size 9 to 14) (size 15 to 20)
#    0.000    2.833    0.833    2.000    1.167    2.667 
#    0.000    0.833    0.000    2.000    0.000    2.333 
#    0.000    0.000    0.000    0.000    0.000    0.000 
#
# Total GULP energy -297380.569095 kJ/mol
# GULP energy per Si atom -12390.857046 kJ/mol
# Density = 1.865451 g / cm^3
# Si number density = 18.697064 Si / 1000 Ang^3
#
#
#
# Elastic Constant Matrix: (Units=GPa)
#
#
# Indices 1 2 3 4 5 6 
#
# 1 26.3959 18.9539 31.5151 0.0000 0.0000 0.0000
# 2 18.9539 121.3154 74.4441 0.0000 0.0000 0.0000
# 3 31.5151 74.4441 154.8940 0.0000 0.0000 0.0000
# 4 0.0000 0.0000 0.0000 29.6144 0.0000 0.0000
# 5 0.0000 0.0000 0.0000 0.0000 94.5345 0.0000
# 6 0.0000 0.0000 0.0000 0.0000 0.0000 11.9898
#
#
#
# Elastic Compliance Matrix: (Units=1/GPa)
#
#
# Indices 1 2 3 4 5 6 
#
# 1 0.050469 -0.002246 -0.009189 0.000000 0.000000 0.000000
# 2 -0.002246 0.011791 -0.005210 0.000000 0.000000 0.000000
# 3 -0.009189 -0.005210 0.010830 0.000000 0.000000 0.000000
# 4 0.000000 0.000000 0.000000 0.033767 0.000000 0.000000
# 5 0.000000 0.000000 0.000000 0.000000 0.010578 0.000000
# 6 0.000000 0.000000 0.000000 0.000000 0.000000 0.083404
#
#
# Mechanical properties :
#
#
# Convention : Reuss Voigt Hill
#
# Bulk Modulus (GPa) = 25.12632 61.38128 43.25380
# Shear Modulus (GPa) = 20.21062 39.07390 29.64226
#
# Velocity S-wave (km/s) = 3.29135 4.57644 3.98602
# Velocity P-wave (km/s) = 5.28316 7.79908 6.66099
#
# Compressibility (1/GPa) = 0.03979891
#
# Stress axis : x y z
#
# Youngs Moduli (GPa) = 19.81433 84.81117 92.34030
#
# Poissons Ratio (x) = 0.19052 0.84850
# Poissons Ratio (y) = 0.04451 0.48107
# Poissons Ratio (z) = 0.18207 0.44185
#
# Static dielectric constant tensor:
#      x y z
#    x 2.817120 0.000000 0.000000 
#    y 0.000000 3.637500 0.000000 
#    z 0.000000 0.000000 3.503990 
# 
# 
# High freq. dielectric constant tensor:
#      x y z
#    x 1.650790 0.000000 0.000000 
#    y 0.000000 1.739210 0.000000 
#    z 0.000000 0.000000 1.733840 
# 
# From -- ./inp_files/24393.got.cif
#   From: 2010.03.12/outbox.cif.g09.slc.cpg/sg38_13_cif.got.tgz:24393.got - 2010.04.14 02:38:36.
