data_PCOD8178179
_publ_section_title
;
Structure prediction by ZEFSAII (Michael W. Deem and Ramdas Pophale) SiO2 
 PCOD8178179
Probable space group: A M M 2
;
_chemical_formula_sum "Si O2"
_cell_formula_units_Z 56
_cell_length_a 24.002510
_cell_length_b 8.748890
_cell_length_c 14.536313
_cell_angle_alpha 90.000000
_cell_angle_beta 90.000000
_cell_angle_gamma 90.000000
_cell_volume 3052.557696
_symmetry_space_group_name_H-M "A M M 2"
_symmetry_group_IT_number 38
_symmetry_cell_setting 'orthorhombic'
loop_
_space_group_symop_operation_xyz
x,y,z
-x,-y,z
-x,y,z
x,-y,z
x,1/2+y,1/2+z
-x,1/2-y,1/2+z
-x,1/2+y,1/2+z
x,1/2-y,1/2+z
loop_
_atom_site_type_symbol
_atom_site_label
_atom_site_fract_x
_atom_site_fract_y
_atom_site_fract_z
Si Si1 0.352480 0.818134 0.760580
Si Si2 0.936909 0.678517 0.542964
Si Si3 0.060761 0.181461 0.250932
Si Si4 0.352624 0.820042 0.552641
Si Si5 0.857086 0.819570 0.401149
Si Si6 0.436212 0.680652 0.898821
Si Si7 0.268119 0.681781 0.899846
O O1 0.352796 0.751317 0.655836
O O2 0.408245 0.761784 0.811343
O O3 0.297969 0.754606 0.811577
O O4 0.350866 0.000000 0.761500
O O5 0.924640 0.500000 0.530382
O O6 0.928725 0.732482 0.647245
O O7 0.891013 0.775975 0.491104
O O8 0.000000 0.716399 0.510305
O O9 0.109465 0.251066 0.314325
O O10 0.000000 0.242243 0.283976
O O11 0.060713 0.000000 0.257515
O O12 0.406792 0.767180 0.494149
O O13 0.298167 0.767425 0.494856
O O14 0.352936 0.000000 0.562961
O O15 0.794662 0.752998 0.403493
O O16 0.853328 0.000000 0.394163
O O17 0.500000 0.732650 0.904092
O O18 0.429499 0.500000 0.885077
O O19 0.270754 0.500000 0.888420
#
# Coordination Sequence:
#
# PCOD8178179 Si02
#       7
#     8   8   8   8   8   8   8
#     4  10  19  32  52  74  96 127 165 202 237 273
#     4   9  18  32  48  67  95 128 156 188 238 296
#     4   8  15  29  47  67  94 126 155 186 236 299
#     4   8  16  32  51  69  95 132 164 190 233 290
#     4  10  19  31  51  74  93 121 162 204 240 279
#     4   9  18  34  54  75 102 134 162 190 233 288
#     4   9  19  35  50  68  97 129 162 199 241 290
#
# _framework density 18.345271
#
# number of rings (size 3 to 8) (size 9 to 14) (size 15 to 20)
#    0.000    3.000    0.000    2.571    0.000    3.429 
#    0.000    7.857    0.000    0.857    0.000    0.000 
#    0.000    0.000    0.000    0.000    0.000    0.000 
#
# Total GULP energy -347053.776008 kJ/mol
# GULP energy per Si atom -12394.777715 kJ/mol
# Density = 1.830352 g / cm^3
# Si number density = 18.345271 Si / 1000 Ang^3
#
#
#
# Elastic Constant Matrix: (Units=GPa)
#
#
# Indices 1 2 3 4 5 6 
#
# 1 185.1338 20.9483 91.7143 0.0000 0.0000 0.0000
# 2 20.9483 19.3336 20.2621 0.0000 0.0000 0.0000
# 3 91.7143 20.2621 160.0953 0.0000 0.0000 0.0000
# 4 0.0000 0.0000 0.0000 24.7599 0.0000 0.0000
# 5 0.0000 0.0000 0.0000 0.0000 3.4681 0.0000
# 6 0.0000 0.0000 0.0000 0.0000 0.0000 22.2616
#
#
#
# Elastic Compliance Matrix: (Units=1/GPa)
#
#
# Indices 1 2 3 4 5 6 
#
# 1 0.007850 -0.004373 -0.003944 0.000000 0.000000 0.000000
# 2 -0.004373 0.062069 -0.005351 0.000000 0.000000 0.000000
# 3 -0.003944 -0.005351 0.009183 0.000000 0.000000 0.000000
# 4 0.000000 0.000000 0.000000 0.040388 0.000000 0.000000
# 5 0.000000 0.000000 0.000000 0.000000 0.288340 0.000000
# 6 0.000000 0.000000 0.000000 0.000000 0.000000 0.044920
#
#
# Mechanical properties :
#
#
# Convention : Reuss Voigt Hill
#
# Bulk Modulus (GPa) = 19.31710 70.04579 44.68144
# Shear Modulus (GPa) = 10.05350 25.54046 17.79698
#
# Velocity S-wave (km/s) = 2.34351 3.73528 3.11804
# Velocity P-wave (km/s) = 4.22792 7.54108 6.11323
#
# Compressibility (1/GPa) = 0.05176761
#
# Stress axis : x y z
#
# Youngs Moduli (GPa) = 127.39023 16.11120 108.90097
#
# Poissons Ratio (x) = 0.07045 0.42946
# Poissons Ratio (y) = 0.55701 0.58269
# Poissons Ratio (z) = 0.50238 0.08621
#
# Static dielectric constant tensor:
#      x y z
#    x 3.781120 0.000000 0.000000 
#    y 0.000000 2.989940 0.000000 
#    z 0.000000 0.000000 3.613680 
# 
# 
# High freq. dielectric constant tensor:
#      x y z
#    x 1.716840 0.000000 0.000000 
#    y 0.000000 1.676010 0.000000 
#    z 0.000000 0.000000 1.717630 
# 
# From -- ./inp_files/10864.got.cif
#   From: 2010.03.12/outbox.cif.g09.slc.cpg/sg38_6_cif.got.tgz:10864.got - 2010.04.14 02:38:36.
