data_PCOD8178244
_publ_section_title
;
Structure prediction by ZEFSAII (Michael W. Deem and Ramdas Pophale) SiO2 
 PCOD8178244
Probable space group: A M M 2
;
_chemical_formula_sum "Si O2"
_cell_formula_units_Z 64
_cell_length_a 9.438310
_cell_length_b 15.838379
_cell_length_c 22.941394
_cell_angle_alpha 90.000000
_cell_angle_beta 90.000000
_cell_angle_gamma 90.000000
_cell_volume 3429.452344
_symmetry_space_group_name_H-M "A M M 2"
_symmetry_group_IT_number 38
_symmetry_cell_setting 'orthorhombic'
loop_
_space_group_symop_operation_xyz
x,y,z
-x,-y,z
-x,y,z
x,-y,z
x,1/2+y,1/2+z
-x,1/2-y,1/2+z
-x,1/2+y,1/2+z
x,1/2-y,1/2+z
loop_
_atom_site_type_symbol
_atom_site_label
_atom_site_fract_x
_atom_site_fract_y
_atom_site_fract_z
Si Si1 0.833273 0.309956 0.433350
Si Si2 0.339719 0.405910 0.012078
Si Si3 0.163356 0.240652 0.556570
Si Si4 0.163452 0.770009 0.184610
Si Si5 0.163618 0.096819 0.742864
Si Si6 0.344550 0.096902 0.852406
Si Si7 0.665661 0.095651 0.260554
Si Si8 0.336471 0.156968 0.387649
O O1 0.797797 0.299908 0.501713
O O2 0.749053 0.391825 0.411067
O O3 0.767494 0.236550 0.392968
O O4 0.000000 0.316951 0.421852
O O5 0.500000 0.377292 0.023066
O O6 0.311682 0.500000 0.034089
O O7 0.243892 0.347193 0.051689
O O8 0.305272 0.402377 0.943130
O O9 0.202205 0.287436 0.616796
O O10 0.000000 0.215869 0.555342
O O11 0.193197 0.669559 0.194793
O O12 0.254367 0.834023 0.222967
O O13 0.000000 0.790688 0.197610
O O14 0.256783 0.129361 0.796921
O O15 0.000000 0.097829 0.762180
O O16 0.203197 0.000000 0.722249
O O17 0.500000 0.141953 0.855655
O O18 0.372147 0.000000 0.844070
O O19 0.500000 0.108113 0.248805
O O20 0.701236 0.107324 0.328797
O O21 0.712057 0.000000 0.243257
O O22 0.500000 0.186782 0.387206
#
# Coordination Sequence:
#
# PCOD8178244 Si02
#       8
#     8   8   8   8   8   8   8   8
#     4  10  19  32  51  74 100 130 165 205 250 301
#     4   9  17  30  50  77 106 134 164 199 243 298
#     4   9  20  36  51  70  98 133 172 210 250 298
#     4  10  21  37  55  75 102 138 178 217 257 301
#     4   9  18  33  54  80 108 137 169 206 251 306
#     4  10  20  33  50  74 102 129 160 202 253 307
#     4  10  21  36  54  77 104 136 174 214 259 309
#     4   9  17  31  52  76 104 134 161 197 249 306
#
# _framework density 18.661871000000001
#
# number of rings (size 3 to 8) (size 9 to 14) (size 15 to 20)
#    0.000    2.500    0.000    1.875    0.000    7.250 
#    0.000    1.875    0.000    7.500    0.000    0.000 
#    0.000    0.000    0.000    0.000    0.000    0.000 
#
# Total GULP energy -396588.075901 kJ/mol
# GULP energy per Si atom -12393.377372 kJ/mol
# Density = 1.861940 g / cm^3
# Si number density = 18.661871 Si / 1000 Ang^3
#
#
#
# Elastic Constant Matrix: (Units=GPa)
#
#
# Indices 1 2 3 4 5 6 
#
# 1 74.2015 25.6603 44.9441 0.0000 0.0000 0.0000
# 2 25.6603 65.9018 36.9670 0.0000 0.0000 0.0000
# 3 44.9441 36.9670 91.1139 0.0000 0.0000 0.0000
# 4 0.0000 0.0000 0.0000 18.2852 0.0000 0.0000
# 5 0.0000 0.0000 0.0000 0.0000 24.5458 0.0000
# 6 0.0000 0.0000 0.0000 0.0000 0.0000 29.6644
#
#
#
# Elastic Compliance Matrix: (Units=1/GPa)
#
#
# Indices 1 2 3 4 5 6 
#
# 1 0.019628 -0.002863 -0.008520 0.000000 0.000000 0.000000
# 2 -0.002863 0.020063 -0.006728 0.000000 0.000000 0.000000
# 3 -0.008520 -0.006728 0.017908 0.000000 0.000000 0.000000
# 4 0.000000 0.000000 0.000000 0.054689 0.000000 0.000000
# 5 0.000000 0.000000 0.000000 0.000000 0.040740 0.000000
# 6 0.000000 0.000000 0.000000 0.000000 0.000000 0.033710
#
#
# Mechanical properties :
#
#
# Convention : Reuss Voigt Hill
#
# Bulk Modulus (GPa) = 46.78113 49.59557 48.18835
# Shear Modulus (GPa) = 21.73110 22.74211 22.23661
#
# Velocity S-wave (km/s) = 3.41613 3.49469 3.45563
# Velocity P-wave (km/s) = 6.37825 6.55114 6.46527
#
# Compressibility (1/GPa) = 0.02137614
#
# Stress axis : x y z
#
# Youngs Moduli (GPa) = 50.94858 49.84370 55.84220
#
# Poissons Ratio (x) = 0.14271 0.47578
# Poissons Ratio (y) = 0.14587 0.37568
# Poissons Ratio (z) = 0.43409 0.33533
#
# Static dielectric constant tensor:
#      x y z
#    x 3.658620 0.000000 0.000000 
#    y 0.000000 3.478880 0.000000 
#    z 0.000000 0.000000 3.476680 
# 
# 
# High freq. dielectric constant tensor:
#      x y z
#    x 1.726220 0.000000 0.000000 
#    y 0.000000 1.714660 0.000000 
#    z 0.000000 0.000000 1.716450 
# 
# From -- ./inp_files/20106.got.cif
#   From: 2010.03.12/outbox.cif.g09.slc.cpg/sg38_11_cif.got.tgz:20106.got - 2010.04.14 02:38:36.
