data_PCOD8178274
_publ_section_title
;
Structure prediction by ZEFSAII (Michael W. Deem and Ramdas Pophale) SiO2 
 PCOD8178274
Probable space group: A M M 2
;
_chemical_formula_sum "Si O2"
_cell_formula_units_Z 64
_cell_length_a 9.424308
_cell_length_b 16.262507
_cell_length_c 22.667177
_cell_angle_alpha 90.000000
_cell_angle_beta 90.000000
_cell_angle_gamma 90.000000
_cell_volume 3474.036711
_symmetry_space_group_name_H-M "A M M 2"
_symmetry_group_IT_number 38
_symmetry_cell_setting 'orthorhombic'
loop_
_space_group_symop_operation_xyz
x,y,z
-x,-y,z
-x,y,z
x,-y,z
x,1/2+y,1/2+z
-x,1/2-y,1/2+z
-x,1/2+y,1/2+z
x,1/2-y,1/2+z
loop_
_atom_site_type_symbol
_atom_site_label
_atom_site_fract_x
_atom_site_fract_y
_atom_site_fract_z
Si Si1 0.654589 0.594571 0.664600
Si Si2 0.331593 0.591777 0.796011
Si Si3 0.664054 0.851355 0.642620
Si Si4 0.836742 0.295927 0.595204
Si Si5 0.659211 0.592094 0.015183
Si Si6 0.332084 0.090940 0.769334
Si Si7 0.164651 0.234214 0.466703
Si Si8 0.330706 0.238525 0.854195
O O1 0.500000 0.638737 0.656704
O O2 0.627997 0.500000 0.656270
O O3 0.718318 0.612188 0.729615
O O4 0.767919 0.618707 0.614751
O O5 0.500000 0.588050 0.797128
O O6 0.274622 0.500000 0.816206
O O7 0.279590 0.669368 0.835082
O O8 0.500000 0.826610 0.649292
O O9 0.755383 0.770035 0.634879
O O10 0.689225 0.908330 0.585372
O O11 0.717643 0.896707 0.701642
O O12 0.813248 0.287166 0.525585
O O13 0.000000 0.291444 0.612265
O O14 0.500000 0.626203 0.002831
O O15 0.673143 0.500000 0.991439
O O16 0.772296 0.643892 0.978438
O O17 0.500000 0.090736 0.772342
O O18 0.276990 0.166616 0.809757
O O19 0.275951 0.000000 0.789946
O O20 0.251929 0.279941 0.415606
O O21 0.000000 0.225879 0.449429
O O22 0.500000 0.235238 0.862213
#
# Coordination Sequence:
#
# PCOD8178274 Si02
#       8
#     8   8   8   8   8   8   8   8
#     4   9  17  31  53  79 103 126 156 198 249 305
#     4   8  15  29  50  77 105 129 156 194 244 302
#     4   9  16  29  52  78 103 129 157 194 244 302
#     4  10  20  33  49  70  99 134 167 202 248 297
#     4   9  17  30  51  79 105 128 158 197 242 296
#     4   9  17  30  51  79 105 128 161 208 259 306
#     4  10  22  37  49  65  95 135 174 209 247 291
#     4  10  19  32  52  74  97 131 172 212 251 291
#
# _framework density 18.422374000000001
#
# number of rings (size 3 to 8) (size 9 to 14) (size 15 to 20)
#    0.000    2.750    0.000    2.625    0.000    6.000 
#    0.000    4.375    0.000    5.250    0.000    0.000 
#    0.000    0.000    0.000    0.000    0.000    0.000 
#
# Total GULP energy -396552.855223 kJ/mol
# GULP energy per Si atom -12392.276726 kJ/mol
# Density = 1.838044 g / cm^3
# Si number density = 18.422374 Si / 1000 Ang^3
#
#
#
# Elastic Constant Matrix: (Units=GPa)
#
#
# Indices 1 2 3 4 5 6 
#
# 1 62.0787 26.9278 41.2104 0.0000 0.0000 0.0000
# 2 26.9278 75.3066 50.9193 0.0000 0.0000 0.0000
# 3 41.2104 50.9193 88.7099 0.0000 0.0000 0.0000
# 4 0.0000 0.0000 0.0000 15.5300 0.0000 0.0000
# 5 0.0000 0.0000 0.0000 0.0000 16.3145 0.0000
# 6 0.0000 0.0000 0.0000 0.0000 0.0000 10.5742
#
#
#
# Elastic Compliance Matrix: (Units=1/GPa)
#
#
# Indices 1 2 3 4 5 6 
#
# 1 0.023418 -0.001663 -0.009924 0.000000 0.000000 0.000000
# 2 -0.001663 0.021820 -0.011752 0.000000 0.000000 0.000000
# 3 -0.009924 -0.011752 0.022629 0.000000 0.000000 0.000000
# 4 0.000000 0.000000 0.000000 0.064391 0.000000 0.000000
# 5 0.000000 0.000000 0.000000 0.000000 0.061295 0.000000
# 6 0.000000 0.000000 0.000000 0.000000 0.000000 0.094570
#
#
# Mechanical properties :
#
#
# Convention : Reuss Voigt Hill
#
# Bulk Modulus (GPa) = 47.19704 51.57891 49.38797
# Shear Modulus (GPa) = 14.62566 15.61959 15.12262
#
# Velocity S-wave (km/s) = 2.82069 2.91496 2.86821
# Velocity P-wave (km/s) = 6.02357 6.27599 6.15108
#
# Compressibility (1/GPa) = 0.02118777
#
# Stress axis : x y z
#
# Youngs Moduli (GPa) = 42.70184 45.82941 44.19188
#
# Poissons Ratio (x) = 0.07623 0.43857
# Poissons Ratio (y) = 0.07103 0.51934
# Poissons Ratio (z) = 0.42378 0.53858
#
# Static dielectric constant tensor:
#      x y z
#    x 3.279550 0.000000 0.000000 
#    y 0.000000 3.553070 0.000000 
#    z 0.000000 0.000000 3.436480 
# 
# 
# High freq. dielectric constant tensor:
#      x y z
#    x 1.679070 0.000000 0.000000 
#    y 0.000000 1.711260 0.000000 
#    z 0.000000 0.000000 1.710690 
# 
# From -- ./inp_files/20067.got.cif
#   From: 2010.03.12/outbox.cif.g09.slc.cpg/sg38_11_cif.got.tgz:20067.got - 2010.04.14 02:38:36.
