data_PCOD8178345
_publ_section_title
;
Structure prediction by ZEFSAII (Michael W. Deem and Ramdas Pophale) SiO2 
 PCOD8178345
Probable space group: A M M 2
;
_chemical_formula_sum "Si O2"
_cell_formula_units_Z 64
_cell_length_a 9.045893
_cell_length_b 28.326172
_cell_length_c 12.831463
_cell_angle_alpha 90.000000
_cell_angle_beta 90.000000
_cell_angle_gamma 90.000000
_cell_volume 3287.876607
_symmetry_space_group_name_H-M "A M M 2"
_symmetry_group_IT_number 38
_symmetry_cell_setting 'orthorhombic'
loop_
_space_group_symop_operation_xyz
x,y,z
-x,-y,z
-x,y,z
x,-y,z
x,1/2+y,1/2+z
-x,1/2-y,1/2+z
-x,1/2+y,1/2+z
x,1/2-y,1/2+z
loop_
_atom_site_type_symbol
_atom_site_label
_atom_site_fract_x
_atom_site_fract_y
_atom_site_fract_z
Si Si1 0.173807 0.944624 0.293570
Si Si2 0.170500 0.389011 0.591534
Si Si3 0.671546 0.448397 0.422341
Si Si4 0.171617 0.803948 0.561418
Si Si5 0.831503 0.201439 0.975079
Si Si6 0.662628 0.183837 0.765245
Si Si7 0.339337 0.923943 0.707069
Si Si8 0.321945 0.102820 0.489895
O O1 0.233312 0.911835 0.198188
O O2 0.263622 0.926417 0.392537
O O3 0.000000 0.937011 0.313197
O O4 0.208868 0.000000 0.272433
O O5 0.243776 0.411648 0.491374
O O6 0.199185 0.332743 0.576315
O O7 0.000000 0.402432 0.588816
O O8 0.500000 0.433106 0.415557
O O9 0.689559 0.500000 0.472526
O O10 0.741575 0.449462 0.304354
O O11 0.197757 0.755320 0.502165
O O12 0.230987 0.794190 0.677706
O O13 0.257702 0.844107 0.495785
O O14 0.000000 0.818065 0.567198
O O15 0.726728 0.189047 0.880014
O O16 0.000000 0.193366 0.939334
O O17 0.500000 0.208009 0.760946
O O18 0.644623 0.129706 0.739979
O O19 0.500000 0.947692 0.693934
O O20 0.262699 0.925654 0.593105
O O21 0.500000 0.106125 0.488161
#
# Coordination Sequence:
#
# PCOD8178345 Si02
#       8
#     8   8   8   8   8   8   8   8
#     4  10  22  40  60  83 118 164 206 248 303 361
#     4  10  21  38  58  81 112 150 196 244 290 347
#     4  10  19  32  53  81 111 143 180 224 282 346
#     4  10  21  37  57  84 119 156 197 244 298 360
#     4  10  21  36  57  84 112 152 199 241 294 357
#     4  10  19  34  56  80 112 148 185 234 291 347
#     4   8  16  32  52  77 108 141 175 221 282 342
#     4  10  21  38  60  86 115 150 200 249 299 355
#
# _framework density 19.465451000000002
#
# number of rings (size 3 to 8) (size 9 to 14) (size 15 to 20)
#    0.000    2.250    1.250    2.250    0.000    4.000 
#    0.000    4.375    0.000    0.000    0.000    0.000 
#    0.000    0.000    0.000    0.000    0.000    0.000 
#
# Total GULP energy -396486.383701 kJ/mol
# GULP energy per Si atom -12390.199491 kJ/mol
# Density = 1.942115 g / cm^3
# Si number density = 19.465451 Si / 1000 Ang^3
#
#
#
# Elastic Constant Matrix: (Units=GPa)
#
#
# Indices 1 2 3 4 5 6 
#
# 1 67.3369 30.8116 43.2498 0.0000 0.0000 0.0000
# 2 30.8116 61.7021 38.7659 0.0000 0.0000 0.0000
# 3 43.2498 38.7659 118.1021 0.0000 0.0000 0.0000
# 4 0.0000 0.0000 0.0000 15.4043 0.0000 0.0000
# 5 0.0000 0.0000 0.0000 0.0000 8.3516 0.0000
# 6 0.0000 0.0000 0.0000 0.0000 0.0000 12.4581
#
#
#
# Elastic Compliance Matrix: (Units=1/GPa)
#
#
# Indices 1 2 3 4 5 6 
#
# 1 0.021805 -0.007397 -0.005557 0.000000 0.000000 0.000000
# 2 -0.007397 0.022927 -0.004817 0.000000 0.000000 0.000000
# 3 -0.005557 -0.004817 0.012083 0.000000 0.000000 0.000000
# 4 0.000000 0.000000 0.000000 0.064917 0.000000 0.000000
# 5 0.000000 0.000000 0.000000 0.000000 0.119738 0.000000
# 6 0.000000 0.000000 0.000000 0.000000 0.000000 0.080269
#
#
# Mechanical properties :
#
#
# Convention : Reuss Voigt Hill
#
# Bulk Modulus (GPa) = 47.00719 52.53288 49.77004
# Shear Modulus (GPa) = 13.72225 16.19703 14.95964
#
# Velocity S-wave (km/s) = 2.65798 2.88773 2.77523
# Velocity P-wave (km/s) = 5.79838 6.17778 5.99109
#
# Compressibility (1/GPa) = 0.02127334
#
# Stress axis : x y z
#
# Youngs Moduli (GPa) = 45.86191 43.61687 82.75888
#
# Poissons Ratio (x) = 0.32264 0.45989
# Poissons Ratio (y) = 0.33924 0.39862
# Poissons Ratio (z) = 0.25485 0.21009
#
# Static dielectric constant tensor:
#      x y z
#    x 3.664580 0.000000 0.000000 
#    y 0.000000 3.746540 0.000000 
#    z 0.000000 0.000000 3.883860 
# 
# 
# High freq. dielectric constant tensor:
#      x y z
#    x 1.743130 0.000000 0.000000 
#    y 0.000000 1.756510 0.000000 
#    z 0.000000 0.000000 1.764260 
# 
# From -- ./inp_files/8686.got.cif
#   From: 2010.03.12/outbox.cif.g09.slc.cpg/sg38_5_cif.got.tgz:8686.got - 2010.04.14 02:38:36.
