data_PCOD8178157
_publ_section_title
;
Structure prediction by ZEFSAII (Michael W. Deem and Ramdas Pophale) SiO2 
 PCOD8178157
Probable space group: A M M 2
;
_chemical_formula_sum "Si O2"
_cell_formula_units_Z 64
_cell_length_a 38.610029
_cell_length_b 17.609849
_cell_length_c 5.100540
_cell_angle_alpha 90.000000
_cell_angle_beta 90.000000
_cell_angle_gamma 90.000000
_cell_volume 3467.942736
_symmetry_space_group_name_H-M "A M M 2"
_symmetry_group_IT_number 38
_symmetry_cell_setting 'orthorhombic'
loop_
_space_group_symop_operation_xyz
x,y,z
-x,-y,z
-x,y,z
x,-y,z
x,1/2+y,1/2+z
-x,1/2-y,1/2+z
-x,1/2+y,1/2+z
x,1/2-y,1/2+z
loop_
_atom_site_type_symbol
_atom_site_label
_atom_site_fract_x
_atom_site_fract_y
_atom_site_fract_z
Si Si1 0.793364 0.698792 0.074960
Si Si2 0.461291 0.909934 0.040436
Si Si3 0.100041 0.411603 0.570514
Si Si4 0.644578 0.698406 0.070280
Si Si5 0.719139 0.202973 0.475508
Si Si6 0.418724 0.909909 0.541138
Si Si7 0.960465 0.298749 0.497714
Si Si8 0.856216 0.088671 0.574283
O O1 0.798031 0.734563 0.361968
O O2 0.755099 0.659590 0.043567
O O3 0.820769 0.632797 0.029708
O O4 0.500000 0.875042 0.038131
O O5 0.441037 0.881849 0.295222
O O6 0.463979 0.000000 0.037250
O O7 0.440143 0.880996 0.790662
O O8 0.091960 0.500000 0.543915
O O9 0.063403 0.370967 0.545257
O O10 0.126484 0.385132 0.345262
O O11 0.117005 0.390092 0.846209
O O12 0.639356 0.736207 0.353614
O O13 0.683060 0.660186 0.042771
O O14 0.618370 0.629458 0.033479
O O15 0.719249 0.222965 0.167048
O O16 0.412636 0.000000 0.542073
O O17 0.952567 0.265894 0.211180
O O18 0.000000 0.326889 0.522689
O O19 0.847084 0.000000 0.572162
#
# Coordination Sequence:
#
# PCOD8178157 Si02
#       8
#     8   8   8   8   8   8   8   8
#     4  10  19  32  52  76  98 126 168 206 237 282
#     4   9  17  30  49  71  95 125 159 196 240 286
#     4  10  21  36  53  73 101 136 169 199 239 299
#     4  10  19  33  52  71  97 132 162 192 241 295
#     4   8  16  30  48  70  95 125 162 199 232 281
#     4  10  19  31  50  75  97 119 159 207 238 276
#     4  10  21  36  54  77 103 129 163 211 257 291
#     4  10  21  35  50  74 106 134 162 202 250 292
#
# _framework density 18.454744999999999
#
# number of rings (size 3 to 8) (size 9 to 14) (size 15 to 20)
#    0.000    2.375    0.000    2.625    0.000    4.750 
#    0.000    0.625    0.000   12.000    0.000   15.750 
#    0.000    0.000    0.000    0.000    0.000    0.000 
#
# Total GULP energy -396713.360862 kJ/mol
# GULP energy per Si atom -12397.292527 kJ/mol
# Density = 1.841274 g / cm^3
# Si number density = 18.454745 Si / 1000 Ang^3
#
#
#
# Elastic Constant Matrix: (Units=GPa)
#
#
# Indices 1 2 3 4 5 6 
#
# 1 152.8797 58.4854 21.3176 0.0000 0.0000 0.0000
# 2 58.4854 40.0444 16.2826 0.0000 0.0000 0.0000
# 3 21.3176 16.2826 91.3195 0.0000 0.0000 0.0000
# 4 0.0000 0.0000 0.0000 9.6007 0.0000 0.0000
# 5 0.0000 0.0000 0.0000 0.0000 25.6479 0.0000
# 6 0.0000 0.0000 0.0000 0.0000 0.0000 24.7145
#
#
#
# Elastic Compliance Matrix: (Units=1/GPa)
#
#
# Indices 1 2 3 4 5 6 
#
# 1 0.014839 -0.021848 0.000432 0.000000 0.000000 0.000000
# 2 -0.021848 0.059092 -0.005436 0.000000 0.000000 0.000000
# 3 0.000432 -0.005436 0.011819 0.000000 0.000000 0.000000
# 4 0.000000 0.000000 0.000000 0.104160 0.000000 0.000000
# 5 0.000000 0.000000 0.000000 0.000000 0.038990 0.000000
# 6 0.000000 0.000000 0.000000 0.000000 0.000000 0.040462
#
#
# Mechanical properties :
#
#
# Convention : Reuss Voigt Hill
#
# Bulk Modulus (GPa) = 31.20619 52.93498 42.07059
# Shear Modulus (GPa) = 14.98133 24.53646 19.75890
#
# Velocity S-wave (km/s) = 2.85228 3.65025 3.27566
# Velocity P-wave (km/s) = 5.27197 6.81995 6.09530
#
# Compressibility (1/GPa) = 0.03204492
#
# Stress axis : x y z
#
# Youngs Moduli (GPa) = 67.38952 16.92273 84.60879
#
# Poissons Ratio (x) = 0.36973 -0.03651
# Poissons Ratio (y) = 1.47234 0.45994
# Poissons Ratio (z) = -0.02908 0.09199
#
# Static dielectric constant tensor:
#      x y z
#    x 3.667550 0.000000 0.000000 
#    y 0.000000 2.868780 0.000000 
#    z 0.000000 0.000000 3.840720 
# 
# 
# High freq. dielectric constant tensor:
#      x y z
#    x 1.735430 0.000000 0.000000 
#    y 0.000000 1.661740 0.000000 
#    z 0.000000 0.000000 1.741480 
# 
# From -- ./inp_files/2315.got.cif
#   From: 2010.03.12/outbox.cif.g09.slc.cpg/sg38_2_cif.got.tgz:2315.got - 2010.04.14 02:38:36.
