data_PCOD8178478
_publ_section_title
;
Structure prediction by ZEFSAII (Michael W. Deem and Ramdas Pophale) SiO2 
 PCOD8178478
Probable space group: A M M 2
;
_chemical_formula_sum "Si O2"
_cell_formula_units_Z 64
_cell_length_a 9.001729
_cell_length_b 33.213144
_cell_length_c 11.437433
_cell_angle_alpha 90.000000
_cell_angle_beta 90.000000
_cell_angle_gamma 90.000000
_cell_volume 3419.514784
_symmetry_space_group_name_H-M "A M M 2"
_symmetry_group_IT_number 38
_symmetry_cell_setting 'orthorhombic'
loop_
_space_group_symop_operation_xyz
x,y,z
-x,-y,z
-x,y,z
x,-y,z
x,1/2+y,1/2+z
-x,1/2-y,1/2+z
-x,1/2+y,1/2+z
x,1/2-y,1/2+z
loop_
_atom_site_type_symbol
_atom_site_label
_atom_site_fract_x
_atom_site_fract_y
_atom_site_fract_z
Si Si1 0.675409 0.847461 0.088120
Si Si2 0.324799 0.045796 0.475896
Si Si3 0.168086 0.276790 0.465270
Si Si4 0.675746 0.623250 0.838517
Si Si5 0.832424 0.826063 0.729547
Si Si6 0.674200 0.605892 0.357707
Si Si7 0.323582 0.196264 0.500277
Si Si8 0.834080 0.453016 0.216243
O O1 0.500000 0.838826 0.091793
O O2 0.736350 0.866428 0.208975
O O3 0.756311 0.805143 0.063433
O O4 0.716199 0.879716 0.987624
O O5 0.500000 0.048804 0.496596
O O6 0.271956 0.078432 0.378419
O O7 0.247559 0.058453 0.596105
O O8 0.280706 0.000000 0.437142
O O9 0.168475 0.298265 0.341900
O O10 0.261608 0.236625 0.441741
O O11 0.000000 0.267034 0.506433
O O12 0.500000 0.624338 0.834131
O O13 0.733180 0.657298 0.928333
O O14 0.747709 0.867068 0.757223
O O15 0.742108 0.803704 0.629517
O O16 0.000000 0.835268 0.688567
O O17 0.500000 0.605638 0.338600
O O18 0.743718 0.562413 0.330217
O O19 0.500000 0.198060 0.504485
O O20 0.840466 0.500000 0.232532
O O21 0.000000 0.434706 0.213558
#
# Coordination Sequence:
#
# PCOD8178478 Si02
#       8
#     8   8   8   8   8   8   8   8
#     4   9  19  37  57  77 105 143 183 223 270 329
#     4   9  17  32  56  83 112 144 179 225 278 328
#     4  10  22  38  54  76 106 139 179 227 276 327
#     4   9  19  35  54  81 110 140 181 225 269 326
#     4  10  21  37  55  76 105 139 175 220 270 322
#     4  10  19  33  55  79 105 138 178 222 267 322
#     4  11  22  34  54  80 108 141 180 227 273 325
#     4  10  20  33  52  79 111 144 178 222 275 328
#
# _framework density 18.716106
#
# number of rings (size 3 to 8) (size 9 to 14) (size 15 to 20)
#    0.000    2.250    0.000    2.625    1.750    3.750 
#    0.000    2.500    0.000    2.250    0.000    1.750 
#    0.000    0.000    0.000    0.000    0.000    0.000 
#
# Total GULP energy -396767.284413 kJ/mol
# GULP energy per Si atom -12398.977638 kJ/mol
# Density = 1.867351 g / cm^3
# Si number density = 18.716106 Si / 1000 Ang^3
#
#
#
# Elastic Constant Matrix: (Units=GPa)
#
#
# Indices 1 2 3 4 5 6 
#
# 1 84.3302 39.8718 40.5019 0.0000 0.0000 0.0000
# 2 39.8718 105.5141 54.6431 0.0000 0.0000 0.0000
# 3 40.5019 54.6431 82.2021 0.0000 0.0000 0.0000
# 4 0.0000 0.0000 0.0000 26.4911 0.0000 0.0000
# 5 0.0000 0.0000 0.0000 0.0000 20.0742 0.0000
# 6 0.0000 0.0000 0.0000 0.0000 0.0000 26.4980
#
#
#
# Elastic Compliance Matrix: (Units=1/GPa)
#
#
# Indices 1 2 3 4 5 6 
#
# 1 0.016142 -0.003021 -0.005945 0.000000 0.000000 0.000000
# 2 -0.003021 0.015018 -0.008495 0.000000 0.000000 0.000000
# 3 -0.005945 -0.008495 0.020741 0.000000 0.000000 0.000000
# 4 0.000000 0.000000 0.000000 0.037749 0.000000 0.000000
# 5 0.000000 0.000000 0.000000 0.000000 0.049815 0.000000
# 6 0.000000 0.000000 0.000000 0.000000 0.000000 0.037739
#
#
# Mechanical properties :
#
#
# Convention : Reuss Voigt Hill
#
# Bulk Modulus (GPa) = 58.89426 60.23111 59.56269
# Shear Modulus (GPa) = 22.95844 23.74796 23.35320
#
# Velocity S-wave (km/s) = 3.50618 3.56596 3.53620
# Velocity P-wave (km/s) = 6.92290 7.01470 6.96895
#
# Compressibility (1/GPa) = 0.01697958
#
# Stress axis : x y z
#
# Youngs Moduli (GPa) = 61.95122 66.58609 48.21321
#
# Poissons Ratio (x) = 0.20114 0.28663
# Poissons Ratio (y) = 0.18714 0.40956
# Poissons Ratio (z) = 0.36831 0.56563
#
# Static dielectric constant tensor:
#      x y z
#    x 3.511590 0.000000 0.000000 
#    y 0.000000 3.765370 0.000000 
#    z 0.000000 0.000000 3.432190 
# 
# 
# High freq. dielectric constant tensor:
#      x y z
#    x 1.724020 0.000000 0.000000 
#    y 0.000000 1.732290 0.000000 
#    z 0.000000 0.000000 1.717820 
# 
# From -- ./inp_files/8570.got.cif
#   From: 2010.03.12/outbox.cif.g09.slc.cpg/sg38_5_cif.got.tgz:8570.got - 2010.04.14 02:38:36.
