data_PCOD8178795
_publ_section_title
;
Structure prediction by ZEFSAII (Michael W. Deem and Ramdas Pophale) SiO2 
 PCOD8178795
Probable space group: A M M 2
;
_chemical_formula_sum "Si O2"
_cell_formula_units_Z 48
_cell_length_a 9.076707
_cell_length_b 13.906445
_cell_length_c 23.878737
_cell_angle_alpha 90.000000
_cell_angle_beta 90.000000
_cell_angle_gamma 90.000000
_cell_volume 3014.087051
_symmetry_space_group_name_H-M "A M M 2"
_symmetry_group_IT_number 38
_symmetry_cell_setting 'orthorhombic'
loop_
_space_group_symop_operation_xyz
x,y,z
-x,-y,z
-x,y,z
x,-y,z
x,1/2+y,1/2+z
-x,1/2-y,1/2+z
-x,1/2+y,1/2+z
x,1/2-y,1/2+z
loop_
_atom_site_type_symbol
_atom_site_label
_atom_site_fract_x
_atom_site_fract_y
_atom_site_fract_z
Si Si1 0.826641 0.208195 0.569590
Si Si2 0.825359 0.605923 0.632642
Si Si3 0.825191 0.605854 0.182511
Si Si4 0.171160 0.888487 0.354301
Si Si5 0.673509 0.110142 0.467785
Si Si6 0.824505 0.291075 0.742431
O O1 0.781903 0.318169 0.584321
O O2 0.776559 0.140306 0.620873
O O3 0.738251 0.178734 0.514957
O O4 0.000000 0.198015 0.557921
O O5 0.761116 0.500000 0.618342
O O6 0.763413 0.640386 0.692914
O O7 0.000000 0.602242 0.636981
O O8 0.757715 0.500000 0.194602
O O9 0.770488 0.681715 0.229647
O O10 0.000000 0.601805 0.183993
O O11 0.261105 0.856089 0.408608
O O12 0.234995 0.826760 0.302275
O O13 0.000000 0.866783 0.365328
O O14 0.196627 0.000000 0.340043
O O15 0.500000 0.122527 0.465648
O O16 0.719752 0.000000 0.480129
O O17 0.000000 0.296237 0.742507
#
# Coordination Sequence:
#
# PCOD8178795 Si02
#       6
#     8   8   8   8   8   8
#     4   9  16  26  43  65  86 110 139 169 202 243
#     4   8  13  22  39  65  92 111 130 164 208 247
#     4   8  13  21  36  61  89 110 129 160 202 243
#     4   9  16  26  42  62  81 103 134 170 204 242
#     4  10  20  31  42  58  82 111 140 172 211 249
#     4   8  13  21  36  60  86 109 132 161 201 245
#
# _framework density 15.925221000000001
#
# number of rings (size 3 to 8) (size 9 to 14) (size 15 to 20)
#    0.000    3.333    0.000    3.500    0.000    3.667 
#    0.000    0.000    0.000    5.500    0.000    4.667 
#    0.000    0.000    0.000    0.000    0.000    0.000 
#
# Total GULP energy -297436.490778 kJ/mol
# GULP energy per Si atom -12393.187116 kJ/mol
# Density = 1.588897 g / cm^3
# Si number density = 15.925221 Si / 1000 Ang^3
#
#
#
# Elastic Constant Matrix: (Units=GPa)
#
#
# Indices 1 2 3 4 5 6 
#
# 1 27.6073 23.3583 34.9666 0.0000 0.0000 0.0000
# 2 23.3583 138.5318 80.1034 0.0000 0.0000 0.0000
# 3 34.9666 80.1034 140.4256 0.0000 0.0000 0.0000
# 4 0.0000 0.0000 0.0000 27.3089 0.0000 0.0000
# 5 0.0000 0.0000 0.0000 0.0000 -2.2594 0.0000
# 6 0.0000 0.0000 0.0000 0.0000 0.0000 9.1905
#
#
#
# Elastic Compliance Matrix: (Units=1/GPa)
#
#
# Indices 1 2 3 4 5 6 
#
# 1 0.053262 -0.001958 -0.012146 0.000000 0.000000 0.000000
# 2 -0.001958 0.010843 -0.005698 0.000000 0.000000 0.000000
# 3 -0.012146 -0.005698 0.013396 0.000000 0.000000 0.000000
# 4 0.000000 0.000000 0.000000 0.036618 0.000000 0.000000
# 5 0.000000 0.000000 0.000000 0.000000 -0.442590 0.000000
# 6 0.000000 0.000000 0.000000 0.000000 0.000000 0.108808
#
#
# Mechanical properties :
#
#
# Convention : Reuss Voigt Hill
#
# Bulk Modulus (GPa) = 26.38616 64.82460 45.60538
# Shear Modulus (GPa) = -29.86373 18.05709 -5.90332
#
# Velocity S-wave (km/s) = -4.33511 3.37095 -1.92742
# Velocity P-wave (km/s) = 2.90737 7.47964 4.87300
#
# Compressibility (1/GPa) = 0.03789866
#
# Stress axis : x y z
#
# Youngs Moduli (GPa) = 18.77501 92.22214 74.64973
#
# Poissons Ratio (x) = 0.18054 0.90669
# Poissons Ratio (y) = 0.03675 0.42535
# Poissons Ratio (z) = 0.22804 0.52548
#
# Static dielectric constant tensor:
#      x y z
#    x 2.540510 0.000000 0.000000 
#    y 0.000000 3.453710 0.000000 
#    z 0.000000 0.000000 3.025650 
# 
# 
# High freq. dielectric constant tensor:
#      x y z
#    x 1.561950 0.000000 0.000000 
#    y 0.000000 1.610030 0.000000 
#    z 0.000000 0.000000 1.605250 
# 
# From -- ./inp_files/19628.got.cif
#   From: 2010.03.12/outbox.cif.g09.slc.cpg/sg38_10_cif.got.tgz:19628.got - 2010.04.14 02:38:36.
