data_PCOD8178669
_publ_section_title
;
Structure prediction by ZEFSAII (Michael W. Deem and Ramdas Pophale) SiO2 
 PCOD8178669
Probable space group: A M M 2
;
_chemical_formula_sum "Si O2"
_cell_formula_units_Z 56
_cell_length_a 9.044511
_cell_length_b 16.700402
_cell_length_c 19.734897
_cell_angle_alpha 90.000000
_cell_angle_beta 90.000000
_cell_angle_gamma 90.000000
_cell_volume 2980.896387
_symmetry_space_group_name_H-M "A M M 2"
_symmetry_group_IT_number 38
_symmetry_cell_setting 'orthorhombic'
loop_
_space_group_symop_operation_xyz
x,y,z
-x,-y,z
-x,y,z
x,-y,z
x,1/2+y,1/2+z
-x,1/2-y,1/2+z
-x,1/2+y,1/2+z
x,1/2-y,1/2+z
loop_
_atom_site_type_symbol
_atom_site_label
_atom_site_fract_x
_atom_site_fract_y
_atom_site_fract_z
Si Si1 0.332942 0.909790 0.681200
Si Si2 0.674761 0.000000 0.927607
Si Si3 0.672644 0.828669 0.883895
Si Si4 0.675915 0.500000 0.582763
Si Si5 0.834244 0.745436 0.502110
Si Si6 0.825995 0.272924 0.255685
Si Si7 0.170290 0.844705 0.138738
Si Si8 0.165518 0.413292 0.045927
O O1 0.500000 0.877212 0.688565
O O2 0.223178 0.856815 0.724639
O O3 0.288378 0.906800 0.603216
O O4 0.322243 0.000000 0.709328
O O5 0.725572 0.921808 0.884985
O O6 0.500000 0.000000 0.935902
O O7 0.738507 0.000000 0.005166
O O8 0.500000 0.822740 0.869217
O O9 0.709081 0.796830 0.958456
O O10 0.755140 0.771368 0.830406
O O11 0.500000 0.500000 0.584103
O O12 0.732087 0.577850 0.622999
O O13 0.810300 0.721713 0.580291
O O14 0.811327 0.841041 0.493401
O O15 0.000000 0.720644 0.478329
O O16 0.775719 0.197843 0.208735
O O17 0.000000 0.271905 0.263433
O O18 0.000000 0.871769 0.144756
O O19 0.181838 0.500000 0.008960
O O20 0.000000 0.405636 0.077888
#
# Coordination Sequence:
#
# PCOD8178669 Si02
#       8
#     8   4   8   4   8   8   8   8
#     4  10  20  32  49  78 114 148 181 221 270 324
#     4   9  20  37  55  83 123 156 187 236 295 355
#     4  11  23  39  57  82 118 156 193 239 298 359
#     4  11  21  37  63  93 119 150 195 246 301 359
#     4  10  19  35  57  84 113 147 191 239 291 350
#     4  11  23  40  58  82 114 154 198 239 285 348
#     4  10  21  38  60  87 118 150 193 247 296 345
#     4   9  17  32  55  81 109 142 185 233 276 328
#
# _framework density 18.786294999999999
#
# number of rings (size 3 to 8) (size 9 to 14) (size 15 to 20)
#    0.000    1.857    2.857    1.500    1.000    2.571 
#    0.000    1.071    1.571    0.000    0.000    0.000 
#    0.000    0.000    0.000    0.000    0.000    0.000 
#
# Total GULP energy -347090.242829 kJ/mol
# GULP energy per Si atom -12396.080101 kJ/mol
# Density = 1.874354 g / cm^3
# Si number density = 18.786295 Si / 1000 Ang^3
#
#
#
# Elastic Constant Matrix: (Units=GPa)
#
#
# Indices 1 2 3 4 5 6 
#
# 1 65.2749 40.0878 32.7765 0.0000 0.0000 0.0000
# 2 40.0878 106.0358 33.8590 0.0000 0.0000 0.0000
# 3 32.7765 33.8590 78.9039 0.0000 0.0000 0.0000
# 4 0.0000 0.0000 0.0000 28.5210 0.0000 0.0000
# 5 0.0000 0.0000 0.0000 0.0000 25.4679 0.0000
# 6 0.0000 0.0000 0.0000 0.0000 0.0000 28.6627
#
#
#
# Elastic Compliance Matrix: (Units=1/GPa)
#
#
# Indices 1 2 3 4 5 6 
#
# 1 0.022594 -0.006425 -0.006628 0.000000 0.000000 0.000000
# 2 -0.006425 0.012755 -0.002804 0.000000 0.000000 0.000000
# 3 -0.006628 -0.002804 0.016630 0.000000 0.000000 0.000000
# 4 0.000000 0.000000 0.000000 0.035062 0.000000 0.000000
# 5 0.000000 0.000000 0.000000 0.000000 0.039265 0.000000
# 6 0.000000 0.000000 0.000000 0.000000 0.000000 0.034889
#
#
# Mechanical properties :
#
#
# Convention : Reuss Voigt Hill
#
# Bulk Modulus (GPa) = 49.34928 51.51791 50.43359
# Shear Modulus (GPa) = 25.04172 26.09641 25.56907
#
# Velocity S-wave (km/s) = 3.65496 3.73113 3.69324
# Velocity P-wave (km/s) = 6.64360 6.78561 6.71498
#
# Compressibility (1/GPa) = 0.02026372
#
# Stress axis : x y z
#
# Youngs Moduli (GPa) = 44.25911 78.39760 60.13056
#
# Poissons Ratio (x) = 0.50374 0.39856
# Poissons Ratio (y) = 0.28438 0.16864
# Poissons Ratio (z) = 0.29336 0.21987
#
# Static dielectric constant tensor:
#      x y z
#    x 3.419460 0.000000 0.000000 
#    y 0.000000 3.623580 0.000000 
#    z 0.000000 0.000000 3.297660 
# 
# 
# High freq. dielectric constant tensor:
#      x y z
#    x 1.726780 0.000000 0.000000 
#    y 0.000000 1.733580 0.000000 
#    z 0.000000 0.000000 1.703280 
# 
# From -- ./inp_files/19849.got.cif
#   From: 2010.03.12/outbox.cif.g09.slc.cpg/sg38_10_cif.got.tgz:19849.got - 2010.04.14 02:38:36.
