data_PCOD8178164
_publ_section_title
;
Structure prediction by ZEFSAII (Michael W. Deem and Ramdas Pophale) SiO2 
 PCOD8178164
Probable space group: A M M 2
;
_chemical_formula_sum "Si O2"
_cell_formula_units_Z 64
_cell_length_a 20.055714
_cell_length_b 8.967080
_cell_length_c 20.040820
_cell_angle_alpha 90.000000
_cell_angle_beta 90.000000
_cell_angle_gamma 90.000000
_cell_volume 3604.164955
_symmetry_space_group_name_H-M "A M M 2"
_symmetry_group_IT_number 38
_symmetry_cell_setting 'orthorhombic'
loop_
_space_group_symop_operation_xyz
x,y,z
-x,-y,z
-x,y,z
x,-y,z
x,1/2+y,1/2+z
-x,1/2-y,1/2+z
-x,1/2+y,1/2+z
x,1/2-y,1/2+z
loop_
_atom_site_type_symbol
_atom_site_label
_atom_site_fract_x
_atom_site_fract_y
_atom_site_fract_z
Si Si1 0.834699 0.675358 0.089150
Si Si2 0.683408 0.827638 0.269646
Si Si3 0.073990 0.177206 0.704043
Si Si4 0.575819 0.673788 0.877221
Si Si5 0.180733 0.177008 0.811678
Si Si6 0.297784 0.329925 0.622728
Si Si7 0.799549 0.176894 0.444921
Si Si8 0.662579 0.174670 0.979116
O O1 0.828752 0.500000 0.092698
O O2 0.898560 0.730404 0.131516
O O3 0.768646 0.733564 0.124662
O O4 0.839029 0.726728 0.011993
O O5 0.620648 0.777594 0.314066
O O6 0.747141 0.729507 0.287446
O O7 0.662883 0.801848 0.191989
O O8 0.701735 0.000000 0.282972
O O9 0.123600 0.235227 0.761445
O O10 0.000000 0.245226 0.714138
O O11 0.070734 0.000000 0.706553
O O12 0.500000 0.714290 0.859297
O O13 0.584185 0.500000 0.893363
O O14 0.596359 0.766131 0.943048
O O15 0.162504 0.248459 0.883099
O O16 0.180999 0.000000 0.817454
O O17 0.274276 0.500000 0.616715
O O18 0.343379 0.289797 0.558424
O O19 0.724302 0.237106 0.447019
O O20 0.797276 0.000000 0.436108
O O21 0.672173 0.000000 0.965392
#
# Coordination Sequence:
#
# PCOD8178164 Si02
#       8
#     8   8   8   8   8   8   8   8
#     4   9  17  31  51  74  98 131 173 211 251 302
#     4  10  19  33  53  76 104 137 171 214 261 308
#     4   9  18  33  52  75 104 138 176 215 259 312
#     4  10  21  36  53  74 103 142 181 214 259 316
#     4  11  20  31  52  79 104 135 175 218 259 307
#     4   9  18  31  50  77 105 130 162 210 263 303
#     4  10  19  31  50  76 105 133 167 215 264 306
#     4  10  19  32  51  77 105 133 169 213 260 309
#
# _framework density 17.757232999999999
#
# number of rings (size 3 to 8) (size 9 to 14) (size 15 to 20)
#    0.000    2.250    2.500    1.125    0.000    1.250 
#    0.000    1.250    0.000    6.375    0.000    0.000 
#    0.000    0.000    0.000    0.000    0.000    0.000 
#
# Total GULP energy -396712.536038 kJ/mol
# GULP energy per Si atom -12397.266751 kJ/mol
# Density = 1.771682 g / cm^3
# Si number density = 17.757233 Si / 1000 Ang^3
#
#
#
# Elastic Constant Matrix: (Units=GPa)
#
#
# Indices 1 2 3 4 5 6 
#
# 1 121.6514 29.6441 76.4449 0.0000 0.0000 0.0000
# 2 29.6441 40.9813 35.9413 0.0000 0.0000 0.0000
# 3 76.4449 35.9413 151.6404 0.0000 0.0000 0.0000
# 4 0.0000 0.0000 0.0000 24.3755 0.0000 0.0000
# 5 0.0000 0.0000 0.0000 0.0000 26.4826 0.0000
# 6 0.0000 0.0000 0.0000 0.0000 0.0000 16.8244
#
#
#
# Elastic Compliance Matrix: (Units=1/GPa)
#
#
# Indices 1 2 3 4 5 6 
#
# 1 0.012655 -0.004493 -0.005315 0.000000 0.000000 0.000000
# 2 -0.004493 0.032400 -0.005414 0.000000 0.000000 0.000000
# 3 -0.005315 -0.005414 0.010557 0.000000 0.000000 0.000000
# 4 0.000000 0.000000 0.000000 0.041025 0.000000 0.000000
# 5 0.000000 0.000000 0.000000 0.000000 0.037761 0.000000
# 6 0.000000 0.000000 0.000000 0.000000 0.000000 0.059437
#
#
# Mechanical properties :
#
#
# Convention : Reuss Voigt Hill
#
# Bulk Modulus (GPa) = 39.73313 66.48151 53.10732
# Shear Modulus (GPa) = 21.48991 25.01936 23.25463
#
# Velocity S-wave (km/s) = 3.48258 3.75769 3.62275
# Velocity P-wave (km/s) = 6.21252 7.50649 6.88995
#
# Compressibility (1/GPa) = 0.02516792
#
# Stress axis : x y z
#
# Youngs Moduli (GPa) = 79.02204 30.86436 94.72367
#
# Poissons Ratio (x) = 0.13867 0.50342
# Poissons Ratio (y) = 0.35504 0.51287
# Poissons Ratio (z) = 0.41997 0.16711
#
# Static dielectric constant tensor:
#      x y z
#    x 3.202370 0.000000 0.000000 
#    y 0.000000 3.197780 0.000000 
#    z 0.000000 0.000000 3.759450 
# 
# 
# High freq. dielectric constant tensor:
#      x y z
#    x 1.653150 0.000000 0.000000 
#    y 0.000000 1.677940 0.000000 
#    z 0.000000 0.000000 1.706980 
# 
# From -- ./inp_files/21409.got.cif
#   From: 2010.03.12/outbox.cif.g09.slc.cpg/sg38_11_cif.got.tgz:21409.got - 2010.04.14 02:38:36.
