data_PCOD8178831
_publ_section_title
;
Structure prediction by ZEFSAII (Michael W. Deem and Ramdas Pophale) SiO2 
 PCOD8178831
Probable space group: A M M 2
;
_chemical_formula_sum "Si O2"
_cell_formula_units_Z 64
_cell_length_a 8.855052
_cell_length_b 14.560971
_cell_length_c 28.397930
_cell_angle_alpha 90.000000
_cell_angle_beta 90.000000
_cell_angle_gamma 90.000000
_cell_volume 3661.576711
_symmetry_space_group_name_H-M "A M M 2"
_symmetry_group_IT_number 38
_symmetry_cell_setting 'orthorhombic'
loop_
_space_group_symop_operation_xyz
x,y,z
-x,-y,z
-x,y,z
x,-y,z
x,1/2+y,1/2+z
-x,1/2-y,1/2+z
-x,1/2+y,1/2+z
x,1/2-y,1/2+z
loop_
_atom_site_type_symbol
_atom_site_label
_atom_site_fract_x
_atom_site_fract_y
_atom_site_fract_z
Si Si1 0.175155 0.102757 0.277410
Si Si2 0.822586 0.605676 0.142049
Si Si3 0.177505 0.289185 0.959816
Si Si4 0.174205 0.604617 0.316744
Si Si5 0.678039 0.604148 0.044441
Si Si6 0.326560 0.607054 0.875426
Si Si7 0.820867 0.600478 0.420523
Si Si8 0.177424 0.716272 0.230648
O O1 0.272127 0.129833 0.322887
O O2 0.211674 0.174503 0.235177
O O3 0.000000 0.109471 0.291978
O O4 0.215716 0.000000 0.259620
O O5 0.783372 0.500000 0.154580
O O6 0.743088 0.637299 0.094153
O O7 0.755762 0.672155 0.182908
O O8 0.000000 0.618920 0.134948
O O9 0.223162 0.339081 0.911912
O O10 0.225567 0.181631 0.956067
O O11 0.000000 0.301115 0.967410
O O12 0.263309 0.329474 0.004129
O O13 0.194348 0.500000 0.300602
O O14 0.248112 0.620652 0.368342
O O15 0.251143 0.667551 0.276607
O O16 0.000000 0.632536 0.320115
O O17 0.500000 0.610779 0.046291
O O18 0.731095 0.500000 0.033552
O O19 0.500000 0.637552 0.881024
O O20 0.307077 0.500000 0.886429
O O21 0.763294 0.500000 0.438608
O O22 0.000000 0.596725 0.415042
O O23 0.000000 0.695459 0.229585
#
# Coordination Sequence:
#
# PCOD8178831 Si02
#       8
#     8   8   8   8   8   8   8   8
#     4   9  17  29  45  66  93 125 160 195 229 269
#     4   9  17  30  49  72  94 116 148 191 236 283
#     4  11  20  30  50  75  95 120 157 198 237 280
#     4   8  12  19  34  59  91 121 144 170 211 262
#     4  10  21  36  51  68  94 125 153 187 237 292
#     4  10  20  32  45  65  97 133 164 195 234 280
#     4   8  15  27  43  67  98 126 152 185 225 268
#     4   9  15  24  42  68  94 117 146 187 231 268
#
# _framework density 17.478808000000001
#
# number of rings (size 3 to 8) (size 9 to 14) (size 15 to 20)
#    0.000    2.750    0.000    3.375    0.000    6.500 
#    0.000    0.625    0.000    2.250    0.000    3.500 
#    0.000    0.000    0.000    0.000    0.000    0.000 
#
# Total GULP energy -396630.963560 kJ/mol
# GULP energy per Si atom -12394.717611 kJ/mol
# Density = 1.743903 g / cm^3
# Si number density = 17.478808 Si / 1000 Ang^3
#
#
#
# Elastic Constant Matrix: (Units=GPa)
#
#
# Indices 1 2 3 4 5 6 
#
# 1 22.0146 17.3022 15.5396 0.0000 0.0000 0.0000
# 2 17.3022 108.3034 77.1961 0.0000 0.0000 0.0000
# 3 15.5396 77.1961 103.4299 0.0000 0.0000 0.0000
# 4 0.0000 0.0000 0.0000 30.3227 0.0000 0.0000
# 5 0.0000 0.0000 0.0000 0.0000 5.0630 0.0000
# 6 0.0000 0.0000 0.0000 0.0000 0.0000 10.1789
#
#
#
# Elastic Compliance Matrix: (Units=1/GPa)
#
#
# Indices 1 2 3 4 5 6 
#
# 1 0.052527 -0.005911 -0.003480 0.000000 0.000000 0.000000
# 2 -0.005911 0.020394 -0.014333 0.000000 0.000000 0.000000
# 3 -0.003480 -0.014333 0.020889 0.000000 0.000000 0.000000
# 4 0.000000 0.000000 0.000000 0.032979 0.000000 0.000000
# 5 0.000000 0.000000 0.000000 0.000000 0.197512 0.000000
# 6 0.000000 0.000000 0.000000 0.000000 0.000000 0.098242
#
#
# Mechanical properties :
#
#
# Convention : Reuss Voigt Hill
#
# Bulk Modulus (GPa) = 21.56976 50.42485 35.99731
# Shear Modulus (GPa) = 10.29983 17.36025 13.83004
#
# Velocity S-wave (km/s) = 2.43013 3.15495 2.81596
# Velocity P-wave (km/s) = 4.49904 6.49488 5.58680
#
# Compressibility (1/GPa) = 0.04636120
#
# Stress axis : x y z
#
# Youngs Moduli (GPa) = 19.03794 49.03394 47.87206
#
# Poissons Ratio (x) = 0.28984 0.16660
# Poissons Ratio (y) = 0.11253 0.68616
# Poissons Ratio (z) = 0.06625 0.70282
#
# Static dielectric constant tensor:
#      x y z
#    x 2.940050 0.000000 0.000000 
#    y 0.000000 3.533350 0.000000 
#    z 0.000000 0.000000 3.240110 
# 
# 
# High freq. dielectric constant tensor:
#      x y z
#    x 1.639630 0.000000 0.000000 
#    y 0.000000 1.679580 0.000000 
#    z 0.000000 0.000000 1.658540 
# 
# From -- ./inp_files/24767.got.cif
#   From: 2010.03.12/outbox.cif.g09.slc.cpg/sg38_13_cif.got.tgz:24767.got - 2010.04.14 02:38:36.
