data_PCOD8178321
_publ_section_title
;
Structure prediction by ZEFSAII (Michael W. Deem and Ramdas Pophale) SiO2 
 PCOD8178321
Probable space group: A M M 2
;
_chemical_formula_sum "Si O2"
_cell_formula_units_Z 40
_cell_length_a 8.655011
_cell_length_b 9.726948
_cell_length_c 25.841949
_cell_angle_alpha 90.000000
_cell_angle_beta 90.000000
_cell_angle_gamma 90.000000
_cell_volume 2175.552076
_symmetry_space_group_name_H-M "A M M 2"
_symmetry_group_IT_number 38
_symmetry_cell_setting 'orthorhombic'
loop_
_space_group_symop_operation_xyz
x,y,z
-x,-y,z
-x,y,z
x,-y,z
x,1/2+y,1/2+z
-x,1/2-y,1/2+z
-x,1/2+y,1/2+z
x,1/2-y,1/2+z
loop_
_atom_site_type_symbol
_atom_site_label
_atom_site_fract_x
_atom_site_fract_y
_atom_site_fract_z
Si Si1 0.683149 0.717380 0.807580
Si Si2 0.682947 0.000000 0.389907
Si Si3 0.682675 0.000000 0.504719
Si Si4 0.182101 0.500000 0.733474
Si Si5 0.182532 0.000000 0.838527
Si Si6 0.816614 0.000000 0.956921
Si Si7 0.818644 0.000000 0.113844
Si Si8 0.683006 0.294913 0.536051
O O1 0.500000 0.725971 0.803725
O O2 0.737873 0.635669 0.859014
O O3 0.745636 0.637579 0.757521
O O4 0.753734 0.868428 0.808423
O O5 0.757141 0.000000 0.447056
O O6 0.500000 0.000000 0.392897
O O7 0.735401 0.864585 0.535834
O O8 0.500000 0.000000 0.498020
O O9 0.226923 0.500000 0.673422
O O10 0.000000 0.500000 0.742524
O O11 0.240820 0.000000 0.897793
O O12 0.000000 0.000000 0.835828
O O13 0.749945 0.135165 0.984483
O O14 0.000000 0.000000 0.961474
O O15 0.749270 0.136485 0.087691
O O16 0.000000 0.000000 0.104413
O O17 0.500000 0.312033 0.535239
#
# Coordination Sequence:
#
# PCOD8178321 Si02
#       8
#     8   4   4   4   4   4   4   8
#     4  10  20  34  55  81 106 136 177 221 261 310
#     4   8  15  29  49  74 105 138 170 205 249 304
#     4   9  17  29  47  76 109 135 164 206 255 300
#     4  10  21  39  60  77  99 134 173 218 274 331
#     4  11  22  34  50  76 113 149 176 212 263 316
#     4  10  20  33  49  74 109 146 180 211 249 306
#     4  10  21  38  57  75  99 134 173 214 262 319
#     4  10  19  32  53  78 104 137 177 221 261 303
#
# _framework density 18.386137999999999
#
# number of rings (size 3 to 8) (size 9 to 14) (size 15 to 20)
#    0.000    2.200    0.000    5.400    0.000    4.800 
#    0.000    3.000    0.000   10.800    0.000    0.000 
#    0.000    0.000    0.000    0.000    0.000    0.000 
#
# Total GULP energy -248015.909585 kJ/mol
# GULP energy per Si atom -12400.795479 kJ/mol
# Density = 1.834429 g / cm^3
# Si number density = 18.386138 Si / 1000 Ang^3
#
#
#
# Elastic Constant Matrix: (Units=GPa)
#
#
# Indices 1 2 3 4 5 6 
#
# 1 79.3505 47.5361 47.2633 0.0000 0.0000 0.0000
# 2 47.5361 187.8532 77.6524 0.0000 0.0000 0.0000
# 3 47.2633 77.6524 130.3547 0.0000 0.0000 0.0000
# 4 0.0000 0.0000 0.0000 14.4379 0.0000 0.0000
# 5 0.0000 0.0000 0.0000 0.0000 26.1010 0.0000
# 6 0.0000 0.0000 0.0000 0.0000 0.0000 16.6461
#
#
#
# Elastic Compliance Matrix: (Units=1/GPa)
#
#
# Indices 1 2 3 4 5 6 
#
# 1 0.016789 -0.002298 -0.004718 0.000000 0.000000 0.000000
# 2 -0.002298 0.007377 -0.003561 0.000000 0.000000 0.000000
# 3 -0.004718 -0.003561 0.011504 0.000000 0.000000 0.000000
# 4 0.000000 0.000000 0.000000 0.069262 0.000000 0.000000
# 5 0.000000 0.000000 0.000000 0.000000 0.038313 0.000000
# 6 0.000000 0.000000 0.000000 0.000000 0.000000 0.060074
#
#
# Mechanical properties :
#
#
# Convention : Reuss Voigt Hill
#
# Bulk Modulus (GPa) = 68.89689 82.49578 75.69634
# Shear Modulus (GPa) = 21.80429 26.44410 24.12420
#
# Velocity S-wave (km/s) = 3.44744 3.79656 3.62620
# Velocity P-wave (km/s) = 7.30753 8.01151 7.66761
#
# Compressibility (1/GPa) = 0.01451444
#
# Stress axis : x y z
#
# Youngs Moduli (GPa) = 59.56119 135.55783 86.92947
#
# Poissons Ratio (x) = 0.31153 0.41017
# Poissons Ratio (y) = 0.13688 0.30957
# Poissons Ratio (z) = 0.28104 0.48275
#
# Static dielectric constant tensor:
#      x y z
#    x 3.308710 0.000000 0.000000 
#    y 0.000000 3.544990 0.000000 
#    z 0.000000 0.000000 3.347600 
# 
# 
# High freq. dielectric constant tensor:
#      x y z
#    x 1.711210 0.000000 0.000000 
#    y 0.000000 1.720710 0.000000 
#    z 0.000000 0.000000 1.698740 
# 
# From -- ./inp_files/23316.got.cif
#   From: 2010.03.12/outbox.cif.g09.slc.cpg/sg38_12_cif.got.tgz:23316.got - 2010.04.14 02:38:36.
