data_PCOD8178232
_publ_section_title
;
Structure prediction by ZEFSAII (Michael W. Deem and Ramdas Pophale) SiO2 
 PCOD8178232
Probable space group: A M M 2
;
_chemical_formula_sum "Si O2"
_cell_formula_units_Z 56
_cell_length_a 14.006928
_cell_length_b 19.183454
_cell_length_c 12.289057
_cell_angle_alpha 90.000000
_cell_angle_beta 90.000000
_cell_angle_gamma 90.000000
_cell_volume 3302.085087
_symmetry_space_group_name_H-M "A M M 2"
_symmetry_group_IT_number 38
_symmetry_cell_setting 'orthorhombic'
loop_
_space_group_symop_operation_xyz
x,y,z
-x,-y,z
-x,y,z
x,-y,z
x,1/2+y,1/2+z
-x,1/2-y,1/2+z
-x,1/2+y,1/2+z
x,1/2-y,1/2+z
loop_
_atom_site_type_symbol
_atom_site_label
_atom_site_fract_x
_atom_site_fract_y
_atom_site_fract_z
Si Si1 0.772652 0.824474 0.876100
Si Si2 0.888346 0.299697 0.158890
Si Si3 0.108900 0.578656 0.792351
Si Si4 0.391027 0.579735 0.295546
Si Si5 0.892489 0.853023 0.076947
Si Si6 0.228257 0.668671 0.952082
Si Si7 0.391267 0.578889 0.041810
O O1 0.838199 0.824978 0.769172
O O2 0.674726 0.865936 0.859264
O O3 0.749193 0.747038 0.916348
O O4 0.826732 0.864456 0.972672
O O5 0.872133 0.217780 0.143571
O O6 0.000000 0.319649 0.163923
O O7 0.839966 0.338650 0.056954
O O8 0.131332 0.500000 0.828150
O O9 0.125552 0.584955 0.662481
O O10 0.177741 0.630904 0.852981
O O11 0.000000 0.599319 0.820191
O O12 0.500000 0.591540 0.333409
O O13 0.360091 0.500000 0.320172
O O14 0.380995 0.595730 0.168530
O O15 0.000000 0.852131 0.032087
O O16 0.329041 0.632473 0.973234
O O17 0.500000 0.588695 0.003918
O O18 0.357222 0.500000 0.018324
#
# Coordination Sequence:
#
# PCOD8178232 Si02
#       7
#     8   8   8   8   8   8   8
#     4  11  20  32  56  80 105 135 176 219 266 310
#     4  10  19  32  50  76 108 138 171 220 265 304
#     4  10  20  34  51  73 107 148 184 213 248 309
#     4   9  19  37  58  77 101 134 171 214 268 327
#     4   9  19  33  49  73 106 144 180 209 251 310
#     4  11  20  32  54  80 107 133 177 222 265 306
#     4   9  18  34  55  76 101 134 170 213 267 319
#
# _framework density 16.958981000000001
#
# number of rings (size 3 to 8) (size 9 to 14) (size 15 to 20)
#    0.000    2.143    2.857    2.143    0.000    2.286 
#    0.000    0.000    0.000    3.000    0.000    2.000 
#    0.000    0.000    0.000    0.000    0.000    0.000 
#
# Total GULP energy -347201.315462 kJ/mol
# GULP energy per Si atom -12400.046981 kJ/mol
# Density = 1.692038 g / cm^3
# Si number density = 16.958981 Si / 1000 Ang^3
#
#
#
# Elastic Constant Matrix: (Units=GPa)
#
#
# Indices 1 2 3 4 5 6 
#
# 1 106.2501 54.3501 52.1904 0.0000 0.0000 0.0000
# 2 54.3501 73.7982 37.8544 0.0000 0.0000 0.0000
# 3 52.1904 37.8544 82.8795 0.0000 0.0000 0.0000
# 4 0.0000 0.0000 0.0000 14.7271 0.0000 0.0000
# 5 0.0000 0.0000 0.0000 0.0000 28.7606 0.0000
# 6 0.0000 0.0000 0.0000 0.0000 0.0000 29.8301
#
#
#
# Elastic Compliance Matrix: (Units=1/GPa)
#
#
# Indices 1 2 3 4 5 6 
#
# 1 0.017572 -0.009488 -0.006732 0.000000 0.000000 0.000000
# 2 -0.009488 0.022820 -0.004448 0.000000 0.000000 0.000000
# 3 -0.006732 -0.004448 0.018336 0.000000 0.000000 0.000000
# 4 0.000000 0.000000 0.000000 0.067902 0.000000 0.000000
# 5 0.000000 0.000000 0.000000 0.000000 0.034770 0.000000
# 6 0.000000 0.000000 0.000000 0.000000 0.000000 0.033523
#
#
# Mechanical properties :
#
#
# Convention : Reuss Voigt Hill
#
# Bulk Modulus (GPa) = 57.49600 61.30196 59.39898
# Shear Modulus (GPa) = 20.65643 22.56576 21.61109
#
# Velocity S-wave (km/s) = 3.49380 3.65171 3.57363
# Velocity P-wave (km/s) = 7.08887 7.34885 7.22003
#
# Compressibility (1/GPa) = 0.01739251
#
# Stress axis : x y z
#
# Youngs Moduli (GPa) = 56.90925 43.82173 54.53691
#
# Poissons Ratio (x) = 0.41579 0.36712
# Poissons Ratio (y) = 0.53997 0.24257
# Poissons Ratio (z) = 0.38309 0.19491
#
# Static dielectric constant tensor:
#      x y z
#    x 3.144960 0.000000 0.000000 
#    y 0.000000 3.094470 0.000000 
#    z 0.000000 0.000000 3.093420 
# 
# 
# High freq. dielectric constant tensor:
#      x y z
#    x 1.650380 0.000000 0.000000 
#    y 0.000000 1.648830 0.000000 
#    z 0.000000 0.000000 1.650730 
# 
# From -- ./inp_files/9364.got.cif
#   From: 2010.03.12/outbox.cif.g09.slc.cpg/sg38_5_cif.got.tgz:9364.got - 2010.04.14 02:38:36.
