data_PCOD8178622
_publ_section_title
;
Structure prediction by ZEFSAII (Michael W. Deem and Ramdas Pophale) SiO2 
 PCOD8178622
Probable space group: A M M 2
;
_chemical_formula_sum "Si O2"
_cell_formula_units_Z 64
_cell_length_a 23.743418
_cell_length_b 8.877906
_cell_length_c 15.530147
_cell_angle_alpha 90.000000
_cell_angle_beta 90.000000
_cell_angle_gamma 90.000000
_cell_volume 3273.628155
_symmetry_space_group_name_H-M "A M M 2"
_symmetry_group_IT_number 38
_symmetry_cell_setting 'orthorhombic'
loop_
_space_group_symop_operation_xyz
x,y,z
-x,-y,z
-x,y,z
x,-y,z
x,1/2+y,1/2+z
-x,1/2-y,1/2+z
-x,1/2+y,1/2+z
x,1/2-y,1/2+z
loop_
_atom_site_type_symbol
_atom_site_label
_atom_site_fract_x
_atom_site_fract_y
_atom_site_fract_z
Si Si1 0.934489 0.676687 0.997030
Si Si2 0.748932 0.673764 0.844118
Si Si3 0.370396 0.174163 0.416889
Si Si4 0.865177 0.825898 0.656774
Si Si5 0.864258 0.820820 0.849904
Si Si6 0.262261 0.824718 0.665090
Si Si7 0.634551 0.822198 0.088377
Si Si8 0.436754 0.178974 0.250447
O O1 0.921626 0.500000 0.987190
O O2 0.912318 0.759601 0.912214
O O3 0.000000 0.711186 0.005974
O O4 0.904533 0.745810 0.082532
O O5 0.765800 0.500000 0.834643
O O6 0.696824 0.694873 0.908477
O O7 0.802906 0.763282 0.880240
O O8 0.728345 0.734571 0.752659
O O9 0.392059 0.271602 0.497647
O O10 0.402560 0.238036 0.333183
O O11 0.385881 0.000000 0.431840
O O12 0.876354 0.759120 0.752617
O O13 0.800641 0.799001 0.629215
O O14 0.880487 0.000000 0.661829
O O15 0.863339 0.000000 0.851659
O O16 0.305254 0.760106 0.595350
O O17 0.273332 0.000000 0.682722
O O18 0.593728 0.763675 0.164032
O O19 0.643201 0.000000 0.091760
O O20 0.500000 0.244566 0.252729
O O21 0.437596 0.000000 0.250310
#
# Coordination Sequence:
#
# PCOD8178622 Si02
#       8
#     8   8   8   8   8   8   8   8
#     4  10  21  38  59  82 110 150 197 237 279 342
#     4  10  19  35  58  84 117 153 192 236 292 352
#     4  10  21  37  57  84 114 152 193 235 288 346
#     4   8  18  36  56  79 109 148 188 225 278 343
#     4  10  21  37  57  85 116 150 189 236 292 344
#     4  10  19  34  57  84 117 153 192 238 289 347
#     4  11  22  36  56  87 118 151 193 238 291 346
#     4   9  19  39  62  81 112 157 197 235 287 351
#
# _framework density 19.550173999999998
#
# number of rings (size 3 to 8) (size 9 to 14) (size 15 to 20)
#    0.000    2.250    1.250    2.250    1.750    2.250 
#    0.000    4.375    0.000    2.625    0.000    0.000 
#    0.000    0.000    0.000    0.000    0.000    0.000 
#
# Total GULP energy -396805.095795 kJ/mol
# GULP energy per Si atom -12400.159244 kJ/mol
# Density = 1.950568 g / cm^3
# Si number density = 19.550174 Si / 1000 Ang^3
#
#
#
# Elastic Constant Matrix: (Units=GPa)
#
#
# Indices 1 2 3 4 5 6 
#
# 1 116.6800 42.0774 72.4693 0.0000 0.0000 0.0000
# 2 42.0774 54.5535 37.3553 0.0000 0.0000 0.0000
# 3 72.4693 37.3553 142.3594 0.0000 0.0000 0.0000
# 4 0.0000 0.0000 0.0000 32.1735 0.0000 0.0000
# 5 0.0000 0.0000 0.0000 0.0000 25.8291 0.0000
# 6 0.0000 0.0000 0.0000 0.0000 0.0000 20.0431
#
#
#
# Elastic Compliance Matrix: (Units=1/GPa)
#
#
# Indices 1 2 3 4 5 6 
#
# 1 0.014726 -0.007589 -0.005505 0.000000 0.000000 0.000000
# 2 -0.007589 0.026256 -0.003027 0.000000 0.000000 0.000000
# 3 -0.005505 -0.003027 0.010621 0.000000 0.000000 0.000000
# 4 0.000000 0.000000 0.000000 0.031081 0.000000 0.000000
# 5 0.000000 0.000000 0.000000 0.000000 0.038716 0.000000
# 6 0.000000 0.000000 0.000000 0.000000 0.000000 0.049892
#
#
# Mechanical properties :
#
#
# Convention : Reuss Voigt Hill
#
# Bulk Modulus (GPa) = 51.64597 68.59965 60.12281
# Shear Modulus (GPa) = 23.81069 26.38852 25.09961
#
# Velocity S-wave (km/s) = 3.49367 3.67793 3.58698
# Velocity P-wave (km/s) = 6.53825 7.29393 6.92641
#
# Compressibility (1/GPa) = 0.01936260
#
# Stress axis : x y z
#
# Youngs Moduli (GPa) = 67.90485 38.08600 94.15166
#
# Poissons Ratio (x) = 0.28903 0.51833
# Poissons Ratio (y) = 0.51532 0.28495
# Poissons Ratio (z) = 0.37384 0.11527
#
# Static dielectric constant tensor:
#      x y z
#    x 3.587100 0.000000 0.000000 
#    y 0.000000 3.317090 0.000000 
#    z 0.000000 0.000000 3.708830 
# 
# 
# High freq. dielectric constant tensor:
#      x y z
#    x 1.757550 0.000000 0.000000 
#    y 0.000000 1.737850 0.000000 
#    z 0.000000 0.000000 1.769000 
# 
# From -- ./inp_files/15735.got.cif
#   From: 2010.03.12/outbox.cif.g09.slc.cpg/sg38_8_cif.got.tgz:15735.got - 2010.04.14 02:38:36.
