data_PCOD8178281
_publ_section_title
;
Structure prediction by ZEFSAII (Michael W. Deem and Ramdas Pophale) SiO2 
 PCOD8178281
Probable space group: A M M 2
;
_chemical_formula_sum "Si O2"
_cell_formula_units_Z 64
_cell_length_a 8.374246
_cell_length_b 18.085820
_cell_length_c 20.820404
_cell_angle_alpha 90.000000
_cell_angle_beta 90.000000
_cell_angle_gamma 90.000000
_cell_volume 3153.356490
_symmetry_space_group_name_H-M "A M M 2"
_symmetry_group_IT_number 38
_symmetry_cell_setting 'orthorhombic'
loop_
_space_group_symop_operation_xyz
x,y,z
-x,-y,z
-x,y,z
x,-y,z
x,1/2+y,1/2+z
-x,1/2-y,1/2+z
-x,1/2+y,1/2+z
x,1/2-y,1/2+z
loop_
_atom_site_type_symbol
_atom_site_label
_atom_site_fract_x
_atom_site_fract_y
_atom_site_fract_z
Si Si1 0.189469 0.163119 0.413410
Si Si2 0.190777 0.167555 0.667579
Si Si3 0.809545 0.083509 0.792955
Si Si4 0.809277 0.583531 0.542646
Si Si5 0.685768 0.415370 0.788723
Si Si6 0.189790 0.916851 0.542608
Si Si7 0.810214 0.331881 0.417718
Si Si8 0.186998 0.666791 0.667044
O O1 0.277426 0.122695 0.355863
O O2 0.247348 0.124521 0.478722
O O3 0.248199 0.247558 0.415842
O O4 0.000000 0.157110 0.403610
O O5 0.256252 0.124687 0.729893
O O6 0.257004 0.126634 0.604321
O O7 0.260289 0.250754 0.668937
O O8 0.000000 0.167967 0.667947
O O9 0.742754 0.125737 0.855449
O O10 0.000000 0.083663 0.793257
O O11 0.743903 0.000000 0.793397
O O12 0.743790 0.500000 0.539493
O O13 0.742991 0.628434 0.481405
O O14 0.739967 0.621673 0.607014
O O15 0.000000 0.583474 0.543010
O O16 0.500000 0.409591 0.773064
O O17 0.743384 0.500000 0.791989
O O18 0.781853 0.374901 0.733032
O O19 0.000000 0.918502 0.545300
O O20 0.258745 0.000000 0.542803
O O21 0.000000 0.334772 0.418397
O O22 0.000000 0.673951 0.656452
#
# Coordination Sequence:
#
# PCOD8178281 Si02
#       8
#     8   8   8   8   8   8   8   8
#     4  10  19  32  52  76 100 128 165 207 248 291
#     4   9  16  26  42  68 101 132 162 200 245 289
#     4   9  15  22  34  56  92 135 168 196 240 295
#     4   9  16  26  43  70 103 135 165 200 244 292
#     4  11  24  39  53  71  98 131 164 202 250 299
#     4   9  16  26  43  70 103 135 165 200 244 292
#     4   9  16  26  42  68 101 132 162 200 245 289
#     4  10  19  32  52  76 100 128 165 207 248 291
#
# _framework density 20.295833999999999
#
# number of rings (size 3 to 8) (size 9 to 14) (size 15 to 20)
#    0.000    2.500    0.000    3.375    0.000   10.000 
#    0.000    0.000    0.000    3.000    0.000    0.000 
#    0.000   17.000    0.000    0.000    0.000    0.000 
#
# Total GULP energy -396823.627815 kJ/mol
# GULP energy per Si atom -12400.738369 kJ/mol
# Density = 2.024964 g / cm^3
# Si number density = 20.295834 Si / 1000 Ang^3
#
#
#
# Elastic Constant Matrix: (Units=GPa)
#
#
# Indices 1 2 3 4 5 6 
#
# 1 5.3420 4.5413 -1.8084 0.0000 0.0000 0.0000
# 2 4.5413 218.9920 104.4650 0.0000 0.0000 0.0000
# 3 -1.8084 104.4650 193.5773 0.0000 0.0000 0.0000
# 4 0.0000 0.0000 0.0000 51.4122 0.0000 0.0000
# 5 0.0000 0.0000 0.0000 0.0000 0.8337 0.0000
# 6 0.0000 0.0000 0.0000 0.0000 0.0000 7.1660
#
#
#
# Elastic Compliance Matrix: (Units=1/GPa)
#
#
# Indices 1 2 3 4 5 6 
#
# 1 0.194633 -0.006603 0.005382 0.000000 0.000000 0.000000
# 2 -0.006603 0.006373 -0.003501 0.000000 0.000000 0.000000
# 3 0.005382 -0.003501 0.007106 0.000000 0.000000 0.000000
# 4 0.000000 0.000000 0.000000 0.019451 0.000000 0.000000
# 5 0.000000 0.000000 0.000000 0.000000 1.199480 0.000000
# 6 0.000000 0.000000 0.000000 0.000000 0.000000 0.139548
#
#
# Mechanical properties :
#
#
# Convention : Reuss Voigt Hill
#
# Bulk Modulus (GPa) = 5.03357 70.25634 37.64495
# Shear Modulus (GPa) = 3.04459 32.59661 17.82060
#
# Velocity S-wave (km/s) = 1.22612 4.01193 2.96639
# Velocity P-wave (km/s) = 2.11895 7.49347 5.50645
#
# Compressibility (1/GPa) = 0.19866630
#
# Stress axis : x y z
#
# Youngs Moduli (GPa) = 5.13788 156.90066 140.73428
#
# Poissons Ratio (x) = 1.03609 -0.75741
# Poissons Ratio (y) = 0.03393 0.49273
# Poissons Ratio (z) = -0.02765 0.54933
#
# Static dielectric constant tensor:
#      x y z
#    x 2.850480 0.000000 0.000000 
#    y 0.000000 4.010560 0.000000 
#    z 0.000000 0.000000 3.881240 
# 
# 
# High freq. dielectric constant tensor:
#      x y z
#    x 1.714920 0.000000 0.000000 
#    y 0.000000 1.814860 0.000000 
#    z 0.000000 0.000000 1.812320 
# 
# From -- ./inp_files/20091.got.cif
#   From: 2010.03.12/outbox.cif.g09.slc.cpg/sg38_11_cif.got.tgz:20091.got - 2010.04.14 02:38:36.
