data_PCOD8178275
_publ_section_title
;
Structure prediction by ZEFSAII (Michael W. Deem and Ramdas Pophale) SiO2 
 PCOD8178275
Probable space group: A M M 2
;
_chemical_formula_sum "Si O2"
_cell_formula_units_Z 56
_cell_length_a 9.511156
_cell_length_b 14.159094
_cell_length_c 22.801641
_cell_angle_alpha 90.000000
_cell_angle_beta 90.000000
_cell_angle_gamma 90.000000
_cell_volume 3070.682215
_symmetry_space_group_name_H-M "A M M 2"
_symmetry_group_IT_number 38
_symmetry_cell_setting 'orthorhombic'
loop_
_space_group_symop_operation_xyz
x,y,z
-x,-y,z
-x,y,z
x,-y,z
x,1/2+y,1/2+z
-x,1/2-y,1/2+z
-x,1/2+y,1/2+z
x,1/2-y,1/2+z
loop_
_atom_site_type_symbol
_atom_site_label
_atom_site_fract_x
_atom_site_fract_y
_atom_site_fract_z
Si Si1 0.664467 0.275647 0.117440
Si Si2 0.833679 0.396490 0.447184
Si Si3 0.335160 0.890974 0.732429
Si Si4 0.837023 0.789745 0.832908
Si Si5 0.337906 0.391259 0.003823
Si Si6 0.835572 0.609411 0.577903
Si Si7 0.838184 0.394375 0.891419
O O1 0.500000 0.252411 0.117818
O O2 0.705837 0.342499 0.171441
O O3 0.711541 0.330440 0.059127
O O4 0.749106 0.177042 0.121792
O O5 0.773314 0.500000 0.431566
O O6 0.783991 0.326589 0.396271
O O7 0.781068 0.366441 0.511895
O O8 0.000000 0.401413 0.450757
O O9 0.500000 0.883501 0.745016
O O10 0.255327 0.835192 0.782895
O O11 0.286556 0.000000 0.730852
O O12 0.813166 0.676374 0.836513
O O13 0.000000 0.815676 0.821568
O O14 0.500000 0.373060 0.988886
O O15 0.310182 0.500000 0.019904
O O16 0.249630 0.360389 0.947383
O O17 0.804176 0.500000 0.593040
O O18 0.000000 0.630971 0.585540
O O19 0.794790 0.500000 0.871199
O O20 0.000000 0.389975 0.911142
#
# Coordination Sequence:
#
# PCOD8178275 Si02
#       7
#     8   8   8   8   8   8   8
#     4  10  20  34  52  73 100 135 170 205 249 297
#     4   8  14  26  46  72 100 128 158 196 245 295
#     4  10  22  39  55  72  98 131 166 206 251 297
#     4  10  19  32  52  75 100 133 171 208 245 290
#     4   9  17  30  50  76 104 134 168 205 247 298
#     4   9  18  33  53  77 104 133 165 202 246 297
#     4   9  18  32  50  75 106 135 163 201 251 301
#
# _framework density 18.236989999999999
#
# number of rings (size 3 to 8) (size 9 to 14) (size 15 to 20)
#    0.000    2.714    0.000    2.571    0.000    5.714 
#    0.000    1.429    0.000    6.000    0.000    0.000 
#    0.000    0.000    0.000    0.000    0.000    0.000 
#
# Total GULP energy -347116.299658 kJ/mol
# GULP energy per Si atom -12397.010702 kJ/mol
# Density = 1.819548 g / cm^3
# Si number density = 18.236990 Si / 1000 Ang^3
#
#
#
# Elastic Constant Matrix: (Units=GPa)
#
#
# Indices 1 2 3 4 5 6 
#
# 1 48.3413 51.8960 45.3707 0.0000 0.0000 0.0000
# 2 51.8960 128.8437 74.5138 0.0000 0.0000 0.0000
# 3 45.3707 74.5138 89.6218 0.0000 0.0000 0.0000
# 4 0.0000 0.0000 0.0000 29.2224 0.0000 0.0000
# 5 0.0000 0.0000 0.0000 0.0000 30.5989 0.0000
# 6 0.0000 0.0000 0.0000 0.0000 0.0000 29.0611
#
#
#
# Elastic Compliance Matrix: (Units=1/GPa)
#
#
# Indices 1 2 3 4 5 6 
#
# 1 0.044704 -0.009472 -0.014756 0.000000 0.000000 0.000000
# 2 -0.009472 0.016957 -0.009303 0.000000 0.000000 0.000000
# 3 -0.014756 -0.009303 0.026363 0.000000 0.000000 0.000000
# 4 0.000000 0.000000 0.000000 0.034220 0.000000 0.000000
# 5 0.000000 0.000000 0.000000 0.000000 0.032681 0.000000
# 6 0.000000 0.000000 0.000000 0.000000 0.000000 0.034410
#
#
# Mechanical properties :
#
#
# Convention : Reuss Voigt Hill
#
# Bulk Modulus (GPa) = 47.70643 67.81865 57.76254
# Shear Modulus (GPa) = 18.98365 24.11158 21.54762
#
# Velocity S-wave (km/s) = 3.22986 3.64005 3.44107
# Velocity P-wave (km/s) = 6.33445 7.41180 6.89420
#
# Compressibility (1/GPa) = 0.02096154
#
# Stress axis : x y z
#
# Youngs Moduli (GPa) = 22.36927 58.97337 37.93235
#
# Poissons Ratio (x) = 0.55862 0.55972
# Poissons Ratio (y) = 0.21189 0.35288
# Poissons Ratio (z) = 0.33008 0.54862
#
# Static dielectric constant tensor:
#      x y z
#    x 3.128890 0.000000 0.000000 
#    y 0.000000 3.590940 0.000000 
#    z 0.000000 0.000000 3.289430 
# 
# 
# High freq. dielectric constant tensor:
#      x y z
#    x 1.685140 0.000000 0.000000 
#    y 0.000000 1.723100 0.000000 
#    z 0.000000 0.000000 1.687340 
# 
# From -- ./inp_files/19744.got.cif
#   From: 2010.03.12/outbox.cif.g09.slc.cpg/sg38_10_cif.got.tgz:19744.got - 2010.04.14 02:38:36.
