data_PCOD8178337
_publ_section_title
;
Structure prediction by ZEFSAII (Michael W. Deem and Ramdas Pophale) SiO2 
 PCOD8178337
Probable space group: A M M 2
;
_chemical_formula_sum "Si O2"
_cell_formula_units_Z 40
_cell_length_a 12.607947
_cell_length_b 8.831561
_cell_length_c 19.969474
_cell_angle_alpha 90.000000
_cell_angle_beta 90.000000
_cell_angle_gamma 90.000000
_cell_volume 2223.558056
_symmetry_space_group_name_H-M "A M M 2"
_symmetry_group_IT_number 38
_symmetry_cell_setting 'orthorhombic'
loop_
_space_group_symop_operation_xyz
x,y,z
-x,-y,z
-x,y,z
x,-y,z
x,1/2+y,1/2+z
-x,1/2-y,1/2+z
-x,1/2+y,1/2+z
x,1/2-y,1/2+z
loop_
_atom_site_type_symbol
_atom_site_label
_atom_site_fract_x
_atom_site_fract_y
_atom_site_fract_z
Si Si1 0.624054 0.325844 0.756380
Si Si2 0.000000 0.165134 0.659765
Si Si3 0.621393 0.824882 0.893455
Si Si4 0.226545 0.680666 0.150520
Si Si5 0.215382 0.821806 0.008068
Si Si6 0.000000 0.832271 0.501126
O O1 0.500000 0.298065 0.745820
O O2 0.655597 0.500000 0.747107
O O3 0.658780 0.272774 0.829962
O O4 0.682031 0.226438 0.700943
O O5 0.888010 0.245365 0.678602
O O6 0.000000 0.151335 0.580170
O O7 0.000000 0.000000 0.693805
O O8 0.500000 0.788475 0.912630
O O9 0.636131 0.000000 0.874358
O O10 0.692708 0.778531 0.956162
O O11 0.219952 0.500000 0.143355
O O12 0.250808 0.749080 0.078028
O O13 0.105127 0.757564 0.978635
O O14 0.203465 0.000000 0.018101
O O15 0.000000 0.000000 0.468276
#
# Coordination Sequence:
#
# PCOD8178337 Si02
#       6
#     8   4   8   8   8   4
#     4  10  21  36  53  74 102 135 172 215 259 304
#     4   7  14  29  48  71  98 129 163 201 245 291
#     4   9  19  36  55  74 100 135 171 209 258 312
#     4  10  19  33  54  78 105 136 170 209 254 306
#     4  10  19  32  53  80 107 135 170 212 256 303
#     4   9  17  31  50  73 104 139 173 209 251 301
#
# _framework density 17.989186
#
# number of rings (size 3 to 8) (size 9 to 14) (size 15 to 20)
#    0.000    2.600    0.000    3.300    0.000    3.600 
#    0.000    4.500    0.000    2.400    0.000    0.000 
#    0.000    0.000    0.000    0.000    0.000    0.000 
#
# Total GULP energy -247918.536759 kJ/mol
# GULP energy per Si atom -12395.926838 kJ/mol
# Density = 1.794824 g / cm^3
# Si number density = 17.989186 Si / 1000 Ang^3
#
#
#
# Elastic Constant Matrix: (Units=GPa)
#
#
# Indices 1 2 3 4 5 6 
#
# 1 104.5425 49.5535 70.0153 0.0000 0.0000 0.0000
# 2 49.5535 86.1267 47.6803 0.0000 0.0000 0.0000
# 3 70.0153 47.6803 95.0911 0.0000 0.0000 0.0000
# 4 0.0000 0.0000 0.0000 29.8269 0.0000 0.0000
# 5 0.0000 0.0000 0.0000 0.0000 -0.1453 0.0000
# 6 0.0000 0.0000 0.0000 0.0000 0.0000 27.6931
#
#
#
# Elastic Compliance Matrix: (Units=1/GPa)
#
#
# Indices 1 2 3 4 5 6 
#
# 1 0.020147 -0.004678 -0.012488 0.000000 0.000000 0.000000
# 2 -0.004678 0.017158 -0.005159 0.000000 0.000000 0.000000
# 3 -0.012488 -0.005159 0.022298 0.000000 0.000000 0.000000
# 4 0.000000 0.000000 0.000000 0.033527 0.000000 0.000000
# 5 0.000000 0.000000 0.000000 0.000000 -6.882530 0.000000
# 6 0.000000 0.000000 0.000000 0.000000 0.000000 0.036110
#
#
# Mechanical properties :
#
#
# Convention : Reuss Voigt Hill
#
# Bulk Modulus (GPa) = 66.87857 68.91760 67.89808
# Shear Modulus (GPa) = -0.74586 19.37570 9.31492
#
# Velocity S-wave (km/s) = -0.64461 3.28544 2.27801
# Velocity P-wave (km/s) = 6.05836 7.26539 6.68916
#
# Compressibility (1/GPa) = 0.01495247
#
# Stress axis : x y z
#
# Youngs Moduli (GPa) = 49.63614 58.28048 44.84654
#
# Poissons Ratio (x) = 0.27263 0.56006
# Poissons Ratio (y) = 0.23219 0.23137
# Poissons Ratio (z) = 0.61987 0.30068
#
# Static dielectric constant tensor:
#      x y z
#    x 3.654730 0.000000 0.000000 
#    y 0.000000 3.369900 0.000000 
#    z 0.000000 0.000000 3.060310 
# 
# 
# High freq. dielectric constant tensor:
#      x y z
#    x 1.708330 0.000000 0.000000 
#    y 0.000000 1.698650 0.000000 
#    z 0.000000 0.000000 1.671450 
# 
# From -- ./inp_files/20491.got.cif
#   From: 2010.03.12/outbox.cif.g09.slc.cpg/sg38_11_cif.got.tgz:20491.got - 2010.04.14 02:38:36.
