data_PCOD8178071
_publ_section_title
;
Structure prediction by ZEFSAII (Michael W. Deem and Ramdas Pophale) SiO2 
 PCOD8178071
Probable space group: A M M 2
;
_chemical_formula_sum "Si O2"
_cell_formula_units_Z 52
_cell_length_a 31.786135
_cell_length_b 16.431836
_cell_length_c 5.146121
_cell_angle_alpha 90.000000
_cell_angle_beta 90.000000
_cell_angle_gamma 90.000000
_cell_volume 2687.842451
_symmetry_space_group_name_H-M "A M M 2"
_symmetry_group_IT_number 38
_symmetry_cell_setting 'orthorhombic'
loop_
_space_group_symop_operation_xyz
x,y,z
-x,-y,z
-x,y,z
x,-y,z
x,1/2+y,1/2+z
-x,1/2-y,1/2+z
-x,1/2+y,1/2+z
x,1/2-y,1/2+z
loop_
_atom_site_type_symbol
_atom_site_label
_atom_site_fract_x
_atom_site_fract_y
_atom_site_fract_z
Si Si1 0.086802 0.301757 0.274220
Si Si2 0.259157 0.903483 0.724513
Si Si3 0.822831 0.196233 0.682027
Si Si4 0.000000 0.696806 0.144662
Si Si5 0.403427 0.902876 0.221602
Si Si6 0.452543 0.902900 0.721623
Si Si7 0.308595 0.903008 0.224563
O O1 0.085842 0.275650 0.575816
O O2 0.131141 0.347160 0.216503
O O3 0.043729 0.352704 0.206447
O O4 0.211715 0.872358 0.725830
O O5 0.284521 0.869812 0.476965
O O6 0.257304 0.000000 0.723859
O O7 0.283726 0.869839 0.975043
O O8 0.818021 0.232113 0.393328
O O9 0.000000 0.773638 0.346645
O O10 0.428079 0.869340 0.471290
O O11 0.355995 0.868524 0.222099
O O12 0.402685 0.000000 0.221614
O O13 0.427910 0.869314 0.971322
O O14 0.500000 0.868786 0.722148
O O15 0.453224 0.000000 0.721734
O O16 0.309728 0.000000 0.224289
#
# Coordination Sequence:
#
# PCOD8178071 Si02
#       7
#     8   8   8   4   8   8   8
#     4   8  14  23  37  57  82 109 138 173 212 256
#     4  10  19  31  46  64  86 114 151 189 220 257
#     4  10  19  31  46  66  91 118 147 181 225 270
#     4   8  12  20  34  54  79 106 135 170 210 248
#     4   9  15  23  34  48  69  98 134 174 208 241
#     4   9  15  21  30  46  69  98 133 169 204 247
#     4   9  17  28  42  59  79 107 147 188 218 250
#
# _framework density 19.346373
#
# number of rings (size 3 to 8) (size 9 to 14) (size 15 to 20)
#    0.000    2.923    0.000    2.308    0.000    5.538 
#    0.000    0.000    0.000    0.000    0.000    0.538 
#    0.000    0.000    0.000   41.385    0.000  195.385 
#
# Total GULP energy -322165.111173 kJ/mol
# GULP energy per Si atom -12390.965814 kJ/mol
# Density = 1.930234 g / cm^3
# Si number density = 19.346373 Si / 1000 Ang^3
#
#
#
# Elastic Constant Matrix: (Units=GPa)
#
#
# Indices 1 2 3 4 5 6 
#
# 1 229.0031 16.1295 73.1621 0.0000 0.0000 0.0000
# 2 16.1295 4.1741 6.8780 0.0000 0.0000 0.0000
# 3 73.1621 6.8780 153.9049 0.0000 0.0000 0.0000
# 4 0.0000 0.0000 0.0000 4.6274 0.0000 0.0000
# 5 0.0000 0.0000 0.0000 0.0000 36.2448 0.0000
# 6 0.0000 0.0000 0.0000 0.0000 0.0000 16.0943
#
#
#
# Elastic Compliance Matrix: (Units=1/GPa)
#
#
# Indices 1 2 3 4 5 6 
#
# 1 0.006603 -0.021959 -0.002157 0.000000 0.000000 0.000000
# 2 -0.021959 0.331644 -0.004383 0.000000 0.000000 0.000000
# 3 -0.002157 -0.004383 0.007719 0.000000 0.000000 0.000000
# 4 0.000000 0.000000 0.000000 0.216105 0.000000 0.000000
# 5 0.000000 0.000000 0.000000 0.000000 0.027590 0.000000
# 6 0.000000 0.000000 0.000000 0.000000 0.000000 0.062134
#
#
# Mechanical properties :
#
#
# Convention : Reuss Voigt Hill
#
# Bulk Modulus (GPa) = 3.46058 64.38014 33.92036
# Shear Modulus (GPa) = 6.21030 30.78747 18.49888
#
# Velocity S-wave (km/s) = 1.79361 3.99354 3.09559
# Velocity P-wave (km/s) = 2.46617 7.39015 5.50892
#
# Compressibility (1/GPa) = 0.28896849
#
# Stress axis : x y z
#
# Youngs Moduli (GPa) = 151.45529 3.01528 129.55168
#
# Poissons Ratio (x) = 0.06621 0.27949
# Poissons Ratio (y) = 3.32575 0.56778
# Poissons Ratio (z) = 0.32674 0.01321
#
# Static dielectric constant tensor:
#      x y z
#    x 4.154170 0.000000 0.000000 
#    y 0.000000 2.533060 0.000000 
#    z 0.000000 0.000000 3.833800 
# 
# 
# High freq. dielectric constant tensor:
#      x y z
#    x 1.788500 0.000000 0.000000 
#    y 0.000000 1.642770 0.000000 
#    z 0.000000 0.000000 1.779070 
# 
# From -- ./inp_files/2222.got.cif
#   From: 2010.03.12/outbox.cif.g09.slc.cpg/sg38_2_cif.got.tgz:2222.got - 2010.04.14 02:38:36.
