data_PCOD8178727
_publ_section_title
;
Structure prediction by ZEFSAII (Michael W. Deem and Ramdas Pophale) SiO2 
 PCOD8178727
Probable space group: A M M 2
;
_chemical_formula_sum "Si O2"
_cell_formula_units_Z 64
_cell_length_a 8.860986
_cell_length_b 15.121595
_cell_length_c 23.516624
_cell_angle_alpha 90.000000
_cell_angle_beta 90.000000
_cell_angle_gamma 90.000000
_cell_volume 3151.045164
_symmetry_space_group_name_H-M "A M M 2"
_symmetry_group_IT_number 38
_symmetry_cell_setting 'orthorhombic'
loop_
_space_group_symop_operation_xyz
x,y,z
-x,-y,z
-x,y,z
x,-y,z
x,1/2+y,1/2+z
-x,1/2-y,1/2+z
-x,1/2+y,1/2+z
x,1/2-y,1/2+z
loop_
_atom_site_type_symbol
_atom_site_label
_atom_site_fract_x
_atom_site_fract_y
_atom_site_fract_z
Si Si1 0.822414 0.757983 0.079430
Si Si2 0.824957 0.601158 0.894714
Si Si3 0.322731 0.757053 0.959139
Si Si4 0.327578 0.400775 0.657353
Si Si5 0.326545 0.899559 0.642712
Si Si6 0.826916 0.854028 0.268556
Si Si7 0.828315 0.646326 0.256422
Si Si8 0.173382 0.599631 0.381905
O O1 0.779007 0.834832 0.123124
O O2 0.772265 0.662815 0.102579
O O3 0.000000 0.757087 0.072103
O O4 0.748549 0.779840 0.019503
O O5 0.796910 0.500000 0.912540
O O6 0.732248 0.661867 0.937700
O O7 0.768678 0.616953 0.830503
O O8 0.000000 0.627579 0.899453
O O9 0.500000 0.753992 0.966344
O O10 0.279917 0.834594 0.915912
O O11 0.500000 0.367919 0.653037
O O12 0.311740 0.500000 0.632666
O O13 0.276988 0.402785 0.722887
O O14 0.500000 0.870985 0.636917
O O15 0.280265 0.891533 0.708370
O O16 0.301853 0.000000 0.622173
O O17 0.807461 0.750264 0.261660
O O18 0.000000 0.883916 0.259995
O O19 0.781905 0.601649 0.315709
O O20 0.000000 0.622031 0.240135
O O21 0.196086 0.500000 0.404840
O O22 0.000000 0.630894 0.389165
#
# Coordination Sequence:
#
# PCOD8178727 Si02
#       8
#     8   8   8   8   8   8   8   8
#     4  12  26  45  68  89 116 159 211 261 303 360
#     4  10  21  40  66  93 124 163 208 255 300 356
#     4  12  26  43  64  89 124 163 201 255 311 368
#     4  11  24  41  63  93 129 164 200 249 309 369
#     4  11  24  41  63  93 129 164 200 249 309 369
#     4  10  19  35  63  95 127 164 205 250 300 358
#     4  10  19  35  63  95 127 164 205 250 300 358
#     4  10  21  40  66  93 124 163 208 255 300 356
#
# _framework density 20.310722999999999
#
# number of rings (size 3 to 8) (size 9 to 14) (size 15 to 20)
#    0.000    1.250    2.500    3.750    0.000    5.500 
#    0.000    0.000    0.000    0.000    0.000    0.000 
#    0.000    0.000    0.000    0.000    0.000    0.000 
#
# Total GULP energy -396988.774023 kJ/mol
# GULP energy per Si atom -12405.899188 kJ/mol
# Density = 2.026449 g / cm^3
# Si number density = 20.310723 Si / 1000 Ang^3
#
#
#
# Elastic Constant Matrix: (Units=GPa)
#
#
# Indices 1 2 3 4 5 6 
#
# 1 112.5763 34.2038 33.8385 0.0000 0.0000 0.0000
# 2 34.2038 90.2380 19.6037 0.0000 0.0000 0.0000
# 3 33.8385 19.6037 53.4705 0.0000 0.0000 0.0000
# 4 0.0000 0.0000 0.0000 2.6217 0.0000 0.0000
# 5 0.0000 0.0000 0.0000 0.0000 -5.7275 0.0000
# 6 0.0000 0.0000 0.0000 0.0000 0.0000 18.6105
#
#
#
# Elastic Compliance Matrix: (Units=1/GPa)
#
#
# Indices 1 2 3 4 5 6 
#
# 1 0.011704 -0.003072 -0.006281 0.000000 0.000000 0.000000
# 2 -0.003072 0.012847 -0.002766 0.000000 0.000000 0.000000
# 3 -0.006281 -0.002766 0.023691 0.000000 0.000000 0.000000
# 4 0.000000 0.000000 0.000000 0.381437 0.000000 0.000000
# 5 0.000000 0.000000 0.000000 0.000000 -0.174595 0.000000
# 6 0.000000 0.000000 0.000000 0.000000 0.000000 0.053733
#
#
# Mechanical properties :
#
#
# Convention : Reuss Voigt Hill
#
# Bulk Modulus (GPa) = 41.65851 47.95298 44.80574
# Shear Modulus (GPa) = 14.66035 14.34351 14.50193
#
# Velocity S-wave (km/s) = 2.68955 2.66033 2.67498
# Velocity P-wave (km/s) = 5.49546 5.75304 5.62572
#
# Compressibility (1/GPa) = 0.02400470
#
# Stress axis : x y z
#
# Youngs Moduli (GPa) = 85.44075 77.83870 42.21070
#
# Poissons Ratio (x) = 0.23911 0.26511
# Poissons Ratio (y) = 0.26246 0.11676
# Poissons Ratio (z) = 0.53662 0.21531
#
# Static dielectric constant tensor:
#      x y z
#    x 3.657200 0.000000 0.000000 
#    y 0.000000 3.761780 0.000000 
#    z 0.000000 0.000000 3.686450 
# 
# 
# High freq. dielectric constant tensor:
#      x y z
#    x 1.788850 0.000000 0.000000 
#    y 0.000000 1.808580 0.000000 
#    z 0.000000 0.000000 1.790890 
# 
# From -- ./inp_files/22202.got.cif
#   From: 2010.03.12/outbox.cif.g09.slc.cpg/sg38_12_cif.got.tgz:22202.got - 2010.04.14 02:38:36.
