data_PCOD8178012
_publ_section_title
;
Structure prediction by ZEFSAII (Michael W. Deem and Ramdas Pophale) SiO2 
 PCOD8178012
Probable space group: A M M 2
;
_chemical_formula_sum "Si O2"
_cell_formula_units_Z 64
_cell_length_a 13.695154
_cell_length_b 17.945539
_cell_length_c 15.522087
_cell_angle_alpha 90.000000
_cell_angle_beta 90.000000
_cell_angle_gamma 90.000000
_cell_volume 3814.815517
_symmetry_space_group_name_H-M "A M M 2"
_symmetry_group_IT_number 38
_symmetry_cell_setting 'orthorhombic'
loop_
_space_group_symop_operation_xyz
x,y,z
-x,-y,z
-x,y,z
x,-y,z
x,1/2+y,1/2+z
-x,1/2-y,1/2+z
-x,1/2+y,1/2+z
x,1/2-y,1/2+z
loop_
_atom_site_type_symbol
_atom_site_label
_atom_site_fract_x
_atom_site_fract_y
_atom_site_fract_z
Si Si1 0.887792 0.586721 0.250000
Si Si2 0.306591 0.911764 0.014373
Si Si3 0.384338 0.917718 0.326171
Si Si4 0.894047 0.412103 0.446496
Si Si5 0.390955 0.588123 0.016329
Si Si6 0.385489 0.917384 0.832485
Si Si7 0.384730 0.317435 0.668882
Si Si8 0.708926 0.839354 0.673971
O O1 0.860591 0.500000 0.234414
O O2 0.867053 0.610512 0.348719
O O3 0.822234 0.641230 0.191029
O O4 0.000000 0.601042 0.225366
O O5 0.365865 0.870827 0.088328
O O6 0.320560 0.000000 0.027558
O O7 0.191649 0.888005 0.012490
O O8 0.350431 0.884880 0.923457
O O9 0.500000 0.924630 0.324658
O O10 0.352224 0.889267 0.421052
O O11 0.348963 0.859708 0.254705
O O12 0.339777 0.000000 0.307046
O O13 0.904134 0.500000 0.447420
O O14 0.000000 0.377446 0.473429
O O15 0.500000 0.620587 0.032145
O O16 0.394386 0.500000 0.024276
O O17 0.317800 0.619886 0.086005
O O18 0.500000 0.922059 0.833566
O O19 0.354854 0.865566 0.754405
O O20 0.339913 0.000000 0.818691
O O21 0.500000 0.296235 0.671994
O O22 0.313476 0.247300 0.660626
#
# Coordination Sequence:
#
# PCOD8178012 Si02
#       8
#     8   8   8   8   8   8   8   8
#     4   9  17  32  55  79 102 130 167 211 255 306
#     4  10  19  33  52  75 100 132 175 218 257 301
#     4   8  16  33  52  66  85 125 182 225 241 264
#     4   8  14  28  52  79 101 122 157 207 259 307
#     4   9  17  30  49  69  91 126 171 212 242 279
#     4  10  19  30  47  72 102 133 164 203 253 308
#     4  11  23  34  46  69 103 144 176 205 251 303
#     4  12  21  31  46  73 107 134 159 196 256 322
#
# _framework density 16.776695
#
# number of rings (size 3 to 8) (size 9 to 14) (size 15 to 20)
#    0.000    2.375    1.250    4.500    0.000    3.250 
#    0.000    3.125    0.000    0.000    0.000    0.875 
#    0.000    3.000    0.000    0.000    0.000    0.000 
#
# Total GULP energy -396628.929174 kJ/mol
# GULP energy per Si atom -12394.654037 kJ/mol
# Density = 1.673851 g / cm^3
# Si number density = 16.776695 Si / 1000 Ang^3
#
#
#
# Elastic Constant Matrix: (Units=GPa)
#
#
# Indices 1 2 3 4 5 6 
#
# 1 79.2280 27.5072 30.8201 0.0000 0.0000 0.0000
# 2 27.5072 48.8473 33.4299 0.0000 0.0000 0.0000
# 3 30.8201 33.4299 98.8392 0.0000 0.0000 0.0000
# 4 0.0000 0.0000 0.0000 4.2487 0.0000 0.0000
# 5 0.0000 0.0000 0.0000 0.0000 16.9531 0.0000
# 6 0.0000 0.0000 0.0000 0.0000 0.0000 19.2993
#
#
#
# Elastic Compliance Matrix: (Units=1/GPa)
#
#
# Indices 1 2 3 4 5 6 
#
# 1 0.016170 -0.007358 -0.002553 0.000000 0.000000 0.000000
# 2 -0.007358 0.029986 -0.007848 0.000000 0.000000 0.000000
# 3 -0.002553 -0.007848 0.013568 0.000000 0.000000 0.000000
# 4 0.000000 0.000000 0.000000 0.235368 0.000000 0.000000
# 5 0.000000 0.000000 0.000000 0.000000 0.058986 0.000000
# 6 0.000000 0.000000 0.000000 0.000000 0.000000 0.051815
#
#
# Mechanical properties :
#
#
# Convention : Reuss Voigt Hill
#
# Bulk Modulus (GPa) = 41.31282 45.60323 43.45802
# Shear Modulus (GPa) = 11.12394 17.11071 14.11733
#
# Velocity S-wave (km/s) = 2.57779 3.19707 2.90398
# Velocity P-wave (km/s) = 5.79125 6.39295 6.09952
#
# Compressibility (1/GPa) = 0.02420556
#
# Stress axis : x y z
#
# Youngs Moduli (GPa) = 61.84389 33.34848 73.70327
#
# Poissons Ratio (x) = 0.24538 0.18819
# Poissons Ratio (y) = 0.45506 0.57840
# Poissons Ratio (z) = 0.15791 0.26171
#
# Static dielectric constant tensor:
#      x y z
#    x 3.397600 0.000000 0.000000 
#    y 0.000000 3.007390 0.000000 
#    z 0.000000 0.000000 3.269770 
# 
# 
# High freq. dielectric constant tensor:
#      x y z
#    x 1.632160 0.000000 0.000000 
#    y 0.000000 1.619900 0.000000 
#    z 0.000000 0.000000 1.645760 
# 
# From -- ./inp_files/14771.got.cif
#   From: 2010.03.12/outbox.cif.g09.slc.cpg/sg38_8_cif.got.tgz:14771.got - 2010.04.14 02:38:36.
