data_PCOD8178481
_publ_section_title
;
Structure prediction by ZEFSAII (Michael W. Deem and Ramdas Pophale) SiO2 
 PCOD8178481
Probable space group: A M M 2
;
_chemical_formula_sum "Si O2"
_cell_formula_units_Z 64
_cell_length_a 20.656166
_cell_length_b 8.835739
_cell_length_c 18.542780
_cell_angle_alpha 90.000000
_cell_angle_beta 90.000000
_cell_angle_gamma 90.000000
_cell_volume 3384.288977
_symmetry_space_group_name_H-M "A M M 2"
_symmetry_group_IT_number 38
_symmetry_cell_setting 'orthorhombic'
loop_
_space_group_symop_operation_xyz
x,y,z
-x,-y,z
-x,y,z
x,-y,z
x,1/2+y,1/2+z
-x,1/2-y,1/2+z
-x,1/2+y,1/2+z
x,1/2-y,1/2+z
loop_
_atom_site_type_symbol
_atom_site_label
_atom_site_fract_x
_atom_site_fract_y
_atom_site_fract_z
Si Si1 0.706026 0.680393 0.479800
Si Si2 0.182959 0.676164 0.887137
Si Si3 0.300427 0.824543 0.633143
Si Si4 0.180611 0.675405 0.234434
Si Si5 0.429275 0.330542 0.642728
Si Si6 0.568073 0.330534 0.471452
Si Si7 0.925307 0.825849 0.140203
Si Si8 0.074651 0.672812 0.473623
O O1 0.703429 0.500000 0.483818
O O2 0.761002 0.730999 0.425930
O O3 0.719196 0.738657 0.560229
O O4 0.636597 0.744500 0.448212
O O5 0.197418 0.500000 0.895151
O O6 0.180319 0.720299 0.804177
O O7 0.114737 0.714119 0.923883
O O8 0.245793 0.787598 0.691334
O O9 0.369370 0.773773 0.667643
O O10 0.304121 0.000000 0.614206
O O11 0.177043 0.500000 0.256642
O O12 0.118114 0.714216 0.186945
O O13 0.500000 0.269487 0.670001
O O14 0.418346 0.500000 0.672929
O O15 0.429742 0.334958 0.557161
O O16 0.500000 0.247704 0.446959
O O17 0.565099 0.500000 0.440439
O O18 0.000000 0.794641 0.159336
O O19 0.907654 0.000000 0.156841
O O20 0.911926 0.788989 0.056788
O O21 0.095069 0.500000 0.457402
O O22 0.000000 0.698069 0.454422
#
# Coordination Sequence:
#
# PCOD8178481 Si02
#       8
#     8   8   8   8   8   8   8   8
#     4  10  19  33  55  79 107 142 177 217 266 322
#     4  12  25  38  54  77 107 142 181 225 267 311
#     4  10  20  33  52  80 109 137 177 226 270 315
#     4  11  24  39  54  75 106 144 182 219 263 316
#     4   8  14  26  46  73 104 138 175 214 262 319
#     4   7  11  22  43  72 101 129 165 207 251 303
#     4   9  19  37  61  87 111 136 170 212 258 310
#     4   9  19  38  63  87 111 140 173 210 257 316
#
# _framework density 18.910913000000001
#
# number of rings (size 3 to 8) (size 9 to 14) (size 15 to 20)
#    0.000    2.500    0.000    5.250    0.000    5.750 
#    0.000    1.250    0.000    1.875    0.000    1.750 
#    0.000    0.000    0.000    0.000    0.000    0.000 
#
# Total GULP energy -396581.976239 kJ/mol
# GULP energy per Si atom -12393.186757 kJ/mol
# Density = 1.886787 g / cm^3
# Si number density = 18.910913 Si / 1000 Ang^3
#
#
#
# Elastic Constant Matrix: (Units=GPa)
#
#
# Indices 1 2 3 4 5 6 
#
# 1 133.6540 41.8523 48.2394 0.0000 0.0000 0.0000
# 2 41.8523 67.3295 29.0887 0.0000 0.0000 0.0000
# 3 48.2394 29.0887 63.4367 0.0000 0.0000 0.0000
# 4 0.0000 0.0000 0.0000 229.3744 0.0000 0.0000
# 5 0.0000 0.0000 0.0000 0.0000 -3.5538 0.0000
# 6 0.0000 0.0000 0.0000 0.0000 0.0000 28.6059
#
#
#
# Elastic Compliance Matrix: (Units=1/GPa)
#
#
# Indices 1 2 3 4 5 6 
#
# 1 0.011141 -0.004072 -0.006605 0.000000 0.000000 0.000000
# 2 -0.004072 0.020010 -0.006079 0.000000 0.000000 0.000000
# 3 -0.006605 -0.006079 0.023574 0.000000 0.000000 0.000000
# 4 0.000000 0.000000 0.000000 0.004360 0.000000 0.000000
# 5 0.000000 0.000000 0.000000 0.000000 -0.281386 0.000000
# 6 0.000000 0.000000 0.000000 0.000000 0.000000 0.034958
#
#
# Mechanical properties :
#
#
# Convention : Reuss Voigt Hill
#
# Bulk Modulus (GPa) = 47.14068 55.86458 51.50263
# Shear Modulus (GPa) = -34.06877 60.56794 13.24958
#
# Velocity S-wave (km/s) = -4.24906 5.66547 2.64982
# Velocity P-wave (km/s) = 0.95352 8.50893 6.05438
#
# Compressibility (1/GPa) = 0.02121310
#
# Stress axis : x y z
#
# Youngs Moduli (GPa) = 89.75946 49.97568 42.41987
#
# Poissons Ratio (x) = 0.20349 0.28018
# Poissons Ratio (y) = 0.36547 0.25788
# Poissons Ratio (z) = 0.59285 0.30381
#
# Static dielectric constant tensor:
#      x y z
#    x 4.114700 0.000000 0.000000 
#    y 0.000000 3.282080 0.000000 
#    z 0.000000 0.000000 3.098120 
# 
# 
# High freq. dielectric constant tensor:
#      x y z
#    x 1.762540 0.000000 0.000000 
#    y 0.000000 1.720500 0.000000 
#    z 0.000000 0.000000 1.696360 
# 
# From -- ./inp_files/18925.got.cif
#   From: 2010.03.12/outbox.cif.g09.slc.cpg/sg38_10_cif.got.tgz:18925.got - 2010.04.14 02:38:36.
