data_PCOD8178252
_publ_section_title
;
Structure prediction by ZEFSAII (Michael W. Deem and Ramdas Pophale) SiO2 
 PCOD8178252
Probable space group: A M M 2
;
_chemical_formula_sum "Si O2"
_cell_formula_units_Z 64
_cell_length_a 8.988177
_cell_length_b 20.906622
_cell_length_c 19.580923
_cell_angle_alpha 90.000000
_cell_angle_beta 90.000000
_cell_angle_gamma 90.000000
_cell_volume 3679.498607
_symmetry_space_group_name_H-M "A M M 2"
_symmetry_group_IT_number 38
_symmetry_cell_setting 'orthorhombic'
loop_
_space_group_symop_operation_xyz
x,y,z
-x,-y,z
-x,y,z
x,-y,z
x,1/2+y,1/2+z
-x,1/2-y,1/2+z
-x,1/2+y,1/2+z
x,1/2-y,1/2+z
loop_
_atom_site_type_symbol
_atom_site_label
_atom_site_fract_x
_atom_site_fract_y
_atom_site_fract_z
Si Si1 0.823096 0.691953 0.913740
Si Si2 0.673723 0.267835 0.043565
Si Si3 0.173553 0.872543 0.195102
Si Si4 0.670172 0.759131 0.695147
Si Si5 0.171939 0.572340 0.405650
Si Si6 0.171538 0.135111 0.044863
Si Si7 0.672599 0.810842 0.838475
Si Si8 0.823121 0.930390 0.331207
O O1 0.760294 0.754459 0.876194
O O2 0.762708 0.627296 0.877983
O O3 0.000000 0.696697 0.912644
O O4 0.765086 0.687794 0.991475
O O5 0.500000 0.274315 0.027480
O O6 0.712731 0.289485 0.121313
O O7 0.721963 0.194798 0.030854
O O8 0.234071 0.802654 0.210633
O O9 0.213320 0.896196 0.118419
O O10 0.234078 0.920699 0.253015
O O11 0.000000 0.866149 0.204992
O O12 0.500000 0.736467 0.692229
O O13 0.697922 0.808810 0.756569
O O14 0.220049 0.500000 0.388342
O O15 0.198636 0.582922 0.486465
O O16 0.270717 0.620006 0.361323
O O17 0.000000 0.584182 0.387286
O O18 0.000000 0.158996 0.045122
O O19 0.500000 0.803362 0.857408
O O20 0.000000 0.930280 0.334323
O O21 0.762900 0.000000 0.355901
#
# Coordination Sequence:
#
# PCOD8178252 Si02
#       8
#     8   8   8   8   8   8   8   8
#     4  11  20  32  52  77 104 134 170 213 256 300
#     4  10  19  32  51  75 102 132 167 211 257 303
#     4   9  16  28  48  73 100 135 172 204 240 292
#     4   9  19  33  50  74 103 131 164 210 260 302
#     4  10  21  35  50  73 107 141 172 212 257 301
#     4   9  17  29  47  72 103 136 170 203 243 296
#     4  11  21  34  54  77 101 134 173 213 258 307
#     4   9  18  31  48  73 104 136 170 208 251 298
#
# _framework density 17.393675000000002
#
# number of rings (size 3 to 8) (size 9 to 14) (size 15 to 20)
#    0.000    2.250    2.500    1.125    0.000    1.750 
#    0.000    2.500    0.000    4.125    0.000    7.000 
#    0.000    0.000    0.000    0.000    0.000    0.000 
#
# Total GULP energy -396644.649968 kJ/mol
# GULP energy per Si atom -12395.145311 kJ/mol
# Density = 1.735409 g / cm^3
# Si number density = 17.393675 Si / 1000 Ang^3
#
#
#
# Elastic Constant Matrix: (Units=GPa)
#
#
# Indices 1 2 3 4 5 6 
#
# 1 49.6136 30.2202 34.9443 0.0000 0.0000 0.0000
# 2 30.2202 106.8754 62.2871 0.0000 0.0000 0.0000
# 3 34.9443 62.2871 116.7135 0.0000 0.0000 0.0000
# 4 0.0000 0.0000 0.0000 24.4873 0.0000 0.0000
# 5 0.0000 0.0000 0.0000 0.0000 23.7322 0.0000
# 6 0.0000 0.0000 0.0000 0.0000 0.0000 1.4073
#
#
#
# Elastic Compliance Matrix: (Units=1/GPa)
#
#
# Indices 1 2 3 4 5 6 
#
# 1 0.026786 -0.004209 -0.005773 0.000000 0.000000 0.000000
# 2 -0.004209 0.014242 -0.006340 0.000000 0.000000 0.000000
# 3 -0.005773 -0.006340 0.013680 0.000000 0.000000 0.000000
# 4 0.000000 0.000000 0.000000 0.040837 0.000000 0.000000
# 5 0.000000 0.000000 0.000000 0.000000 0.042137 0.000000
# 6 0.000000 0.000000 0.000000 0.000000 0.000000 0.710602
#
#
# Mechanical properties :
#
#
# Convention : Reuss Voigt Hill
#
# Bulk Modulus (GPa) = 45.32629 58.67840 52.00234
# Shear Modulus (GPa) = 5.62882 19.64209 12.63546
#
# Velocity S-wave (km/s) = 1.80088 3.36410 2.69818
# Velocity P-wave (km/s) = 5.51723 6.99273 6.29834
#
# Compressibility (1/GPa) = 0.02206225
#
# Stress axis : x y z
#
# Youngs Moduli (GPa) = 37.33282 70.21440 73.09804
#
# Poissons Ratio (x) = 0.29555 0.42202
# Poissons Ratio (y) = 0.15715 0.46347
# Poissons Ratio (z) = 0.21554 0.44519
#
# Static dielectric constant tensor:
#      x y z
#    x 3.173240 0.000000 0.000000 
#    y 0.000000 3.120830 0.000000 
#    z 0.000000 0.000000 3.663810 
# 
# 
# High freq. dielectric constant tensor:
#      x y z
#    x 1.663490 0.000000 0.000000 
#    y 0.000000 1.639560 0.000000 
#    z 0.000000 0.000000 1.684090 
# 
# From -- ./inp_files/20208.got.cif
#   From: 2010.03.12/outbox.cif.g09.slc.cpg/sg38_11_cif.got.tgz:20208.got - 2010.04.14 02:38:36.
