data_PCOD8178306
_publ_section_title
;
Structure prediction by ZEFSAII (Michael W. Deem and Ramdas Pophale) SiO2 
 PCOD8178306
Probable space group: A M M 2
;
_chemical_formula_sum "Si O2"
_cell_formula_units_Z 64
_cell_length_a 18.269402
_cell_length_b 9.269088
_cell_length_c 20.702705
_cell_angle_alpha 90.000000
_cell_angle_beta 90.000000
_cell_angle_gamma 90.000000
_cell_volume 3505.810450
_symmetry_space_group_name_H-M "A M M 2"
_symmetry_group_IT_number 38
_symmetry_cell_setting 'orthorhombic'
loop_
_space_group_symop_operation_xyz
x,y,z
-x,-y,z
-x,y,z
x,-y,z
x,1/2+y,1/2+z
-x,1/2-y,1/2+z
-x,1/2+y,1/2+z
x,1/2-y,1/2+z
loop_
_atom_site_type_symbol
_atom_site_label
_atom_site_fract_x
_atom_site_fract_y
_atom_site_fract_z
Si Si1 0.338199 0.667568 0.714520
Si Si2 0.170699 0.159609 0.844326
Si Si3 0.817724 0.327999 0.484239
Si Si4 0.348195 0.170691 0.982914
Si Si5 0.344384 0.840331 0.837777
Si Si6 0.917352 0.327780 0.598858
Si Si7 0.833839 0.334099 0.723357
Si Si8 0.585083 0.333725 0.098985
O O1 0.359584 0.500000 0.710292
O O2 0.370294 0.729821 0.782103
O O3 0.251504 0.690965 0.710372
O O4 0.371469 0.751372 0.654540
O O5 0.151949 0.226392 0.914736
O O6 0.257549 0.151844 0.839209
O O7 0.137580 0.257659 0.788098
O O8 0.136954 0.000000 0.836631
O O9 0.817281 0.500000 0.482861
O O10 0.734775 0.276434 0.496909
O O11 0.871194 0.265006 0.538839
O O12 0.371606 0.208207 0.909010
O O13 0.356341 0.000000 0.995760
O O14 0.400672 0.259073 0.030093
O O15 0.375530 0.000000 0.821478
O O16 0.915209 0.500000 0.597363
O O17 0.879578 0.269231 0.663808
O O18 0.000000 0.269366 0.594676
O O19 0.852299 0.500000 0.732837
O O20 0.500000 0.321821 0.115113
O O21 0.610602 0.500000 0.096509
#
# Coordination Sequence:
#
# PCOD8178306 Si02
#       8
#     8   8   8   8   8   8   8   8
#     4  10  19  32  53  76  97 125 162 204 244 284
#     4   8  14  26  46  70  95 122 151 189 238 285
#     4   8  14  27  47  70  94 120 156 199 235 273
#     4   9  17  32  55  77  97 125 160 199 242 288
#     4   8  15  29  50  76 102 125 153 194 244 293
#     4   9  16  26  42  65  94 128 163 197 233 274
#     4   9  17  29  47  72  97 120 154 199 238 276
#     4  11  24  38  50  69 100 132 161 198 240 283
#
# _framework density 18.255407000000002
#
# number of rings (size 3 to 8) (size 9 to 14) (size 15 to 20)
#    0.000    3.000    0.000    3.000    0.000    4.000 
#    0.000    3.125    0.000    2.625    0.000    0.000 
#    0.000    0.000    0.000    0.000    0.000    0.000 
#
# Total GULP energy -396663.080222 kJ/mol
# GULP energy per Si atom -12395.721257 kJ/mol
# Density = 1.821386 g / cm^3
# Si number density = 18.255407 Si / 1000 Ang^3
#
#
#
# Elastic Constant Matrix: (Units=GPa)
#
#
# Indices 1 2 3 4 5 6 
#
# 1 36.1942 22.4746 26.6113 0.0000 0.0000 0.0000
# 2 22.4746 73.6491 54.5818 0.0000 0.0000 0.0000
# 3 26.6113 54.5818 144.5548 0.0000 0.0000 0.0000
# 4 0.0000 0.0000 0.0000 33.5454 0.0000 0.0000
# 5 0.0000 0.0000 0.0000 0.0000 5.2177 0.0000
# 6 0.0000 0.0000 0.0000 0.0000 0.0000 12.6464
#
#
#
# Elastic Compliance Matrix: (Units=1/GPa)
#
#
# Indices 1 2 3 4 5 6 
#
# 1 0.035231 -0.008254 -0.003369 0.000000 0.000000 0.000000
# 2 -0.008254 0.020788 -0.006330 0.000000 0.000000 0.000000
# 3 -0.003369 -0.006330 0.009928 0.000000 0.000000 0.000000
# 4 0.000000 0.000000 0.000000 0.029810 0.000000 0.000000
# 5 0.000000 0.000000 0.000000 0.000000 0.191656 0.000000
# 6 0.000000 0.000000 0.000000 0.000000 0.000000 0.079074
#
#
# Mechanical properties :
#
#
# Convention : Reuss Voigt Hill
#
# Bulk Modulus (GPa) = 33.28783 51.30373 42.29578
# Shear Modulus (GPa) = 12.12397 20.33058 16.22727
#
# Velocity S-wave (km/s) = 2.57987 3.34080 2.98468
# Velocity P-wave (km/s) = 5.21041 6.56091 5.92427
#
# Compressibility (1/GPa) = 0.03004101
#
# Stress axis : x y z
#
# Youngs Moduli (GPa) = 28.38390 48.10557 100.72557
#
# Poissons Ratio (x) = 0.39708 0.33935
# Poissons Ratio (y) = 0.23429 0.63755
# Poissons Ratio (z) = 0.09563 0.30449
#
# Static dielectric constant tensor:
#      x y z
#    x 3.116030 0.000000 0.000000 
#    y 0.000000 3.228530 0.000000 
#    z 0.000000 0.000000 3.791190 
# 
# 
# High freq. dielectric constant tensor:
#      x y z
#    x 1.673780 0.000000 0.000000 
#    y 0.000000 1.677440 0.000000 
#    z 0.000000 0.000000 1.727920 
# 
# From -- ./inp_files/21380.got.cif
#   From: 2010.03.12/outbox.cif.g09.slc.cpg/sg38_11_cif.got.tgz:21380.got - 2010.04.14 02:38:36.
