data_PCOD8178872
_publ_section_title
;
Structure prediction by ZEFSAII (Michael W. Deem and Ramdas Pophale) SiO2 
 PCOD8178872
Probable space group: A M M 2
;
_chemical_formula_sum "Si O2"
_cell_formula_units_Z 64
_cell_length_a 16.257507
_cell_length_b 9.480304
_cell_length_c 23.260488
_cell_angle_alpha 90.000000
_cell_angle_beta 90.000000
_cell_angle_gamma 90.000000
_cell_volume 3585.048501
_symmetry_space_group_name_H-M "A M M 2"
_symmetry_group_IT_number 38
_symmetry_cell_setting 'orthorhombic'
loop_
_space_group_symop_operation_xyz
x,y,z
-x,-y,z
-x,y,z
x,-y,z
x,1/2+y,1/2+z
-x,1/2-y,1/2+z
-x,1/2+y,1/2+z
x,1/2-y,1/2+z
loop_
_atom_site_type_symbol
_atom_site_label
_atom_site_fract_x
_atom_site_fract_y
_atom_site_fract_z
Si Si1 0.091793 0.831235 0.357620
Si Si2 0.803511 0.156174 0.658552
Si Si3 0.709439 0.664556 0.045563
Si Si4 0.094434 0.151970 0.230798
Si Si5 0.255823 0.666056 0.917341
Si Si6 0.595292 0.165019 0.334412
Si Si7 0.634295 0.663889 0.220017
Si Si8 0.408957 0.655975 0.613834
O O1 0.108105 0.775279 0.292900
O O2 0.168922 0.769993 0.394115
O O3 0.000000 0.780015 0.379049
O O4 0.091045 0.000000 0.357207
O O5 0.778763 0.193883 0.593421
O O6 0.875219 0.257746 0.677524
O O7 0.730024 0.173141 0.704296
O O8 0.839441 0.000000 0.660379
O O9 0.683227 0.500000 0.046272
O O10 0.632899 0.760899 0.061818
O O11 0.739442 0.714758 0.983295
O O12 0.000000 0.127725 0.219551
O O13 0.139921 0.000000 0.229746
O O14 0.248901 0.500000 0.913071
O O15 0.338810 0.712832 0.883347
O O16 0.500000 0.190001 0.354513
O O17 0.615092 0.262538 0.280193
O O18 0.607667 0.000000 0.318591
O O19 0.605262 0.500000 0.221284
O O20 0.586922 0.750706 0.171379
O O21 0.500000 0.632242 0.591602
O O22 0.368637 0.500000 0.624945
#
# Coordination Sequence:
#
# PCOD8178872 Si02
#       8
#     8   8   8   8   8   8   8   8
#     4   8  14  26  47  75 100 121 154 202 249 290
#     4   9  18  31  46  68  97 126 158 197 243 294
#     4   9  19  34  50  70  96 127 166 206 244 292
#     4   9  17  29  48  75 101 124 155 195 241 297
#     4   9  17  31  50  70  96 131 169 208 245 287
#     4  10  20  32  48  73 102 132 167 204 245 296
#     4  10  20  33  50  73 100 129 162 202 250 302
#     4  10  20  33  50  72  96 124 162 207 251 295
#
# _framework density 17.851921000000001
#
# number of rings (size 3 to 8) (size 9 to 14) (size 15 to 20)
#    0.000    2.750    0.000    3.375    0.000    7.000 
#    0.000    2.500    0.000    3.000    0.000    0.000 
#    0.000    0.000    0.000    0.000    0.000    0.000 
#
# Total GULP energy -396471.770504 kJ/mol
# GULP energy per Si atom -12389.742828 kJ/mol
# Density = 1.781129 g / cm^3
# Si number density = 17.851921 Si / 1000 Ang^3
#
#
#
# Elastic Constant Matrix: (Units=GPa)
#
#
# Indices 1 2 3 4 5 6 
#
# 1 92.6309 35.9257 78.9585 0.0000 0.0000 0.0000
# 2 35.9257 70.5606 52.1549 0.0000 0.0000 0.0000
# 3 78.9585 52.1549 129.3007 0.0000 0.0000 0.0000
# 4 0.0000 0.0000 0.0000 24.2382 0.0000 0.0000
# 5 0.0000 0.0000 0.0000 0.0000 6.7464 0.0000
# 6 0.0000 0.0000 0.0000 0.0000 0.0000 19.2543
#
#
#
# Elastic Compliance Matrix: (Units=1/GPa)
#
#
# Indices 1 2 3 4 5 6 
#
# 1 0.022687 -0.001868 -0.013101 0.000000 0.000000 0.000000
# 2 -0.001868 0.020346 -0.007066 0.000000 0.000000 0.000000
# 3 -0.013101 -0.007066 0.018584 0.000000 0.000000 0.000000
# 4 0.000000 0.000000 0.000000 0.041257 0.000000 0.000000
# 5 0.000000 0.000000 0.000000 0.000000 0.148228 0.000000
# 6 0.000000 0.000000 0.000000 0.000000 0.000000 0.051936
#
#
# Mechanical properties :
#
#
# Convention : Reuss Voigt Hill
#
# Bulk Modulus (GPa) = 56.98639 69.61894 63.30267
# Shear Modulus (GPa) = 14.16603 18.41132 16.28867
#
# Velocity S-wave (km/s) = 2.82002 3.21493 3.02393
# Velocity P-wave (km/s) = 6.52644 7.27074 6.90862
#
# Compressibility (1/GPa) = 0.01754805
#
# Stress axis : x y z
#
# Youngs Moduli (GPa) = 44.07859 49.14912 53.80929
#
# Poissons Ratio (x) = 0.09179 0.70493
# Poissons Ratio (y) = 0.08232 0.38024
# Poissons Ratio (z) = 0.57745 0.34731
#
# Static dielectric constant tensor:
#      x y z
#    x 3.409400 0.000000 0.000000 
#    y 0.000000 3.201830 0.000000 
#    z 0.000000 0.000000 3.316650 
# 
# 
# High freq. dielectric constant tensor:
#      x y z
#    x 1.689430 0.000000 0.000000 
#    y 0.000000 1.668530 0.000000 
#    z 0.000000 0.000000 1.679550 
# 
# From -- ./inp_files/21452.got.cif
#   From: 2010.03.12/outbox.cif.g09.slc.cpg/sg38_11_cif.got.tgz:21452.got - 2010.04.14 02:38:36.
