data_PCOD8178830
_publ_section_title
;
Structure prediction by ZEFSAII (Michael W. Deem and Ramdas Pophale) SiO2 
 PCOD8178830
Probable space group: A M M 2
;
_chemical_formula_sum "Si O2"
_cell_formula_units_Z 56
_cell_length_a 15.355681
_cell_length_b 9.162737
_cell_length_c 24.826208
_cell_angle_alpha 90.000000
_cell_angle_beta 90.000000
_cell_angle_gamma 90.000000
_cell_volume 3493.049116
_symmetry_space_group_name_H-M "A M M 2"
_symmetry_group_IT_number 38
_symmetry_cell_setting 'orthorhombic'
loop_
_space_group_symop_operation_xyz
x,y,z
-x,-y,z
-x,y,z
x,-y,z
x,1/2+y,1/2+z
-x,1/2-y,1/2+z
-x,1/2+y,1/2+z
x,1/2-y,1/2+z
loop_
_atom_site_type_symbol
_atom_site_label
_atom_site_fract_x
_atom_site_fract_y
_atom_site_fract_z
Si Si1 0.592626 0.835091 0.763040
Si Si2 0.596016 0.829713 0.371606
Si Si3 0.222257 0.663975 0.249372
Si Si4 0.103404 0.162181 0.054735
Si Si5 0.234331 0.669299 0.376626
Si Si6 0.897733 0.669617 0.950511
Si Si7 0.097024 0.827334 0.172667
O O1 0.500000 0.822967 0.730674
O O2 0.590772 0.716046 0.809600
O O3 0.678746 0.809787 0.726643
O O4 0.601306 0.000000 0.788073
O O5 0.500000 0.798442 0.398092
O O6 0.675031 0.739330 0.398964
O O7 0.618772 0.000000 0.375441
O O8 0.190512 0.500000 0.237426
O O9 0.224025 0.695664 0.312989
O O10 0.158151 0.772862 0.220116
O O11 0.133826 0.219996 0.113714
O O12 0.000000 0.153197 0.056359
O O13 0.141125 0.000000 0.042958
O O14 0.135322 0.272102 0.008506
O O15 0.233962 0.500000 0.391980
O O16 0.151947 0.746145 0.403624
O O17 0.875378 0.500000 0.947259
O O18 0.000000 0.699934 0.942599
O O19 0.000000 0.763615 0.182000
O O20 0.093999 0.000000 0.175204
#
# Coordination Sequence:
#
# PCOD8178830 Si02
#       7
#     8   8   8   8   8   8   8
#     4   8  14  26  42  59  83 115 148 180 216 262
#     4   9  16  26  42  64  88 113 144 185 227 262
#     4   9  18  29  42  64  90 117 149 181 215 256
#     4   8  15  30  49  65  82 108 145 185 223 265
#     4  10  20  32  45  63  91 126 157 182 215 265
#     4  10  20  32  47  68  91 115 146 186 229 267
#     4   9  18  31  46  64  87 117 149 180 218 262
#
# _framework density 16.031839000000002
#
# number of rings (size 3 to 8) (size 9 to 14) (size 15 to 20)
#    0.000    3.000    0.000    3.000    0.000    6.000 
#    0.000    4.286    0.000    0.000    0.000    1.000 
#    0.000    3.429    0.000    0.000    0.000    0.000 
#
# Total GULP energy -346886.709568 kJ/mol
# GULP energy per Si atom -12388.811056 kJ/mol
# Density = 1.599535 g / cm^3
# Si number density = 16.031839 Si / 1000 Ang^3
#
#
#
# Elastic Constant Matrix: (Units=GPa)
#
#
# Indices 1 2 3 4 5 6 
#
# 1 98.8117 49.0883 42.2444 0.0000 0.0000 0.0000
# 2 49.0883 82.4181 34.1485 0.0000 0.0000 0.0000
# 3 42.2444 34.1485 54.0246 0.0000 0.0000 0.0000
# 4 0.0000 0.0000 0.0000 24.2051 0.0000 0.0000
# 5 0.0000 0.0000 0.0000 0.0000 0.9324 0.0000
# 6 0.0000 0.0000 0.0000 0.0000 0.0000 26.5143
#
#
#
# Elastic Compliance Matrix: (Units=1/GPa)
#
#
# Indices 1 2 3 4 5 6 
#
# 1 0.017379 -0.006395 -0.009547 0.000000 0.000000 0.000000
# 2 -0.006395 0.018792 -0.006877 0.000000 0.000000 0.000000
# 3 -0.009547 -0.006877 0.030322 0.000000 0.000000 0.000000
# 4 0.000000 0.000000 0.000000 0.041314 0.000000 0.000000
# 5 0.000000 0.000000 0.000000 0.000000 1.072537 0.000000
# 6 0.000000 0.000000 0.000000 0.000000 0.000000 0.037716
#
#
# Mechanical properties :
#
#
# Convention : Reuss Voigt Hill
#
# Bulk Modulus (GPa) = 47.95270 54.02409 50.98839
# Shear Modulus (GPa) = 3.93500 17.64856 10.79178
#
# Velocity S-wave (km/s) = 1.56838 3.32150 2.59732
# Velocity P-wave (km/s) = 5.76677 6.96283 6.39283
#
# Compressibility (1/GPa) = 0.02085388
#
# Stress axis : x y z
#
# Youngs Moduli (GPa) = 57.54102 53.21462 32.97882
#
# Poissons Ratio (x) = 0.34032 0.31485
# Poissons Ratio (y) = 0.36799 0.22681
# Poissons Ratio (z) = 0.54934 0.36598
#
# Static dielectric constant tensor:
#      x y z
#    x 3.294530 0.000000 0.000000 
#    y 0.000000 3.080030 0.000000 
#    z 0.000000 0.000000 2.816770 
# 
# 
# High freq. dielectric constant tensor:
#      x y z
#    x 1.616230 0.000000 0.000000 
#    y 0.000000 1.623970 0.000000 
#    z 0.000000 0.000000 1.569890 
# 
# From -- ./inp_files/21315.got.cif
#   From: 2010.03.12/outbox.cif.g09.slc.cpg/sg38_11_cif.got.tgz:21315.got - 2010.04.14 02:38:36.
