data_PCOD8178287
_publ_section_title
;
Structure prediction by ZEFSAII (Michael W. Deem and Ramdas Pophale) SiO2 
 PCOD8178287
Probable space group: A M M 2
;
_chemical_formula_sum "Si O2"
_cell_formula_units_Z 48
_cell_length_a 8.839842
_cell_length_b 15.178133
_cell_length_c 18.835235
_cell_angle_alpha 90.000000
_cell_angle_beta 90.000000
_cell_angle_gamma 90.000000
_cell_volume 2527.166755
_symmetry_space_group_name_H-M "A M M 2"
_symmetry_group_IT_number 38
_symmetry_cell_setting 'orthorhombic'
loop_
_space_group_symop_operation_xyz
x,y,z
-x,-y,z
-x,y,z
x,-y,z
x,1/2+y,1/2+z
-x,1/2-y,1/2+z
-x,1/2+y,1/2+z
x,1/2-y,1/2+z
loop_
_atom_site_type_symbol
_atom_site_label
_atom_site_fract_x
_atom_site_fract_y
_atom_site_fract_z
Si Si1 0.820288 0.096378 0.842750
Si Si2 0.176837 0.898346 0.156234
Si Si3 0.180346 0.238048 0.428212
Si Si4 0.677880 0.260187 0.079070
Si Si5 0.179695 0.097119 0.315859
Si Si6 0.824692 0.602145 0.182536
O O1 0.761110 0.167646 0.899164
O O2 0.768292 0.119741 0.762881
O O3 0.000000 0.094372 0.842176
O O4 0.757434 0.000000 0.865039
O O5 0.267841 0.836049 0.103301
O O6 0.230881 0.876614 0.236385
O O7 0.000000 0.878375 0.146846
O O8 0.211662 0.000000 0.137345
O O9 0.250238 0.216947 0.503629
O O10 0.243121 0.165589 0.372996
O O11 0.000000 0.235191 0.433747
O O12 0.500000 0.259049 0.071359
O O13 0.725065 0.336808 0.132613
O O14 0.000000 0.095850 0.316963
O O15 0.242183 0.000000 0.335096
O O16 0.800507 0.500000 0.161996
O O17 0.000000 0.628659 0.173707
#
# Coordination Sequence:
#
# PCOD8178287 Si02
#       6
#     8   8   8   8   8   8
#     4   8  15  30  55  83 102 121 163 224 275 309
#     4   9  18  36  62  85 103 130 175 227 271 313
#     4  10  19  32  52  76 104 138 175 214 258 312
#     4  12  25  36  48  74 116 154 179 210 256 314
#     4   8  15  30  55  83 102 121 163 224 275 309
#     4   9  18  36  62  85 103 130 175 227 271 313
#
# _framework density 18.993603
#
# number of rings (size 3 to 8) (size 9 to 14) (size 15 to 20)
#    0.000    2.667    0.000    4.500    0.000    4.667 
#    0.000    6.667    0.000    2.000    0.000    0.000 
#    0.000    0.000    0.000    0.000    0.000    0.000 
#
# Total GULP energy -297546.469257 kJ/mol
# GULP energy per Si atom -12397.769552 kJ/mol
# Density = 1.895037 g / cm^3
# Si number density = 18.993603 Si / 1000 Ang^3
#
#
#
# Elastic Constant Matrix: (Units=GPa)
#
#
# Indices 1 2 3 4 5 6 
#
# 1 42.5368 21.1808 15.6042 0.0000 0.0000 0.0000
# 2 21.1808 73.7870 17.4779 0.0000 0.0000 0.0000
# 3 15.6042 17.4779 56.4844 0.0000 0.0000 0.0000
# 4 0.0000 0.0000 0.0000 17.7832 0.0000 0.0000
# 5 0.0000 0.0000 0.0000 0.0000 -4.8190 0.0000
# 6 0.0000 0.0000 0.0000 0.0000 0.0000 13.2771
#
#
#
# Elastic Compliance Matrix: (Units=1/GPa)
#
#
# Indices 1 2 3 4 5 6 
#
# 1 0.029141 -0.006969 -0.005894 0.000000 0.000000 0.000000
# 2 -0.006969 0.016291 -0.003116 0.000000 0.000000 0.000000
# 3 -0.005894 -0.003116 0.020296 0.000000 0.000000 0.000000
# 4 0.000000 0.000000 0.000000 0.056233 0.000000 0.000000
# 5 0.000000 0.000000 0.000000 0.000000 -0.207512 0.000000
# 6 0.000000 0.000000 0.000000 0.000000 0.000000 0.075318
#
#
# Mechanical properties :
#
#
# Convention : Reuss Voigt Hill
#
# Bulk Modulus (GPa) = 29.61098 31.25930 30.43514
# Shear Modulus (GPa) = 151.59842 13.15129 82.37486
#
# Velocity S-wave (km/s) = 8.94365 2.63422 6.59272
# Velocity P-wave (km/s) = 11.05783 5.07402 8.60294
#
# Compressibility (1/GPa) = 0.03377126
#
# Stress axis : x y z
#
# Youngs Moduli (GPa) = 34.31546 61.38357 49.26994
#
# Poissons Ratio (x) = 0.42778 0.29040
# Poissons Ratio (y) = 0.23914 0.15351
# Poissons Ratio (z) = 0.20226 0.19125
#
# Static dielectric constant tensor:
#      x y z
#    x 2.969150 0.000000 0.000000 
#    y 0.000000 3.910170 0.000000 
#    z 0.000000 0.000000 3.517400 
# 
# 
# High freq. dielectric constant tensor:
#      x y z
#    x 1.686480 0.000000 0.000000 
#    y 0.000000 1.754990 0.000000 
#    z 0.000000 0.000000 1.739220 
# 
# From -- ./inp_files/16640.got.cif
#   From: 2010.03.12/outbox.cif.g09.slc.cpg/sg38_9_cif.got.tgz:16640.got - 2010.04.14 02:38:36.
