data_PCOD8178639
_publ_section_title
;
Structure prediction by ZEFSAII (Michael W. Deem and Ramdas Pophale) SiO2 
 PCOD8178639
Probable space group: A M M 2
;
_chemical_formula_sum "Si O2"
_cell_formula_units_Z 56
_cell_length_a 14.110250
_cell_length_b 20.162814
_cell_length_c 8.961978
_cell_angle_alpha 90.000000
_cell_angle_beta 90.000000
_cell_angle_gamma 90.000000
_cell_volume 2549.703768
_symmetry_space_group_name_H-M "A M M 2"
_symmetry_group_IT_number 38
_symmetry_cell_setting 'orthorhombic'
loop_
_space_group_symop_operation_xyz
x,y,z
-x,-y,z
-x,y,z
x,-y,z
x,1/2+y,1/2+z
-x,1/2-y,1/2+z
-x,1/2+y,1/2+z
x,1/2-y,1/2+z
loop_
_atom_site_type_symbol
_atom_site_label
_atom_site_fract_x
_atom_site_fract_y
_atom_site_fract_z
Si Si1 0.000000 0.339582 0.667521
Si Si2 0.608258 0.196820 0.069052
Si Si3 0.104915 0.161486 0.607474
Si Si4 0.000000 0.754167 0.916979
Si Si5 0.394918 0.425442 0.097891
Si Si6 0.360803 0.425507 0.767364
Si Si7 0.854649 0.074380 0.339444
Si Si8 0.706429 0.689473 0.258664
O O1 0.000000 0.329294 0.486693
O O2 0.089930 0.379222 0.724421
O O3 0.000000 0.262104 0.738125
O O4 0.500000 0.218007 0.025922
O O5 0.679562 0.194272 0.930527
O O6 0.601633 0.124480 0.142862
O O7 0.654746 0.249520 0.179763
O O8 0.094510 0.218686 0.482090
O O9 0.142186 0.098453 0.511958
O O10 0.178931 0.186707 0.734238
O O11 0.000000 0.145052 0.680304
O O12 0.500000 0.422661 0.167092
O O13 0.353000 0.500000 0.102813
O O14 0.328313 0.380032 0.195294
O O15 0.400437 0.401405 0.926781
O O16 0.397142 0.500000 0.729492
O O17 0.248848 0.424074 0.773428
O O18 0.896277 0.000000 0.336589
#
# Coordination Sequence:
#
# PCOD8178639 Si02
#       8
#     4   8   8   4   8   8   8   8
#     4  10  19  34  58  88 123 166 204 264 306 372
#     4  12  27  44  66  93 131 175 221 276 337 402
#     4   9  21  39  61  94 128 166 211 265 323 386
#     4   8  20  34  54  84 122 152 210 240 310 360
#     4  10  20  37  64  94 125 164 213 268 325 394
#     4  10  22  40  65  94 128 168 215 268 333 397
#     4  10  19  36  63  95 124 164 215 264 319 385
#     4  12  25  43  66  94 131 172 220 272 336 396
#
# _framework density 21.963336000000002
#
# number of rings (size 3 to 8) (size 9 to 14) (size 15 to 20)
#    0.429    1.286    2.143    2.786    2.000    2.571 
#    0.000    0.000    0.000    0.000    0.000    1.000 
#    0.000    0.000    0.000    0.000    0.000    0.000 
#
# Total GULP energy -346964.102822 kJ/mol
# GULP energy per Si atom -12391.575101 kJ/mol
# Density = 2.191335 g / cm^3
# Si number density = 21.963336 Si / 1000 Ang^3
#
#
#
# Elastic Constant Matrix: (Units=GPa)
#
#
# Indices 1 2 3 4 5 6 
#
# 1 100.6681 9.5393 11.8335 0.0000 0.0000 0.0000
# 2 9.5393 93.5297 36.1044 0.0000 0.0000 0.0000
# 3 11.8335 36.1044 84.0221 0.0000 0.0000 0.0000
# 4 0.0000 0.0000 0.0000 38.1670 0.0000 0.0000
# 5 0.0000 0.0000 0.0000 0.0000 17.4849 0.0000
# 6 0.0000 0.0000 0.0000 0.0000 0.0000 19.3877
#
#
#
# Elastic Compliance Matrix: (Units=1/GPa)
#
#
# Indices 1 2 3 4 5 6 
#
# 1 0.010127 -0.000578 -0.001178 0.000000 0.000000 0.000000
# 2 -0.000578 0.012851 -0.005441 0.000000 0.000000 0.000000
# 3 -0.001178 -0.005441 0.014405 0.000000 0.000000 0.000000
# 4 0.000000 0.000000 0.000000 0.026201 0.000000 0.000000
# 5 0.000000 0.000000 0.000000 0.000000 0.057192 0.000000
# 6 0.000000 0.000000 0.000000 0.000000 0.000000 0.051579
#
#
# Mechanical properties :
#
#
# Convention : Reuss Voigt Hill
#
# Bulk Modulus (GPa) = 43.49734 43.68603 43.59168
# Shear Modulus (GPa) = 25.71864 29.72411 27.72138
#
# Velocity S-wave (km/s) = 3.42567 3.68278 3.55655
# Velocity P-wave (km/s) = 5.95772 6.16583 6.06267
#
# Compressibility (1/GPa) = 0.02298991
#
# Stress axis : x y z
#
# Youngs Moduli (GPa) = 98.74711 77.81517 69.41863
#
# Poissons Ratio (x) = 0.04499 0.08176
# Poissons Ratio (y) = 0.05710 0.37768
# Poissons Ratio (z) = 0.11630 0.42336
#
# Static dielectric constant tensor:
#      x y z
#    x 4.138780 0.000000 0.000000 
#    y 0.000000 4.123990 0.000000 
#    z 0.000000 0.000000 3.741920 
# 
# 
# High freq. dielectric constant tensor:
#      x y z
#    x 1.880010 0.000000 0.000000 
#    y 0.000000 1.865960 0.000000 
#    z 0.000000 0.000000 1.841780 
# 
# From -- ./inp_files/5771.got.cif
#   From: 2010.03.12/outbox.cif.g09.slc.cpg/sg38_3_cif.got.tgz:5771.got - 2010.04.14 02:38:36.
