data_PCOD8178216
_publ_section_title
;
Structure prediction by ZEFSAII (Michael W. Deem and Ramdas Pophale) SiO2 
 PCOD8178216
Probable space group: A M M 2
;
_chemical_formula_sum "Si O2"
_cell_formula_units_Z 64
_cell_length_a 9.334267
_cell_length_b 20.356198
_cell_length_c 19.499851
_cell_angle_alpha 90.000000
_cell_angle_beta 90.000000
_cell_angle_gamma 90.000000
_cell_volume 3705.170340
_symmetry_space_group_name_H-M "A M M 2"
_symmetry_group_IT_number 38
_symmetry_cell_setting 'orthorhombic'
loop_
_space_group_symop_operation_xyz
x,y,z
-x,-y,z
-x,y,z
x,-y,z
x,1/2+y,1/2+z
-x,1/2-y,1/2+z
-x,1/2+y,1/2+z
x,1/2-y,1/2+z
loop_
_atom_site_type_symbol
_atom_site_label
_atom_site_fract_x
_atom_site_fract_y
_atom_site_fract_z
Si Si1 0.836125 0.727074 0.672620
Si Si2 0.668760 0.812734 0.893770
Si Si3 0.164359 0.074990 0.821743
Si Si4 0.832553 0.805478 0.322148
Si Si5 0.668504 0.881335 0.541469
Si Si6 0.836988 0.573328 0.914139
Si Si7 0.664974 0.769833 0.043095
Si Si8 0.164597 0.879488 0.673166
O O1 0.793203 0.688450 0.741754
O O2 0.748171 0.699572 0.607831
O O3 0.802440 0.803225 0.686769
O O4 0.000000 0.715587 0.653484
O O5 0.500000 0.809480 0.879014
O O6 0.731749 0.881117 0.867584
O O7 0.741111 0.751540 0.856591
O O8 0.701493 0.810300 0.974849
O O9 0.204791 0.081554 0.741852
O O10 0.000000 0.097777 0.832646
O O11 0.186463 0.000000 0.844645
O O12 0.791527 0.875016 0.355739
O O13 0.000000 0.787593 0.330762
O O14 0.500000 0.893393 0.543374
O O15 0.734177 0.921931 0.479246
O O16 0.710861 0.805412 0.530383
O O17 0.736196 0.907236 0.612427
O O18 0.821774 0.500000 0.883232
O O19 0.000000 0.587172 0.937813
O O20 0.500000 0.773766 0.062491
O O21 0.000000 0.890955 0.652168
#
# Coordination Sequence:
#
# PCOD8178216 Si02
#       8
#     8   8   8   8   8   8   8   8
#     4   9  17  30  51  77 101 130 170 213 258 304
#     4  11  21  34  54  79 106 136 174 216 260 307
#     4  10  21  37  55  76 105 140 176 215 259 308
#     4  10  19  34  55  78 104 134 174 218 261 308
#     4  10  19  32  49  73 106 140 175 213 253 303
#     4  10  21  35  52  75 104 140 177 214 260 310
#     4   9  19  33  49  75 107 135 167 209 258 306
#     4   9  17  31  49  73 104 137 175 212 251 303
#
# _framework density 17.273161000000002
#
# number of rings (size 3 to 8) (size 9 to 14) (size 15 to 20)
#    0.000    2.250    2.500    0.750    0.000    3.500 
#    0.000    1.250    0.000    0.750    0.000    1.750 
#    0.000    0.000    0.000    0.000    0.000    0.000 
#
# Total GULP energy -396850.902677 kJ/mol
# GULP energy per Si atom -12401.590709 kJ/mol
# Density = 1.723385 g / cm^3
# Si number density = 17.273161 Si / 1000 Ang^3
#
#
#
# Elastic Constant Matrix: (Units=GPa)
#
#
# Indices 1 2 3 4 5 6 
#
# 1 78.4083 42.3514 63.1325 0.0000 0.0000 0.0000
# 2 42.3514 82.5672 55.9772 0.0000 0.0000 0.0000
# 3 63.1325 55.9772 121.4336 0.0000 0.0000 0.0000
# 4 0.0000 0.0000 0.0000 21.9170 0.0000 0.0000
# 5 0.0000 0.0000 0.0000 0.0000 26.8182 0.0000
# 6 0.0000 0.0000 0.0000 0.0000 0.0000 17.7049
#
#
#
# Elastic Compliance Matrix: (Units=1/GPa)
#
#
# Indices 1 2 3 4 5 6 
#
# 1 0.023533 -0.005493 -0.009703 0.000000 0.000000 0.000000
# 2 -0.005493 0.018899 -0.005856 0.000000 0.000000 0.000000
# 3 -0.009703 -0.005856 0.015979 0.000000 0.000000 0.000000
# 4 0.000000 0.000000 0.000000 0.045627 0.000000 0.000000
# 5 0.000000 0.000000 0.000000 0.000000 0.037288 0.000000
# 6 0.000000 0.000000 0.000000 0.000000 0.000000 0.056482
#
#
# Mechanical properties :
#
#
# Convention : Reuss Voigt Hill
#
# Bulk Modulus (GPa) = 61.32130 67.25901 64.29015
# Shear Modulus (GPa) = 20.37934 21.35120 20.86527
#
# Velocity S-wave (km/s) = 3.43859 3.51962 3.47934
# Velocity P-wave (km/s) = 7.16541 7.45251 7.31037
#
# Compressibility (1/GPa) = 0.01630755
#
# Stress axis : x y z
#
# Youngs Moduli (GPa) = 42.49359 52.91262 62.58295
#
# Poissons Ratio (x) = 0.29064 0.60722
# Poissons Ratio (y) = 0.23341 0.36650
# Poissons Ratio (z) = 0.41230 0.30987
#
# Static dielectric constant tensor:
#      x y z
#    x 3.235920 0.000000 0.000000 
#    y 0.000000 3.053200 0.000000 
#    z 0.000000 0.000000 3.324060 
# 
# 
# High freq. dielectric constant tensor:
#      x y z
#    x 1.667790 0.000000 0.000000 
#    y 0.000000 1.641460 0.000000 
#    z 0.000000 0.000000 1.668120 
# 
# From -- ./inp_files/17171.got.cif
#   From: 2010.03.12/outbox.cif.g09.slc.cpg/sg38_9_cif.got.tgz:17171.got - 2010.04.14 02:38:36.
