data_PCOD8178869
_publ_section_title
;
Structure prediction by ZEFSAII (Michael W. Deem and Ramdas Pophale) SiO2 
 PCOD8178869
Probable space group: A M M 2
;
_chemical_formula_sum "Si O2"
_cell_formula_units_Z 64
_cell_length_a 8.875074
_cell_length_b 23.140163
_cell_length_c 19.027311
_cell_angle_alpha 90.000000
_cell_angle_beta 90.000000
_cell_angle_gamma 90.000000
_cell_volume 3907.651399
_symmetry_space_group_name_H-M "A M M 2"
_symmetry_group_IT_number 38
_symmetry_cell_setting 'orthorhombic'
loop_
_space_group_symop_operation_xyz
x,y,z
-x,-y,z
-x,y,z
x,-y,z
x,1/2+y,1/2+z
-x,1/2-y,1/2+z
-x,1/2+y,1/2+z
x,1/2-y,1/2+z
loop_
_atom_site_type_symbol
_atom_site_label
_atom_site_fract_x
_atom_site_fract_y
_atom_site_fract_z
Si Si1 0.327028 0.759026 0.438110
Si Si2 0.822247 0.621462 0.590205
Si Si3 0.675136 0.753853 0.094225
Si Si4 0.675043 0.432723 0.454342
Si Si5 0.176037 0.276345 0.228272
Si Si6 0.327352 0.326237 0.805214
Si Si7 0.326206 0.064970 0.220620
Si Si8 0.823462 0.344527 0.363190
O O1 0.500000 0.738068 0.430474
O O2 0.292192 0.775781 0.518695
O O3 0.295267 0.814368 0.387965
O O4 0.219857 0.706317 0.417034
O O5 0.750546 0.683904 0.600021
O O6 0.768664 0.592322 0.518683
O O7 0.775693 0.580363 0.654199
O O8 0.000000 0.628243 0.588162
O O9 0.500000 0.762500 0.107827
O O10 0.741812 0.711689 0.154187
O O11 0.500000 0.419738 0.467083
O O12 0.707769 0.500000 0.445727
O O13 0.731436 0.402040 0.382810
O O14 0.222957 0.213838 0.257444
O O15 0.221230 0.326055 0.283930
O O16 0.000000 0.275559 0.214640
O O17 0.500000 0.310868 0.787032
O O18 0.291276 0.392799 0.786610
O O19 0.500000 0.070406 0.197117
O O20 0.288118 0.000000 0.245406
O O21 0.000000 0.356401 0.370145
#
# Coordination Sequence:
#
# PCOD8178869 Si02
#       8
#     8   8   8   8   8   8   8   8
#     4   9  18  31  49  70  94 124 162 202 244 293
#     4  12  23  33  47  69  99 133 168 206 240 281
#     4  11  20  31  49  72  98 131 164 199 243 293
#     4  11  23  37  52  70  96 132 171 206 241 289
#     4  10  20  32  48  72  99 125 159 201 246 293
#     4   9  17  31  49  68  92 126 162 199 243 289
#     4  10  20  33  49  69  96 131 168 202 238 286
#     4  10  20  33  50  72  97 126 161 204 249 290
#
# _framework density 16.378124
#
# number of rings (size 3 to 8) (size 9 to 14) (size 15 to 20)
#    0.000    1.750    2.500    3.000    0.000    4.750 
#    0.000    0.000    0.000    0.000    0.000    0.875 
#    0.000    3.000    0.000    0.000    0.000    0.000 
#
# Total GULP energy -396804.733013 kJ/mol
# GULP energy per Si atom -12400.147907 kJ/mol
# Density = 1.634085 g / cm^3
# Si number density = 16.378124 Si / 1000 Ang^3
#
#
#
# Elastic Constant Matrix: (Units=GPa)
#
#
# Indices 1 2 3 4 5 6 
#
# 1 77.7995 28.3008 46.3260 0.0000 0.0000 0.0000
# 2 28.3008 67.7002 47.7918 0.0000 0.0000 0.0000
# 3 46.3260 47.7918 123.8444 0.0000 0.0000 0.0000
# 4 0.0000 0.0000 0.0000 21.2430 0.0000 0.0000
# 5 0.0000 0.0000 0.0000 0.0000 22.9033 0.0000
# 6 0.0000 0.0000 0.0000 0.0000 0.0000 12.2478
#
#
#
# Elastic Compliance Matrix: (Units=1/GPa)
#
#
# Indices 1 2 3 4 5 6 
#
# 1 0.017163 -0.003632 -0.005019 0.000000 0.000000 0.000000
# 2 -0.003632 0.021070 -0.006772 0.000000 0.000000 0.000000
# 3 -0.005019 -0.006772 0.012565 0.000000 0.000000 0.000000
# 4 0.000000 0.000000 0.000000 0.047074 0.000000 0.000000
# 5 0.000000 0.000000 0.000000 0.000000 0.043662 0.000000
# 6 0.000000 0.000000 0.000000 0.000000 0.000000 0.081647
#
#
# Mechanical properties :
#
#
# Convention : Reuss Voigt Hill
#
# Bulk Modulus (GPa) = 50.11830 57.13126 53.62478
# Shear Modulus (GPa) = 19.18070 21.07386 20.12728
#
# Velocity S-wave (km/s) = 3.42587 3.59096 3.50939
# Velocity P-wave (km/s) = 6.80558 7.22162 7.01668
#
# Compressibility (1/GPa) = 0.01995279
#
# Stress axis : x y z
#
# Youngs Moduli (GPa) = 58.26472 47.46047 79.58353
#
# Poissons Ratio (x) = 0.17237 0.39939
# Poissons Ratio (y) = 0.21161 0.53897
# Poissons Ratio (z) = 0.29240 0.32142
#
# Static dielectric constant tensor:
#      x y z
#    x 3.199670 0.000000 0.000000 
#    y 0.000000 2.995230 0.000000 
#    z 0.000000 0.000000 3.374770 
# 
# 
# High freq. dielectric constant tensor:
#      x y z
#    x 1.641260 0.000000 0.000000 
#    y 0.000000 1.597870 0.000000 
#    z 0.000000 0.000000 1.629780 
# 
# From -- ./inp_files/17313.got.cif
#   From: 2010.03.12/outbox.cif.g09.slc.cpg/sg38_9_cif.got.tgz:17313.got - 2010.04.14 02:38:36.
