data_PCOD8178556
_publ_section_title
;
Structure prediction by ZEFSAII (Michael W. Deem and Ramdas Pophale) SiO2 
 PCOD8178556
Probable space group: A M M 2
;
_chemical_formula_sum "Si O2"
_cell_formula_units_Z 56
_cell_length_a 16.789802
_cell_length_b 17.633831
_cell_length_c 10.832542
_cell_angle_alpha 90.000000
_cell_angle_beta 90.000000
_cell_angle_gamma 90.000000
_cell_volume 3207.174797
_symmetry_space_group_name_H-M "A M M 2"
_symmetry_group_IT_number 38
_symmetry_cell_setting 'orthorhombic'
loop_
_space_group_symop_operation_xyz
x,y,z
-x,-y,z
-x,y,z
x,-y,z
x,1/2+y,1/2+z
-x,1/2-y,1/2+z
-x,1/2+y,1/2+z
x,1/2-y,1/2+z
loop_
_atom_site_type_symbol
_atom_site_label
_atom_site_fract_x
_atom_site_fract_y
_atom_site_fract_z
Si Si1 0.409502 0.168125 0.902310
Si Si2 0.682461 0.183524 0.453604
Si Si3 0.409897 0.913027 0.645639
Si Si4 0.835699 0.223417 0.986220
Si Si5 0.774725 0.582345 0.777667
Si Si6 0.907188 0.802769 0.252244
Si Si7 0.735419 0.582486 0.498922
O O1 0.500000 0.159787 0.950128
O O2 0.383906 0.255827 0.913191
O O3 0.401226 0.141158 0.762549
O O4 0.353301 0.114750 0.982927
O O5 0.648898 0.120886 0.545371
O O6 0.759579 0.223531 0.512816
O O7 0.709668 0.138142 0.333950
O O8 0.500000 0.910763 0.595282
O O9 0.385599 0.000000 0.676577
O O10 0.884556 0.227824 0.114975
O O11 0.803819 0.139461 0.950942
O O12 0.886482 0.245788 0.865222
O O13 0.779394 0.500000 0.844603
O O14 0.862541 0.618713 0.780184
O O15 0.745062 0.569860 0.641755
O O16 0.000000 0.819607 0.253926
O O17 0.744296 0.500000 0.432414
#
# Coordination Sequence:
#
# PCOD8178556 Si02
#       7
#     8   8   8   8   8   8   8
#     4  10  21  33  50  75 103 136 177 220 262 306
#     4  10  20  33  55  73 103 137 175 214 261 306
#     4  10  21  35  51  74 104 139 178 219 265 315
#     4   9  20  32  54  79 105 134 176 211 255 313
#     4   9  19  35  53  78 102 130 169 210 255 315
#     4  10  19  34  54  79 106 135 166 211 261 311
#     4   9  18  33  53  74 103 134 170 215 259 308
#
# _framework density 17.460850000000001
#
# number of rings (size 3 to 8) (size 9 to 14) (size 15 to 20)
#    0.000    2.429    0.000    1.714   10.000    1.143 
#    0.000    0.714    0.000    3.000    0.000    0.000 
#    0.000    0.000    0.000    0.000    0.000    0.000 
#
# Total GULP energy -347026.109355 kJ/mol
# GULP energy per Si atom -12393.789620 kJ/mol
# Density = 1.742111 g / cm^3
# Si number density = 17.460850 Si / 1000 Ang^3
#
#
#
# Elastic Constant Matrix: (Units=GPa)
#
#
# Indices 1 2 3 4 5 6 
#
# 1 113.3453 44.4567 40.5756 0.0000 0.0000 0.0000
# 2 44.4567 113.2577 37.5636 0.0000 0.0000 0.0000
# 3 40.5756 37.5636 58.6819 0.0000 0.0000 0.0000
# 4 0.0000 0.0000 0.0000 52.8246 0.0000 0.0000
# 5 0.0000 0.0000 0.0000 0.0000 22.9911 0.0000
# 6 0.0000 0.0000 0.0000 0.0000 0.0000 13.2041
#
#
#
# Elastic Compliance Matrix: (Units=1/GPa)
#
#
# Indices 1 2 3 4 5 6 
#
# 1 0.012276 -0.002543 -0.006860 0.000000 0.000000 0.000000
# 2 -0.002543 0.011736 -0.005754 0.000000 0.000000 0.000000
# 3 -0.006860 -0.005754 0.025468 0.000000 0.000000 0.000000
# 4 0.000000 0.000000 0.000000 0.018931 0.000000 0.000000
# 5 0.000000 0.000000 0.000000 0.000000 0.043495 0.000000
# 6 0.000000 0.000000 0.000000 0.000000 0.000000 0.075734
#
#
# Mechanical properties :
#
#
# Convention : Reuss Voigt Hill
#
# Bulk Modulus (GPa) = 52.17880 58.94185 55.56033
# Shear Modulus (GPa) = 22.28733 28.64989 25.46861
#
# Velocity S-wave (km/s) = 3.57657 4.05508 3.82332
# Velocity P-wave (km/s) = 6.85595 7.46691 7.16794
#
# Compressibility (1/GPa) = 0.01916487
#
# Stress axis : x y z
#
# Youngs Moduli (GPa) = 81.45985 85.20676 39.26542
#
# Poissons Ratio (x) = 0.21671 0.26937
# Poissons Ratio (y) = 0.20718 0.22593
# Poissons Ratio (z) = 0.55883 0.49028
#
# Static dielectric constant tensor:
#      x y z
#    x 3.240690 0.000000 0.000000 
#    y 0.000000 3.683580 0.000000 
#    z 0.000000 0.000000 3.198840 
# 
# 
# High freq. dielectric constant tensor:
#      x y z
#    x 1.670420 0.000000 0.000000 
#    y 0.000000 1.686440 0.000000 
#    z 0.000000 0.000000 1.666450 
# 
# From -- ./inp_files/10642.got.cif
#   From: 2010.03.12/outbox.cif.g09.slc.cpg/sg38_6_cif.got.tgz:10642.got - 2010.04.14 02:38:36.
