data_PCOD8178888
_publ_section_title
;
Structure prediction by ZEFSAII (Michael W. Deem and Ramdas Pophale) SiO2 
 PCOD8178888
Probable space group: A M M 2
;
_chemical_formula_sum "Si O2"
_cell_formula_units_Z 64
_cell_length_a 8.852831
_cell_length_b 29.881346
_cell_length_c 14.385372
_cell_angle_alpha 90.000000
_cell_angle_beta 90.000000
_cell_angle_gamma 90.000000
_cell_volume 3805.427278
_symmetry_space_group_name_H-M "A M M 2"
_symmetry_group_IT_number 38
_symmetry_cell_setting 'orthorhombic'
loop_
_space_group_symop_operation_xyz
x,y,z
-x,-y,z
-x,y,z
x,-y,z
x,1/2+y,1/2+z
-x,1/2-y,1/2+z
-x,1/2+y,1/2+z
x,1/2-y,1/2+z
loop_
_atom_site_type_symbol
_atom_site_label
_atom_site_fract_x
_atom_site_fract_y
_atom_site_fract_z
Si Si1 0.323070 0.273625 0.321380
Si Si2 0.171991 0.681925 0.813811
Si Si3 0.675978 0.366237 0.653333
Si Si4 0.821721 0.799744 0.640770
Si Si5 0.676995 0.282457 0.531011
Si Si6 0.673452 0.550555 0.898640
Si Si7 0.172094 0.127677 0.497759
Si Si8 0.176260 0.050627 0.201488
O O1 0.500000 0.281960 0.312308
O O2 0.285131 0.222693 0.296602
O O3 0.239771 0.304632 0.245737
O O4 0.263386 0.284096 0.425057
O O5 0.224694 0.643689 0.744163
O O6 0.189254 0.664283 0.917347
O O7 0.000000 0.696772 0.793074
O O8 0.500000 0.365398 0.677284
O O9 0.714717 0.331412 0.571873
O O10 0.731579 0.416827 0.630461
O O11 0.756960 0.755958 0.589874
O O12 0.774044 0.845844 0.589738
O O13 0.000000 0.794155 0.640799
O O14 0.500000 0.271796 0.533672
O O15 0.500000 0.560201 0.872684
O O16 0.694327 0.500000 0.936100
O O17 0.724969 0.584268 0.980253
O O18 0.773306 0.558554 0.807653
O O19 0.000000 0.111095 0.506377
O O20 0.000000 0.061239 0.194907
O O21 0.212887 0.000000 0.170598
#
# Coordination Sequence:
#
# PCOD8178888 Si02
#       8
#     8   8   8   8   8   8   8   8
#     4  11  22  36  51  71 101 136 173 212 255 297
#     4  11  20  31  48  72 102 136 172 207 246 293
#     4  11  21  33  50  74 100 133 172 209 250 296
#     4  11  22  35  52  74 100 132 173 213 250 298
#     4  10  22  36  51  72 100 134 171 208 250 301
#     4  10  20  32  49  74 101 131 167 206 249 299
#     4  10  21  34  49  72 101 135 172 205 248 300
#     4  10  20  33  49  71 101 135 167 203 250 302
#
# _framework density 16.818085
#
# number of rings (size 3 to 8) (size 9 to 14) (size 15 to 20)
#    0.000    1.500    3.750    2.250    0.000    4.000 
#    0.000    0.000    0.000    0.000    0.000    0.875 
#    0.000    1.000    0.000    0.000    0.000    0.000 
#
# Total GULP energy -396808.540620 kJ/mol
# GULP energy per Si atom -12400.266894 kJ/mol
# Density = 1.677981 g / cm^3
# Si number density = 16.818085 Si / 1000 Ang^3
#
#
#
# Elastic Constant Matrix: (Units=GPa)
#
#
# Indices 1 2 3 4 5 6 
#
# 1 56.9828 35.4586 34.0843 0.0000 0.0000 0.0000
# 2 35.4586 97.0173 32.7947 0.0000 0.0000 0.0000
# 3 34.0843 32.7947 75.0361 0.0000 0.0000 0.0000
# 4 0.0000 0.0000 0.0000 23.1916 0.0000 0.0000
# 5 0.0000 0.0000 0.0000 0.0000 22.1297 0.0000
# 6 0.0000 0.0000 0.0000 0.0000 0.0000 29.8729
#
#
#
# Elastic Compliance Matrix: (Units=1/GPa)
#
#
# Indices 1 2 3 4 5 6 
#
# 1 0.027482 -0.006834 -0.009497 0.000000 0.000000 0.000000
# 2 -0.006834 0.013794 -0.002924 0.000000 0.000000 0.000000
# 3 -0.009497 -0.002924 0.018919 0.000000 0.000000 0.000000
# 4 0.000000 0.000000 0.000000 0.043119 0.000000 0.000000
# 5 0.000000 0.000000 0.000000 0.000000 0.045188 0.000000
# 6 0.000000 0.000000 0.000000 0.000000 0.000000 0.033475
#
#
# Mechanical properties :
#
#
# Convention : Reuss Voigt Hill
#
# Bulk Modulus (GPa) = 46.11574 48.19017 47.15295
# Shear Modulus (GPa) = 21.95721 23.48540 22.72131
#
# Velocity S-wave (km/s) = 3.61719 3.74095 3.67959
# Velocity P-wave (km/s) = 6.70263 6.88299 6.79341
#
# Compressibility (1/GPa) = 0.02168457
#
# Stress axis : x y z
#
# Youngs Moduli (GPa) = 36.38697 72.49656 52.85779
#
# Poissons Ratio (x) = 0.49546 0.50197
# Poissons Ratio (y) = 0.24868 0.15457
# Poissons Ratio (z) = 0.34555 0.21199
#
# Static dielectric constant tensor:
#      x y z
#    x 3.208090 0.000000 0.000000 
#    y 0.000000 3.224240 0.000000 
#    z 0.000000 0.000000 3.125620 
# 
# 
# High freq. dielectric constant tensor:
#      x y z
#    x 1.660730 0.000000 0.000000 
#    y 0.000000 1.643470 0.000000 
#    z 0.000000 0.000000 1.618250 
# 
# From -- ./inp_files/13085.got.cif
#   From: 2010.03.12/outbox.cif.g09.slc.cpg/sg38_7_cif.got.tgz:13085.got - 2010.04.14 02:38:36.
