data_PCOD8178445
_publ_section_title
;
Structure prediction by ZEFSAII (Michael W. Deem and Ramdas Pophale) SiO2 
 PCOD8178445
Probable space group: A M M 2
;
_chemical_formula_sum "Si O2"
_cell_formula_units_Z 40
_cell_length_a 12.980731
_cell_length_b 17.598278
_cell_length_c 10.308702
_cell_angle_alpha 90.000000
_cell_angle_beta 90.000000
_cell_angle_gamma 90.000000
_cell_volume 2354.904554
_symmetry_space_group_name_H-M "A M M 2"
_symmetry_group_IT_number 38
_symmetry_cell_setting 'orthorhombic'
loop_
_space_group_symop_operation_xyz
x,y,z
-x,-y,z
-x,y,z
x,-y,z
x,1/2+y,1/2+z
-x,1/2-y,1/2+z
-x,1/2+y,1/2+z
x,1/2-y,1/2+z
loop_
_atom_site_type_symbol
_atom_site_label
_atom_site_fract_x
_atom_site_fract_y
_atom_site_fract_z
Si Si1 0.885359 0.912908 0.681930
Si Si2 0.618551 0.686455 0.824296
Si Si3 0.682899 0.413688 0.060649
Si Si4 0.619004 0.412868 0.580170
Si Si5 0.711817 0.151663 0.824452
O O1 0.808995 0.907606 0.556205
O O2 0.834105 0.862487 0.797402
O O3 0.000000 0.882725 0.648113
O O4 0.889747 0.000000 0.729789
O O5 0.500000 0.711866 0.811225
O O6 0.655270 0.638047 0.700911
O O7 0.690769 0.759285 0.836969
O O8 0.629804 0.636718 0.952643
O O9 0.645333 0.500000 0.041462
O O10 0.647118 0.383989 0.203453
O O11 0.500000 0.397625 0.548225
O O12 0.639021 0.500000 0.618101
O O13 0.684596 0.391311 0.455597
#
# Coordination Sequence:
#
# PCOD8178445 Si02
#       5
#     8   8   8   8   8
#     4   8  16  34  59  81 100 130 175 227 274 306
#     4  11  22  34  49  74 114 147 167 210 269 312
#     4   9  19  35  56  79 100 137 184 220 252 310
#     4  10  20  33  49  72 105 143 175 206 254 312
#     4  10  19  33  54  78 101 134 176 217 260 310
#
# _framework density 16.985825999999999
#
# number of rings (size 3 to 8) (size 9 to 14) (size 15 to 20)
#    1.200    1.200    0.000    3.600    0.000    4.400 
#    0.000    1.000    0.000    1.200    0.000    2.800 
#    0.000    0.000    0.000    0.000    0.000    0.000 
#
# Total GULP energy -247828.588405 kJ/mol
# GULP energy per Si atom -12391.429420 kJ/mol
# Density = 1.694717 g / cm^3
# Si number density = 16.985826 Si / 1000 Ang^3
#
#
#
# Elastic Constant Matrix: (Units=GPa)
#
#
# Indices 1 2 3 4 5 6 
#
# 1 52.1332 17.0214 8.9458 0.0000 0.0000 0.0000
# 2 17.0214 88.6016 11.3791 0.0000 0.0000 0.0000
# 3 8.9458 11.3791 71.9754 0.0000 0.0000 0.0000
# 4 0.0000 0.0000 0.0000 32.0003 0.0000 0.0000
# 5 0.0000 0.0000 0.0000 0.0000 13.7769 0.0000
# 6 0.0000 0.0000 0.0000 0.0000 0.0000 33.5981
#
#
#
# Elastic Compliance Matrix: (Units=1/GPa)
#
#
# Indices 1 2 3 4 5 6 
#
# 1 0.020740 -0.003729 -0.001988 0.000000 0.000000 0.000000
# 2 -0.003729 0.012191 -0.001464 0.000000 0.000000 0.000000
# 3 -0.001988 -0.001464 0.014372 0.000000 0.000000 0.000000
# 4 0.000000 0.000000 0.000000 0.031250 0.000000 0.000000
# 5 0.000000 0.000000 0.000000 0.000000 0.072585 0.000000
# 6 0.000000 0.000000 0.000000 0.000000 0.000000 0.029764
#
#
# Mechanical properties :
#
#
# Convention : Reuss Voigt Hill
#
# Bulk Modulus (GPa) = 30.35731 31.93365 31.14548
# Shear Modulus (GPa) = 24.24303 27.56598 25.90450
#
# Velocity S-wave (km/s) = 3.78200 4.03287 3.90945
# Velocity P-wave (km/s) = 6.08130 6.36603 6.22530
#
# Compressibility (1/GPa) = 0.03294100
#
# Stress axis : x y z
#
# Youngs Moduli (GPa) = 48.21517 82.02846 69.57886
#
# Poissons Ratio (x) = 0.30589 0.13834
# Poissons Ratio (y) = 0.17980 0.10185
# Poissons Ratio (z) = 0.09586 0.12008
#
# Static dielectric constant tensor:
#      x y z
#    x 3.094710 0.000000 0.000000 
#    y 0.000000 3.195670 0.000000 
#    z 0.000000 0.000000 3.037540 
# 
# 
# High freq. dielectric constant tensor:
#      x y z
#    x 1.627890 0.000000 0.000000 
#    y 0.000000 1.664400 0.000000 
#    z 0.000000 0.000000 1.645490 
# 
# From -- ./inp_files/5351.got.cif
#   From: 2010.03.12/outbox.cif.g09.slc.cpg/sg38_3_cif.got.tgz:5351.got - 2010.04.14 02:38:36.
