data_PCOD8178878
_publ_section_title
;
Structure prediction by ZEFSAII (Michael W. Deem and Ramdas Pophale) SiO2 
 PCOD8178878
Probable space group: A M M 2
;
_chemical_formula_sum "Si O2"
_cell_formula_units_Z 56
_cell_length_a 9.024312
_cell_length_b 23.781955
_cell_length_c 13.661816
_cell_angle_alpha 90.000000
_cell_angle_beta 90.000000
_cell_angle_gamma 90.000000
_cell_volume 2932.041323
_symmetry_space_group_name_H-M "A M M 2"
_symmetry_group_IT_number 38
_symmetry_cell_setting 'orthorhombic'
loop_
_space_group_symop_operation_xyz
x,y,z
-x,-y,z
-x,y,z
x,-y,z
x,1/2+y,1/2+z
-x,1/2-y,1/2+z
-x,1/2+y,1/2+z
x,1/2-y,1/2+z
loop_
_atom_site_type_symbol
_atom_site_label
_atom_site_fract_x
_atom_site_fract_y
_atom_site_fract_z
Si Si1 0.172449 0.065117 0.839930
Si Si2 0.672301 0.834316 0.757005
Si Si3 0.674605 0.435884 0.749050
Si Si4 0.827130 0.741732 0.640725
Si Si5 0.327637 0.758628 0.943774
Si Si6 0.827844 0.833473 0.327717
Si Si7 0.662271 0.066152 0.031566
O O1 0.262301 0.102596 0.762133
O O2 0.219620 0.083438 0.949606
O O3 0.000000 0.077572 0.828690
O O4 0.210754 0.000000 0.819497
O O5 0.500000 0.836726 0.730628
O O6 0.756165 0.801369 0.671079
O O7 0.702622 0.804701 0.860813
O O8 0.500000 0.428895 0.765236
O O9 0.724142 0.500000 0.768468
O O10 0.763197 0.396470 0.824007
O O11 0.717877 0.415794 0.639045
O O12 0.748223 0.718968 0.542870
O O13 0.795972 0.696474 0.724637
O O14 0.000000 0.750590 0.621230
O O15 0.500000 0.748573 0.961918
O O16 0.254669 0.699411 0.914116
O O17 0.000000 0.835585 0.353422
O O18 0.500000 0.093386 0.007195
O O19 0.640222 0.000000 0.034426
#
# Coordination Sequence:
#
# PCOD8178878 Si02
#       7
#     8   8   8   8   8   8   8
#     4  10  20  32  48  73 106 141 175 215 263 313
#     4  10  21  36  55  80 106 139 181 219 258 311
#     4   9  18  32  50  73 104 141 178 217 259 307
#     4  10  21  37  56  79 108 139 172 219 270 315
#     4  10  21  37  57  79 104 138 178 221 263 311
#     4  10  21  35  53  80 109 140 176 216 264 316
#     4   8  15  28  44  65  96 135 175 210 249 300
#
# _framework density 19.099322000000001
#
# number of rings (size 3 to 8) (size 9 to 14) (size 15 to 20)
#    0.000    2.429    0.000    3.000    2.000    5.143 
#    0.000    1.429    0.000    0.857    0.000    0.000 
#    0.000    0.000    0.000    0.000    0.000    0.000 
#
# Total GULP energy -347228.145586 kJ/mol
# GULP energy per Si atom -12401.005199 kJ/mol
# Density = 1.905585 g / cm^3
# Si number density = 19.099322 Si / 1000 Ang^3
#
#
#
# Elastic Constant Matrix: (Units=GPa)
#
#
# Indices 1 2 3 4 5 6 
#
# 1 96.1504 33.4700 23.7240 0.0000 0.0000 0.0000
# 2 33.4700 73.8111 1.7275 0.0000 0.0000 0.0000
# 3 23.7240 1.7275 39.0364 0.0000 0.0000 0.0000
# 4 0.0000 0.0000 0.0000 24.3402 0.0000 0.0000
# 5 0.0000 0.0000 0.0000 0.0000 31.6274 0.0000
# 6 0.0000 0.0000 0.0000 0.0000 0.0000 31.6359
#
#
#
# Elastic Compliance Matrix: (Units=1/GPa)
#
#
# Indices 1 2 3 4 5 6 
#
# 1 0.014820 -0.006516 -0.008718 0.000000 0.000000 0.000000
# 2 -0.006516 0.016427 0.003233 0.000000 0.000000 0.000000
# 3 -0.008718 0.003233 0.030772 0.000000 0.000000 0.000000
# 4 0.000000 0.000000 0.000000 0.041084 0.000000 0.000000
# 5 0.000000 0.000000 0.000000 0.000000 0.031618 0.000000
# 6 0.000000 0.000000 0.000000 0.000000 0.000000 0.031610
#
#
# Mechanical properties :
#
#
# Convention : Reuss Voigt Hill
#
# Bulk Modulus (GPa) = 26.30397 36.31566 31.30981
# Shear Modulus (GPa) = 24.62982 27.52580 26.07781
#
# Velocity S-wave (km/s) = 3.59495 3.80042 3.69911
# Velocity P-wave (km/s) = 5.57078 6.18975 5.88841
#
# Compressibility (1/GPa) = 0.03801708
#
# Stress axis : x y z
#
# Youngs Moduli (GPa) = 67.47769 60.87486 32.49661
#
# Poissons Ratio (x) = 0.39666 0.28331
# Poissons Ratio (y) = 0.43969 -0.10506
# Poissons Ratio (z) = 0.58828 -0.19681
#
# Static dielectric constant tensor:
#      x y z
#    x 3.480110 0.000000 0.000000 
#    y 0.000000 3.433580 0.000000 
#    z 0.000000 0.000000 3.314940 
# 
# 
# High freq. dielectric constant tensor:
#      x y z
#    x 1.750010 0.000000 0.000000 
#    y 0.000000 1.739720 0.000000 
#    z 0.000000 0.000000 1.710990 
# 
# From -- ./inp_files/12362.got.cif
#   From: 2010.03.12/outbox.cif.g09.slc.cpg/sg38_7_cif.got.tgz:12362.got - 2010.04.14 02:38:36.
