data_PCOD8178932
_publ_section_title
;
Structure prediction by ZEFSAII (Michael W. Deem and Ramdas Pophale) SiO2 
 PCOD8178932
Probable space group: A M M 2
;
_chemical_formula_sum "Si O2"
_cell_formula_units_Z 40
_cell_length_a 7.798920
_cell_length_b 7.621146
_cell_length_c 32.825759
_cell_angle_alpha 90.000000
_cell_angle_beta 90.000000
_cell_angle_gamma 90.000000
_cell_volume 1951.055051
_symmetry_space_group_name_H-M "A M M 2"
_symmetry_group_IT_number 38
_symmetry_cell_setting 'orthorhombic'
loop_
_space_group_symop_operation_xyz
x,y,z
-x,-y,z
-x,y,z
x,-y,z
x,1/2+y,1/2+z
-x,1/2-y,1/2+z
-x,1/2+y,1/2+z
x,1/2-y,1/2+z
loop_
_atom_site_type_symbol
_atom_site_label
_atom_site_fract_x
_atom_site_fract_y
_atom_site_fract_z
Si Si1 0.204477 0.500000 0.857141
Si Si2 0.694910 0.798207 0.797659
Si Si3 0.310032 0.291564 0.596450
Si Si4 0.000000 0.698948 0.647389
Si Si5 0.701612 0.692829 0.506367
Si Si6 0.000000 0.295765 0.238709
Si Si7 0.196964 0.500000 0.947685
O O1 0.277604 0.324283 0.836538
O O2 0.281741 0.500000 0.902907
O O3 0.000000 0.500000 0.854412
O O4 0.500000 0.776519 0.781220
O O5 0.828515 0.738922 0.762785
O O6 0.730742 0.000000 0.810566
O O7 0.500000 0.211347 0.605273
O O8 0.324375 0.500000 0.599329
O O9 0.242970 0.239208 0.551200
O O10 0.173176 0.213021 0.628952
O O11 0.000000 0.500000 0.631828
O O12 0.000000 0.699230 0.695854
O O13 0.500000 0.675805 0.506560
O O14 0.782040 0.500000 0.497243
O O15 0.756753 0.825785 0.471770
O O16 0.000000 0.500000 0.229578
O O17 0.000000 0.500000 0.938661
#
# Coordination Sequence:
#
# PCOD8178932 Si02
#       7
#     4   8   8   4   8   4   4
#     4  11  23  41  63  88 127 161 200 251 305 364
#     4  10  22  41  66  90 116 159 203 244 302 365
#     4   8  16  33  54  79 112 152 200 243 290 350
#     4  10  20  32  56  84 111 151 190 242 301 351
#     4   9  19  38  61  81 114 164 205 248 297 344
#     4  10  22  40  58  84 121 153 190 247 302 364
#     4  11  25  37  55  95 126 156 200 249 297 361
#
# _framework density 20.501726999999999
#
# number of rings (size 3 to 8) (size 9 to 14) (size 15 to 20)
#    0.000    2.400    1.000    1.800    2.800    3.600 
#    1.800    4.000    0.000    0.000    0.000    0.000 
#    0.000    0.000    0.000    0.000    0.000    0.000 
#
# Total GULP energy -247900.179417 kJ/mol
# GULP energy per Si atom -12395.008971 kJ/mol
# Density = 2.045506 g / cm^3
# Si number density = 20.501727 Si / 1000 Ang^3
#
#
#
# Elastic Constant Matrix: (Units=GPa)
#
#
# Indices 1 2 3 4 5 6 
#
# 1 123.5006 32.4345 74.2689 0.0000 0.0000 0.0000
# 2 32.4345 80.9452 56.5191 0.0000 0.0000 0.0000
# 3 74.2689 56.5191 172.4092 0.0000 0.0000 0.0000
# 4 0.0000 0.0000 0.0000 -19.7892 0.0000 0.0000
# 5 0.0000 0.0000 0.0000 0.0000 17.6849 0.0000
# 6 0.0000 0.0000 0.0000 0.0000 0.0000 18.6742
#
#
#
# Elastic Compliance Matrix: (Units=1/GPa)
#
#
# Indices 1 2 3 4 5 6 
#
# 1 0.011055 -0.001432 -0.004292 0.000000 0.000000 0.000000
# 2 -0.001432 0.016207 -0.004696 0.000000 0.000000 0.000000
# 3 -0.004292 -0.004696 0.009189 0.000000 0.000000 0.000000
# 4 0.000000 0.000000 0.000000 -0.050533 0.000000 0.000000
# 5 0.000000 0.000000 0.000000 0.000000 0.056545 0.000000
# 6 0.000000 0.000000 0.000000 0.000000 0.000000 0.053550
#
#
# Mechanical properties :
#
#
# Convention : Reuss Voigt Hill
#
# Bulk Modulus (GPa) = 64.06714 78.14445 71.10580
# Shear Modulus (GPa) = 40.96446 17.55615 29.26031
#
# Velocity S-wave (km/s) = 4.47486 2.92948 3.78194
# Velocity P-wave (km/s) = 7.61686 7.04565 7.33682
#
# Compressibility (1/GPa) = 0.01560863
#
# Stress axis : x y z
#
# Youngs Moduli (GPa) = 90.45976 61.70236 108.83034
#
# Poissons Ratio (x) = 0.08838 0.46715
# Poissons Ratio (y) = 0.12958 0.51105
# Poissons Ratio (z) = 0.38829 0.28975
#
# Static dielectric constant tensor:
#      x y z
#    x 4.059890 0.000000 0.000000 
#    y 0.000000 3.499350 0.000000 
#    z 0.000000 0.000000 4.048380 
# 
# 
# High freq. dielectric constant tensor:
#      x y z
#    x 1.811660 0.000000 0.000000 
#    y 0.000000 1.792200 0.000000 
#    z 0.000000 0.000000 1.788770 
# 
# From -- ./inp_files/23303.got.cif
#   From: 2010.03.12/outbox.cif.g09.slc.cpg/sg38_12_cif.got.tgz:23303.got - 2010.04.14 02:38:36.
