data_PCOD8178918
_publ_section_title
;
Structure prediction by ZEFSAII (Michael W. Deem and Ramdas Pophale) SiO2 
 PCOD8178918
Probable space group: A M M 2
;
_chemical_formula_sum "Si O2"
_cell_formula_units_Z 40
_cell_length_a 9.534484
_cell_length_b 7.693755
_cell_length_c 29.612783
_cell_angle_alpha 90.000000
_cell_angle_beta 90.000000
_cell_angle_gamma 90.000000
_cell_volume 2172.274834
_symmetry_space_group_name_H-M "A M M 2"
_symmetry_group_IT_number 38
_symmetry_cell_setting 'orthorhombic'
loop_
_space_group_symop_operation_xyz
x,y,z
-x,-y,z
-x,y,z
x,-y,z
x,1/2+y,1/2+z
-x,1/2-y,1/2+z
-x,1/2+y,1/2+z
x,1/2-y,1/2+z
loop_
_atom_site_type_symbol
_atom_site_label
_atom_site_fract_x
_atom_site_fract_y
_atom_site_fract_z
Si Si1 0.162098 0.299487 0.699200
Si Si2 0.162200 0.000000 0.629919
Si Si3 0.343464 0.298421 0.782062
Si Si4 0.333251 0.500000 0.039015
Si Si5 0.654187 0.295740 0.377046
Si Si6 0.332547 0.805235 0.974293
O O1 0.200209 0.500000 0.686794
O O2 0.248146 0.223888 0.741868
O O3 0.000000 0.283556 0.712490
O O4 0.198215 0.175403 0.657271
O O5 0.260885 0.000000 0.586928
O O6 0.000000 0.000000 0.615086
O O7 0.500000 0.213064 0.780311
O O8 0.355754 0.500000 0.773563
O O9 0.268079 0.262768 0.830824
O O10 0.500000 0.500000 0.045437
O O11 0.281481 0.671157 0.012194
O O12 0.500000 0.208158 0.374551
O O13 0.640175 0.500000 0.377956
O O14 0.726926 0.242629 0.424842
O O15 0.500000 0.806062 0.970480
O O16 0.278885 0.000000 0.986667
#
# Coordination Sequence:
#
# PCOD8178918 Si02
#       6
#     8   4   8   4   8   8
#     4   9  19  36  53  68  93 129 164 196 238 294
#     4  10  22  38  54  72  94 126 166 204 247 296
#     4   9  17  27  44  73 101 125 158 199 239 276
#     4  10  20  32  52  78  96 122 164 206 247 284
#     4   8  14  24  40  66  99 132 159 187 231 284
#     4   8  15  28  45  69 102 131 157 193 237 287
#
# _framework density 18.413875000000001
#
# number of rings (size 3 to 8) (size 9 to 14) (size 15 to 20)
#    0.000    3.200    0.000    1.200    2.800    1.600 
#    0.000    0.000    0.000    1.200    0.000    2.800 
#    0.000    0.000    0.000    0.000    0.000    0.000 
#
# Total GULP energy -247763.804151 kJ/mol
# GULP energy per Si atom -12388.190208 kJ/mol
# Density = 1.837196 g / cm^3
# Si number density = 18.413875 Si / 1000 Ang^3
#
#
#
# Elastic Constant Matrix: (Units=GPa)
#
#
# Indices 1 2 3 4 5 6 
#
# 1 37.2634 26.1196 55.3672 0.0000 0.0000 0.0000
# 2 26.1196 87.2680 70.7761 0.0000 0.0000 0.0000
# 3 55.3672 70.7761 180.7212 0.0000 0.0000 0.0000
# 4 0.0000 0.0000 0.0000 31.6571 0.0000 0.0000
# 5 0.0000 0.0000 0.0000 0.0000 1.6702 0.0000
# 6 0.0000 0.0000 0.0000 0.0000 0.0000 11.6434
#
#
#
# Elastic Compliance Matrix: (Units=1/GPa)
#
#
# Indices 1 2 3 4 5 6 
#
# 1 0.050075 -0.003730 -0.013880 0.000000 0.000000 0.000000
# 2 -0.003730 0.017071 -0.005543 0.000000 0.000000 0.000000
# 3 -0.013880 -0.005543 0.011957 0.000000 0.000000 0.000000
# 4 0.000000 0.000000 0.000000 0.031588 0.000000 0.000000
# 5 0.000000 0.000000 0.000000 0.000000 0.598729 0.000000
# 6 0.000000 0.000000 0.000000 0.000000 0.000000 0.085885
#
#
# Mechanical properties :
#
#
# Convention : Reuss Voigt Hill
#
# Bulk Modulus (GPa) = 30.49214 67.75319 49.12266
# Shear Modulus (GPa) = 5.86481 19.19346 12.52913
#
# Velocity S-wave (km/s) = 1.78659 3.23203 2.61131
# Velocity P-wave (km/s) = 4.56631 7.12759 5.98555
#
# Compressibility (1/GPa) = 0.03279533
#
# Stress axis : x y z
#
# Youngs Moduli (GPa) = 19.97022 58.58051 83.63634
#
# Poissons Ratio (x) = 0.21852 1.16090
# Poissons Ratio (y) = 0.07449 0.46356
# Poissons Ratio (z) = 0.27719 0.32468
#
# Static dielectric constant tensor:
#      x y z
#    x 3.201310 0.000000 0.000000 
#    y 0.000000 3.518390 0.000000 
#    z 0.000000 0.000000 3.598400 
# 
# 
# High freq. dielectric constant tensor:
#      x y z
#    x 1.649850 0.000000 0.000000 
#    y 0.000000 1.719270 0.000000 
#    z 0.000000 0.000000 1.722700 
# 
# From -- ./inp_files/23196.got.cif
#   From: 2010.03.12/outbox.cif.g09.slc.cpg/sg38_12_cif.got.tgz:23196.got - 2010.04.14 02:38:36.
