data_PCOD8178645
_publ_section_title
;
Structure prediction by ZEFSAII (Michael W. Deem and Ramdas Pophale) SiO2 
 PCOD8178645
Probable space group: A M M 2
;
_chemical_formula_sum "Si O2"
_cell_formula_units_Z 64
_cell_length_a 9.294921
_cell_length_b 23.471608
_cell_length_c 15.152609
_cell_angle_alpha 90.000000
_cell_angle_beta 90.000000
_cell_angle_gamma 90.000000
_cell_volume 3305.795340
_symmetry_space_group_name_H-M "A M M 2"
_symmetry_group_IT_number 38
_symmetry_cell_setting 'orthorhombic'
loop_
_space_group_symop_operation_xyz
x,y,z
-x,-y,z
-x,y,z
x,-y,z
x,1/2+y,1/2+z
-x,1/2-y,1/2+z
-x,1/2+y,1/2+z
x,1/2-y,1/2+z
loop_
_atom_site_type_symbol
_atom_site_label
_atom_site_fract_x
_atom_site_fract_y
_atom_site_fract_z
Si Si1 0.335478 0.065922 0.548090
Si Si2 0.832066 0.135225 0.404337
Si Si3 0.665713 0.245585 0.653946
Si Si4 0.666706 0.873679 0.728537
Si Si5 0.665219 0.566285 0.560065
Si Si6 0.165175 0.243045 0.975343
Si Si7 0.168864 0.878720 0.902205
Si Si8 0.665710 0.365637 0.731848
O O1 0.500000 0.079792 0.521819
O O2 0.230005 0.101808 0.487373
O O3 0.308323 0.082261 0.649411
O O4 0.299506 0.000000 0.535528
O O5 0.798905 0.202075 0.416290
O O6 0.758120 0.113431 0.314861
O O7 0.000000 0.122250 0.397786
O O8 0.500000 0.236920 0.629093
O O9 0.724860 0.188649 0.700135
O O10 0.744083 0.257773 0.563386
O O11 0.689658 0.298320 0.719285
O O12 0.500000 0.870756 0.756871
O O13 0.759530 0.896552 0.810052
O O14 0.500000 0.582520 0.538290
O O15 0.681693 0.500000 0.581139
O O16 0.764529 0.582344 0.478224
O O17 0.719471 0.600794 0.645539
O O18 0.204208 0.187565 0.918639
O O19 0.000000 0.242774 0.004817
O O20 0.000000 0.890955 0.897869
O O21 0.500000 0.380276 0.751153
#
# Coordination Sequence:
#
# PCOD8178645 Si02
#       8
#     8   8   8   8   8   8   8   8
#     4  10  22  41  63  85 113 152 198 247 293 338
#     4  11  23  38  59  88 121 157 192 234 289 351
#     4  10  19  34  60  89 115 149 195 241 287 340
#     4  10  21  37  59  88 118 151 193 241 290 344
#     4  10  22  41  63  85 113 152 198 247 293 338
#     4  10  21  36  56  85 121 157 189 229 291 352
#     4  11  23  38  59  88 121 157 192 234 289 351
#     4  10  21  37  59  88 118 151 193 241 290 344
#
# _framework density 19.359939000000001
#
# number of rings (size 3 to 8) (size 9 to 14) (size 15 to 20)
#    0.000    1.750    2.500    1.500    0.000    4.500 
#    0.000    2.500    0.000    0.000    0.000    0.000 
#    0.000    0.000    0.000    0.000    0.000    0.000 
#
# Total GULP energy -396967.604106 kJ/mol
# GULP energy per Si atom -12405.237628 kJ/mol
# Density = 1.931588 g / cm^3
# Si number density = 19.359939 Si / 1000 Ang^3
#
#
#
# Elastic Constant Matrix: (Units=GPa)
#
#
# Indices 1 2 3 4 5 6 
#
# 1 77.4702 20.3225 54.4590 0.0000 0.0000 0.0000
# 2 20.3225 61.0329 5.8702 0.0000 0.0000 0.0000
# 3 54.4590 5.8702 102.5585 0.0000 0.0000 0.0000
# 4 0.0000 0.0000 0.0000 10.1781 0.0000 0.0000
# 5 0.0000 0.0000 0.0000 0.0000 -20.1656 0.0000
# 6 0.0000 0.0000 0.0000 0.0000 0.0000 22.1478
#
#
#
# Elastic Compliance Matrix: (Units=1/GPa)
#
#
# Indices 1 2 3 4 5 6 
#
# 1 0.022896 -0.006490 -0.011787 0.000000 0.000000 0.000000
# 2 -0.006490 0.018315 0.002398 0.000000 0.000000 0.000000
# 3 -0.011787 0.002398 0.015872 0.000000 0.000000 0.000000
# 4 0.000000 0.000000 0.000000 0.098250 0.000000 0.000000
# 5 0.000000 0.000000 0.000000 0.000000 -0.049589 0.000000
# 6 0.000000 0.000000 0.000000 0.000000 0.000000 0.045151
#
#
# Mechanical properties :
#
#
# Convention : Reuss Voigt Hill
#
# Bulk Modulus (GPa) = 39.48538 44.70720 42.09629
# Shear Modulus (GPa) = 26.16498 13.12605 19.64551
#
# Velocity S-wave (km/s) = 3.68027 2.60667 3.18897
# Velocity P-wave (km/s) = 6.20474 5.67472 5.94564
#
# Compressibility (1/GPa) = 0.02532583
#
# Stress axis : x y z
#
# Youngs Moduli (GPa) = 43.67512 54.59980 63.00412
#
# Poissons Ratio (x) = 0.35437 0.74260
# Poissons Ratio (y) = 0.28346 -0.15109
# Poissons Ratio (z) = 0.51478 -0.13093
#
# Static dielectric constant tensor:
#      x y z
#    x 3.614100 0.000000 0.000000 
#    y 0.000000 3.607930 0.000000 
#    z 0.000000 0.000000 3.426230 
# 
# 
# High freq. dielectric constant tensor:
#      x y z
#    x 1.748830 0.000000 0.000000 
#    y 0.000000 1.754890 0.000000 
#    z 0.000000 0.000000 1.757750 
# 
# From -- ./inp_files/12756.got.cif
#   From: 2010.03.12/outbox.cif.g09.slc.cpg/sg38_7_cif.got.tgz:12756.got - 2010.04.14 02:38:36.
