data_PCOD8178604
_publ_section_title
;
Structure prediction by ZEFSAII (Michael W. Deem and Ramdas Pophale) SiO2 
 PCOD8178604
Probable space group: A M M 2
;
_chemical_formula_sum "Si O2"
_cell_formula_units_Z 64
_cell_length_a 8.948337
_cell_length_b 24.511325
_cell_length_c 15.180196
_cell_angle_alpha 90.000000
_cell_angle_beta 90.000000
_cell_angle_gamma 90.000000
_cell_volume 3329.557343
_symmetry_space_group_name_H-M "A M M 2"
_symmetry_group_IT_number 38
_symmetry_cell_setting 'orthorhombic'
loop_
_space_group_symop_operation_xyz
x,y,z
-x,-y,z
-x,y,z
x,-y,z
x,1/2+y,1/2+z
-x,1/2-y,1/2+z
-x,1/2+y,1/2+z
x,1/2-y,1/2+z
loop_
_atom_site_type_symbol
_atom_site_label
_atom_site_fract_x
_atom_site_fract_y
_atom_site_fract_z
Si Si1 0.326016 0.639992 0.385030
Si Si2 0.170910 0.562867 0.247497
Si Si3 0.827260 0.715874 0.038226
Si Si4 0.327023 0.860343 0.241187
Si Si5 0.329983 0.263164 0.862660
Si Si6 0.676920 0.890131 0.581006
Si Si7 0.825844 0.339592 0.566053
Si Si8 0.677559 0.561358 0.896448
O O1 0.500000 0.625331 0.386103
O O2 0.239868 0.596773 0.326852
O O3 0.297185 0.699809 0.343121
O O4 0.264391 0.636489 0.483897
O O5 0.184249 0.500000 0.274155
O O6 0.259435 0.572072 0.157456
O O7 0.000000 0.580755 0.233873
O O8 0.779919 0.713704 0.936430
O O9 0.000000 0.700777 0.045364
O O10 0.734075 0.671740 0.093833
O O11 0.792484 0.775400 0.077231
O O12 0.500000 0.871638 0.219298
O O13 0.304089 0.798275 0.274751
O O14 0.230498 0.869777 0.153702
O O15 0.266091 0.902356 0.314717
O O16 0.500000 0.271046 0.897270
O O17 0.500000 0.890841 0.587563
O O18 0.736753 0.913436 0.487968
O O19 0.000000 0.351154 0.551010
O O20 0.500000 0.561734 0.898882
O O21 0.739765 0.500000 0.885545
#
# Coordination Sequence:
#
# PCOD8178604 Si02
#       8
#     8   8   8   8   8   8   8   8
#     4  10  21  39  63  88 113 149 197 247 295 350
#     4  11  25  43  61  85 119 154 192 243 298 354
#     4  10  20  34  53  82 118 155 192 233 288 351
#     4  10  19  34  56  84 117 152 194 244 291 342
#     4   9  18  34  55  84 115 148 191 239 291 343
#     4  11  21  36  59  86 118 156 196 240 285 345
#     4  10  22  38  56  83 119 158 195 240 296 354
#     4   9  18  34  57  84 114 149 190 236 284 333
#
# _framework density 19.221775000000001
#
# number of rings (size 3 to 8) (size 9 to 14) (size 15 to 20)
#    0.000    2.000    1.250    2.250    1.750    4.000 
#    0.000    0.625    0.000    4.125    0.000    0.000 
#    0.000    0.000    0.000    0.000    0.000    0.000 
#
# Total GULP energy -396897.384317 kJ/mol
# GULP energy per Si atom -12403.043260 kJ/mol
# Density = 1.917803 g / cm^3
# Si number density = 19.221775 Si / 1000 Ang^3
#
#
#
# Elastic Constant Matrix: (Units=GPa)
#
#
# Indices 1 2 3 4 5 6 
#
# 1 83.8418 45.8109 44.5425 0.0000 0.0000 0.0000
# 2 45.8109 100.6233 59.3438 0.0000 0.0000 0.0000
# 3 44.5425 59.3438 117.4870 0.0000 0.0000 0.0000
# 4 0.0000 0.0000 0.0000 28.4538 0.0000 0.0000
# 5 0.0000 0.0000 0.0000 0.0000 27.3250 0.0000
# 6 0.0000 0.0000 0.0000 0.0000 0.0000 24.2204
#
#
#
# Elastic Compliance Matrix: (Units=1/GPa)
#
#
# Indices 1 2 3 4 5 6 
#
# 1 0.016874 -0.005568 -0.003585 0.000000 0.000000 0.000000
# 2 -0.005568 0.015992 -0.005967 0.000000 0.000000 0.000000
# 3 -0.003585 -0.005967 0.012885 0.000000 0.000000 0.000000
# 4 0.000000 0.000000 0.000000 0.035145 0.000000 0.000000
# 5 0.000000 0.000000 0.000000 0.000000 0.036597 0.000000
# 6 0.000000 0.000000 0.000000 0.000000 0.000000 0.041287
#
#
# Mechanical properties :
#
#
# Convention : Reuss Voigt Hill
#
# Bulk Modulus (GPa) = 64.46923 66.81626 65.64274
# Shear Modulus (GPa) = 25.74808 26.15018 25.94913
#
# Velocity S-wave (km/s) = 3.66393 3.69242 3.67820
# Velocity P-wave (km/s) = 7.17716 7.28113 7.22933
#
# Compressibility (1/GPa) = 0.01551128
#
# Stress axis : x y z
#
# Youngs Moduli (GPa) = 59.26214 62.53142 77.61219
#
# Poissons Ratio (x) = 0.34818 0.27824
# Poissons Ratio (y) = 0.32997 0.46309
# Poissons Ratio (z) = 0.21245 0.37311
#
# Static dielectric constant tensor:
#      x y z
#    x 3.438270 0.000000 0.000000 
#    y 0.000000 3.573290 0.000000 
#    z 0.000000 0.000000 3.395980 
# 
# 
# High freq. dielectric constant tensor:
#      x y z
#    x 1.741910 0.000000 0.000000 
#    y 0.000000 1.742560 0.000000 
#    z 0.000000 0.000000 1.744090 
# 
# From -- ./inp_files/12818.got.cif
#   From: 2010.03.12/outbox.cif.g09.slc.cpg/sg38_7_cif.got.tgz:12818.got - 2010.04.14 02:38:36.
