data_PCOD8178748
_publ_section_title
;
Structure prediction by ZEFSAII (Michael W. Deem and Ramdas Pophale) SiO2 
 PCOD8178748
Probable space group: A M M 2
;
_chemical_formula_sum "Si O2"
_cell_formula_units_Z 48
_cell_length_a 8.816023
_cell_length_b 14.469825
_cell_length_c 20.279446
_cell_angle_alpha 90.000000
_cell_angle_beta 90.000000
_cell_angle_gamma 90.000000
_cell_volume 2586.974095
_symmetry_space_group_name_H-M "A M M 2"
_symmetry_group_IT_number 38
_symmetry_cell_setting 'orthorhombic'
loop_
_space_group_symop_operation_xyz
x,y,z
-x,-y,z
-x,y,z
x,-y,z
x,1/2+y,1/2+z
-x,1/2-y,1/2+z
-x,1/2+y,1/2+z
x,1/2-y,1/2+z
loop_
_atom_site_type_symbol
_atom_site_label
_atom_site_fract_x
_atom_site_fract_y
_atom_site_fract_z
Si Si1 0.820067 0.000000 0.483431
Si Si2 0.176992 0.301828 0.416097
Si Si3 0.820081 0.500000 0.834014
Si Si4 0.179038 0.500000 0.374177
Si Si5 0.321986 0.815029 0.679313
Si Si6 0.678446 0.812476 0.300326
Si Si7 0.820302 0.500000 0.226240
Si Si8 0.823033 0.808752 0.545393
O O1 0.756147 0.000000 0.408894
O O2 0.762518 0.091250 0.521093
O O3 0.000000 0.000000 0.479105
O O4 0.233232 0.408169 0.412371
O O5 0.271872 0.241337 0.365454
O O6 0.208592 0.267151 0.489518
O O7 0.000000 0.291372 0.397429
O O8 0.760297 0.410689 0.795676
O O9 0.000000 0.500000 0.833093
O O10 0.247207 0.500000 0.300349
O O11 0.000000 0.500000 0.368945
O O12 0.500000 0.832389 0.681629
O O13 0.270619 0.744365 0.735968
O O14 0.271434 0.775075 0.608625
O O15 0.236504 0.911187 0.687679
O O16 0.500000 0.828223 0.302300
O O17 0.000000 0.500000 0.225978
O O18 0.000000 0.814093 0.563208
#
# Coordination Sequence:
#
# PCOD8178748 Si02
#       8
#     4   8   4   4   8   8   4   8
#     4   9  17  32  55  85 113 139 177 238 293 331
#     4  10  19  36  60  86 115 149 192 242 287 334
#     4  11  21  38  63  88 114 145 191 241 286 337
#     4   9  18  32  57  90 116 142 184 241 290 331
#     4  11  24  39  55  82 123 159 190 231 285 346
#     4  11  23  38  57  84 118 153 190 235 284 340
#     4  11  20  34  61  89 115 148 192 240 287 339
#     4  10  20  35  57  83 115 151 192 239 287 340
#
# _framework density 18.554494999999999
#
# number of rings (size 3 to 8) (size 9 to 14) (size 15 to 20)
#    0.000    1.667    3.333    2.000    0.000    3.333 
#    0.000    1.250    0.000    1.000    0.000    0.000 
#    0.000    0.000    0.000    0.000    0.000    0.000 
#
# Total GULP energy -297686.053146 kJ/mol
# GULP energy per Si atom -12403.585548 kJ/mol
# Density = 1.851226 g / cm^3
# Si number density = 18.554495 Si / 1000 Ang^3
#
#
#
# Elastic Constant Matrix: (Units=GPa)
#
#
# Indices 1 2 3 4 5 6 
#
# 1 54.2592 32.8036 35.9522 0.0000 0.0000 0.0000
# 2 32.8036 130.5576 49.5848 0.0000 0.0000 0.0000
# 3 35.9522 49.5848 116.5429 0.0000 0.0000 0.0000
# 4 0.0000 0.0000 0.0000 31.1632 0.0000 0.0000
# 5 0.0000 0.0000 0.0000 0.0000 28.2428 0.0000
# 6 0.0000 0.0000 0.0000 0.0000 0.0000 22.0593
#
#
#
# Elastic Compliance Matrix: (Units=1/GPa)
#
#
# Indices 1 2 3 4 5 6 
#
# 1 0.024772 -0.003962 -0.005956 0.000000 0.000000 0.000000
# 2 -0.003962 0.009769 -0.002934 0.000000 0.000000 0.000000
# 3 -0.005956 -0.002934 0.011666 0.000000 0.000000 0.000000
# 4 0.000000 0.000000 0.000000 0.032089 0.000000 0.000000
# 5 0.000000 0.000000 0.000000 0.000000 0.035407 0.000000
# 6 0.000000 0.000000 0.000000 0.000000 0.000000 0.045332
#
#
# Mechanical properties :
#
#
# Convention : Reuss Voigt Hill
#
# Bulk Modulus (GPa) = 48.77394 59.78230 54.27812
# Shear Modulus (GPa) = 26.09935 28.49433 27.29684
#
# Velocity S-wave (km/s) = 3.75458 3.92307 3.83975
# Velocity P-wave (km/s) = 6.71861 7.26708 6.99822
#
# Compressibility (1/GPa) = 0.02050275
#
# Stress axis : x y z
#
# Youngs Moduli (GPa) = 40.36820 102.36082 85.71657
#
# Poissons Ratio (x) = 0.40556 0.51054
# Poissons Ratio (y) = 0.15994 0.25151
# Poissons Ratio (z) = 0.24044 0.30035
#
# Static dielectric constant tensor:
#      x y z
#    x 3.237980 0.000000 0.000000 
#    y 0.000000 3.670440 0.000000 
#    z 0.000000 0.000000 3.477540 
# 
# 
# High freq. dielectric constant tensor:
#      x y z
#    x 1.705160 0.000000 0.000000 
#    y 0.000000 1.723820 0.000000 
#    z 0.000000 0.000000 1.720940 
# 
# From -- ./inp_files/16724.got.cif
#   From: 2010.03.12/outbox.cif.g09.slc.cpg/sg38_9_cif.got.tgz:16724.got - 2010.04.14 02:38:36.
