data_PCOD8178990
_publ_section_title
;
Structure prediction by ZEFSAII (Michael W. Deem and Ramdas Pophale) SiO2 
 PCOD8178990
Probable space group: A M M 2
;
_chemical_formula_sum "Si O2"
_cell_formula_units_Z 64
_cell_length_a 8.999145
_cell_length_b 9.547503
_cell_length_c 41.294047
_cell_angle_alpha 90.000000
_cell_angle_beta 90.000000
_cell_angle_gamma 90.000000
_cell_volume 3547.958250
_symmetry_space_group_name_H-M "A M M 2"
_symmetry_group_IT_number 38
_symmetry_cell_setting 'orthorhombic'
loop_
_space_group_symop_operation_xyz
x,y,z
-x,-y,z
-x,y,z
x,-y,z
x,1/2+y,1/2+z
-x,1/2-y,1/2+z
-x,1/2+y,1/2+z
x,1/2-y,1/2+z
loop_
_atom_site_type_symbol
_atom_site_label
_atom_site_fract_x
_atom_site_fract_y
_atom_site_fract_z
Si Si1 0.673726 0.661695 0.517860
Si Si2 0.326047 0.163698 0.888729
Si Si3 0.174039 0.336416 0.832359
Si Si4 0.176395 0.845260 0.644464
Si Si5 0.829222 0.664747 0.072115
Si Si6 0.167292 0.333682 0.453501
Si Si7 0.667454 0.666414 0.767497
Si Si8 0.825809 0.662120 0.703375
O O1 0.500000 0.680277 0.512011
O O2 0.715830 0.500000 0.523976
O O3 0.722951 0.750361 0.548596
O O4 0.756136 0.722377 0.486159
O O5 0.500000 0.194541 0.888920
O O6 0.250184 0.249705 0.860459
O O7 0.258891 0.219358 0.922498
O O8 0.291686 0.000000 0.883571
O O9 0.208962 0.500000 0.837583
O O10 0.240465 0.281307 0.798476
O O11 0.000000 0.306035 0.832263
O O12 0.222605 0.795307 0.608531
O O13 0.237969 0.740200 0.671686
O O14 0.000000 0.851085 0.645774
O O15 0.241258 0.000000 0.651428
O O16 0.809404 0.500000 0.066176
O O17 0.000000 0.708998 0.066172
O O18 0.168082 0.500000 0.454037
O O19 0.000000 0.274262 0.451555
O O20 0.500000 0.724681 0.769814
O O21 0.669561 0.500000 0.766419
O O22 0.743894 0.724363 0.734905
O O23 0.788969 0.500000 0.698328
O O24 0.000000 0.687932 0.708276
#
# Coordination Sequence:
#
# PCOD8178990 Si02
#       8
#     8   8   8   8   8   8   8   8
#     4  10  20  33  50  74 102 130 163 204 248 294
#     4  10  20  34  53  77 105 135 165 200 245 296
#     4  10  20  34  53  76 101 131 169 210 248 289
#     4   8  15  29  48  69  94 124 157 194 239 290
#     4   9  18  33  52  73  98 130 167 205 246 294
#     4   9  17  31  52  75  99 130 166 203 245 292
#     4   9  17  30  48  69  95 128 162 198 245 296
#     4   9  16  27  46  71  94 118 155 200 240 283
#
# _framework density 18.038544999999999
#
# number of rings (size 3 to 8) (size 9 to 14) (size 15 to 20)
#    0.000    2.750    0.000    2.625    0.000    6.000 
#    0.000    3.125    0.000    8.625    0.000    0.000 
#    0.000    0.000    0.000    0.000    0.000    0.000 
#
# Total GULP energy -396779.026557 kJ/mol
# GULP energy per Si atom -12399.344580 kJ/mol
# Density = 1.799749 g / cm^3
# Si number density = 18.038545 Si / 1000 Ang^3
#
#
#
# Elastic Constant Matrix: (Units=GPa)
#
#
# Indices 1 2 3 4 5 6 
#
# 1 99.0898 38.3359 72.9477 0.0000 0.0000 0.0000
# 2 38.3359 45.3715 60.0534 0.0000 0.0000 0.0000
# 3 72.9477 60.0534 185.2271 0.0000 0.0000 0.0000
# 4 0.0000 0.0000 0.0000 31.0984 0.0000 0.0000
# 5 0.0000 0.0000 0.0000 0.0000 14.4949 0.0000
# 6 0.0000 0.0000 0.0000 0.0000 0.0000 21.3622
#
#
#
# Elastic Compliance Matrix: (Units=1/GPa)
#
#
# Indices 1 2 3 4 5 6 
#
# 1 0.016120 -0.009140 -0.003385 0.000000 0.000000 0.000000
# 2 -0.009140 0.043790 -0.010598 0.000000 0.000000 0.000000
# 3 -0.003385 -0.010598 0.010168 0.000000 0.000000 0.000000
# 4 0.000000 0.000000 0.000000 0.032156 0.000000 0.000000
# 5 0.000000 0.000000 0.000000 0.000000 0.068990 0.000000
# 6 0.000000 0.000000 0.000000 0.000000 0.000000 0.046812
#
#
# Mechanical properties :
#
#
# Convention : Reuss Voigt Hill
#
# Bulk Modulus (GPa) = 41.95983 74.70693 58.33338
# Shear Modulus (GPa) = 18.36718 23.94788 21.15753
#
# Velocity S-wave (km/s) = 3.19442 3.64757 3.42849
# Velocity P-wave (km/s) = 6.07597 7.69706 6.93405
#
# Compressibility (1/GPa) = 0.02383232
#
# Stress axis : x y z
#
# Youngs Moduli (GPa) = 62.03492 22.83633 98.34753
#
# Poissons Ratio (x) = 0.20871 0.33294
# Poissons Ratio (y) = 0.56697 1.04228
# Poissons Ratio (z) = 0.21001 0.24202
#
# Static dielectric constant tensor:
#      x y z
#    x 3.323960 0.000000 0.000000 
#    y 0.000000 3.107880 0.000000 
#    z 0.000000 0.000000 3.616790 
# 
# 
# High freq. dielectric constant tensor:
#      x y z
#    x 1.694530 0.000000 0.000000 
#    y 0.000000 1.664040 0.000000 
#    z 0.000000 0.000000 1.715400 
# 
# From -- ./inp_files/24621.got.cif
#   From: 2010.03.12/outbox.cif.g09.slc.cpg/sg38_13_cif.got.tgz:24621.got - 2010.04.14 02:38:36.
