data_PCOD8178856
_publ_section_title
;
Structure prediction by ZEFSAII (Michael W. Deem and Ramdas Pophale) SiO2 
 PCOD8178856
Probable space group: A M M 2
;
_chemical_formula_sum "Si O2"
_cell_formula_units_Z 56
_cell_length_a 14.365489
_cell_length_b 12.818326
_cell_length_c 17.947093
_cell_angle_alpha 90.000000
_cell_angle_beta 90.000000
_cell_angle_gamma 90.000000
_cell_volume 3304.805005
_symmetry_space_group_name_H-M "A M M 2"
_symmetry_group_IT_number 38
_symmetry_cell_setting 'orthorhombic'
loop_
_space_group_symop_operation_xyz
x,y,z
-x,-y,z
-x,y,z
x,-y,z
x,1/2+y,1/2+z
-x,1/2-y,1/2+z
-x,1/2+y,1/2+z
x,1/2-y,1/2+z
loop_
_atom_site_type_symbol
_atom_site_label
_atom_site_fract_x
_atom_site_fract_y
_atom_site_fract_z
Si Si1 0.109947 0.121067 0.789930
Si Si2 0.734313 0.268375 0.855167
Si Si3 0.391505 0.114917 0.934439
Si Si4 0.899259 0.121972 0.620839
Si Si5 0.608271 0.377140 0.734912
Si Si6 0.253872 0.123373 0.511108
Si Si7 0.607236 0.769362 0.080612
O O1 0.171388 0.206621 0.833576
O O2 0.137488 0.140774 0.704179
O O3 0.000000 0.142529 0.803648
O O4 0.132358 0.000000 0.812100
O O5 0.655794 0.184724 0.872472
O O6 0.686548 0.343194 0.794237
O O7 0.756829 0.337482 0.927159
O O8 0.500000 0.123652 0.919915
O O9 0.353075 0.000000 0.921531
O O10 0.366019 0.144819 0.018882
O O11 0.832002 0.169907 0.558634
O O12 0.000000 0.175679 0.610733
O O13 0.908614 0.000000 0.606673
O O14 0.500000 0.353713 0.758616
O O15 0.619085 0.500000 0.720146
O O16 0.635813 0.314403 0.660502
O O17 0.343696 0.162290 0.556448
O O18 0.258471 0.000000 0.510288
O O19 0.500000 0.741137 0.079244
#
# Coordination Sequence:
#
# PCOD8178856 Si02
#       7
#     8   8   8   8   8   8   8
#     4   9  18  33  53  75  98 128 167 210 254 296
#     4  11  20  30  47  73 103 132 161 197 247 308
#     4   9  17  30  47  67  92 122 158 200 241 281
#     4   8  15  30  50  67  85 115 156 198 238 282
#     4  10  20  34  51  71  98 132 168 205 247 300
#     4  10  20  32  47  71 101 130 161 200 246 295
#     4   9  18  32  50  69  89 123 170 208 238 280
#
# _framework density 16.945024
#
# number of rings (size 3 to 8) (size 9 to 14) (size 15 to 20)
#    0.000    2.571    0.000    3.429    0.000    3.143 
#    0.000    0.714    0.000    3.000    0.000    0.000 
#    0.000    0.000    0.000    0.000    0.000    0.000 
#
# Total GULP energy -346977.386116 kJ/mol
# GULP energy per Si atom -12392.049504 kJ/mol
# Density = 1.690646 g / cm^3
# Si number density = 16.945024 Si / 1000 Ang^3
#
#
#
# Elastic Constant Matrix: (Units=GPa)
#
#
# Indices 1 2 3 4 5 6 
#
# 1 65.0833 44.0052 49.4404 0.0000 0.0000 0.0000
# 2 44.0052 88.0382 45.0477 0.0000 0.0000 0.0000
# 3 49.4404 45.0477 104.5789 0.0000 0.0000 0.0000
# 4 0.0000 0.0000 0.0000 17.8641 0.0000 0.0000
# 5 0.0000 0.0000 0.0000 0.0000 28.8042 0.0000
# 6 0.0000 0.0000 0.0000 0.0000 0.0000 26.3073
#
#
#
# Elastic Compliance Matrix: (Units=1/GPa)
#
#
# Indices 1 2 3 4 5 6 
#
# 1 0.029243 -0.009675 -0.009657 0.000000 0.000000 0.000000
# 2 -0.009675 0.017771 -0.003081 0.000000 0.000000 0.000000
# 3 -0.009657 -0.003081 0.015455 0.000000 0.000000 0.000000
# 4 0.000000 0.000000 0.000000 0.055978 0.000000 0.000000
# 5 0.000000 0.000000 0.000000 0.000000 0.034717 0.000000
# 6 0.000000 0.000000 0.000000 0.000000 0.000000 0.038012
#
#
# Mechanical properties :
#
#
# Convention : Reuss Voigt Hill
#
# Bulk Modulus (GPa) = 56.68269 59.40967 58.04618
# Shear Modulus (GPa) = 20.67108 22.54227 21.60667
#
# Velocity S-wave (km/s) = 3.49648 3.65131 3.57473
# Velocity P-wave (km/s) = 7.05862 7.27409 7.16717
#
# Compressibility (1/GPa) = 0.01764207
#
# Stress axis : x y z
#
# Youngs Moduli (GPa) = 34.19650 56.27030 64.70526
#
# Poissons Ratio (x) = 0.54444 0.62486
# Poissons Ratio (y) = 0.33087 0.19935
# Poissons Ratio (z) = 0.33024 0.17337
#
# Static dielectric constant tensor:
#      x y z
#    x 3.419240 0.000000 0.000000 
#    y 0.000000 3.116980 0.000000 
#    z 0.000000 0.000000 3.235730 
# 
# 
# High freq. dielectric constant tensor:
#      x y z
#    x 1.651420 0.000000 0.000000 
#    y 0.000000 1.642320 0.000000 
#    z 0.000000 0.000000 1.657890 
# 
# From -- ./inp_files/14548.got.cif
#   From: 2010.03.12/outbox.cif.g09.slc.cpg/sg38_8_cif.got.tgz:14548.got - 2010.04.14 02:38:36.
