data_PCOD8178187
_publ_section_title
;
Structure prediction by ZEFSAII (Michael W. Deem and Ramdas Pophale) SiO2 
 PCOD8178187
Probable space group: A M M 2
;
_chemical_formula_sum "Si O2"
_cell_formula_units_Z 64
_cell_length_a 8.903955
_cell_length_b 20.861856
_cell_length_c 19.448465
_cell_angle_alpha 90.000000
_cell_angle_beta 90.000000
_cell_angle_gamma 90.000000
_cell_volume 3612.611245
_symmetry_space_group_name_H-M "A M M 2"
_symmetry_group_IT_number 38
_symmetry_cell_setting 'orthorhombic'
loop_
_space_group_symop_operation_xyz
x,y,z
-x,-y,z
-x,y,z
x,-y,z
x,1/2+y,1/2+z
-x,1/2-y,1/2+z
-x,1/2+y,1/2+z
x,1/2-y,1/2+z
loop_
_atom_site_type_symbol
_atom_site_label
_atom_site_fract_x
_atom_site_fract_y
_atom_site_fract_z
Si Si1 0.676374 0.430428 0.080460
Si Si2 0.826567 0.266635 0.712954
Si Si3 0.321546 0.190447 0.496176
Si Si4 0.323195 0.815547 0.082586
Si Si5 0.673726 0.124844 0.871409
Si Si6 0.672272 0.133323 0.717925
Si Si7 0.173616 0.427301 0.498631
Si Si8 0.175347 0.260900 0.867697
O O1 0.500000 0.432074 0.068522
O O2 0.745637 0.500000 0.059921
O O3 0.711844 0.419407 0.160978
O O4 0.741637 0.372546 0.034972
O O5 0.734281 0.311050 0.660842
O O6 0.779913 0.193045 0.705515
O O7 0.795228 0.289030 0.791421
O O8 0.000000 0.272977 0.693704
O O9 0.500000 0.188730 0.485929
O O10 0.272405 0.252919 0.539730
O O11 0.238069 0.188615 0.422872
O O12 0.500000 0.821627 0.083841
O O13 0.258386 0.879668 0.049444
O O14 0.500000 0.124016 0.892901
O O15 0.697962 0.101931 0.792840
O O16 0.763248 0.077552 0.921187
O O17 0.732093 0.196584 0.880731
O O18 0.500000 0.157570 0.710263
O O19 0.197783 0.500000 0.524486
O O20 0.000000 0.408381 0.497768
O O21 0.000000 0.246750 0.879045
#
# Coordination Sequence:
#
# PCOD8178187 Si02
#       8
#     8   8   8   8   8   8   8   8
#     4   9  17  31  51  75 105 139 174 213 258 308
#     4  10  20  33  52  79 108 139 175 217 268 320
#     4  10  19  32  53  80 105 135 177 223 267 309
#     4  11  21  35  57  82 106 136 177 227 270 312
#     4  10  19  31  51  77 107 142 179 221 261 306
#     4   9  17  31  50  75 107 142 181 218 256 306
#     4  11  24  39  54  75 107 145 180 218 268 327
#     4  10  20  33  52  78 108 141 177 218 265 317
#
# _framework density 17.715717000000001
#
# number of rings (size 3 to 8) (size 9 to 14) (size 15 to 20)
#    0.000    2.000    2.500    1.875    0.000    4.000 
#    0.000    1.250    0.000    2.250    0.000    3.500 
#    0.000    0.000    0.000    0.000    0.000    0.000 
#
# Total GULP energy -396780.939438 kJ/mol
# GULP energy per Si atom -12399.404357 kJ/mol
# Density = 1.767540 g / cm^3
# Si number density = 17.715717 Si / 1000 Ang^3
#
#
#
# Elastic Constant Matrix: (Units=GPa)
#
#
# Indices 1 2 3 4 5 6 
#
# 1 69.9898 38.6347 46.0435 0.0000 0.0000 0.0000
# 2 38.6347 104.5528 61.2389 0.0000 0.0000 0.0000
# 3 46.0435 61.2389 116.4606 0.0000 0.0000 0.0000
# 4 0.0000 0.0000 0.0000 22.7542 0.0000 0.0000
# 5 0.0000 0.0000 0.0000 0.0000 30.0919 0.0000
# 6 0.0000 0.0000 0.0000 0.0000 0.0000 20.3475
#
#
#
# Elastic Compliance Matrix: (Units=1/GPa)
#
#
# Indices 1 2 3 4 5 6 
#
# 1 0.020445 -0.004076 -0.005940 0.000000 0.000000 0.000000
# 2 -0.004076 0.014634 -0.006084 0.000000 0.000000 0.000000
# 3 -0.005940 -0.006084 0.014134 0.000000 0.000000 0.000000
# 4 0.000000 0.000000 0.000000 0.043948 0.000000 0.000000
# 5 0.000000 0.000000 0.000000 0.000000 0.033232 0.000000
# 6 0.000000 0.000000 0.000000 0.000000 0.000000 0.049146
#
#
# Mechanical properties :
#
#
# Convention : Reuss Voigt Hill
#
# Bulk Modulus (GPa) = 58.77377 64.75972 61.76674
# Shear Modulus (GPa) = 23.42916 24.31113 23.87015
#
# Velocity S-wave (km/s) = 3.64057 3.70846 3.67468
# Velocity P-wave (km/s) = 7.13581 7.41426 7.27637
#
# Compressibility (1/GPa) = 0.01701439
#
# Stress axis : x y z
#
# Youngs Moduli (GPa) = 48.91082 68.33413 70.75137
#
# Poissons Ratio (x) = 0.27852 0.42026
# Poissons Ratio (y) = 0.19935 0.43043
# Poissons Ratio (z) = 0.29053 0.41572
#
# Static dielectric constant tensor:
#      x y z
#    x 3.251630 0.000000 0.000000 
#    y 0.000000 3.164640 0.000000 
#    z 0.000000 0.000000 3.525930 
# 
# 
# High freq. dielectric constant tensor:
#      x y z
#    x 1.682310 0.000000 0.000000 
#    y 0.000000 1.656410 0.000000 
#    z 0.000000 0.000000 1.692030 
# 
# From -- ./inp_files/17234.got.cif
#   From: 2010.03.12/outbox.cif.g09.slc.cpg/sg38_9_cif.got.tgz:17234.got - 2010.04.14 02:38:36.
