data_PCOD8178250
_publ_section_title
;
Structure prediction by ZEFSAII (Michael W. Deem and Ramdas Pophale) SiO2 
 PCOD8178250
Probable space group: A M M 2
;
_chemical_formula_sum "Si O2"
_cell_formula_units_Z 64
_cell_length_a 19.367315
_cell_length_b 8.946330
_cell_length_c 20.037962
_cell_angle_alpha 90.000000
_cell_angle_beta 90.000000
_cell_angle_gamma 90.000000
_cell_volume 3471.905363
_symmetry_space_group_name_H-M "A M M 2"
_symmetry_group_IT_number 38
_symmetry_cell_setting 'orthorhombic'
loop_
_space_group_symop_operation_xyz
x,y,z
-x,-y,z
-x,y,z
x,-y,z
x,1/2+y,1/2+z
-x,1/2-y,1/2+z
-x,1/2+y,1/2+z
x,1/2-y,1/2+z
loop_
_atom_site_type_symbol
_atom_site_label
_atom_site_fract_x
_atom_site_fract_y
_atom_site_fract_z
Si Si1 0.852962 0.326107 0.913460
Si Si2 0.919788 0.328615 0.533447
Si Si3 0.079507 0.671939 0.774196
Si Si4 0.721684 0.830041 0.962176
Si Si5 0.426293 0.169867 0.976133
Si Si6 0.153460 0.323955 0.154294
Si Si7 0.575635 0.326685 0.113197
Si Si8 0.711648 0.172458 0.120155
O O1 0.862644 0.500000 0.930107
O O2 0.873922 0.290296 0.837996
O O3 0.773372 0.280299 0.924392
O O4 0.903613 0.230149 0.959774
O O5 0.895334 0.500000 0.539666
O O6 0.877522 0.229762 0.584662
O O7 0.000000 0.312576 0.549011
O O8 0.088052 0.500000 0.752468
O O9 0.104096 0.774254 0.713907
O O10 0.000000 0.708329 0.790847
O O11 0.643579 0.800572 0.933305
O O12 0.745252 0.000000 0.948472
O O13 0.721494 0.796624 0.041333
O O14 0.500000 0.183963 0.935960
O O15 0.419339 0.000000 0.005370
O O16 0.428549 0.287266 0.035477
O O17 0.158720 0.500000 0.153629
O O18 0.229815 0.256754 0.162436
O O19 0.500000 0.291592 0.145782
O O20 0.593915 0.500000 0.120550
O O21 0.637415 0.232060 0.146399
O O22 0.717031 0.000000 0.138002
#
# Coordination Sequence:
#
# PCOD8178250 Si02
#       8
#     8   8   8   8   8   8   8   8
#     4  11  22  36  57  82 108 141 180 223 269 321
#     4  11  23  38  57  80 108 141 175 215 267 325
#     4  10  23  43  61  77 104 141 179 222 275 332
#     4   9  17  29  48  74 106 141 177 220 267 317
#     4   8  14  25  41  63  96 140 182 216 258 315
#     4  12  24  37  57  83 108 137 177 225 274 326
#     4   9  16  25  40  67 104 141 177 220 266 310
#     4  10  19  32  51  74 106 145 181 219 266 321
#
# _framework density 18.433682000000001
#
# number of rings (size 3 to 8) (size 9 to 14) (size 15 to 20)
#    0.000    2.000    1.250    4.125    0.000    7.000 
#    0.000    0.000    0.000    0.000    0.000    0.875 
#    0.000    3.000    0.000    0.000    0.000    0.000 
#
# Total GULP energy -396669.843762 kJ/mol
# GULP energy per Si atom -12395.932618 kJ/mol
# Density = 1.839173 g / cm^3
# Si number density = 18.433682 Si / 1000 Ang^3
#
#
#
# Elastic Constant Matrix: (Units=GPa)
#
#
# Indices 1 2 3 4 5 6 
#
# 1 131.1554 50.9651 19.2406 0.0000 0.0000 0.0000
# 2 50.9651 104.4517 25.2801 0.0000 0.0000 0.0000
# 3 19.2406 25.2801 37.9993 0.0000 0.0000 0.0000
# 4 0.0000 0.0000 0.0000 22.5394 0.0000 0.0000
# 5 0.0000 0.0000 0.0000 0.0000 19.4614 0.0000
# 6 0.0000 0.0000 0.0000 0.0000 0.0000 33.1739
#
#
#
# Elastic Compliance Matrix: (Units=1/GPa)
#
#
# Indices 1 2 3 4 5 6 
#
# 1 0.009543 -0.004156 -0.002067 0.000000 0.000000 0.000000
# 2 -0.004156 0.013221 -0.006691 0.000000 0.000000 0.000000
# 3 -0.002067 -0.006691 0.031815 0.000000 0.000000 0.000000
# 4 0.000000 0.000000 0.000000 0.044367 0.000000 0.000000
# 5 0.000000 0.000000 0.000000 0.000000 0.051384 0.000000
# 6 0.000000 0.000000 0.000000 0.000000 0.000000 0.030144
#
#
# Mechanical properties :
#
#
# Convention : Reuss Voigt Hill
#
# Bulk Modulus (GPa) = 34.78300 51.61977 43.20139
# Shear Modulus (GPa) = 23.16051 26.90966 25.03508
#
# Velocity S-wave (km/s) = 3.54845 3.82489 3.68926
# Velocity P-wave (km/s) = 5.97486 6.89711 6.45248
#
# Compressibility (1/GPa) = 0.02874967
#
# Stress axis : x y z
#
# Youngs Moduli (GPa) = 104.79226 75.63682 31.43218
#
# Poissons Ratio (x) = 0.31434 0.06497
# Poissons Ratio (y) = 0.43550 0.21033
# Poissons Ratio (z) = 0.21661 0.50612
#
# Static dielectric constant tensor:
#      x y z
#    x 3.961930 0.000000 0.000000 
#    y 0.000000 3.437540 0.000000 
#    z 0.000000 0.000000 2.892730 
# 
# 
# High freq. dielectric constant tensor:
#      x y z
#    x 1.744950 0.000000 0.000000 
#    y 0.000000 1.722840 0.000000 
#    z 0.000000 0.000000 1.650660 
# 
# From -- ./inp_files/18918.got.cif
#   From: 2010.03.12/outbox.cif.g09.slc.cpg/sg38_10_cif.got.tgz:18918.got - 2010.04.14 02:38:36.
