data_PCOD8178091
_publ_section_title
;
Structure prediction by ZEFSAII (Michael W. Deem and Ramdas Pophale) SiO2 
 PCOD8178091
Probable space group: A M M 2
;
_chemical_formula_sum "Si O2"
_cell_formula_units_Z 56
_cell_length_a 9.794620
_cell_length_b 12.323067
_cell_length_c 27.747696
_cell_angle_alpha 90.000000
_cell_angle_beta 90.000000
_cell_angle_gamma 90.000000
_cell_volume 3349.140206
_symmetry_space_group_name_H-M "A M M 2"
_symmetry_group_IT_number 38
_symmetry_cell_setting 'orthorhombic'
loop_
_space_group_symop_operation_xyz
x,y,z
-x,-y,z
-x,y,z
x,-y,z
x,1/2+y,1/2+z
-x,1/2-y,1/2+z
-x,1/2+y,1/2+z
x,1/2-y,1/2+z
loop_
_atom_site_type_symbol
_atom_site_label
_atom_site_fract_x
_atom_site_fract_y
_atom_site_fract_z
Si Si1 0.662616 0.376932 0.555090
Si Si2 0.351971 0.875173 0.159924
Si Si3 0.160020 0.500000 0.829796
Si Si4 0.154123 0.833962 0.247364
Si Si5 0.343365 0.623825 0.384219
Si Si6 0.663151 0.500000 0.927991
Si Si7 0.847353 0.379939 0.296594
Si Si8 0.338527 0.228576 0.469913
O O1 0.500000 0.380616 0.551141
O O2 0.718647 0.500000 0.544367
O O3 0.705414 0.332452 0.608383
O O4 0.722563 0.286413 0.517844
O O5 0.500000 0.821237 0.172742
O O6 0.247596 0.862964 0.202945
O O7 0.378823 0.000000 0.150154
O O8 0.196067 0.395173 0.796793
O O9 0.255257 0.500000 0.877219
O O10 0.000000 0.500000 0.845161
O O11 0.168818 0.704984 0.253508
O O12 0.000000 0.868088 0.234043
O O13 0.500000 0.649853 0.372194
O O14 0.324164 0.500000 0.401017
O O15 0.259000 0.651504 0.337156
O O16 0.284513 0.700469 0.425489
O O17 0.500000 0.500000 0.916627
O O18 0.706533 0.396053 0.960561
O O19 0.817887 0.500000 0.275687
O O20 0.000000 0.373099 0.318594
O O21 0.500000 0.234779 0.472676
#
# Coordination Sequence:
#
# PCOD8178091 Si02
#       8
#     8   8   4   8   8   4   8   8
#     4   8  14  26  46  69  91 115 146 185 230 276
#     4   9  17  29  47  72  94 114 145 190 239 279
#     4  10  20  32  46  68  94 126 158 186 229 282
#     4  10  19  31  48  67  91 122 154 187 230 280
#     4   9  16  26  43  66  88 113 148 188 226 259
#     4  10  20  30  44  68  96 126 158 188 221 262
#     4   9  18  31  45  62  87 121 155 184 219 267
#     4   9  16  27  43  65  93 121 149 183 222 268
#
# _framework density 16.720707999999998
#
# number of rings (size 3 to 8) (size 9 to 14) (size 15 to 20)
#    0.000    2.857    0.714    2.143    0.000    2.857 
#    0.000    0.000    1.571    1.714    0.000    2.000 
#    0.000    0.000    0.000    0.000    0.000    0.000 
#
# Total GULP energy -346912.703446 kJ/mol
# GULP energy per Si atom -12389.739409 kJ/mol
# Density = 1.668265 g / cm^3
# Si number density = 16.720708 Si / 1000 Ang^3
#
#
#
# Elastic Constant Matrix: (Units=GPa)
#
#
# Indices 1 2 3 4 5 6 
#
# 1 45.2373 25.1333 39.3921 0.0000 0.0000 0.0000
# 2 25.1333 90.9705 51.4844 0.0000 0.0000 0.0000
# 3 39.3921 51.4844 99.4143 0.0000 0.0000 0.0000
# 4 0.0000 0.0000 0.0000 19.6055 0.0000 0.0000
# 5 0.0000 0.0000 0.0000 0.0000 30.8715 0.0000
# 6 0.0000 0.0000 0.0000 0.0000 0.0000 15.2893
#
#
#
# Elastic Compliance Matrix: (Units=1/GPa)
#
#
# Indices 1 2 3 4 5 6 
#
# 1 0.034153 -0.002514 -0.012231 0.000000 0.000000 0.000000
# 2 -0.002514 0.015735 -0.007153 0.000000 0.000000 0.000000
# 3 -0.012231 -0.007153 0.018610 0.000000 0.000000 0.000000
# 4 0.000000 0.000000 0.000000 0.051006 0.000000 0.000000
# 5 0.000000 0.000000 0.000000 0.000000 0.032392 0.000000
# 6 0.000000 0.000000 0.000000 0.000000 0.000000 0.065405
#
#
# Mechanical properties :
#
#
# Convention : Reuss Voigt Hill
#
# Bulk Modulus (GPa) = 40.48157 51.96020 46.22088
# Shear Modulus (GPa) = 18.56456 21.12743 19.84599
#
# Velocity S-wave (km/s) = 3.33569 3.55850 3.44890
# Velocity P-wave (km/s) = 6.25290 6.93013 6.60021
#
# Compressibility (1/GPa) = 0.02470260
#
# Stress axis : x y z
#
# Youngs Moduli (GPa) = 29.28015 63.55179 53.73552
#
# Poissons Ratio (x) = 0.15975 0.65724
# Poissons Ratio (y) = 0.07360 0.38436
# Poissons Ratio (z) = 0.35813 0.45458
#
# Static dielectric constant tensor:
#      x y z
#    x 2.902710 0.000000 0.000000 
#    y 0.000000 3.424790 0.000000 
#    z 0.000000 0.000000 3.152590 
# 
# 
# High freq. dielectric constant tensor:
#      x y z
#    x 1.614250 0.000000 0.000000 
#    y 0.000000 1.644570 0.000000 
#    z 0.000000 0.000000 1.632950 
# 
# From -- ./inp_files/22568.got.cif
#   From: 2010.03.12/outbox.cif.g09.slc.cpg/sg38_12_cif.got.tgz:22568.got - 2010.04.14 02:38:36.
