data_PCOD8178691
_publ_section_title
;
Structure prediction by ZEFSAII (Michael W. Deem and Ramdas Pophale) SiO2 
 PCOD8178691
Probable space group: A M M 2
;
_chemical_formula_sum "Si O2"
_cell_formula_units_Z 56
_cell_length_a 8.859896
_cell_length_b 18.642651
_cell_length_c 17.197709
_cell_angle_alpha 90.000000
_cell_angle_beta 90.000000
_cell_angle_gamma 90.000000
_cell_volume 2840.579114
_symmetry_space_group_name_H-M "A M M 2"
_symmetry_group_IT_number 38
_symmetry_cell_setting 'orthorhombic'
loop_
_space_group_symop_operation_xyz
x,y,z
-x,-y,z
-x,y,z
x,-y,z
x,1/2+y,1/2+z
-x,1/2-y,1/2+z
-x,1/2+y,1/2+z
x,1/2-y,1/2+z
loop_
_atom_site_type_symbol
_atom_site_label
_atom_site_fract_x
_atom_site_fract_y
_atom_site_fract_z
Si Si1 0.823084 0.303889 0.943210
Si Si2 0.822103 0.920249 0.322987
Si Si3 0.321490 0.080304 0.733712
Si Si4 0.322680 0.803948 0.611570
Si Si5 0.677478 0.834729 0.883357
Si Si6 0.171857 0.583082 0.518358
Si Si7 0.175008 0.333631 0.675560
O O1 0.783069 0.379778 0.903382
O O2 0.757497 0.242052 0.888037
O O3 0.000000 0.291145 0.950700
O O4 0.755930 0.301481 0.028709
O O5 0.758156 0.875223 0.250245
O O6 0.000000 0.926934 0.311718
O O7 0.749726 0.000000 0.325987
O O8 0.500000 0.075271 0.741932
O O9 0.277174 0.122454 0.655163
O O10 0.257938 0.122592 0.808712
O O11 0.251590 0.000000 0.730294
O O12 0.500000 0.798161 0.598447
O O13 0.269748 0.738660 0.665418
O O14 0.500000 0.821962 0.876927
O O15 0.712685 0.880057 0.960002
O O16 0.210681 0.500000 0.521811
O O17 0.199044 0.614412 0.603142
O O18 0.000000 0.597071 0.490873
O O19 0.000000 0.312901 0.686754
#
# Coordination Sequence:
#
# PCOD8178691 Si02
#       7
#     8   8   8   8   8   8   8
#     4  11  22  37  58  84 116 151 190 236 284 334
#     4   9  19  36  59  86 114 148 189 233 284 341
#     4   9  20  38  58  82 113 149 188 234 287 338
#     4  11  22  37  59  84 112 149 193 236 280 335
#     4  11  21  36  59  84 113 150 191 232 281 341
#     4  10  20  33  53  83 118 152 184 225 278 335
#     4  10  19  35  59  84 114 149 185 228 280 341
#
# _framework density 19.714290999999999
#
# number of rings (size 3 to 8) (size 9 to 14) (size 15 to 20)
#    0.000    1.857    1.429    3.000    0.000    3.143 
#    0.000    2.857    0.000    9.000    0.000    0.000 
#    0.000    0.000    0.000    0.000    0.000    0.000 
#
# Total GULP energy -347258.916322 kJ/mol
# GULP energy per Si atom -12402.104154 kJ/mol
# Density = 1.966942 g / cm^3
# Si number density = 19.714291 Si / 1000 Ang^3
#
#
#
# Elastic Constant Matrix: (Units=GPa)
#
#
# Indices 1 2 3 4 5 6 
#
# 1 60.3791 43.1142 26.3967 0.0000 0.0000 0.0000
# 2 43.1142 166.3588 71.1046 0.0000 0.0000 0.0000
# 3 26.3967 71.1046 88.3296 0.0000 0.0000 0.0000
# 4 0.0000 0.0000 0.0000 30.7431 0.0000 0.0000
# 5 0.0000 0.0000 0.0000 0.0000 8.1902 0.0000
# 6 0.0000 0.0000 0.0000 0.0000 0.0000 12.6098
#
#
#
# Elastic Compliance Matrix: (Units=1/GPa)
#
#
# Indices 1 2 3 4 5 6 
#
# 1 0.020786 -0.004165 -0.002859 0.000000 0.000000 0.000000
# 2 -0.004165 0.009999 -0.006804 0.000000 0.000000 0.000000
# 3 -0.002859 -0.006804 0.017653 0.000000 0.000000 0.000000
# 4 0.000000 0.000000 0.000000 0.032528 0.000000 0.000000
# 5 0.000000 0.000000 0.000000 0.000000 0.122097 0.000000
# 6 0.000000 0.000000 0.000000 0.000000 0.000000 0.079304
#
#
# Mechanical properties :
#
#
# Convention : Reuss Voigt Hill
#
# Bulk Modulus (GPa) = 48.12012 66.25538 57.18775
# Shear Modulus (GPa) = 15.77541 21.93876 18.85708
#
# Velocity S-wave (km/s) = 2.83185 3.33954 3.09612
# Velocity P-wave (km/s) = 5.92910 6.96784 6.46935
#
# Compressibility (1/GPa) = 0.02078133
#
# Stress axis : x y z
#
# Youngs Moduli (GPa) = 48.10934 100.01222 56.64770
#
# Poissons Ratio (x) = 0.41655 0.16195
# Poissons Ratio (y) = 0.20038 0.38544
# Poissons Ratio (z) = 0.13754 0.68051
#
# Static dielectric constant tensor:
#      x y z
#    x 3.374320 0.000000 0.000000 
#    y 0.000000 3.948680 0.000000 
#    z 0.000000 0.000000 3.659670 
# 
# 
# High freq. dielectric constant tensor:
#      x y z
#    x 1.739830 0.000000 0.000000 
#    y 0.000000 1.782910 0.000000 
#    z 0.000000 0.000000 1.778230 
# 
# From -- ./inp_files/12396.got.cif
#   From: 2010.03.12/outbox.cif.g09.slc.cpg/sg38_7_cif.got.tgz:12396.got - 2010.04.14 02:38:36.
