data_PCOD8178014
_publ_section_title
;
Structure prediction by ZEFSAII (Michael W. Deem and Ramdas Pophale) SiO2 
 PCOD8178014
Probable space group: A M M 2
;
_chemical_formula_sum "Si O2"
_cell_formula_units_Z 64
_cell_length_a 19.507065
_cell_length_b 9.048681
_cell_length_c 20.516067
_cell_angle_alpha 90.000000
_cell_angle_beta 90.000000
_cell_angle_gamma 90.000000
_cell_volume 3621.356811
_symmetry_space_group_name_H-M "A M M 2"
_symmetry_group_IT_number 38
_symmetry_cell_setting 'orthorhombic'
loop_
_space_group_symop_operation_xyz
x,y,z
-x,-y,z
-x,y,z
x,-y,z
x,1/2+y,1/2+z
-x,1/2-y,1/2+z
-x,1/2+y,1/2+z
x,1/2-y,1/2+z
loop_
_atom_site_type_symbol
_atom_site_label
_atom_site_fract_x
_atom_site_fract_y
_atom_site_fract_z
Si Si1 0.279784 0.168645 0.537870
Si Si2 0.572957 0.333033 0.052155
Si Si3 0.158860 0.326076 0.734062
Si Si4 0.076129 0.324278 0.610207
Si Si5 0.289954 0.327134 0.190735
Si Si6 0.845549 0.325210 0.482970
Si Si7 0.424734 0.828285 0.184423
Si Si8 0.920752 0.326767 0.864681
O O1 0.357792 0.192761 0.510205
O O2 0.278041 0.213440 0.614469
O O3 0.232150 0.271652 0.493715
O O4 0.255607 0.000000 0.528990
O O5 0.500000 0.320134 0.012585
O O6 0.579247 0.500000 0.082177
O O7 0.570930 0.213745 0.108863
O O8 0.171704 0.500000 0.729238
O O9 0.118319 0.264164 0.671488
O O10 0.232003 0.246101 0.735907
O O11 0.113421 0.284461 0.796249
O O12 0.073560 0.500000 0.611943
O O13 0.110779 0.267235 0.544198
O O14 0.000000 0.257426 0.613353
O O15 0.288619 0.500000 0.202749
O O16 0.363054 0.264913 0.216685
O O17 0.845956 0.500000 0.476993
O O18 0.878628 0.259135 0.418824
O O19 0.500000 0.795272 0.216494
O O20 0.406453 0.000000 0.190481
O O21 0.915299 0.500000 0.878552
O O22 0.000000 0.275545 0.864042
#
# Coordination Sequence:
#
# PCOD8178014 Si02
#       8
#     8   8   8   8   8   8   8   8
#     4   9  17  29  46  70 102 136 170 208 250 302
#     4   8  14  25  41  64  97 135 169 204 252 303
#     4  10  19  34  55  76  99 131 170 211 255 307
#     4   9  17  30  50  75  98 123 161 206 252 302
#     4  10  19  30  47  72 104 137 168 209 258 305
#     4  11  21  33  52  76 103 135 169 211 257 303
#     4   9  16  25  40  65  98 135 173 210 247 293
#     4  10  22  39  57  76 101 134 170 211 259 311
#
# _framework density 17.672933
#
# number of rings (size 3 to 8) (size 9 to 14) (size 15 to 20)
#    0.000    2.500    1.250    2.625    0.000    5.500 
#    0.000    0.000    0.000    1.875    0.000    0.875 
#    0.000    3.000    0.000    0.000    0.000    0.000 
#
# Total GULP energy -396584.080904 kJ/mol
# GULP energy per Si atom -12393.252528 kJ/mol
# Density = 1.763271 g / cm^3
# Si number density = 17.672933 Si / 1000 Ang^3
#
#
#
# Elastic Constant Matrix: (Units=GPa)
#
#
# Indices 1 2 3 4 5 6 
#
# 1 168.0011 47.7905 39.3696 0.0000 0.0000 0.0000
# 2 47.7905 50.3810 31.1094 0.0000 0.0000 0.0000
# 3 39.3696 31.1094 61.2386 0.0000 0.0000 0.0000
# 4 0.0000 0.0000 0.0000 20.3200 0.0000 0.0000
# 5 0.0000 0.0000 0.0000 0.0000 20.0648 0.0000
# 6 0.0000 0.0000 0.0000 0.0000 0.0000 25.0515
#
#
#
# Elastic Compliance Matrix: (Units=1/GPa)
#
#
# Indices 1 2 3 4 5 6 
#
# 1 0.008309 -0.006678 -0.001949 0.000000 0.000000 0.000000
# 2 -0.006678 0.034288 -0.013125 0.000000 0.000000 0.000000
# 3 -0.001949 -0.013125 0.024250 0.000000 0.000000 0.000000
# 4 0.000000 0.000000 0.000000 0.049213 0.000000 0.000000
# 5 0.000000 0.000000 0.000000 0.000000 0.049839 0.000000
# 6 0.000000 0.000000 0.000000 0.000000 0.000000 0.039918
#
#
# Mechanical properties :
#
#
# Convention : Reuss Voigt Hill
#
# Bulk Modulus (GPa) = 42.84061 57.35108 50.09584
# Shear Modulus (GPa) = 19.44757 23.84400 21.64579
#
# Velocity S-wave (km/s) = 3.32085 3.67711 3.50351
# Velocity P-wave (km/s) = 6.24480 7.10985 6.69132
#
# Compressibility (1/GPa) = 0.02334234
#
# Stress axis : x y z
#
# Youngs Moduli (GPa) = 120.35483 29.16476 41.23656
#
# Poissons Ratio (x) = 0.19476 0.08038
# Poissons Ratio (y) = 0.80373 0.54124
# Poissons Ratio (z) = 0.23459 0.38279
#
# Static dielectric constant tensor:
#      x y z
#    x 3.788260 0.000000 0.000000 
#    y 0.000000 3.139920 0.000000 
#    z 0.000000 0.000000 2.875390 
# 
# 
# High freq. dielectric constant tensor:
#      x y z
#    x 1.711880 0.000000 0.000000 
#    y 0.000000 1.675350 0.000000 
#    z 0.000000 0.000000 1.625870 
# 
# From -- ./inp_files/18844.got.cif
#   From: 2010.03.12/outbox.cif.g09.slc.cpg/sg38_10_cif.got.tgz:18844.got - 2010.04.14 02:38:36.
