data_PCOD8178647
_publ_section_title
;
Structure prediction by ZEFSAII (Michael W. Deem and Ramdas Pophale) SiO2 
 PCOD8178647
Probable space group: A M M 2
;
_chemical_formula_sum "Si O2"
_cell_formula_units_Z 64
_cell_length_a 15.323204
_cell_length_b 8.821093
_cell_length_c 23.850801
_cell_angle_alpha 90.000000
_cell_angle_beta 90.000000
_cell_angle_gamma 90.000000
_cell_volume 3223.850939
_symmetry_space_group_name_H-M "A M M 2"
_symmetry_group_IT_number 38
_symmetry_cell_setting 'orthorhombic'
loop_
_space_group_symop_operation_xyz
x,y,z
-x,-y,z
-x,y,z
x,-y,z
x,1/2+y,1/2+z
-x,1/2-y,1/2+z
-x,1/2+y,1/2+z
x,1/2-y,1/2+z
loop_
_atom_site_type_symbol
_atom_site_label
_atom_site_fract_x
_atom_site_fract_y
_atom_site_fract_z
Si Si1 0.246326 0.821141 0.601860
Si Si2 0.652028 0.822153 0.798802
Si Si3 0.167055 0.172117 0.294675
Si Si4 0.596628 0.820116 0.677269
Si Si5 0.598727 0.673636 0.910576
Si Si6 0.097958 0.326891 0.914281
Si Si7 0.250746 0.177926 0.980739
Si Si8 0.900419 0.825278 0.173636
O O1 0.331258 0.755253 0.634443
O O2 0.241988 0.748599 0.541456
O O3 0.159781 0.781249 0.636132
O O4 0.252695 0.000000 0.595107
O O5 0.754358 0.789036 0.801925
O O6 0.615194 0.760088 0.739857
O O7 0.601293 0.736373 0.847701
O O8 0.635776 0.000000 0.806197
O O9 0.103318 0.192938 0.347336
O O10 0.113364 0.211965 0.239002
O O11 0.203577 0.000000 0.292163
O O12 0.500000 0.766533 0.658232
O O13 0.603271 0.000000 0.678152
O O14 0.500000 0.688194 0.933324
O O15 0.630179 0.500000 0.910224
O O16 0.661462 0.765669 0.951337
O O17 0.119041 0.500000 0.931335
O O18 0.165831 0.218287 0.944782
O O19 0.000000 0.282634 0.932905
O O20 0.256780 0.000000 0.986717
O O21 0.000000 0.788402 0.158038
O O22 0.877955 0.000000 0.160741
#
# Coordination Sequence:
#
# PCOD8178647 Si02
#       8
#     8   8   8   8   8   8   8   8
#     4  11  23  41  63  86 116 157 207 254 301 356
#     4  11  20  34  60  93 127 161 195 239 299 360
#     4  10  19  34  60  90 125 161 196 242 300 363
#     4   9  19  36  59  88 121 155 192 237 293 354
#     4  11  24  42  64  91 123 161 203 247 299 361
#     4  10  21  39  64  92 122 160 203 245 297 362
#     4  12  26  43  63  88 120 158 204 256 309 360
#     4  10  21  38  61  90 124 161 200 246 302 359
#
# _framework density 19.852032999999999
#
# number of rings (size 3 to 8) (size 9 to 14) (size 15 to 20)
#    0.000    1.500    2.500    3.000    0.000    4.500 
#    0.000    1.250    0.000    5.625    0.000    0.000 
#    0.000    0.000    0.000    0.000    0.000    0.000 
#
# Total GULP energy -396903.943863 kJ/mol
# GULP energy per Si atom -12403.248246 kJ/mol
# Density = 1.980685 g / cm^3
# Si number density = 19.852033 Si / 1000 Ang^3
#
#
#
# Elastic Constant Matrix: (Units=GPa)
#
#
# Indices 1 2 3 4 5 6 
#
# 1 127.6519 43.4526 49.6428 0.0000 0.0000 0.0000
# 2 43.4526 75.8723 49.0479 0.0000 0.0000 0.0000
# 3 49.6428 49.0479 138.6030 0.0000 0.0000 0.0000
# 4 0.0000 0.0000 0.0000 -21.7387 0.0000 0.0000
# 5 0.0000 0.0000 0.0000 0.0000 5.1228 0.0000
# 6 0.0000 0.0000 0.0000 0.0000 0.0000 23.1274
#
#
#
# Elastic Compliance Matrix: (Units=1/GPa)
#
#
# Indices 1 2 3 4 5 6 
#
# 1 0.010160 -0.004495 -0.002049 0.000000 0.000000 0.000000
# 2 -0.004495 0.019078 -0.005141 0.000000 0.000000 0.000000
# 3 -0.002049 -0.005141 0.009768 0.000000 0.000000 0.000000
# 4 0.000000 0.000000 0.000000 -0.046001 0.000000 0.000000
# 5 0.000000 0.000000 0.000000 0.000000 0.195204 0.000000
# 6 0.000000 0.000000 0.000000 0.000000 0.000000 0.043239
#
#
# Mechanical properties :
#
#
# Convention : Reuss Voigt Hill
#
# Bulk Modulus (GPa) = 63.95037 69.60153 66.77595
# Shear Modulus (GPa) = 19.22858 14.63456 16.93157
#
# Velocity S-wave (km/s) = 3.11560 2.71806 2.92359
# Velocity P-wave (km/s) = 6.72503 6.70721 6.71613
#
# Compressibility (1/GPa) = 0.01563713
#
# Stress axis : x y z
#
# Youngs Moduli (GPa) = 98.42071 52.41712 102.37565
#
# Poissons Ratio (x) = 0.23560 0.20973
# Poissons Ratio (y) = 0.44237 0.52634
# Poissons Ratio (z) = 0.20162 0.26949
#
# Static dielectric constant tensor:
#      x y z
#    x 3.761610 0.000000 0.000000 
#    y 0.000000 3.521210 0.000000 
#    z 0.000000 0.000000 3.688810 
# 
# 
# High freq. dielectric constant tensor:
#      x y z
#    x 1.784710 0.000000 0.000000 
#    y 0.000000 1.761640 0.000000 
#    z 0.000000 0.000000 1.776700 
# 
# From -- ./inp_files/22872.got.cif
#   From: 2010.03.12/outbox.cif.g09.slc.cpg/sg38_12_cif.got.tgz:22872.got - 2010.04.14 02:38:36.
