data_PCOD8178054
_publ_section_title
;
Structure prediction by ZEFSAII (Michael W. Deem and Ramdas Pophale) SiO2 
 PCOD8178054
Probable space group: A M M 2
;
_chemical_formula_sum "Si O2"
_cell_formula_units_Z 64
_cell_length_a 14.685017
_cell_length_b 8.959387
_cell_length_c 24.827807
_cell_angle_alpha 90.000000
_cell_angle_beta 90.000000
_cell_angle_gamma 90.000000
_cell_volume 3266.563542
_symmetry_space_group_name_H-M "A M M 2"
_symmetry_group_IT_number 38
_symmetry_cell_setting 'orthorhombic'
loop_
_space_group_symop_operation_xyz
x,y,z
-x,-y,z
-x,y,z
x,-y,z
x,1/2+y,1/2+z
-x,1/2-y,1/2+z
-x,1/2+y,1/2+z
x,1/2-y,1/2+z
loop_
_atom_site_type_symbol
_atom_site_label
_atom_site_fract_x
_atom_site_fract_y
_atom_site_fract_z
Si Si1 0.400688 0.324646 0.970990
Si Si2 0.636899 0.666103 0.580719
Si Si3 0.164568 0.167237 0.119337
Si Si4 0.899891 0.833559 0.524265
Si Si5 0.399006 0.174797 0.199795
Si Si6 0.214819 0.677500 0.926211
Si Si7 0.782351 0.822874 0.727093
Si Si8 0.106753 0.823301 0.322158
O O1 0.500000 0.280241 0.946795
O O2 0.390195 0.500000 0.975694
O O3 0.320266 0.266078 0.931164
O O4 0.394956 0.267165 0.031819
O O5 0.598485 0.500000 0.570792
O O6 0.745053 0.664982 0.583610
O O7 0.598985 0.728830 0.637628
O O8 0.174817 0.270824 0.171040
O O9 0.136124 0.000000 0.137290
O O10 0.091643 0.237447 0.078819
O O11 0.835209 0.759801 0.479310
O O12 0.000000 0.841142 0.498409
O O13 0.864741 0.000000 0.539014
O O14 0.500000 0.203286 0.224775
O O15 0.321449 0.261518 0.233519
O O16 0.372650 0.000000 0.201409
O O17 0.207462 0.500000 0.925094
O O18 0.163944 0.738501 0.873356
O O19 0.849614 0.759895 0.771875
O O20 0.779519 0.000000 0.730196
O O21 0.000000 0.781341 0.328015
O O22 0.118556 0.000000 0.314719
#
# Coordination Sequence:
#
# PCOD8178054 Si02
#       8
#     8   8   8   8   8   8   8   8
#     4  10  19  30  49  79 113 148 184 221 267 326
#     4   9  17  30  49  75 109 149 188 223 262 314
#     4  10  20  35  54  78 112 152 189 227 275 335
#     4  10  19  32  54  83 112 144 180 223 283 344
#     4   9  18  34  56  83 117 156 196 234 275 331
#     4   9  18  35  57  81 112 144 183 234 282 333
#     4  11  23  38  58  84 116 149 186 239 296 345
#     4  10  21  40  65  85 103 141 196 246 293 349
#
# _framework density 19.592455000000001
#
# number of rings (size 3 to 8) (size 9 to 14) (size 15 to 20)
#    0.000    2.250    1.250    3.000    0.000    5.500 
#    0.000    1.875    0.000    3.750    0.000    0.000 
#    0.000    0.000    0.000    0.000    0.000    0.000 
#
# Total GULP energy -396600.745660 kJ/mol
# GULP energy per Si atom -12393.773302 kJ/mol
# Density = 1.954786 g / cm^3
# Si number density = 19.592455 Si / 1000 Ang^3
#
#
#
# Elastic Constant Matrix: (Units=GPa)
#
#
# Indices 1 2 3 4 5 6 
#
# 1 146.8480 45.5652 68.3108 0.0000 0.0000 0.0000
# 2 45.5652 64.0393 35.3388 0.0000 0.0000 0.0000
# 3 68.3108 35.3388 96.7362 0.0000 0.0000 0.0000
# 4 0.0000 0.0000 0.0000 24.6964 0.0000 0.0000
# 5 0.0000 0.0000 0.0000 0.0000 23.6528 0.0000
# 6 0.0000 0.0000 0.0000 0.0000 0.0000 19.4490
#
#
#
# Elastic Compliance Matrix: (Units=1/GPa)
#
#
# Indices 1 2 3 4 5 6 
#
# 1 0.011074 -0.004464 -0.006189 0.000000 0.000000 0.000000
# 2 -0.004464 0.021358 -0.004650 0.000000 0.000000 0.000000
# 3 -0.006189 -0.004650 0.016407 0.000000 0.000000 0.000000
# 4 0.000000 0.000000 0.000000 0.040492 0.000000 0.000000
# 5 0.000000 0.000000 0.000000 0.000000 0.042278 0.000000
# 6 0.000000 0.000000 0.000000 0.000000 0.000000 0.051416
#
#
# Mechanical properties :
#
#
# Convention : Reuss Voigt Hill
#
# Bulk Modulus (GPa) = 54.84869 67.33923 61.09396
# Shear Modulus (GPa) = 22.75748 24.12024 23.43886
#
# Velocity S-wave (km/s) = 3.41184 3.51251 3.46254
# Velocity P-wave (km/s) = 6.60125 7.13406 6.87282
#
# Compressibility (1/GPa) = 0.01823198
#
# Stress axis : x y z
#
# Youngs Moduli (GPa) = 90.30189 46.82187 60.95109
#
# Poissons Ratio (x) = 0.20901 0.37724
# Poissons Ratio (y) = 0.40310 0.28342
# Poissons Ratio (z) = 0.55890 0.21772
#
# Static dielectric constant tensor:
#      x y z
#    x 3.921030 0.000000 0.000000 
#    y 0.000000 3.377870 0.000000 
#    z 0.000000 0.000000 3.395570 
# 
# 
# High freq. dielectric constant tensor:
#      x y z
#    x 1.779350 0.000000 0.000000 
#    y 0.000000 1.737170 0.000000 
#    z 0.000000 0.000000 1.739930 
# 
# From -- ./inp_files/22997.got.cif
#   From: 2010.03.12/outbox.cif.g09.slc.cpg/sg38_12_cif.got.tgz:22997.got - 2010.04.14 02:38:36.
