data_PCOD8178198
_publ_section_title
;
Structure prediction by ZEFSAII (Michael W. Deem and Ramdas Pophale) SiO2 
 PCOD8178198
Probable space group: A M M 2
;
_chemical_formula_sum "Si O2"
_cell_formula_units_Z 40
_cell_length_a 8.879720
_cell_length_b 7.856452
_cell_length_c 29.092196
_cell_angle_alpha 90.000000
_cell_angle_beta 90.000000
_cell_angle_gamma 90.000000
_cell_volume 2029.561603
_symmetry_space_group_name_H-M "A M M 2"
_symmetry_group_IT_number 38
_symmetry_cell_setting 'orthorhombic'
loop_
_space_group_symop_operation_xyz
x,y,z
-x,-y,z
-x,y,z
x,-y,z
x,1/2+y,1/2+z
-x,1/2-y,1/2+z
-x,1/2+y,1/2+z
x,1/2-y,1/2+z
loop_
_atom_site_type_symbol
_atom_site_label
_atom_site_fract_x
_atom_site_fract_y
_atom_site_fract_z
Si Si1 0.178482 0.000000 0.112100
Si Si2 0.325839 0.307914 0.058864
Si Si3 0.179419 0.500000 0.716348
Si Si4 0.172114 0.804803 0.971167
Si Si5 0.178904 0.808260 0.373142
Si Si6 0.820794 0.812537 0.776031
O O1 0.234459 0.826878 0.088877
O O2 0.238085 0.000000 0.164318
O O3 0.000000 0.000000 0.109147
O O4 0.500000 0.257609 0.060877
O O5 0.299220 0.500000 0.077646
O O6 0.271804 0.304105 0.006080
O O7 0.243519 0.331553 0.741787
O O8 0.000000 0.500000 0.717908
O O9 0.236274 0.783517 0.919491
O O10 0.000000 0.739237 0.973677
O O11 0.182511 0.000000 0.986344
O O12 0.242445 0.715583 0.327692
O O13 0.000000 0.802399 0.371707
O O14 0.239328 0.000000 0.373162
O O15 0.000000 0.799845 0.776812
O O16 0.768821 0.000000 0.759095
#
# Coordination Sequence:
#
# PCOD8178198 Si02
#       6
#     4   8   4   8   8   8
#     4  11  23  39  61  87 115 149 193 249 300 343
#     4  11  24  41  60  82 112 152 195 238 291 354
#     4   9  18  31  47  73 107 143 183 227 286 339
#     4  10  19  31  51  82 115 148 188 234 283 332
#     4   9  15  24  41  69 108 148 183 221 267 326
#     4   9  15  25  42  66 103 146 181 217 267 331
#
# _framework density 19.708689
#
# number of rings (size 3 to 8) (size 9 to 14) (size 15 to 20)
#    0.000    2.200    2.000    2.100    0.000    5.600 
#    0.000    2.000    0.000    0.000    0.000    2.800 
#    0.000    3.200    0.000    0.000    0.000    0.000 
#
# Total GULP energy -247948.984573 kJ/mol
# GULP energy per Si atom -12397.449229 kJ/mol
# Density = 1.966383 g / cm^3
# Si number density = 19.708689 Si / 1000 Ang^3
#
#
#
# Elastic Constant Matrix: (Units=GPa)
#
#
# Indices 1 2 3 4 5 6 
#
# 1 45.2581 30.5876 31.6243 0.0000 0.0000 0.0000
# 2 30.5876 143.5480 68.0499 0.0000 0.0000 0.0000
# 3 31.6243 68.0499 150.2618 0.0000 0.0000 0.0000
# 4 0.0000 0.0000 0.0000 29.8291 0.0000 0.0000
# 5 0.0000 0.0000 0.0000 0.0000 -0.4636 0.0000
# 6 0.0000 0.0000 0.0000 0.0000 0.0000 17.4283
#
#
#
# Elastic Compliance Matrix: (Units=1/GPa)
#
#
# Indices 1 2 3 4 5 6 
#
# 1 0.027582 -0.003980 -0.004003 0.000000 0.000000 0.000000
# 2 -0.003980 0.009445 -0.003440 0.000000 0.000000 0.000000
# 3 -0.004003 -0.003440 0.009055 0.000000 0.000000 0.000000
# 4 0.000000 0.000000 0.000000 0.033524 0.000000 0.000000
# 5 0.000000 0.000000 0.000000 0.000000 -2.157214 0.000000
# 6 0.000000 0.000000 0.000000 0.000000 0.000000 0.057378
#
#
# Mechanical properties :
#
#
# Convention : Reuss Voigt Hill
#
# Bulk Modulus (GPa) = 43.03317 66.62128 54.82722
# Shear Modulus (GPa) = -2.51302 23.27917 10.38308
#
# Velocity S-wave (km/s) = -1.13042 3.44053 2.29776
# Velocity P-wave (km/s) = 4.49202 7.04694 5.90921
#
# Compressibility (1/GPa) = 0.02323789
#
# Stress axis : x y z
#
# Youngs Moduli (GPa) = 36.25542 105.87599 110.43314
#
# Poissons Ratio (x) = 0.42137 0.44202
# Poissons Ratio (y) = 0.14429 0.37987
# Poissons Ratio (z) = 0.14512 0.36419
#
# Static dielectric constant tensor:
#      x y z
#    x 2.993190 0.000000 0.000000 
#    y 0.000000 3.756740 0.000000 
#    z 0.000000 0.000000 3.781030 
# 
# 
# High freq. dielectric constant tensor:
#      x y z
#    x 1.701950 0.000000 0.000000 
#    y 0.000000 1.784180 0.000000 
#    z 0.000000 0.000000 1.772750 
# 
# From -- ./inp_files/23205.got.cif
#   From: 2010.03.12/outbox.cif.g09.slc.cpg/sg38_12_cif.got.tgz:23205.got - 2010.04.14 02:38:36.
