data_PCOD8178800
_publ_section_title
;
Structure prediction by ZEFSAII (Michael W. Deem and Ramdas Pophale) SiO2 
 PCOD8178800
Probable space group: A M M 2
;
_chemical_formula_sum "Si O2"
_cell_formula_units_Z 56
_cell_length_a 9.154566
_cell_length_b 13.636030
_cell_length_c 29.219728
_cell_angle_alpha 90.000000
_cell_angle_beta 90.000000
_cell_angle_gamma 90.000000
_cell_volume 3647.555234
_symmetry_space_group_name_H-M "A M M 2"
_symmetry_group_IT_number 38
_symmetry_cell_setting 'orthorhombic'
loop_
_space_group_symop_operation_xyz
x,y,z
-x,-y,z
-x,y,z
x,-y,z
x,1/2+y,1/2+z
-x,1/2-y,1/2+z
-x,1/2+y,1/2+z
x,1/2-y,1/2+z
loop_
_atom_site_type_symbol
_atom_site_label
_atom_site_fract_x
_atom_site_fract_y
_atom_site_fract_z
Si Si1 0.664803 0.383369 0.101350
Si Si2 0.172725 0.300047 0.285869
Si Si3 0.827608 0.722974 0.920622
Si Si4 0.669018 0.887008 0.870827
Si Si5 0.828908 0.112673 0.511813
Si Si6 0.169593 0.113912 0.690129
Si Si7 0.171859 0.106861 0.332372
O O1 0.500000 0.344016 0.100501
O O2 0.672284 0.500000 0.102087
O O3 0.746772 0.344910 0.056210
O O4 0.742808 0.342815 0.146924
O O5 0.253865 0.368617 0.322194
O O6 0.222553 0.328134 0.234990
O O7 0.217889 0.186356 0.294033
O O8 0.000000 0.316543 0.292785
O O9 0.743818 0.824566 0.911417
O O10 0.778648 0.644993 0.882119
O O11 0.000000 0.743255 0.918190
O O12 0.780066 0.679230 0.969275
O O13 0.500000 0.857336 0.866527
O O14 0.687885 0.000000 0.884327
O O15 0.000000 0.120874 0.521275
O O16 0.785263 0.000000 0.501623
O O17 0.000000 0.131285 0.680156
O O18 0.203979 0.000000 0.698312
O O19 0.000000 0.094265 0.332184
O O20 0.244453 0.000000 0.322628
#
# Coordination Sequence:
#
# PCOD8178800 Si02
#       7
#     8   8   8   8   8   8   8
#     4   9  17  27  39  58  84 112 139 167 205 253
#     4   9  17  28  44  64  83 109 144 176 208 247
#     4   9  17  28  44  64  83 109 143 172 201 242
#     4  10  20  31  42  59  85 114 141 172 210 249
#     4   9  16  27  44  65  88 112 138 170 208 248
#     4   9  16  26  40  58  81 108 138 173 210 247
#     4   8  13  23  40  62  86 108 133 167 203 240
#
# _framework density 15.35275
#
# number of rings (size 3 to 8) (size 9 to 14) (size 15 to 20)
#    0.000    3.000    0.000    2.571    0.000    6.286 
#    0.000    1.429    0.000   10.286    0.000    1.000 
#    0.000    5.714    0.000    0.000    0.000    0.000 
#
# Total GULP energy -347115.585226 kJ/mol
# GULP energy per Si atom -12396.985187 kJ/mol
# Density = 1.531781 g / cm^3
# Si number density = 15.352750 Si / 1000 Ang^3
#
#
#
# Elastic Constant Matrix: (Units=GPa)
#
#
# Indices 1 2 3 4 5 6 
#
# 1 58.6653 34.1186 54.7042 0.0000 0.0000 0.0000
# 2 34.1186 81.9805 56.7592 0.0000 0.0000 0.0000
# 3 54.7042 56.7592 151.4298 0.0000 0.0000 0.0000
# 4 0.0000 0.0000 0.0000 23.6906 0.0000 0.0000
# 5 0.0000 0.0000 0.0000 0.0000 13.5338 0.0000
# 6 0.0000 0.0000 0.0000 0.0000 0.0000 14.3884
#
#
#
# Elastic Compliance Matrix: (Units=1/GPa)
#
#
# Indices 1 2 3 4 5 6 
#
# 1 0.027894 -0.006256 -0.007732 0.000000 0.000000 0.000000
# 2 -0.006256 0.017876 -0.004440 0.000000 0.000000 0.000000
# 3 -0.007732 -0.004440 0.011061 0.000000 0.000000 0.000000
# 4 0.000000 0.000000 0.000000 0.042211 0.000000 0.000000
# 5 0.000000 0.000000 0.000000 0.000000 0.073889 0.000000
# 6 0.000000 0.000000 0.000000 0.000000 0.000000 0.069500
#
#
# Mechanical properties :
#
#
# Convention : Reuss Voigt Hill
#
# Bulk Modulus (GPa) = 50.06261 64.80438 57.43350
# Shear Modulus (GPa) = 17.48586 20.08881 18.78733
#
# Velocity S-wave (km/s) = 3.37848 3.62122 3.50195
# Velocity P-wave (km/s) = 6.92083 7.73215 7.33771
#
# Compressibility (1/GPa) = 0.01997499
#
# Stress axis : x y z
#
# Youngs Moduli (GPa) = 35.85018 55.94160 90.40569
#
# Poissons Ratio (x) = 0.34995 0.69901
# Poissons Ratio (y) = 0.22427 0.40144
# Poissons Ratio (z) = 0.27719 0.24840
#
# Static dielectric constant tensor:
#      x y z
#    x 2.858030 0.000000 0.000000 
#    y 0.000000 2.905470 0.000000 
#    z 0.000000 0.000000 3.012380 
# 
# 
# High freq. dielectric constant tensor:
#      x y z
#    x 1.578210 0.000000 0.000000 
#    y 0.000000 1.560000 0.000000 
#    z 0.000000 0.000000 1.586080 
# 
# From -- ./inp_files/24623.got.cif
#   From: 2010.03.12/outbox.cif.g09.slc.cpg/sg38_13_cif.got.tgz:24623.got - 2010.04.14 02:38:36.
