data_PCOD8178347
_publ_section_title
;
Structure prediction by ZEFSAII (Michael W. Deem and Ramdas Pophale) SiO2 
 PCOD8178347
Probable space group: A M M 2
;
_chemical_formula_sum "Si O2"
_cell_formula_units_Z 64
_cell_length_a 9.216450
_cell_length_b 24.944570
_cell_length_c 15.029689
_cell_angle_alpha 90.000000
_cell_angle_beta 90.000000
_cell_angle_gamma 90.000000
_cell_volume 3455.331245
_symmetry_space_group_name_H-M "A M M 2"
_symmetry_group_IT_number 38
_symmetry_cell_setting 'orthorhombic'
loop_
_space_group_symop_operation_xyz
x,y,z
-x,-y,z
-x,y,z
x,-y,z
x,1/2+y,1/2+z
-x,1/2-y,1/2+z
-x,1/2+y,1/2+z
x,1/2-y,1/2+z
loop_
_atom_site_type_symbol
_atom_site_label
_atom_site_fract_x
_atom_site_fract_y
_atom_site_fract_z
Si Si1 0.169850 0.647423 0.363290
Si Si2 0.330720 0.561976 0.250448
Si Si3 0.665348 0.725971 0.034729
Si Si4 0.329361 0.858618 0.231243
Si Si5 0.335899 0.251906 0.831228
Si Si6 0.671734 0.892834 0.564557
Si Si7 0.830530 0.330420 0.565602
Si Si8 0.672736 0.560415 0.881265
O O1 0.242986 0.594826 0.323612
O O2 0.232746 0.700893 0.317209
O O3 0.205752 0.646971 0.468085
O O4 0.000000 0.646147 0.344560
O O5 0.500000 0.576325 0.258712
O O6 0.300957 0.500000 0.269444
O O7 0.272527 0.576133 0.151757
O O8 0.500000 0.738739 0.063771
O O9 0.718916 0.669107 0.072703
O O10 0.768962 0.770539 0.076016
O O11 0.678059 0.722976 0.928736
O O12 0.500000 0.866036 0.216472
O O13 0.290907 0.798710 0.263813
O O14 0.247248 0.868439 0.137982
O O15 0.269403 0.901840 0.301979
O O16 0.500000 0.232489 0.813149
O O17 0.500000 0.896800 0.557106
O O18 0.738359 0.919834 0.475783
O O19 0.000000 0.329144 0.584711
O O20 0.500000 0.563771 0.884755
O O21 0.726102 0.500000 0.863099
#
# Coordination Sequence:
#
# PCOD8178347 Si02
#       8
#     8   8   8   8   8   8   8   8
#     4  10  22  39  56  75 104 143 186 228 275 323
#     4  10  21  36  56  83 111 140 180 228 273 319
#     4   9  16  30  52  78 108 141 176 211 255 316
#     4  10  19  32  53  82 111 142 179 219 265 317
#     4   9  17  31  52  78 108 140 175 216 263 318
#     4   9  16  29  51  81 113 143 171 207 261 321
#     4  10  22  37  52  74 107 144 182 225 272 320
#     4   9  16  29  52  82 114 143 174 215 262 317
#
# _framework density 18.522102
#
# number of rings (size 3 to 8) (size 9 to 14) (size 15 to 20)
#    0.000    2.500    1.250    1.125    1.750    3.750 
#    0.000    0.625    0.000    3.375    0.000    0.000 
#    0.000    0.000    0.000    0.000    0.000    0.000 
#
# Total GULP energy -396824.000723 kJ/mol
# GULP energy per Si atom -12400.750023 kJ/mol
# Density = 1.847995 g / cm^3
# Si number density = 18.522102 Si / 1000 Ang^3
#
#
#
# Elastic Constant Matrix: (Units=GPa)
#
#
# Indices 1 2 3 4 5 6 
#
# 1 60.7511 52.6986 50.1528 0.0000 0.0000 0.0000
# 2 52.6986 122.6559 72.3782 0.0000 0.0000 0.0000
# 3 50.1528 72.3782 114.3223 0.0000 0.0000 0.0000
# 4 0.0000 0.0000 0.0000 29.6718 0.0000 0.0000
# 5 0.0000 0.0000 0.0000 0.0000 21.3358 0.0000
# 6 0.0000 0.0000 0.0000 0.0000 0.0000 3.4070
#
#
#
# Elastic Compliance Matrix: (Units=1/GPa)
#
#
# Indices 1 2 3 4 5 6 
#
# 1 0.030268 -0.008252 -0.008054 0.000000 0.000000 0.000000
# 2 -0.008252 0.015265 -0.006044 0.000000 0.000000 0.000000
# 3 -0.008054 -0.006044 0.016107 0.000000 0.000000 0.000000
# 4 0.000000 0.000000 0.000000 0.033702 0.000000 0.000000
# 5 0.000000 0.000000 0.000000 0.000000 0.046870 0.000000
# 6 0.000000 0.000000 0.000000 0.000000 0.000000 0.293515
#
#
# Mechanical properties :
#
#
# Convention : Reuss Voigt Hill
#
# Bulk Modulus (GPa) = 59.03371 72.02096 65.52733
# Shear Modulus (GPa) = 10.28652 19.04956 14.66804
#
# Velocity S-wave (km/s) = 2.35917 3.21047 2.81716
# Velocity P-wave (km/s) = 6.27393 7.26023 6.78503
#
# Compressibility (1/GPa) = 0.01693947
#
# Stress axis : x y z
#
# Youngs Moduli (GPa) = 33.03871 65.50981 62.08406
#
# Poissons Ratio (x) = 0.54057 0.50003
# Poissons Ratio (y) = 0.27262 0.37526
# Poissons Ratio (z) = 0.26610 0.39596
#
# Static dielectric constant tensor:
#      x y z
#    x 3.066070 0.000000 0.000000 
#    y 0.000000 3.366900 0.000000 
#    z 0.000000 0.000000 3.520320 
# 
# 
# High freq. dielectric constant tensor:
#      x y z
#    x 1.680490 0.000000 0.000000 
#    y 0.000000 1.713010 0.000000 
#    z 0.000000 0.000000 1.727040 
# 
# From -- ./inp_files/12750.got.cif
#   From: 2010.03.12/outbox.cif.g09.slc.cpg/sg38_7_cif.got.tgz:12750.got - 2010.04.14 02:38:36.
