data_PCOD8178186
_publ_section_title
;
Structure prediction by ZEFSAII (Michael W. Deem and Ramdas Pophale) SiO2 
 PCOD8178186
Probable space group: A M M 2
;
_chemical_formula_sum "Si O2"
_cell_formula_units_Z 48
_cell_length_a 17.079730
_cell_length_b 8.792761
_cell_length_c 16.002132
_cell_angle_alpha 90.000000
_cell_angle_beta 90.000000
_cell_angle_gamma 90.000000
_cell_volume 2403.167921
_symmetry_space_group_name_H-M "A M M 2"
_symmetry_group_IT_number 38
_symmetry_cell_setting 'orthorhombic'
loop_
_space_group_symop_operation_xyz
x,y,z
-x,-y,z
-x,y,z
x,-y,z
x,1/2+y,1/2+z
-x,1/2-y,1/2+z
-x,1/2+y,1/2+z
x,1/2-y,1/2+z
loop_
_atom_site_type_symbol
_atom_site_label
_atom_site_fract_x
_atom_site_fract_y
_atom_site_fract_z
Si Si1 0.661147 0.679481 0.104590
Si Si2 0.500000 0.674467 0.842678
Si Si3 0.179263 0.680424 0.173770
Si Si4 0.332948 0.824411 0.415465
Si Si5 0.182570 0.178261 0.859300
Si Si6 0.500000 0.321813 0.170295
Si Si7 0.911361 0.319395 0.012011
O O1 0.653045 0.500000 0.115304
O O2 0.732253 0.743428 0.160935
O O3 0.578321 0.754338 0.131349
O O4 0.682261 0.722726 0.010481
O O5 0.500000 0.500000 0.810959
O O6 0.576489 0.709475 0.897159
O O7 0.500000 0.792383 0.768003
O O8 0.181252 0.500000 0.165817
O O9 0.150119 0.726430 0.266925
O O10 0.123809 0.744917 0.099645
O O11 0.274456 0.722183 0.360622
O O12 0.312328 0.000000 0.399150
O O13 0.172888 0.000000 0.873368
O O14 0.135429 0.263650 0.931185
O O15 0.500000 0.500000 0.151614
O O16 0.907380 0.500000 0.011867
O O17 0.000000 0.259696 0.005514
#
# Coordination Sequence:
#
# PCOD8178186 Si02
#       7
#     8   4   8   8   8   4   8
#     4   9  16  30  54  78 101 139 194 237 265 319
#     4  10  21  33  49  79 113 148 190 240 288 330
#     4   9  18  34  57  83 111 147 191 231 273 336
#     4  10  19  35  57  79 110 153 199 237 277 337
#     4  11  22  36  59  91 120 147 185 240 298 337
#     4  10  19  31  51  77 105 144 192 240 282 330
#     4  10  21  40  64  85 110 151 195 231 278 349
#
# _framework density 19.973635999999999
#
# number of rings (size 3 to 8) (size 9 to 14) (size 15 to 20)
#    0.000    2.167    1.667    2.000    0.000    5.000 
#    0.000    4.167    0.000    1.000    0.000    0.000 
#    0.000    0.000    0.000    0.000    0.000    0.000 
#
# Total GULP energy -297501.041945 kJ/mol
# GULP energy per Si atom -12395.876748 kJ/mol
# Density = 1.992818 g / cm^3
# Si number density = 19.973636 Si / 1000 Ang^3
#
#
#
# Elastic Constant Matrix: (Units=GPa)
#
#
# Indices 1 2 3 4 5 6 
#
# 1 137.6771 15.6430 60.1911 0.0000 0.0000 0.0000
# 2 15.6430 14.4591 13.5438 0.0000 0.0000 0.0000
# 3 60.1911 13.5438 125.5713 0.0000 0.0000 0.0000
# 4 0.0000 0.0000 0.0000 26.3243 0.0000 0.0000
# 5 0.0000 0.0000 0.0000 0.0000 23.9085 0.0000
# 6 0.0000 0.0000 0.0000 0.0000 0.0000 19.0705
#
#
#
# Elastic Compliance Matrix: (Units=1/GPa)
#
#
# Indices 1 2 3 4 5 6 
#
# 1 0.009767 -0.006876 -0.003940 0.000000 0.000000 0.000000
# 2 -0.006876 0.081774 -0.005524 0.000000 0.000000 0.000000
# 3 -0.003940 -0.005524 0.010448 0.000000 0.000000 0.000000
# 4 0.000000 0.000000 0.000000 0.037988 0.000000 0.000000
# 5 0.000000 0.000000 0.000000 0.000000 0.041826 0.000000
# 6 0.000000 0.000000 0.000000 0.000000 0.000000 0.052437
#
#
# Mechanical properties :
#
#
# Convention : Reuss Voigt Hill
#
# Bulk Modulus (GPa) = 14.42822 50.71814 32.57318
# Shear Modulus (GPa) = 17.23997 26.41595 21.82796
#
# Velocity S-wave (km/s) = 2.94111 3.64062 3.30940
# Velocity P-wave (km/s) = 4.33276 6.56657 5.56294
#
# Compressibility (1/GPa) = 0.06930862
#
# Stress axis : x y z
#
# Youngs Moduli (GPa) = 102.38285 12.22884 95.71151
#
# Poissons Ratio (x) = 0.08409 0.37712
# Poissons Ratio (y) = 0.70401 0.52870
# Poissons Ratio (z) = 0.40340 0.06755
#
# Static dielectric constant tensor:
#      x y z
#    x 3.958140 0.000000 0.000000 
#    y 0.000000 3.192680 0.000000 
#    z 0.000000 0.000000 3.782470 
# 
# 
# High freq. dielectric constant tensor:
#      x y z
#    x 1.788760 0.000000 0.000000 
#    y 0.000000 1.728860 0.000000 
#    z 0.000000 0.000000 1.791820 
# 
# From -- ./inp_files/14995.got.cif
#   From: 2010.03.12/outbox.cif.g09.slc.cpg/sg38_8_cif.got.tgz:14995.got - 2010.04.14 02:38:36.
