data_PCOD8178489
_publ_section_title
;
Structure prediction by ZEFSAII (Michael W. Deem and Ramdas Pophale) SiO2 
 PCOD8178489
Probable space group: A M M 2
;
_chemical_formula_sum "Si O2"
_cell_formula_units_Z 64
_cell_length_a 8.774592
_cell_length_b 28.991961
_cell_length_c 12.669587
_cell_angle_alpha 90.000000
_cell_angle_beta 90.000000
_cell_angle_gamma 90.000000
_cell_volume 3223.049546
_symmetry_space_group_name_H-M "A M M 2"
_symmetry_group_IT_number 38
_symmetry_cell_setting 'orthorhombic'
loop_
_space_group_symop_operation_xyz
x,y,z
-x,-y,z
-x,y,z
x,-y,z
x,1/2+y,1/2+z
-x,1/2-y,1/2+z
-x,1/2+y,1/2+z
x,1/2-y,1/2+z
loop_
_atom_site_type_symbol
_atom_site_label
_atom_site_fract_x
_atom_site_fract_y
_atom_site_fract_z
Si Si1 0.180134 0.553079 0.400630
Si Si2 0.319688 0.099426 0.106355
Si Si3 0.680467 0.202752 0.615015
Si Si4 0.173462 0.050590 0.537203
Si Si5 0.826119 0.921353 0.314553
Si Si6 0.671169 0.199620 0.169478
Si Si7 0.671758 0.833743 0.392513
Si Si8 0.678274 0.608608 0.208906
O O1 0.237626 0.500000 0.390423
O O2 0.247719 0.576248 0.504636
O O3 0.229473 0.582988 0.300097
O O4 0.000000 0.554327 0.408696
O O5 0.500000 0.099303 0.094695
O O6 0.276534 0.069688 0.210789
O O7 0.255547 0.152030 0.123048
O O8 0.500000 0.206913 0.624951
O O9 0.756908 0.252843 0.637407
O O10 0.730527 0.191257 0.496699
O O11 0.731541 0.162155 0.696531
O O12 0.212118 0.044882 0.412304
O O13 0.288785 0.084790 0.596016
O O14 0.000000 0.068729 0.551150
O O15 0.190511 0.000000 0.588678
O O16 0.795587 0.871705 0.364801
O O17 0.000000 0.926032 0.277346
O O18 0.500000 0.200371 0.124288
O O19 0.669980 0.201881 0.296050
O O20 0.500000 0.854386 0.407679
O O21 0.500000 0.604887 0.234487
#
# Coordination Sequence:
#
# PCOD8178489 Si02
#       8
#     8   8   8   8   8   8   8   8
#     4  11  25  44  63  82 114 161 202 241 300 368
#     4  10  21  38  62  88 115 147 192 245 293 340
#     4   9  17  30  52  83 115 150 193 241 293 346
#     4  10  21  36  54  78 110 149 188 226 279 347
#     4  10  19  33  55  80 110 148 186 226 282 348
#     4   8  16  30  52  83 114 150 190 236 292 348
#     4   9  16  30  51  74 107 145 185 235 285 334
#     4  11  22  36  58  87 115 147 195 248 293 339
#
# _framework density 19.856971000000001
#
# number of rings (size 3 to 8) (size 9 to 14) (size 15 to 20)
#    0.000    2.250    1.250    2.625    0.000    4.750 
#    0.000    5.000    0.000   14.250    0.000    0.000 
#    0.000    0.000    0.000    0.000    0.000    0.000 
#
# Total GULP energy -396523.127480 kJ/mol
# GULP energy per Si atom -12391.347734 kJ/mol
# Density = 1.981178 g / cm^3
# Si number density = 19.856971 Si / 1000 Ang^3
#
#
#
# Elastic Constant Matrix: (Units=GPa)
#
#
# Indices 1 2 3 4 5 6 
#
# 1 45.9270 27.5879 28.6234 0.0000 0.0000 0.0000
# 2 27.5879 106.1664 51.2961 0.0000 0.0000 0.0000
# 3 28.6234 51.2961 116.8947 0.0000 0.0000 0.0000
# 4 0.0000 0.0000 0.0000 26.0478 0.0000 0.0000
# 5 0.0000 0.0000 0.0000 0.0000 32.6563 0.0000
# 6 0.0000 0.0000 0.0000 0.0000 0.0000 14.7744
#
#
#
# Elastic Compliance Matrix: (Units=1/GPa)
#
#
# Indices 1 2 3 4 5 6 
#
# 1 0.027610 -0.004960 -0.004584 0.000000 0.000000 0.000000
# 2 -0.004960 0.012845 -0.004422 0.000000 0.000000 0.000000
# 3 -0.004584 -0.004422 0.011618 0.000000 0.000000 0.000000
# 4 0.000000 0.000000 0.000000 0.038391 0.000000 0.000000
# 5 0.000000 0.000000 0.000000 0.000000 0.030622 0.000000
# 6 0.000000 0.000000 0.000000 0.000000 0.000000 0.067685
#
#
# Mechanical properties :
#
#
# Convention : Reuss Voigt Hill
#
# Bulk Modulus (GPa) = 41.42450 53.77812 47.60131
# Shear Modulus (GPa) = 22.24708 25.46109 23.85408
#
# Velocity S-wave (km/s) = 3.35082 3.58470 3.46973
# Velocity P-wave (km/s) = 5.98977 6.65394 6.33057
#
# Compressibility (1/GPa) = 0.02414030
#
# Stress axis : x y z
#
# Youngs Moduli (GPa) = 36.21876 77.85406 86.07525
#
# Poissons Ratio (x) = 0.38613 0.39460
# Poissons Ratio (y) = 0.17963 0.38063
# Poissons Ratio (z) = 0.16604 0.34427
#
# Static dielectric constant tensor:
#      x y z
#    x 3.343840 0.000000 0.000000 
#    y 0.000000 3.935200 0.000000 
#    z 0.000000 0.000000 3.833980 
# 
# 
# High freq. dielectric constant tensor:
#      x y z
#    x 1.745030 0.000000 0.000000 
#    y 0.000000 1.774720 0.000000 
#    z 0.000000 0.000000 1.780610 
# 
# From -- ./inp_files/8623.got.cif
#   From: 2010.03.12/outbox.cif.g09.slc.cpg/sg38_5_cif.got.tgz:8623.got - 2010.04.14 02:38:36.
