data_PCOD8178297
_publ_section_title
;
Structure prediction by ZEFSAII (Michael W. Deem and Ramdas Pophale) SiO2 
 PCOD8178297
Probable space group: A M M 2
;
_chemical_formula_sum "Si O2"
_cell_formula_units_Z 56
_cell_length_a 9.124683
_cell_length_b 23.242398
_cell_length_c 14.041173
_cell_angle_alpha 90.000000
_cell_angle_beta 90.000000
_cell_angle_gamma 90.000000
_cell_volume 2977.845145
_symmetry_space_group_name_H-M "A M M 2"
_symmetry_group_IT_number 38
_symmetry_cell_setting 'orthorhombic'
loop_
_space_group_symop_operation_xyz
x,y,z
-x,-y,z
-x,y,z
x,-y,z
x,1/2+y,1/2+z
-x,1/2-y,1/2+z
-x,1/2+y,1/2+z
x,1/2-y,1/2+z
loop_
_atom_site_type_symbol
_atom_site_label
_atom_site_fract_x
_atom_site_fract_y
_atom_site_fract_z
Si Si1 0.827271 0.500000 0.096180
Si Si2 0.168147 0.220928 0.589782
Si Si3 0.826880 0.110164 0.475846
Si Si4 0.326216 0.661320 0.809091
Si Si5 0.170138 0.721158 0.310603
Si Si6 0.327582 0.500000 0.299074
Si Si7 0.668583 0.884130 0.902664
Si Si8 0.333115 0.833596 0.095410
O O1 0.750844 0.500000 0.198031
O O2 0.000000 0.500000 0.114888
O O3 0.776722 0.555043 0.035845
O O4 0.227269 0.165597 0.534336
O O5 0.195674 0.209150 0.700075
O O6 0.249721 0.277966 0.554904
O O7 0.000000 0.231358 0.565826
O O8 0.743376 0.111200 0.374476
O O9 0.000000 0.109180 0.457653
O O10 0.500000 0.662548 0.821914
O O11 0.258871 0.722305 0.842495
O O12 0.277194 0.647285 0.700090
O O13 0.228354 0.665419 0.363459
O O14 0.000000 0.731085 0.335542
O O15 0.500000 0.500000 0.281053
O O16 0.278459 0.555223 0.360542
O O17 0.500000 0.871596 0.874361
O O18 0.685419 0.884846 0.018271
O O19 0.500000 0.814101 0.106081
#
# Coordination Sequence:
#
# PCOD8178297 Si02
#       8
#     4   8   8   8   8   4   8   8
#     4  10  22  40  59  78 106 140 175 216 263 314
#     4   9  18  31  49  75 105 134 167 207 256 310
#     4  10  20  35  54  76 103 139 177 214 259 310
#     4  10  20  34  52  77 107 138 172 214 261 311
#     4  10  19  32  52  79 108 138 172 213 260 314
#     4  10  22  38  57  80 106 136 175 220 263 310
#     4  10  20  35  53  75 104 139 176 216 262 311
#     4   9  19  34  51  73 103 136 170 208 256 308
#
# _framework density 18.805546
#
# number of rings (size 3 to 8) (size 9 to 14) (size 15 to 20)
#    0.000    2.286    0.000    2.571    0.000    6.857 
#    0.000    0.714    0.000    1.714    0.000    0.000 
#    0.000    0.000    0.000    0.000    0.000    0.000 
#
# Total GULP energy -347206.796123 kJ/mol
# GULP energy per Si atom -12400.242719 kJ/mol
# Density = 1.876274 g / cm^3
# Si number density = 18.805546 Si / 1000 Ang^3
#
#
#
# Elastic Constant Matrix: (Units=GPa)
#
#
# Indices 1 2 3 4 5 6 
#
# 1 55.8357 39.1692 45.0493 0.0000 0.0000 0.0000
# 2 39.1692 110.0416 90.8660 0.0000 0.0000 0.0000
# 3 45.0493 90.8660 122.4046 0.0000 0.0000 0.0000
# 4 0.0000 0.0000 0.0000 34.1810 0.0000 0.0000
# 5 0.0000 0.0000 0.0000 0.0000 28.6141 0.0000
# 6 0.0000 0.0000 0.0000 0.0000 0.0000 22.4032
#
#
#
# Elastic Compliance Matrix: (Units=1/GPa)
#
#
# Indices 1 2 3 4 5 6 
#
# 1 0.025984 -0.003494 -0.006969 0.000000 0.000000 0.000000
# 2 -0.003494 0.023951 -0.016494 0.000000 0.000000 0.000000
# 3 -0.006969 -0.016494 0.022978 0.000000 0.000000 0.000000
# 4 0.000000 0.000000 0.000000 0.029256 0.000000 0.000000
# 5 0.000000 0.000000 0.000000 0.000000 0.034948 0.000000
# 6 0.000000 0.000000 0.000000 0.000000 0.000000 0.044636
#
#
# Mechanical properties :
#
#
# Convention : Reuss Voigt Hill
#
# Bulk Modulus (GPa) = 52.63432 70.93901 61.78667
# Shear Modulus (GPa) = 20.66120 24.58617 22.62368
#
# Velocity S-wave (km/s) = 3.31822 3.61971 3.47224
# Velocity P-wave (km/s) = 6.53684 7.43465 7.00015
#
# Compressibility (1/GPa) = 0.01899901
#
# Stress axis : x y z
#
# Youngs Moduli (GPa) = 38.48578 41.75242 43.51925
#
# Poissons Ratio (x) = 0.14589 0.30328
# Poissons Ratio (y) = 0.13448 0.71779
# Poissons Ratio (z) = 0.26821 0.68865
#
# Static dielectric constant tensor:
#      x y z
#    x 3.379410 0.000000 0.000000 
#    y 0.000000 3.444370 0.000000 
#    z 0.000000 0.000000 3.708670 
# 
# 
# High freq. dielectric constant tensor:
#      x y z
#    x 1.725860 0.000000 0.000000 
#    y 0.000000 1.709510 0.000000 
#    z 0.000000 0.000000 1.748520 
# 
# From -- ./inp_files/12460.got.cif
#   From: 2010.03.12/outbox.cif.g09.slc.cpg/sg38_7_cif.got.tgz:12460.got - 2010.04.14 02:38:36.
