data_PCOD8178312
_publ_section_title
;
Structure prediction by ZEFSAII (Michael W. Deem and Ramdas Pophale) SiO2 
 PCOD8178312
Probable space group: A M M 2
;
_chemical_formula_sum "Si O2"
_cell_formula_units_Z 64
_cell_length_a 9.082853
_cell_length_b 18.440372
_cell_length_c 20.671174
_cell_angle_alpha 90.000000
_cell_angle_beta 90.000000
_cell_angle_gamma 90.000000
_cell_volume 3462.239494
_symmetry_space_group_name_H-M "A M M 2"
_symmetry_group_IT_number 38
_symmetry_cell_setting 'orthorhombic'
loop_
_space_group_symop_operation_xyz
x,y,z
-x,-y,z
-x,y,z
x,-y,z
x,1/2+y,1/2+z
-x,1/2-y,1/2+z
-x,1/2+y,1/2+z
x,1/2-y,1/2+z
loop_
_atom_site_type_symbol
_atom_site_label
_atom_site_fract_x
_atom_site_fract_y
_atom_site_fract_z
Si Si1 0.829200 0.183651 0.743690
Si Si2 0.828439 0.687266 0.101911
Si Si3 0.329751 0.838927 0.113047
Si Si4 0.825037 0.581624 0.355041
Si Si5 0.668675 0.083683 0.355899
Si Si6 0.825454 0.848294 0.237695
Si Si7 0.671903 0.675530 0.978914
Si Si8 0.331808 0.656266 0.469962
O O1 0.804929 0.148809 0.671928
O O2 0.756418 0.131444 0.797521
O O3 0.766395 0.265776 0.748148
O O4 0.000000 0.189374 0.759562
O O5 0.737636 0.760301 0.105153
O O6 0.000000 0.703522 0.090243
O O7 0.761442 0.643326 0.041007
O O8 0.500000 0.832994 0.132478
O O9 0.243339 0.880009 0.170721
O O10 0.312235 0.876441 0.042610
O O11 0.766747 0.500000 0.344734
O O12 0.772906 0.610704 0.423934
O O13 0.000000 0.583156 0.353922
O O14 0.500000 0.102615 0.338351
O O15 0.771983 0.101616 0.295692
O O16 0.722828 0.130043 0.417002
O O17 0.686968 0.000000 0.374153
O O18 0.000000 0.851745 0.231815
O O19 0.500000 0.665822 0.993519
O O20 0.713659 0.759210 0.966573
O O21 0.500000 0.647573 0.447018
#
# Coordination Sequence:
#
# PCOD8178312 Si02
#       8
#     8   8   8   8   8   8   8   8
#     4   8  16  31  49  72 100 127 158 197 244 293
#     4   9  16  28  49  76 102 128 162 207 252 291
#     4   9  17  31  51  75 102 130 161 201 250 302
#     4  10  20  33  49  69  96 131 166 199 238 287
#     4  10  21  36  52  71 100 137 171 205 250 305
#     4  10  19  32  53  78 101 127 163 209 253 295
#     4   9  18  33  52  75 101 130 166 205 248 300
#     4   9  18  32  51  74  98 125 159 201 245 288
#
# _framework density 18.485143999999998
#
# number of rings (size 3 to 8) (size 9 to 14) (size 15 to 20)
#    0.000    2.750    0.000    3.375    0.000    3.500 
#    0.000    4.375    0.000    1.500    0.000    0.000 
#    0.000    0.000    0.000    0.000    0.000    0.000 
#
# Total GULP energy -396610.807001 kJ/mol
# GULP energy per Si atom -12394.087719 kJ/mol
# Density = 1.844307 g / cm^3
# Si number density = 18.485144 Si / 1000 Ang^3
#
#
#
# Elastic Constant Matrix: (Units=GPa)
#
#
# Indices 1 2 3 4 5 6 
#
# 1 53.9476 16.8962 38.7713 0.0000 0.0000 0.0000
# 2 16.8962 48.4955 29.5207 0.0000 0.0000 0.0000
# 3 38.7713 29.5207 122.3043 0.0000 0.0000 0.0000
# 4 0.0000 0.0000 0.0000 3.8911 0.0000 0.0000
# 5 0.0000 0.0000 0.0000 0.0000 32.5483 0.0000
# 6 0.0000 0.0000 0.0000 0.0000 0.0000 16.4247
#
#
#
# Elastic Compliance Matrix: (Units=1/GPa)
#
#
# Indices 1 2 3 4 5 6 
#
# 1 0.024824 -0.004523 -0.006778 0.000000 0.000000 0.000000
# 2 -0.004523 0.024996 -0.004600 0.000000 0.000000 0.000000
# 3 -0.006778 -0.004600 0.011435 0.000000 0.000000 0.000000
# 4 0.000000 0.000000 0.000000 0.256996 0.000000 0.000000
# 5 0.000000 0.000000 0.000000 0.000000 0.030724 0.000000
# 6 0.000000 0.000000 0.000000 0.000000 0.000000 0.060884
#
#
# Mechanical properties :
#
#
# Convention : Reuss Voigt Hill
#
# Bulk Modulus (GPa) = 33.95027 43.90265 38.92646
# Shear Modulus (GPa) = 11.07476 19.87678 15.47577
#
# Velocity S-wave (km/s) = 2.45034 3.28271 2.89658
# Velocity P-wave (km/s) = 5.13923 6.17819 5.68250
#
# Compressibility (1/GPa) = 0.02945485
#
# Stress axis : x y z
#
# Youngs Moduli (GPa) = 40.28335 40.00606 87.45009
#
# Poissons Ratio (x) = 0.18095 0.59271
# Poissons Ratio (y) = 0.18221 0.40223
# Poissons Ratio (z) = 0.27303 0.18401
#
# Static dielectric constant tensor:
#      x y z
#    x 3.355160 0.000000 0.000000 
#    y 0.000000 3.192480 0.000000 
#    z 0.000000 0.000000 4.040910 
# 
# 
# High freq. dielectric constant tensor:
#      x y z
#    x 1.707360 0.000000 0.000000 
#    y 0.000000 1.675320 0.000000 
#    z 0.000000 0.000000 1.737610 
# 
# From -- ./inp_files/20073.got.cif
#   From: 2010.03.12/outbox.cif.g09.slc.cpg/sg38_11_cif.got.tgz:20073.got - 2010.04.14 02:38:36.
