data_PCOD8178630
_publ_section_title
;
Structure prediction by ZEFSAII (Michael W. Deem and Ramdas Pophale) SiO2 
 PCOD8178630
Probable space group: A M M 2
;
_chemical_formula_sum "Si O2"
_cell_formula_units_Z 56
_cell_length_a 16.500187
_cell_length_b 8.887985
_cell_length_c 20.306957
_cell_angle_alpha 90.000000
_cell_angle_beta 90.000000
_cell_angle_gamma 90.000000
_cell_volume 2978.084583
_symmetry_space_group_name_H-M "A M M 2"
_symmetry_group_IT_number 38
_symmetry_cell_setting 'orthorhombic'
loop_
_space_group_symop_operation_xyz
x,y,z
-x,-y,z
-x,y,z
x,-y,z
x,1/2+y,1/2+z
-x,1/2-y,1/2+z
-x,1/2+y,1/2+z
x,1/2-y,1/2+z
loop_
_atom_site_type_symbol
_atom_site_label
_atom_site_fract_x
_atom_site_fract_y
_atom_site_fract_z
Si Si1 0.409030 0.327715 0.023980
Si Si2 0.154459 0.172028 0.579626
Si Si3 0.408862 0.823059 0.160464
Si Si4 0.000000 0.176259 0.029149
Si Si5 0.746164 0.823326 0.706591
Si Si6 0.000000 0.321540 0.885614
Si Si7 0.256432 0.829998 0.448041
Si Si8 0.838760 0.176059 0.837316
O O1 0.500000 0.300692 0.998291
O O2 0.394976 0.500000 0.046945
O O3 0.388618 0.223977 0.085930
O O4 0.350083 0.289761 0.963007
O O5 0.077291 0.278911 0.572327
O O6 0.205356 0.229894 0.642042
O O7 0.208947 0.187412 0.515685
O O8 0.125769 0.000000 0.590196
O O9 0.500000 0.768098 0.179449
O O10 0.342724 0.751897 0.209454
O O11 0.402481 0.000000 0.166118
O O12 0.000000 0.000000 0.014560
O O13 0.000000 0.261358 0.959746
O O14 0.797943 0.771702 0.769469
O O15 0.731960 0.000000 0.706526
O O16 0.078502 0.267143 0.846207
O O17 0.000000 0.500000 0.889805
O O18 0.223536 0.711742 0.395751
O O19 0.247046 0.000000 0.420513
O O20 0.859019 0.000000 0.837847
#
# Coordination Sequence:
#
# PCOD8178630 Si02
#       8
#     8   8   8   4   8   4   8   8
#     4   9  17  32  56  84 114 151 195 238 281 337
#     4  10  20  37  60  84 112 147 189 234 282 337
#     4  10  20  33  54  86 119 150 187 237 291 336
#     4  12  24  37  58  89 117 145 189 241 288 334
#     4  10  22  41  61  84 115 155 195 232 280 343
#     4  12  24  41  62  83 113 153 191 229 282 348
#     4  10  19  34  58  85 114 150 191 232 282 340
#     4  11  24  40  61  86 115 151 192 237 285 336
#
# _framework density 18.804031999999999
#
# number of rings (size 3 to 8) (size 9 to 14) (size 15 to 20)
#    0.000    1.714    2.857    2.143    0.000    3.714 
#    0.000    3.571    0.000    2.571    0.000    0.000 
#    0.000    0.000    0.000    0.000    0.000    0.000 
#
# Total GULP energy -347275.198852 kJ/mol
# GULP energy per Si atom -12402.685673 kJ/mol
# Density = 1.876123 g / cm^3
# Si number density = 18.804032 Si / 1000 Ang^3
#
#
#
# Elastic Constant Matrix: (Units=GPa)
#
#
# Indices 1 2 3 4 5 6 
#
# 1 150.1459 57.2379 56.0187 0.0000 0.0000 0.0000
# 2 57.2379 80.3931 39.8667 0.0000 0.0000 0.0000
# 3 56.0187 39.8667 95.6873 0.0000 0.0000 0.0000
# 4 0.0000 0.0000 0.0000 26.3672 0.0000 0.0000
# 5 0.0000 0.0000 0.0000 0.0000 17.5816 0.0000
# 6 0.0000 0.0000 0.0000 0.0000 0.0000 31.6085
#
#
#
# Elastic Compliance Matrix: (Units=1/GPa)
#
#
# Indices 1 2 3 4 5 6 
#
# 1 0.010067 -0.005350 -0.003664 0.000000 0.000000 0.000000
# 2 -0.005350 0.018522 -0.004585 0.000000 0.000000 0.000000
# 3 -0.003664 -0.004585 0.014506 0.000000 0.000000 0.000000
# 4 0.000000 0.000000 0.000000 0.037926 0.000000 0.000000
# 5 0.000000 0.000000 0.000000 0.000000 0.056878 0.000000
# 6 0.000000 0.000000 0.000000 0.000000 0.000000 0.031637
#
#
# Mechanical properties :
#
#
# Convention : Reuss Voigt Hill
#
# Bulk Modulus (GPa) = 62.90819 70.27476 66.59148
# Shear Modulus (GPa) = 24.74850 26.65166 25.70008
#
# Velocity S-wave (km/s) = 3.63178 3.76884 3.70095
# Velocity P-wave (km/s) = 7.14939 7.50947 7.33164
#
# Compressibility (1/GPa) = 0.01589618
#
# Stress axis : x y z
#
# Youngs Moduli (GPa) = 99.33483 53.99113 68.93655
#
# Poissons Ratio (x) = 0.28886 0.25261
# Poissons Ratio (y) = 0.53146 0.31604
# Poissons Ratio (z) = 0.36401 0.24752
#
# Static dielectric constant tensor:
#      x y z
#    x 3.985700 0.000000 0.000000 
#    y 0.000000 3.412120 0.000000 
#    z 0.000000 0.000000 3.375070 
# 
# 
# High freq. dielectric constant tensor:
#      x y z
#    x 1.748660 0.000000 0.000000 
#    y 0.000000 1.726600 0.000000 
#    z 0.000000 0.000000 1.708460 
# 
# From -- ./inp_files/21163.got.cif
#   From: 2010.03.12/outbox.cif.g09.slc.cpg/sg38_11_cif.got.tgz:21163.got - 2010.04.14 02:38:36.
