data_PCOD8178679
_publ_section_title
;
Structure prediction by ZEFSAII (Michael W. Deem and Ramdas Pophale) SiO2 
 PCOD8178679
Probable space group: A M M 2
;
_chemical_formula_sum "Si O2"
_cell_formula_units_Z 40
_cell_length_a 8.353247
_cell_length_b 29.185422
_cell_length_c 7.882153
_cell_angle_alpha 90.000000
_cell_angle_beta 90.000000
_cell_angle_gamma 90.000000
_cell_volume 1921.614032
_symmetry_space_group_name_H-M "A M M 2"
_symmetry_group_IT_number 38
_symmetry_cell_setting 'orthorhombic'
loop_
_space_group_symop_operation_xyz
x,y,z
-x,-y,z
-x,y,z
x,-y,z
x,1/2+y,1/2+z
-x,1/2-y,1/2+z
-x,1/2+y,1/2+z
x,1/2-y,1/2+z
loop_
_atom_site_type_symbol
_atom_site_label
_atom_site_fract_x
_atom_site_fract_y
_atom_site_fract_z
Si Si1 0.688340 0.389884 0.281980
Si Si2 0.684125 0.293068 0.160859
Si Si3 0.309200 0.948566 0.470709
Si Si4 0.688633 0.887227 0.158464
Si Si5 0.817267 0.797820 0.302817
O O1 0.500000 0.389209 0.251667
O O2 0.750059 0.337847 0.258721
O O3 0.731845 0.407234 0.471467
O O4 0.761884 0.423485 0.138526
O O5 0.500000 0.282716 0.207007
O O6 0.792492 0.250054 0.207986
O O7 0.698801 0.302572 0.961288
O O8 0.500000 0.949718 0.474931
O O9 0.249698 0.922460 0.301464
O O10 0.239827 0.000000 0.466480
O O11 0.500000 0.878744 0.174286
O O12 0.777113 0.838778 0.174442
O O13 0.000000 0.801153 0.363447
#
# Coordination Sequence:
#
# PCOD8178679 Si02
#       5
#     8   8   8   8   8
#     4   9  18  32  54  83 113 148 192 239 290 349
#     4  11  21  37  58  81 114 159 203 243 291 360
#     4   9  17  31  54  87 121 149 190 251 304 347
#     4  10  19  35  58  83 115 157 198 238 295 363
#     4  12  24  37  55  85 120 154 196 250 302 354
#
# _framework density 20.815835
#
# number of rings (size 3 to 8) (size 9 to 14) (size 15 to 20)
#    0.000    1.800    2.000    3.600    0.000    2.400 
#    0.000    5.000    0.000    0.600    0.000    0.000 
#    0.000    0.000    0.000    0.000    0.000    0.000 
#
# Total GULP energy -248017.035912 kJ/mol
# GULP energy per Si atom -12400.851796 kJ/mol
# Density = 2.076846 g / cm^3
# Si number density = 20.815835 Si / 1000 Ang^3
#
#
#
# Elastic Constant Matrix: (Units=GPa)
#
#
# Indices 1 2 3 4 5 6 
#
# 1 37.3399 20.3515 12.2929 0.0000 0.0000 0.0000
# 2 20.3515 168.2350 83.1509 0.0000 0.0000 0.0000
# 3 12.2929 83.1509 169.3973 0.0000 0.0000 0.0000
# 4 0.0000 0.0000 0.0000 32.3768 0.0000 0.0000
# 5 0.0000 0.0000 0.0000 0.0000 11.0503 0.0000
# 6 0.0000 0.0000 0.0000 0.0000 0.0000 2.5924
#
#
#
# Elastic Compliance Matrix: (Units=1/GPa)
#
#
# Indices 1 2 3 4 5 6 
#
# 1 0.028703 -0.003225 -0.000500 0.000000 0.000000 0.000000
# 2 -0.003225 0.008211 -0.003796 0.000000 0.000000 0.000000
# 3 -0.000500 -0.003796 0.007803 0.000000 0.000000 0.000000
# 4 0.000000 0.000000 0.000000 0.030886 0.000000 0.000000
# 5 0.000000 0.000000 0.000000 0.000000 0.090495 0.000000
# 6 0.000000 0.000000 0.000000 0.000000 0.000000 0.385747
#
#
# Mechanical properties :
#
#
# Convention : Reuss Voigt Hill
#
# Bulk Modulus (GPa) = 33.69909 67.39587 50.54748
# Shear Modulus (GPa) = 8.66882 26.48234 17.57558
#
# Velocity S-wave (km/s) = 2.04293 3.57069 2.90890
# Velocity P-wave (km/s) = 4.66788 7.03188 5.96810
#
# Compressibility (1/GPa) = 0.02967439
#
# Stress axis : x y z
#
# Youngs Moduli (GPa) = 34.83908 121.79512 128.15648
#
# Poissons Ratio (x) = 0.39282 0.06405
# Poissons Ratio (y) = 0.11236 0.48651
# Poissons Ratio (z) = 0.01741 0.46236
#
# Static dielectric constant tensor:
#      x y z
#    x 3.168950 0.000000 0.000000 
#    y 0.000000 3.891750 0.000000 
#    z 0.000000 0.000000 3.896090 
# 
# 
# High freq. dielectric constant tensor:
#      x y z
#    x 1.765470 0.000000 0.000000 
#    y 0.000000 1.812540 0.000000 
#    z 0.000000 0.000000 1.828000 
# 
# From -- ./inp_files/3445.got.cif
#   From: 2010.03.12/outbox.cif.g09.slc.cpg/sg38_2_cif.got.tgz:3445.got - 2010.04.14 02:38:36.
