data_PCOD8178056
_publ_section_title
;
Structure prediction by ZEFSAII (Michael W. Deem and Ramdas Pophale) SiO2 
 PCOD8178056
Probable space group: A M M 2
;
_chemical_formula_sum "Si O2"
_cell_formula_units_Z 64
_cell_length_a 14.185254
_cell_length_b 18.014146
_cell_length_c 11.967037
_cell_angle_alpha 90.000000
_cell_angle_beta 90.000000
_cell_angle_gamma 90.000000
_cell_volume 3057.999631
_symmetry_space_group_name_H-M "A M M 2"
_symmetry_group_IT_number 38
_symmetry_cell_setting 'orthorhombic'
loop_
_space_group_symop_operation_xyz
x,y,z
-x,-y,z
-x,y,z
x,-y,z
x,1/2+y,1/2+z
-x,1/2-y,1/2+z
-x,1/2+y,1/2+z
x,1/2-y,1/2+z
loop_
_atom_site_type_symbol
_atom_site_label
_atom_site_fract_x
_atom_site_fract_y
_atom_site_fract_z
Si Si1 0.895776 0.584472 0.393310
Si Si2 0.396501 0.418868 0.298434
Si Si3 0.603867 0.878232 0.558108
Si Si4 0.224998 0.705902 0.799427
Si Si5 0.730555 0.331763 0.450751
Si Si6 0.797044 0.412495 0.963441
Si Si7 0.891837 0.676451 0.168348
Si Si8 0.608113 0.788244 0.144163
O O1 0.869488 0.500000 0.371890
O O2 0.822633 0.619472 0.481958
O O3 0.886536 0.623717 0.274526
O O4 0.000000 0.594226 0.443947
O O5 0.500000 0.385393 0.327538
O O6 0.384462 0.500000 0.354024
O O7 0.387114 0.430132 0.166112
O O8 0.316130 0.363822 0.338488
O O9 0.500000 0.886932 0.501989
O O10 0.683788 0.904094 0.472502
O O11 0.617456 0.795166 0.602666
O O12 0.232756 0.750498 0.917015
O O13 0.163396 0.746847 0.701977
O O14 0.331984 0.696421 0.755631
O O15 0.179250 0.627805 0.843424
O O16 0.654778 0.338878 0.548343
O O17 0.826637 0.500000 0.960475
O O18 0.847516 0.368877 0.065033
O O19 0.000000 0.696956 0.138794
O O20 0.500000 0.811778 0.165682
#
# Coordination Sequence:
#
# PCOD8178056 Si02
#       8
#     8   8   8   8   8   8   8   8
#     4   9  18  33  57  90 123 156 197 251 312 368
#     4  10  19  30  49  82 118 151 195 257 324 375
#     4  10  19  34  57  86 120 161 207 259 314 369
#     4  11  22  40  58  90 122 163 209 258 312 373
#     4  11  19  34  57  82 116 156 211 254 306 363
#     4  12  24  40  64  95 131 169 213 261 317 383
#     4  10  21  40  65  93 126 162 204 256 311 373
#     4  11  22  37  59  86 117 159 213 261 299 361
#
# _framework density 20.928715
#
# number of rings (size 3 to 8) (size 9 to 14) (size 15 to 20)
#    0.000    1.500    3.750    2.250    0.000    3.000 
#    0.000    4.375    0.000    1.500    0.000    0.000 
#    0.000    0.000    0.000    0.000    0.000    0.000 
#
# Total GULP energy -396566.825509 kJ/mol
# GULP energy per Si atom -12392.713297 kJ/mol
# Density = 2.088108 g / cm^3
# Si number density = 20.928715 Si / 1000 Ang^3
#
#
#
# Elastic Constant Matrix: (Units=GPa)
#
#
# Indices 1 2 3 4 5 6 
#
# 1 132.8563 48.1341 37.3993 0.0000 0.0000 0.0000
# 2 48.1341 99.5343 44.3160 0.0000 0.0000 0.0000
# 3 37.3993 44.3160 46.1311 0.0000 0.0000 0.0000
# 4 0.0000 0.0000 0.0000 25.3091 0.0000 0.0000
# 5 0.0000 0.0000 0.0000 0.0000 22.6887 0.0000
# 6 0.0000 0.0000 0.0000 0.0000 0.0000 24.8326
#
#
#
# Elastic Compliance Matrix: (Units=1/GPa)
#
#
# Indices 1 2 3 4 5 6 
#
# 1 0.010008 -0.002145 -0.006053 0.000000 0.000000 0.000000
# 2 -0.002145 0.018015 -0.015568 0.000000 0.000000 0.000000
# 3 -0.006053 -0.015568 0.041540 0.000000 0.000000 0.000000
# 4 0.000000 0.000000 0.000000 0.039512 0.000000 0.000000
# 5 0.000000 0.000000 0.000000 0.000000 0.044075 0.000000
# 6 0.000000 0.000000 0.000000 0.000000 0.000000 0.040270
#
#
# Mechanical properties :
#
#
# Convention : Reuss Voigt Hill
#
# Bulk Modulus (GPa) = 45.38881 59.80230 52.59555
# Shear Modulus (GPa) = 20.13738 24.47755 22.30747
#
# Velocity S-wave (km/s) = 3.10528 3.42360 3.26832
# Velocity P-wave (km/s) = 5.88145 6.65315 6.27917
#
# Compressibility (1/GPa) = 0.02203186
#
# Stress axis : x y z
#
# Youngs Moduli (GPa) = 99.92032 55.50890 24.07314
#
# Poissons Ratio (x) = 0.11904 0.14572
# Poissons Ratio (y) = 0.21429 0.37476
# Poissons Ratio (z) = 0.60486 0.86414
#
# Static dielectric constant tensor:
#      x y z
#    x 4.271700 0.000000 0.000000 
#    y 0.000000 3.889750 0.000000 
#    z 0.000000 0.000000 3.415410 
# 
# 
# High freq. dielectric constant tensor:
#      x y z
#    x 1.830560 0.000000 0.000000 
#    y 0.000000 1.809840 0.000000 
#    z 0.000000 0.000000 1.782520 
# 
# From -- ./inp_files/10276.got.cif
#   From: 2010.03.12/outbox.cif.g09.slc.cpg/sg38_6_cif.got.tgz:10276.got - 2010.04.14 02:38:36.
