data_PCOD8178455
_publ_section_title
;
Structure prediction by ZEFSAII (Michael W. Deem and Ramdas Pophale) SiO2 
 PCOD8178455
Probable space group: A M M 2
;
_chemical_formula_sum "Si O2"
_cell_formula_units_Z 48
_cell_length_a 9.320706
_cell_length_b 18.423457
_cell_length_c 15.147007
_cell_angle_alpha 90.000000
_cell_angle_beta 90.000000
_cell_angle_gamma 90.000000
_cell_volume 2601.038380
_symmetry_space_group_name_H-M "A M M 2"
_symmetry_group_IT_number 38
_symmetry_cell_setting 'orthorhombic'
loop_
_space_group_symop_operation_xyz
x,y,z
-x,-y,z
-x,y,z
x,-y,z
x,1/2+y,1/2+z
-x,1/2-y,1/2+z
-x,1/2+y,1/2+z
x,1/2-y,1/2+z
loop_
_atom_site_type_symbol
_atom_site_label
_atom_site_fract_x
_atom_site_fract_y
_atom_site_fract_z
Si Si1 0.334406 0.384897 0.629430
Si Si2 0.170288 0.275767 0.882834
Si Si3 0.339274 0.500000 0.481698
Si Si4 0.829601 0.500000 0.307273
Si Si5 0.831727 0.755292 0.581233
Si Si6 0.164241 0.078610 0.292873
Si Si7 0.831990 0.845568 0.746898
O O1 0.500000 0.371762 0.652132
O O2 0.316188 0.428011 0.538752
O O3 0.253076 0.309563 0.624942
O O4 0.261862 0.430273 0.706969
O O5 0.223033 0.355423 0.852427
O O6 0.232723 0.212819 0.817855
O O7 0.000000 0.272798 0.883475
O O8 0.228274 0.267622 0.982657
O O9 0.500000 0.500000 0.441228
O O10 0.218960 0.500000 0.407926
O O11 0.768095 0.426639 0.261234
O O12 0.000000 0.500000 0.304315
O O13 0.800202 0.823747 0.645431
O O14 0.000000 0.736721 0.580504
O O15 0.000000 0.094790 0.264773
O O16 0.173520 0.000000 0.342575
O O17 0.000000 0.847615 0.765222
#
# Coordination Sequence:
#
# PCOD8178455 Si02
#       7
#     8   8   4   4   8   8   8
#     4  11  21  34  52  77 109 138 173 219 266 318
#     4   9  17  31  52  78 105 135 176 222 262 305
#     4  10  22  36  50  75 110 138 168 221 274 313
#     4  10  20  34  54  79 104 138 180 215 256 319
#     4  10  19  34  56  77 105 144 175 216 268 309
#     4  10  19  33  54  79 108 139 175 214 258 320
#     4   9  17  31  51  77 108 134 172 223 260 304
#
# _framework density 18.454167999999999
#
# number of rings (size 3 to 8) (size 9 to 14) (size 15 to 20)
#    0.000    2.167    2.500    1.500    0.000    2.667 
#    1.500    1.667    0.000    0.000    0.000    0.000 
#    0.000    0.000    0.000    0.000    0.000    0.000 
#
# Total GULP energy -297473.307850 kJ/mol
# GULP energy per Si atom -12394.721160 kJ/mol
# Density = 1.841217 g / cm^3
# Si number density = 18.454168 Si / 1000 Ang^3
#
#
#
# Elastic Constant Matrix: (Units=GPa)
#
#
# Indices 1 2 3 4 5 6 
#
# 1 37.2767 22.6756 15.1935 0.0000 0.0000 0.0000
# 2 22.6756 153.7007 49.4490 0.0000 0.0000 0.0000
# 3 15.1935 49.4490 100.0353 0.0000 0.0000 0.0000
# 4 0.0000 0.0000 0.0000 22.6662 0.0000 0.0000
# 5 0.0000 0.0000 0.0000 0.0000 8.9038 0.0000
# 6 0.0000 0.0000 0.0000 0.0000 0.0000 9.8258
#
#
#
# Elastic Compliance Matrix: (Units=1/GPa)
#
#
# Indices 1 2 3 4 5 6 
#
# 1 0.030130 -0.003535 -0.002829 0.000000 0.000000 0.000000
# 2 -0.003535 0.008151 -0.003492 0.000000 0.000000 0.000000
# 3 -0.002829 -0.003492 0.012152 0.000000 0.000000 0.000000
# 4 0.000000 0.000000 0.000000 0.044119 0.000000 0.000000
# 5 0.000000 0.000000 0.000000 0.000000 0.112312 0.000000
# 6 0.000000 0.000000 0.000000 0.000000 0.000000 0.101773
#
#
# Mechanical properties :
#
#
# Convention : Reuss Voigt Hill
#
# Bulk Modulus (GPa) = 32.55085 51.73878 42.14482
# Shear Modulus (GPa) = 14.76715 21.85880 18.31297
#
# Velocity S-wave (km/s) = 2.83186 3.44538 3.15357
# Velocity P-wave (km/s) = 5.32631 6.62757 6.01225
#
# Compressibility (1/GPa) = 0.03072116
#
# Stress axis : x y z
#
# Youngs Moduli (GPa) = 33.18983 122.68053 82.28796
#
# Poissons Ratio (x) = 0.43368 0.23277
# Poissons Ratio (y) = 0.11733 0.28738
# Poissons Ratio (z) = 0.09389 0.42845
#
# Static dielectric constant tensor:
#      x y z
#    x 3.030390 0.000000 0.000000 
#    y 0.000000 3.719580 0.000000 
#    z 0.000000 0.000000 3.429910 
# 
# 
# High freq. dielectric constant tensor:
#      x y z
#    x 1.672420 0.000000 0.000000 
#    y 0.000000 1.731180 0.000000 
#    z 0.000000 0.000000 1.706730 
# 
# From -- ./inp_files/12096.got.cif
#   From: 2010.03.12/outbox.cif.g09.slc.cpg/sg38_7_cif.got.tgz:12096.got - 2010.04.14 02:38:36.
