data_PCOD8178834
_publ_section_title
;
Structure prediction by ZEFSAII (Michael W. Deem and Ramdas Pophale) SiO2 
 PCOD8178834
Probable space group: A M M 2
;
_chemical_formula_sum "Si O2"
_cell_formula_units_Z 64
_cell_length_a 14.090439
_cell_length_b 28.123992
_cell_length_c 10.053907
_cell_angle_alpha 90.000000
_cell_angle_beta 90.000000
_cell_angle_gamma 90.000000
_cell_volume 3984.156170
_symmetry_space_group_name_H-M "A M M 2"
_symmetry_group_IT_number 38
_symmetry_cell_setting 'orthorhombic'
loop_
_space_group_symop_operation_xyz
x,y,z
-x,-y,z
-x,y,z
x,-y,z
x,1/2+y,1/2+z
-x,1/2-y,1/2+z
-x,1/2+y,1/2+z
x,1/2-y,1/2+z
loop_
_atom_site_type_symbol
_atom_site_label
_atom_site_fract_x
_atom_site_fract_y
_atom_site_fract_z
Si Si1 0.611603 0.645772 0.928770
Si Si2 0.297750 0.852622 0.948090
Si Si3 0.610569 0.205889 0.175316
Si Si4 0.387603 0.948748 0.300217
Si Si5 0.104845 0.728174 0.208917
Si Si6 0.298205 0.692884 0.173147
Si Si7 0.610929 0.053263 0.995278
Si Si8 0.893993 0.304954 0.494130
O O1 0.500000 0.642218 0.950650
O O2 0.635632 0.686356 0.821389
O O3 0.655169 0.595013 0.883441
O O4 0.659594 0.657023 0.067541
O O5 0.329922 0.823224 0.819033
O O6 0.323134 0.907955 0.920964
O O7 0.361520 0.834069 0.069203
O O8 0.185419 0.846013 0.979441
O O9 0.500000 0.217296 0.161265
O O10 0.667976 0.253584 0.146994
O O11 0.500000 0.946180 0.306755
O O12 0.352385 0.000000 0.357254
O O13 0.356909 0.944352 0.147911
O O14 0.183869 0.691052 0.158247
O O15 0.115154 0.732634 0.370157
O O16 0.121838 0.778466 0.135035
O O17 0.000000 0.708744 0.171511
O O18 0.500000 0.066041 0.977434
O O19 0.630447 0.000000 0.938893
O O20 0.000000 0.327884 0.491542
#
# Coordination Sequence:
#
# PCOD8178834 Si02
#       8
#     8   8   8   8   8   8   8   8
#     4  10  20  32  45  66  95 126 161 195 226 274
#     4  11  20  32  50  71  96 126 162 199 239 284
#     4  11  21  32  45  64  94 134 168 189 216 273
#     4   8  14  28  49  68  86 115 157 200 235 269
#     4   9  18  32  48  67  91 124 162 198 234 274
#     4  11  22  31  44  68 100 130 153 191 238 283
#     4   9  17  31  51  72  92 121 165 206 236 275
#     4   9  18  32  50  70  94 124 159 200 241 281
#
# _framework density 16.063628000000001
#
# number of rings (size 3 to 8) (size 9 to 14) (size 15 to 20)
#    0.000    2.250    2.500    2.250    1.750    3.000 
#    0.000    0.625    0.000    1.875    0.000    0.000 
#    0.000    1.500    0.000    0.000    0.000    0.000 
#
# Total GULP energy -396600.991604 kJ/mol
# GULP energy per Si atom -12393.780988 kJ/mol
# Density = 1.602707 g / cm^3
# Si number density = 16.063628 Si / 1000 Ang^3
#
#
#
# Elastic Constant Matrix: (Units=GPa)
#
#
# Indices 1 2 3 4 5 6 
#
# 1 68.0967 39.5028 31.4350 0.0000 0.0000 0.0000
# 2 39.5028 89.1724 12.9031 0.0000 0.0000 0.0000
# 3 31.4350 12.9031 46.2224 0.0000 0.0000 0.0000
# 4 0.0000 0.0000 0.0000 12.8377 0.0000 0.0000
# 5 0.0000 0.0000 0.0000 0.0000 20.1760 0.0000
# 6 0.0000 0.0000 0.0000 0.0000 0.0000 15.0725
#
#
#
# Elastic Compliance Matrix: (Units=1/GPa)
#
#
# Indices 1 2 3 4 5 6 
#
# 1 0.028023 -0.010063 -0.016249 0.000000 0.000000 0.000000
# 2 -0.010063 0.015300 0.002573 0.000000 0.000000 0.000000
# 3 -0.016249 0.002573 0.031967 0.000000 0.000000 0.000000
# 4 0.000000 0.000000 0.000000 0.077895 0.000000 0.000000
# 5 0.000000 0.000000 0.000000 0.000000 0.049564 0.000000
# 6 0.000000 0.000000 0.000000 0.000000 0.000000 0.066346
#
#
# Mechanical properties :
#
#
# Convention : Reuss Voigt Hill
#
# Bulk Modulus (GPa) = 35.95635 41.24146 38.59891
# Shear Modulus (GPa) = 15.34472 17.59396 16.46934
#
# Velocity S-wave (km/s) = 3.09406 3.31307 3.20544
# Velocity P-wave (km/s) = 5.93267 6.35333 6.14660
#
# Compressibility (1/GPa) = 0.02781150
#
# Stress axis : x y z
#
# Youngs Moduli (GPa) = 35.68435 65.36022 31.28217
#
# Poissons Ratio (x) = 0.65772 0.50831
# Poissons Ratio (y) = 0.35909 -0.08048
# Poissons Ratio (z) = 0.57984 -0.16815
#
# Static dielectric constant tensor:
#      x y z
#    x 3.039620 0.000000 0.000000 
#    y 0.000000 3.063810 0.000000 
#    z 0.000000 0.000000 3.059720 
# 
# 
# High freq. dielectric constant tensor:
#      x y z
#    x 1.603070 0.000000 0.000000 
#    y 0.000000 1.595480 0.000000 
#    z 0.000000 0.000000 1.615180 
# 
# From -- ./inp_files/5985.got.cif
#   From: 2010.03.12/outbox.cif.g09.slc.cpg/sg38_3_cif.got.tgz:5985.got - 2010.04.14 02:38:36.
