data_PCOD8178895
_publ_section_title
;
Structure prediction by ZEFSAII (Michael W. Deem and Ramdas Pophale) SiO2 
 PCOD8178895
Probable space group: A M M 2
;
_chemical_formula_sum "Si O2"
_cell_formula_units_Z 64
_cell_length_a 13.546869
_cell_length_b 18.047917
_cell_length_c 14.171579
_cell_angle_alpha 90.000000
_cell_angle_beta 90.000000
_cell_angle_gamma 90.000000
_cell_volume 3464.848567
_symmetry_space_group_name_H-M "A M M 2"
_symmetry_group_IT_number 38
_symmetry_cell_setting 'orthorhombic'
loop_
_space_group_symop_operation_xyz
x,y,z
-x,-y,z
-x,y,z
x,-y,z
x,1/2+y,1/2+z
-x,1/2-y,1/2+z
-x,1/2+y,1/2+z
x,1/2-y,1/2+z
loop_
_atom_site_type_symbol
_atom_site_label
_atom_site_fract_x
_atom_site_fract_y
_atom_site_fract_z
Si Si1 0.116101 0.585240 0.342240
Si Si2 0.891140 0.412362 0.555488
Si Si3 0.269700 0.659370 0.685654
Si Si4 0.612813 0.683997 0.383007
Si Si5 0.263192 0.329020 0.208690
Si Si6 0.388866 0.585014 0.065376
Si Si7 0.386313 0.650231 0.869838
Si Si8 0.385168 0.581887 0.539955
O O1 0.148612 0.500000 0.328180
O O2 0.141207 0.612613 0.449256
O O3 0.170887 0.635080 0.263505
O O4 0.000000 0.594142 0.323598
O O5 0.895466 0.500000 0.556602
O O6 0.820281 0.385688 0.639588
O O7 0.000000 0.380066 0.577065
O O8 0.238955 0.745109 0.678713
O O9 0.301741 0.635287 0.791355
O O10 0.366795 0.636542 0.627360
O O11 0.500000 0.664477 0.391715
O O12 0.642704 0.671080 0.276152
O O13 0.633817 0.768312 0.413940
O O14 0.665488 0.623734 0.450799
O O15 0.299461 0.373269 0.117234
O O16 0.500000 0.615528 0.088715
O O17 0.382111 0.500000 0.094987
O O18 0.370440 0.591710 0.953214
O O19 0.500000 0.646010 0.830437
O O20 0.500000 0.570201 0.528775
O O21 0.335000 0.500000 0.550349
#
# Coordination Sequence:
#
# PCOD8178895 Si02
#       8
#     8   8   8   8   8   8   8   8
#     4   9  19  37  59  80 102 129 163 208 264 322
#     4   9  19  37  60  83 105 130 162 206 264 323
#     4  11  21  32  52  78 105 136 171 210 255 305
#     4   9  18  32  49  72 103 135 166 207 260 312
#     4  11  21  32  52  78 104 134 171 211 258 309
#     4  10  21  35  50  70 100 140 182 218 248 286
#     4   9  19  35  51  69 100 143 184 215 247 292
#     4  10  20  32  49  76 107 137 171 215 266 315
#
# _framework density 18.471225
#
# number of rings (size 3 to 8) (size 9 to 14) (size 15 to 20)
#    0.000    2.250    0.000    3.750    0.000    7.000 
#    0.000    2.500    0.000    0.750    0.000    1.750 
#    0.000    0.000    0.000    0.000    0.000    0.000 
#
# Total GULP energy -396472.219161 kJ/mol
# GULP energy per Si atom -12389.756849 kJ/mol
# Density = 1.842918 g / cm^3
# Si number density = 18.471225 Si / 1000 Ang^3
#
#
#
# Elastic Constant Matrix: (Units=GPa)
#
#
# Indices 1 2 3 4 5 6 
#
# 1 69.5878 26.6463 45.5163 0.0000 0.0000 0.0000
# 2 26.6463 67.2774 35.8481 0.0000 0.0000 0.0000
# 3 45.5163 35.8481 84.5438 0.0000 0.0000 0.0000
# 4 0.0000 0.0000 0.0000 32.9417 0.0000 0.0000
# 5 0.0000 0.0000 0.0000 0.0000 19.8449 0.0000
# 6 0.0000 0.0000 0.0000 0.0000 0.0000 22.9704
#
#
#
# Elastic Compliance Matrix: (Units=1/GPa)
#
#
# Indices 1 2 3 4 5 6 
#
# 1 0.022703 -0.003203 -0.010865 0.000000 0.000000 0.000000
# 2 -0.003203 0.019654 -0.006609 0.000000 0.000000 0.000000
# 3 -0.010865 -0.006609 0.020480 0.000000 0.000000 0.000000
# 4 0.000000 0.000000 0.000000 0.030357 0.000000 0.000000
# 5 0.000000 0.000000 0.000000 0.000000 0.050391 0.000000
# 6 0.000000 0.000000 0.000000 0.000000 0.000000 0.043534
#
#
# Mechanical properties :
#
#
# Convention : Reuss Voigt Hill
#
# Bulk Modulus (GPa) = 46.54760 48.60338 47.57549
# Shear Modulus (GPa) = 21.21931 22.71127 21.96529
#
# Velocity S-wave (km/s) = 3.39304 3.51030 3.45216
# Velocity P-wave (km/s) = 6.37221 6.54215 6.45774
#
# Compressibility (1/GPa) = 0.02148339
#
# Stress axis : x y z
#
# Youngs Moduli (GPa) = 44.04653 50.88001 48.82799
#
# Poissons Ratio (x) = 0.16296 0.53051
# Poissons Ratio (y) = 0.14107 0.32272
# Poissons Ratio (z) = 0.47856 0.33629
#
# Static dielectric constant tensor:
#      x y z
#    x 3.290820 0.000000 0.000000 
#    y 0.000000 3.506290 0.000000 
#    z 0.000000 0.000000 3.377590 
# 
# 
# High freq. dielectric constant tensor:
#      x y z
#    x 1.704490 0.000000 0.000000 
#    y 0.000000 1.715610 0.000000 
#    z 0.000000 0.000000 1.710870 
# 
# From -- ./inp_files/10264.got.cif
#   From: 2010.03.12/outbox.cif.g09.slc.cpg/sg38_6_cif.got.tgz:10264.got - 2010.04.14 02:38:36.
