data_PCOD8178821
_publ_section_title
;
Structure prediction by ZEFSAII (Michael W. Deem and Ramdas Pophale) SiO2 
 PCOD8178821
Probable space group: A M M 2
;
_chemical_formula_sum "Si O2"
_cell_formula_units_Z 64
_cell_length_a 9.660734
_cell_length_b 13.394396
_cell_length_c 24.211902
_cell_angle_alpha 90.000000
_cell_angle_beta 90.000000
_cell_angle_gamma 90.000000
_cell_volume 3133.012779
_symmetry_space_group_name_H-M "A M M 2"
_symmetry_group_IT_number 38
_symmetry_cell_setting 'orthorhombic'
loop_
_space_group_symop_operation_xyz
x,y,z
-x,-y,z
-x,y,z
x,-y,z
x,1/2+y,1/2+z
-x,1/2-y,1/2+z
-x,1/2+y,1/2+z
x,1/2-y,1/2+z
loop_
_atom_site_type_symbol
_atom_site_label
_atom_site_fract_x
_atom_site_fract_y
_atom_site_fract_z
Si Si1 0.655622 0.112196 0.920850
Si Si2 0.351145 0.613380 0.704829
Si Si3 0.150294 0.615441 0.616809
Si Si4 0.340130 0.612895 0.110725
Si Si5 0.163895 0.704858 0.333542
Si Si6 0.341846 0.793168 0.033782
Si Si7 0.159256 0.115669 0.715741
Si Si8 0.659492 0.611255 0.832677
O O1 0.500000 0.128642 0.897339
O O2 0.767532 0.120786 0.871970
O O3 0.669029 0.000000 0.945350
O O4 0.684109 0.195272 0.968379
O O5 0.500000 0.667099 0.695065
O O6 0.364515 0.500000 0.683739
O O7 0.232544 0.666669 0.668290
O O8 0.310753 0.613090 0.768048
O O9 0.126276 0.500000 0.628256
O O10 0.238729 0.628663 0.561757
O O11 0.000000 0.668132 0.611988
O O12 0.500000 0.619417 0.127801
O O13 0.299095 0.500000 0.093712
O O14 0.308208 0.682253 0.057263
O O15 0.252589 0.648462 0.163845
O O16 0.200082 0.681256 0.269614
O O17 0.233930 0.807558 0.356106
O O18 0.000000 0.708558 0.343245
O O19 0.500000 0.822438 0.047959
O O20 0.000000 0.133749 0.699819
O O21 0.185379 0.000000 0.730886
O O22 0.500000 0.639460 0.846161
O O23 0.691688 0.500000 0.855948
#
# Coordination Sequence:
#
# PCOD8178821 Si02
#       8
#     8   8   8   8   8   8   8   8
#     4  10  22  41  63  86 114 150 195 246 295 351
#     4   8  15  29  48  70 101 142 183 223 269 322
#     4  10  20  31  46  74 110 145 183 227 277 338
#     4   9  19  36  58  85 115 146 185 235 288 343
#     4  11  23  37  58  87 119 156 196 243 299 356
#     4  10  21  37  58  82 110 147 191 238 291 344
#     4   9  19  36  56  81 116 155 191 231 286 349
#     4   9  19  36  56  79 111 152 197 241 284 337
#
# _framework density 20.427622
#
# number of rings (size 3 to 8) (size 9 to 14) (size 15 to 20)
#    0.000    2.500    0.000    2.250    1.750    4.750 
#    0.000    3.125    0.000    2.250    0.000    0.000 
#    0.000    0.000    0.000    0.000    0.000    0.000 
#
# Total GULP energy -396594.021731 kJ/mol
# GULP energy per Si atom -12393.563179 kJ/mol
# Density = 2.038113 g / cm^3
# Si number density = 20.427622 Si / 1000 Ang^3
#
#
#
# Elastic Constant Matrix: (Units=GPa)
#
#
# Indices 1 2 3 4 5 6 
#
# 1 110.1624 38.7721 44.7770 0.0000 0.0000 0.0000
# 2 38.7721 91.5982 31.3192 0.0000 0.0000 0.0000
# 3 44.7770 31.3192 80.8243 0.0000 0.0000 0.0000
# 4 0.0000 0.0000 0.0000 28.9039 0.0000 0.0000
# 5 0.0000 0.0000 0.0000 0.0000 14.7624 0.0000
# 6 0.0000 0.0000 0.0000 0.0000 0.0000 24.9360
#
#
#
# Elastic Compliance Matrix: (Units=1/GPa)
#
#
# Indices 1 2 3 4 5 6 
#
# 1 0.012566 -0.003387 -0.005649 0.000000 0.000000 0.000000
# 2 -0.003387 0.013498 -0.003354 0.000000 0.000000 0.000000
# 3 -0.005649 -0.003354 0.016802 0.000000 0.000000 0.000000
# 4 0.000000 0.000000 0.000000 0.034597 0.000000 0.000000
# 5 0.000000 0.000000 0.000000 0.000000 0.067740 0.000000
# 6 0.000000 0.000000 0.000000 0.000000 0.000000 0.040103
#
#
# Mechanical properties :
#
#
# Convention : Reuss Voigt Hill
#
# Bulk Modulus (GPa) = 55.29413 56.92463 56.10938
# Shear Modulus (GPa) = 23.13601 24.90156 24.01879
#
# Velocity S-wave (km/s) = 3.36904 3.49523 3.43271
# Velocity P-wave (km/s) = 6.50085 6.64950 6.57559
#
# Compressibility (1/GPa) = 0.01808510
#
# Stress axis : x y z
#
# Youngs Moduli (GPa) = 79.58115 74.08616 59.51826
#
# Poissons Ratio (x) = 0.25096 0.33621
# Poissons Ratio (y) = 0.26958 0.19961
# Poissons Ratio (z) = 0.44954 0.24846
#
# Static dielectric constant tensor:
#      x y z
#    x 3.895200 0.000000 0.000000 
#    y 0.000000 3.806880 0.000000 
#    z 0.000000 0.000000 3.382140 
# 
# 
# High freq. dielectric constant tensor:
#      x y z
#    x 1.799080 0.000000 0.000000 
#    y 0.000000 1.800130 0.000000 
#    z 0.000000 0.000000 1.768590 
# 
# From -- ./inp_files/22211.got.cif
#   From: 2010.03.12/outbox.cif.g09.slc.cpg/sg38_12_cif.got.tgz:22211.got - 2010.04.14 02:38:36.
