data_PCOD8178607
_publ_section_title
;
Structure prediction by ZEFSAII (Michael W. Deem and Ramdas Pophale) SiO2 
 PCOD8178607
Probable space group: A M M 2
;
_chemical_formula_sum "Si O2"
_cell_formula_units_Z 48
_cell_length_a 13.982249
_cell_length_b 8.922569
_cell_length_c 20.668081
_cell_angle_alpha 90.000000
_cell_angle_beta 90.000000
_cell_angle_gamma 90.000000
_cell_volume 2578.499799
_symmetry_space_group_name_H-M "A M M 2"
_symmetry_group_IT_number 38
_symmetry_cell_setting 'orthorhombic'
loop_
_space_group_symop_operation_xyz
x,y,z
-x,-y,z
-x,y,z
x,-y,z
x,1/2+y,1/2+z
-x,1/2-y,1/2+z
-x,1/2+y,1/2+z
x,1/2-y,1/2+z
loop_
_atom_site_type_symbol
_atom_site_label
_atom_site_fract_x
_atom_site_fract_y
_atom_site_fract_z
Si Si1 0.608959 0.674158 0.408210
Si Si2 0.784980 0.823168 0.095811
Si Si3 0.888483 0.672215 0.978704
Si Si4 0.107486 0.178248 0.223364
Si Si5 0.608129 0.176147 0.544384
Si Si6 0.221160 0.324579 0.848156
O O1 0.500000 0.703381 0.386227
O O2 0.628238 0.500000 0.420793
O O3 0.633349 0.761781 0.473757
O O4 0.678182 0.736979 0.352496
O O5 0.840590 0.763415 0.158747
O O6 0.679651 0.749380 0.096092
O O7 0.772504 0.000000 0.097620
O O8 0.843829 0.778202 0.032626
O O9 0.867483 0.500000 0.997160
O O10 0.843903 0.712921 0.909727
O O11 0.000000 0.705616 0.973905
O O12 0.165874 0.236778 0.285332
O O13 0.000000 0.244378 0.225143
O O14 0.102747 0.000000 0.224230
O O15 0.500000 0.218437 0.564411
O O16 0.624313 0.000000 0.542364
O O17 0.243163 0.500000 0.842054
#
# Coordination Sequence:
#
# PCOD8178607 Si02
#       6
#     8   8   8   8   8   8
#     4  10  20  34  54  82 114 144 175 220 279 333
#     4  11  21  34  55  82 112 145 182 228 279 326
#     4  10  20  33  52  79 108 139 181 231 277 324
#     4   9  19  36  56  79 110 149 188 224 268 322
#     4  10  20  35  56  81 109 143 183 226 274 330
#     4  10  19  34  57  81 107 144 187 227 268 319
#
# _framework density 18.615476000000001
#
# number of rings (size 3 to 8) (size 9 to 14) (size 15 to 20)
#    0.000    2.000    1.667    2.500    0.000    5.000 
#    0.000    2.500    0.000    8.500    0.000    0.000 
#    0.000    0.000    0.000    0.000    0.000    0.000 
#
# Total GULP energy -297673.644761 kJ/mol
# GULP energy per Si atom -12403.068532 kJ/mol
# Density = 1.857311 g / cm^3
# Si number density = 18.615476 Si / 1000 Ang^3
#
#
#
# Elastic Constant Matrix: (Units=GPa)
#
#
# Indices 1 2 3 4 5 6 
#
# 1 158.4404 45.2344 74.8718 0.0000 0.0000 0.0000
# 2 45.2344 58.8550 40.0824 0.0000 0.0000 0.0000
# 3 74.8718 40.0824 123.0602 0.0000 0.0000 0.0000
# 4 0.0000 0.0000 0.0000 23.0440 0.0000 0.0000
# 5 0.0000 0.0000 0.0000 0.0000 34.9915 0.0000
# 6 0.0000 0.0000 0.0000 0.0000 0.0000 31.8312
#
#
#
# Elastic Compliance Matrix: (Units=1/GPa)
#
#
# Indices 1 2 3 4 5 6 
#
# 1 0.009671 -0.004402 -0.004450 0.000000 0.000000 0.000000
# 2 -0.004402 0.023838 -0.005086 0.000000 0.000000 0.000000
# 3 -0.004450 -0.005086 0.012490 0.000000 0.000000 0.000000
# 4 0.000000 0.000000 0.000000 0.043395 0.000000 0.000000
# 5 0.000000 0.000000 0.000000 0.000000 0.028578 0.000000
# 6 0.000000 0.000000 0.000000 0.000000 0.000000 0.031416
#
#
# Mechanical properties :
#
#
# Convention : Reuss Voigt Hill
#
# Bulk Modulus (GPa) = 55.17967 73.41476 64.29721
# Shear Modulus (GPa) = 27.27660 29.98448 28.63054
#
# Velocity S-wave (km/s) = 3.83203 4.01774 3.92598
# Velocity P-wave (km/s) = 7.02036 7.81320 7.42737
#
# Compressibility (1/GPa) = 0.01812262
#
# Stress axis : x y z
#
# Youngs Moduli (GPa) = 103.39746 41.94954 80.06203
#
# Poissons Ratio (x) = 0.18468 0.35630
# Poissons Ratio (y) = 0.45519 0.40719
# Poissons Ratio (z) = 0.46015 0.21335
#
# Static dielectric constant tensor:
#      x y z
#    x 3.730790 0.000000 0.000000 
#    y 0.000000 3.251780 0.000000 
#    z 0.000000 0.000000 3.346210 
# 
# 
# High freq. dielectric constant tensor:
#      x y z
#    x 1.743180 0.000000 0.000000 
#    y 0.000000 1.708810 0.000000 
#    z 0.000000 0.000000 1.704570 
# 
# From -- ./inp_files/18158.got.cif
#   From: 2010.03.12/outbox.cif.g09.slc.cpg/sg38_10_cif.got.tgz:18158.got - 2010.04.14 02:38:36.
