data_PCOD8178993
_publ_section_title
;
Structure prediction by ZEFSAII (Michael W. Deem and Ramdas Pophale) SiO2 
 PCOD8178993
Probable space group: A M M 2
;
_chemical_formula_sum "Si O2"
_cell_formula_units_Z 48
_cell_length_a 9.301271
_cell_length_b 9.111580
_cell_length_c 30.885742
_cell_angle_alpha 90.000000
_cell_angle_beta 90.000000
_cell_angle_gamma 90.000000
_cell_volume 2617.544237
_symmetry_space_group_name_H-M "A M M 2"
_symmetry_group_IT_number 38
_symmetry_cell_setting 'orthorhombic'
loop_
_space_group_symop_operation_xyz
x,y,z
-x,-y,z
-x,y,z
x,-y,z
x,1/2+y,1/2+z
-x,1/2-y,1/2+z
-x,1/2+y,1/2+z
x,1/2-y,1/2+z
loop_
_atom_site_type_symbol
_atom_site_label
_atom_site_fract_x
_atom_site_fract_y
_atom_site_fract_z
Si Si1 0.331582 0.330077 0.143980
Si Si2 0.829692 0.332374 0.889898
Si Si3 0.329053 0.665662 0.728691
Si Si4 0.829533 0.662121 0.472924
Si Si5 0.167170 0.670503 0.569461
Si Si6 0.667330 0.328247 0.314302
O O1 0.500000 0.301647 0.138722
O O2 0.295974 0.500000 0.150438
O O3 0.269521 0.245142 0.185819
O O4 0.256072 0.272114 0.101239
O O5 0.780518 0.500000 0.884116
O O6 0.776283 0.277873 0.937093
O O7 0.755621 0.232085 0.854437
O O8 0.000000 0.315190 0.885216
O O9 0.500000 0.668535 0.728000
O O10 0.269304 0.500000 0.729859
O O11 0.273403 0.750631 0.771022
O O12 0.768177 0.500000 0.461594
O O13 0.778896 0.709851 0.520877
O O14 0.000000 0.653292 0.473519
O O15 0.197022 0.500000 0.579519
O O16 0.000000 0.707368 0.575147
O O17 0.500000 0.292964 0.321729
O O18 0.695413 0.500000 0.309383
#
# Coordination Sequence:
#
# PCOD8178993 Si02
#       6
#     8   8   8   8   8   8
#     4  10  20  33  50  74 103 133 166 203 243 291
#     4  10  20  33  51  76 103 131 165 204 246 293
#     4   9  17  31  52  74  97 129 166 202 244 294
#     4   8  15  30  51  72  96 129 167 204 244 293
#     4   9  18  33  53  76 100 128 165 207 249 294
#     4  10  20  34  53  76 101 130 165 204 246 293
#
# _framework density 18.337799
#
# number of rings (size 3 to 8) (size 9 to 14) (size 15 to 20)
#    0.000    2.667    0.000    3.000    0.000    6.000 
#    0.000    3.333    0.000    6.000    0.000    0.000 
#    0.000    0.000    0.000    0.000    0.000    0.000 
#
# Total GULP energy -297584.592578 kJ/mol
# GULP energy per Si atom -12399.358024 kJ/mol
# Density = 1.829606 g / cm^3
# Si number density = 18.337799 Si / 1000 Ang^3
#
#
#
# Elastic Constant Matrix: (Units=GPa)
#
#
# Indices 1 2 3 4 5 6 
#
# 1 26.0065 36.7273 35.9120 0.0000 0.0000 0.0000
# 2 36.7273 121.3358 75.5452 0.0000 0.0000 0.0000
# 3 35.9120 75.5452 152.3087 0.0000 0.0000 0.0000
# 4 0.0000 0.0000 0.0000 42.1865 0.0000 0.0000
# 5 0.0000 0.0000 0.0000 0.0000 29.8671 0.0000
# 6 0.0000 0.0000 0.0000 0.0000 0.0000 24.9914
#
#
#
# Elastic Compliance Matrix: (Units=1/GPa)
#
#
# Indices 1 2 3 4 5 6 
#
# 1 0.075341 -0.016992 -0.009336 0.000000 0.000000 0.000000
# 2 -0.016992 0.015756 -0.003809 0.000000 0.000000 0.000000
# 3 -0.009336 -0.003809 0.010656 0.000000 0.000000 0.000000
# 4 0.000000 0.000000 0.000000 0.023704 0.000000 0.000000
# 5 0.000000 0.000000 0.000000 0.000000 0.033482 0.000000
# 6 0.000000 0.000000 0.000000 0.000000 0.000000 0.040014
#
#
# Mechanical properties :
#
#
# Convention : Reuss Voigt Hill
#
# Bulk Modulus (GPa) = 24.10834 66.22445 45.16640
# Shear Modulus (GPa) = 18.31142 29.50677 23.90909
#
# Velocity S-wave (km/s) = 3.16343 4.01567 3.61475
# Velocity P-wave (km/s) = 5.14960 7.59558 6.48888
#
# Compressibility (1/GPa) = 0.04147942
#
# Stress axis : x y z
#
# Youngs Moduli (GPa) = 13.27295 63.46657 93.84404
#
# Poissons Ratio (x) = 1.07845 0.87613
# Poissons Ratio (y) = 0.22554 0.35742
# Poissons Ratio (z) = 0.12392 0.24172
#
# Static dielectric constant tensor:
#      x y z
#    x 2.954540 0.000000 0.000000 
#    y 0.000000 3.526680 0.000000 
#    z 0.000000 0.000000 3.640630 
# 
# 
# High freq. dielectric constant tensor:
#      x y z
#    x 1.665690 0.000000 0.000000 
#    y 0.000000 1.721120 0.000000 
#    z 0.000000 0.000000 1.727980 
# 
# From -- ./inp_files/22422.got.cif
#   From: 2010.03.12/outbox.cif.g09.slc.cpg/sg38_12_cif.got.tgz:22422.got - 2010.04.14 02:38:36.
