data_PCOD8178616
_publ_section_title
;
Structure prediction by ZEFSAII (Michael W. Deem and Ramdas Pophale) SiO2 
 PCOD8178616
Probable space group: A M M 2
;
_chemical_formula_sum "Si O2"
_cell_formula_units_Z 48
_cell_length_a 17.221473
_cell_length_b 7.714332
_cell_length_c 18.224579
_cell_angle_alpha 90.000000
_cell_angle_beta 90.000000
_cell_angle_gamma 90.000000
_cell_volume 2421.174690
_symmetry_space_group_name_H-M "A M M 2"
_symmetry_group_IT_number 38
_symmetry_cell_setting 'orthorhombic'
loop_
_space_group_symop_operation_xyz
x,y,z
-x,-y,z
-x,y,z
x,-y,z
x,1/2+y,1/2+z
-x,1/2-y,1/2+z
-x,1/2+y,1/2+z
x,1/2-y,1/2+z
loop_
_atom_site_type_symbol
_atom_site_label
_atom_site_fract_x
_atom_site_fract_y
_atom_site_fract_z
Si Si1 0.086978 0.500000 0.359720
Si Si2 0.655276 0.800278 0.781035
Si Si3 0.802214 0.699886 0.034051
Si Si4 0.352665 0.704935 0.116453
Si Si5 0.500000 0.294545 0.862634
Si Si6 0.914021 0.500000 0.533853
Si Si7 0.500000 0.206825 0.529491
Si Si8 0.195745 0.192270 0.363847
O O1 0.080891 0.500000 0.446646
O O2 0.133212 0.329241 0.332607
O O3 0.000000 0.500000 0.325632
O O4 0.645670 0.722791 0.699271
O O5 0.575219 0.780830 0.823549
O O6 0.723423 0.697109 0.820999
O O7 0.680130 0.000000 0.778124
O O8 0.824562 0.500000 0.050887
O O9 0.726564 0.761365 0.077623
O O10 0.871503 0.824833 0.060839
O O11 0.784761 0.730037 0.948542
O O12 0.360975 0.500000 0.117476
O O13 0.424581 0.783191 0.070830
O O14 0.500000 0.500000 0.857984
O O15 0.500000 0.227003 0.946061
O O16 0.000000 0.500000 0.568387
O O17 0.500000 0.000000 0.530676
O O18 0.159702 0.000000 0.354878
#
# Coordination Sequence:
#
# PCOD8178616 Si02
#       8
#     4   8   8   8   4   4   4   8
#     4   9  18  34  56  85 117 143 179 231 281 335
#     4  11  21  35  55  79 109 149 188 233 275 330
#     4   9  18  34  55  80 109 145 186 225 273 329
#     4   9  18  33  55  79 103 147 189 225 271 328
#     4  11  22  35  53  79 112 145 188 238 278 324
#     4   9  18  32  54  85 113 139 175 229 285 327
#     4   9  17  33  55  77 106 143 188 231 271 324
#     4  10  19  34  57  83 112 146 186 231 279 331
#
# _framework density 19.825088000000001
#
# number of rings (size 3 to 8) (size 9 to 14) (size 15 to 20)
#    0.000    2.333    0.833    2.250    0.000    4.667 
#    3.000    3.333    0.000    1.000    0.000    0.000 
#    0.000    0.000    0.000    0.000    0.000    0.000 
#
# Total GULP energy -297609.737456 kJ/mol
# GULP energy per Si atom -12400.405727 kJ/mol
# Density = 1.977997 g / cm^3
# Si number density = 19.825088 Si / 1000 Ang^3
#
#
#
# Elastic Constant Matrix: (Units=GPa)
#
#
# Indices 1 2 3 4 5 6 
#
# 1 181.4230 55.3446 64.8551 0.0000 0.0000 0.0000
# 2 55.3446 91.2773 30.3049 0.0000 0.0000 0.0000
# 3 64.8551 30.3049 107.6877 0.0000 0.0000 0.0000
# 4 0.0000 0.0000 0.0000 16.3639 0.0000 0.0000
# 5 0.0000 0.0000 0.0000 0.0000 39.9259 0.0000
# 6 0.0000 0.0000 0.0000 0.0000 0.0000 26.1900
#
#
#
# Elastic Compliance Matrix: (Units=1/GPa)
#
#
# Indices 1 2 3 4 5 6 
#
# 1 0.007953 -0.003565 -0.003787 0.000000 0.000000 0.000000
# 2 -0.003565 0.013683 -0.001703 0.000000 0.000000 0.000000
# 3 -0.003787 -0.001703 0.012046 0.000000 0.000000 0.000000
# 4 0.000000 0.000000 0.000000 0.061110 0.000000 0.000000
# 5 0.000000 0.000000 0.000000 0.000000 0.025046 0.000000
# 6 0.000000 0.000000 0.000000 0.000000 0.000000 0.038183
#
#
# Mechanical properties :
#
#
# Convention : Reuss Voigt Hill
#
# Bulk Modulus (GPa) = 64.21894 75.71082 69.96488
# Shear Modulus (GPa) = 27.57530 31.82152 29.69841
#
# Velocity S-wave (km/s) = 3.73356 4.01073 3.87463
# Velocity P-wave (km/s) = 7.14486 7.72789 7.44209
#
# Compressibility (1/GPa) = 0.01557173
#
# Stress axis : x y z
#
# Youngs Moduli (GPa) = 125.73630 73.08425 83.01562
#
# Poissons Ratio (x) = 0.26055 0.31434
# Poissons Ratio (y) = 0.44826 0.14141
# Poissons Ratio (z) = 0.47610 0.12450
#
# Static dielectric constant tensor:
#      x y z
#    x 3.472000 0.000000 0.000000 
#    y 0.000000 3.575040 0.000000 
#    z 0.000000 0.000000 3.556460 
# 
# 
# High freq. dielectric constant tensor:
#      x y z
#    x 1.770460 0.000000 0.000000 
#    y 0.000000 1.770340 0.000000 
#    z 0.000000 0.000000 1.754850 
# 
# From -- ./inp_files/18275.got.cif
#   From: 2010.03.12/outbox.cif.g09.slc.cpg/sg38_10_cif.got.tgz:18275.got - 2010.04.14 02:38:36.
