data_PCOD8178754
_publ_section_title
;
Structure prediction by ZEFSAII (Michael W. Deem and Ramdas Pophale) SiO2 
 PCOD8178754
Probable space group: A M M 2
;
_chemical_formula_sum "Si O2"
_cell_formula_units_Z 64
_cell_length_a 23.732068
_cell_length_b 8.638077
_cell_length_c 15.447022
_cell_angle_alpha 90.000000
_cell_angle_beta 90.000000
_cell_angle_gamma 90.000000
_cell_volume 3166.630717
_symmetry_space_group_name_H-M "A M M 2"
_symmetry_group_IT_number 38
_symmetry_cell_setting 'orthorhombic'
loop_
_space_group_symop_operation_xyz
x,y,z
-x,-y,z
-x,y,z
x,-y,z
x,1/2+y,1/2+z
-x,1/2-y,1/2+z
-x,1/2+y,1/2+z
x,1/2-y,1/2+z
loop_
_atom_site_type_symbol
_atom_site_label
_atom_site_fract_x
_atom_site_fract_y
_atom_site_fract_z
Si Si1 0.248369 0.678917 0.521050
Si Si2 0.625264 0.682469 0.253970
Si Si3 0.865902 0.179969 0.572631
Si Si4 0.062927 0.317078 0.420979
Si Si5 0.861971 0.816908 0.765623
Si Si6 0.742737 0.683607 0.324747
Si Si7 0.564947 0.321236 0.913867
Si Si8 0.627579 0.821270 0.074361
O O1 0.229128 0.500000 0.521544
O O2 0.199889 0.782345 0.563212
O O3 0.258543 0.738158 0.423869
O O4 0.305221 0.705306 0.574801
O O5 0.626061 0.500000 0.238326
O O6 0.687349 0.748894 0.277341
O O7 0.582861 0.720269 0.331462
O O8 0.603876 0.764843 0.166561
O O9 0.904415 0.276696 0.508265
O O10 0.884168 0.226138 0.670239
O O11 0.875874 0.000000 0.554820
O O12 0.059736 0.500000 0.413182
O O13 0.095624 0.247411 0.337618
O O14 0.000000 0.246069 0.423309
O O15 0.799170 0.748351 0.780233
O O16 0.858247 0.000000 0.777545
O O17 0.740936 0.500000 0.320299
O O18 0.500000 0.287073 0.933732
O O19 0.575955 0.500000 0.892151
O O20 0.599898 0.276556 0.998361
O O21 0.612307 0.000000 0.059129
#
# Coordination Sequence:
#
# PCOD8178754 Si02
#       8
#     8   8   8   8   8   8   8   8
#     4  10  19  36  61  87 119 157 194 234 286 353
#     4  11  22  39  64  93 123 159 201 248 304 364
#     4  11  22  35  57  90 119 147 186 240 299 346
#     4  10  21  39  61  80 105 152 203 240 285 350
#     4   9  18  34  57  82 112 149 189 229 277 345
#     4   9  16  32  59  86 114 150 191 235 284 344
#     4  11  25  44  64  88 120 160 207 258 307 357
#     4  11  23  40  63  93 125 161 201 247 305 363
#
# _framework density 20.210756
#
# number of rings (size 3 to 8) (size 9 to 14) (size 15 to 20)
#    0.000    1.750    2.500    2.250    0.000    4.250 
#    0.000    2.500    0.000    0.000    0.000    0.000 
#    0.000    0.000    0.000    0.000    0.000    0.000 
#
# Total GULP energy -396876.677885 kJ/mol
# GULP energy per Si atom -12402.396184 kJ/mol
# Density = 2.016476 g / cm^3
# Si number density = 20.210756 Si / 1000 Ang^3
#
#
#
# Elastic Constant Matrix: (Units=GPa)
#
#
# Indices 1 2 3 4 5 6 
#
# 1 93.4031 24.9377 31.1847 0.0000 0.0000 0.0000
# 2 24.9377 27.9792 14.7458 0.0000 0.0000 0.0000
# 3 31.1847 14.7458 130.1675 0.0000 0.0000 0.0000
# 4 0.0000 0.0000 0.0000 29.3860 0.0000 0.0000
# 5 0.0000 0.0000 0.0000 0.0000 9.0226 0.0000
# 6 0.0000 0.0000 0.0000 0.0000 0.0000 22.8972
#
#
#
# Elastic Compliance Matrix: (Units=1/GPa)
#
#
# Indices 1 2 3 4 5 6 
#
# 1 0.014595 -0.011875 -0.002151 0.000000 0.000000 0.000000
# 2 -0.011875 0.047671 -0.002556 0.000000 0.000000 0.000000
# 3 -0.002151 -0.002556 0.008487 0.000000 0.000000 0.000000
# 4 0.000000 0.000000 0.000000 0.034030 0.000000 0.000000
# 5 0.000000 0.000000 0.000000 0.000000 0.110833 0.000000
# 6 0.000000 0.000000 0.000000 0.000000 0.000000 0.043673
#
#
# Mechanical properties :
#
#
# Convention : Reuss Voigt Hill
#
# Bulk Modulus (GPa) = 26.60231 43.69847 35.15039
# Shear Modulus (GPa) = 16.39434 24.30660 20.35047
#
# Velocity S-wave (km/s) = 2.85119 3.47170 3.17663
# Velocity P-wave (km/s) = 4.90205 6.14317 5.55737
#
# Compressibility (1/GPa) = 0.03759072
#
# Stress axis : x y z
#
# Youngs Moduli (GPa) = 68.51682 20.97693 117.82280
#
# Poissons Ratio (x) = 0.24909 0.25348
# Poissons Ratio (y) = 0.81361 0.30110
# Poissons Ratio (z) = 0.14741 0.05361
#
# Static dielectric constant tensor:
#      x y z
#    x 3.794740 0.000000 0.000000 
#    y 0.000000 3.348130 0.000000 
#    z 0.000000 0.000000 3.779690 
# 
# 
# High freq. dielectric constant tensor:
#      x y z
#    x 1.787730 0.000000 0.000000 
#    y 0.000000 1.762320 0.000000 
#    z 0.000000 0.000000 1.803500 
# 
# From -- ./inp_files/15752.got.cif
#   From: 2010.03.12/outbox.cif.g09.slc.cpg/sg38_8_cif.got.tgz:15752.got - 2010.04.14 02:38:36.
