data_PCOD8178429
_publ_section_title
;
Structure prediction by ZEFSAII (Michael W. Deem and Ramdas Pophale) SiO2 
 PCOD8178429
Probable space group: A M M 2
;
_chemical_formula_sum "Si O2"
_cell_formula_units_Z 48
_cell_length_a 15.289302
_cell_length_b 8.681246
_cell_length_c 18.912704
_cell_angle_alpha 90.000000
_cell_angle_beta 90.000000
_cell_angle_gamma 90.000000
_cell_volume 2510.286830
_symmetry_space_group_name_H-M "A M M 2"
_symmetry_group_IT_number 38
_symmetry_cell_setting 'orthorhombic'
loop_
_space_group_symop_operation_xyz
x,y,z
-x,-y,z
-x,y,z
x,-y,z
x,1/2+y,1/2+z
-x,1/2-y,1/2+z
-x,1/2+y,1/2+z
x,1/2-y,1/2+z
loop_
_atom_site_type_symbol
_atom_site_label
_atom_site_fract_x
_atom_site_fract_y
_atom_site_fract_z
Si Si1 0.337462 0.681083 0.554910
Si Si2 0.656218 0.681072 0.395853
Si Si3 0.149005 0.682968 0.399079
Si Si4 0.500000 0.681553 0.649511
Si Si5 0.500000 0.816823 0.803178
Si Si6 0.000000 0.321187 0.806762
Si Si7 0.151572 0.681847 0.050710
Si Si8 0.000000 0.679687 0.640824
O O1 0.317666 0.500000 0.560203
O O2 0.368977 0.725029 0.476085
O O3 0.413691 0.733812 0.607556
O O4 0.248994 0.770330 0.574183
O O5 0.654557 0.500000 0.386253
O O6 0.753654 0.741722 0.378671
O O7 0.585585 0.753903 0.342191
O O8 0.143823 0.500000 0.403416
O O9 0.122876 0.747164 0.475740
O O10 0.085842 0.744337 0.338974
O O11 0.500000 0.500000 0.661585
O O12 0.500000 0.768273 0.722838
O O13 0.500000 0.000000 0.808830
O O14 0.000000 0.500000 0.825762
O O15 0.000000 0.289851 0.724012
O O16 0.144726 0.500000 0.045252
O O17 0.086514 0.742510 0.110212
O O18 0.000000 0.500000 0.622321
#
# Coordination Sequence:
#
# PCOD8178429 Si02
#       8
#     8   8   8   4   4   4   8   4
#     4   9  18  36  59  80 105 142 188 230 272 323
#     4   8  16  32  56  80 100 134 181 221 257 309
#     4  10  20  37  60  83 110 145 184 224 274 333
#     4  10  21  35  53  79 111 146 182 222 272 332
#     4  10  19  33  53  79 111 142 176 220 270 324
#     4  11  24  39  56  81 111 143 182 229 278 325
#     4  11  22  37  59  86 113 142 185 235 277 324
#     4  11  24  41  58  79 113 153 186 223 278 335
#
# _framework density 19.121321999999999
#
# number of rings (size 3 to 8) (size 9 to 14) (size 15 to 20)
#    0.000    2.167    0.000    4.500    0.000    5.333 
#    0.000    7.500    0.000    1.000    0.000    0.000 
#    0.000    0.000    0.000    0.000    0.000    0.000 
#
# Total GULP energy -297623.214190 kJ/mol
# GULP energy per Si atom -12400.967258 kJ/mol
# Density = 1.907780 g / cm^3
# Si number density = 19.121322 Si / 1000 Ang^3
#
#
#
# Elastic Constant Matrix: (Units=GPa)
#
#
# Indices 1 2 3 4 5 6 
#
# 1 121.6452 39.4228 76.6285 0.0000 0.0000 0.0000
# 2 39.4228 84.4244 44.9020 0.0000 0.0000 0.0000
# 3 76.6285 44.9020 118.1342 0.0000 0.0000 0.0000
# 4 0.0000 0.0000 0.0000 30.6252 0.0000 0.0000
# 5 0.0000 0.0000 0.0000 0.0000 22.1962 0.0000
# 6 0.0000 0.0000 0.0000 0.0000 0.0000 21.6243
#
#
#
# Elastic Compliance Matrix: (Units=1/GPa)
#
#
# Indices 1 2 3 4 5 6 
#
# 1 0.014211 -0.002172 -0.008393 0.000000 0.000000 0.000000
# 2 -0.002172 0.015178 -0.004360 0.000000 0.000000 0.000000
# 3 -0.008393 -0.004360 0.015566 0.000000 0.000000 0.000000
# 4 0.000000 0.000000 0.000000 0.032653 0.000000 0.000000
# 5 0.000000 0.000000 0.000000 0.000000 0.045053 0.000000
# 6 0.000000 0.000000 0.000000 0.000000 0.000000 0.046244
#
#
# Mechanical properties :
#
#
# Convention : Reuss Voigt Hill
#
# Bulk Modulus (GPa) = 66.20026 71.79006 68.99516
# Shear Modulus (GPa) = 24.53493 25.77251 25.15372
#
# Velocity S-wave (km/s) = 3.58595 3.67528 3.63089
# Velocity P-wave (km/s) = 7.20012 7.45897 7.33069
#
# Compressibility (1/GPa) = 0.01510568
#
# Stress axis : x y z
#
# Youngs Moduli (GPa) = 70.36566 65.88367 64.24234
#
# Poissons Ratio (x) = 0.14313 0.53916
# Poissons Ratio (y) = 0.15287 0.28009
# Poissons Ratio (z) = 0.59055 0.28725
#
# Static dielectric constant tensor:
#      x y z
#    x 3.834240 0.000000 0.000000 
#    y 0.000000 3.341540 0.000000 
#    z 0.000000 0.000000 3.472020 
# 
# 
# High freq. dielectric constant tensor:
#      x y z
#    x 1.760890 0.000000 0.000000 
#    y 0.000000 1.729210 0.000000 
#    z 0.000000 0.000000 1.740960 
# 
# From -- ./inp_files/18267.got.cif
#   From: 2010.03.12/outbox.cif.g09.slc.cpg/sg38_10_cif.got.tgz:18267.got - 2010.04.14 02:38:36.
