data_PCOD8178019
_publ_section_title
;
Structure prediction by ZEFSAII (Michael W. Deem and Ramdas Pophale) SiO2 
 PCOD8178019
Probable space group: A M M 2
;
_chemical_formula_sum "Si O2"
_cell_formula_units_Z 56
_cell_length_a 17.462860
_cell_length_b 21.180280
_cell_length_c 8.064747
_cell_angle_alpha 90.000000
_cell_angle_beta 90.000000
_cell_angle_gamma 90.000000
_cell_volume 2982.893976
_symmetry_space_group_name_H-M "A M M 2"
_symmetry_group_IT_number 38
_symmetry_cell_setting 'orthorhombic'
loop_
_space_group_symop_operation_xyz
x,y,z
-x,-y,z
-x,y,z
x,-y,z
x,1/2+y,1/2+z
-x,1/2-y,1/2+z
-x,1/2+y,1/2+z
x,1/2-y,1/2+z
loop_
_atom_site_type_symbol
_atom_site_label
_atom_site_fract_x
_atom_site_fract_y
_atom_site_fract_z
Si Si1 0.747088 0.177715 0.809780
Si Si2 0.637051 0.072090 0.179688
Si Si3 0.589511 0.430982 0.027958
Si Si4 0.200604 0.927187 0.040647
Si Si5 0.162968 0.721601 0.016615
Si Si6 0.088963 0.831561 0.211806
Si Si7 0.587116 0.143505 0.857655
O O1 0.775603 0.180915 0.620974
O O2 0.656480 0.193686 0.843120
O O3 0.771750 0.108315 0.874013
O O4 0.788173 0.232983 0.904314
O O5 0.618123 0.103635 0.358905
O O6 0.728277 0.075927 0.165784
O O7 0.607503 0.000000 0.174301
O O8 0.592186 0.107072 0.031664
O O9 0.500000 0.436488 0.013990
O O10 0.628141 0.500000 0.034435
O O11 0.610928 0.398664 0.200001
O O12 0.130149 0.890339 0.122914
O O13 0.177880 0.000000 0.000952
O O14 0.105667 0.763949 0.126691
O O15 0.114402 0.673167 0.904026
O O16 0.000000 0.846610 0.200686
O O17 0.500000 0.171146 0.840014
#
# Coordination Sequence:
#
# PCOD8178019 Si02
#       7
#     8   8   8   8   8   8   8
#     4   9  19  36  56  76 105 141 183 231 273 318
#     4   9  17  30  47  68 101 143 184 224 261 316
#     4   9  17  27  42  68  99 136 182 226 268 313
#     4   9  19  34  52  80 111 143 175 205 270 343
#     4   9  19  36  57  80 102 137 184 234 269 308
#     4  10  19  33  57  83 107 134 173 225 271 319
#     4  10  19  30  47  73 104 139 180 229 283 328
#
# _framework density 18.773713999999998
#
# number of rings (size 3 to 8) (size 9 to 14) (size 15 to 20)
#    0.000    2.714    0.000    1.286    2.000    2.286 
#    0.000    2.143    0.000    0.000    0.000    0.000 
#    0.000    0.000    0.000    0.000    0.000    0.000 
#
# Total GULP energy -346918.091037 kJ/mol
# GULP energy per Si atom -12389.931823 kJ/mol
# Density = 1.873098 g / cm^3
# Si number density = 18.773714 Si / 1000 Ang^3
#
#
#
# Elastic Constant Matrix: (Units=GPa)
#
#
# Indices 1 2 3 4 5 6 
#
# 1 93.3535 20.0088 27.6033 0.0000 0.0000 0.0000
# 2 20.0088 53.7341 10.7230 0.0000 0.0000 0.0000
# 3 27.6033 10.7230 98.6882 0.0000 0.0000 0.0000
# 4 0.0000 0.0000 0.0000 11.1785 0.0000 0.0000
# 5 0.0000 0.0000 0.0000 0.0000 27.1974 0.0000
# 6 0.0000 0.0000 0.0000 0.0000 0.0000 -13.7379
#
#
#
# Elastic Compliance Matrix: (Units=1/GPa)
#
#
# Indices 1 2 3 4 5 6 
#
# 1 0.012480 -0.004038 -0.003052 0.000000 0.000000 0.000000
# 2 -0.004038 0.020329 -0.001079 0.000000 0.000000 0.000000
# 3 -0.003052 -0.001079 0.011104 0.000000 0.000000 0.000000
# 4 0.000000 0.000000 0.000000 0.089458 0.000000 0.000000
# 5 0.000000 0.000000 0.000000 0.000000 0.036768 0.000000
# 6 0.000000 0.000000 0.000000 0.000000 0.000000 -0.072791
#
#
# Mechanical properties :
#
#
# Convention : Reuss Voigt Hill
#
# Bulk Modulus (GPa) = 36.26584 40.27177 38.26881
# Shear Modulus (GPa) = 40.69094 17.42366 29.05730
#
# Velocity S-wave (km/s) = 4.66063 3.04976 3.93843
# Velocity P-wave (km/s) = 6.95135 5.82229 6.41172
#
# Compressibility (1/GPa) = 0.02757416
#
# Stress axis : x y z
#
# Youngs Moduli (GPa) = 80.12914 49.19033 90.05909
#
# Poissons Ratio (x) = 0.19863 0.27485
# Poissons Ratio (y) = 0.32357 0.09721
# Poissons Ratio (z) = 0.24454 0.05310
#
# Static dielectric constant tensor:
#      x y z
#    x 3.468490 0.000000 0.000000 
#    y 0.000000 3.229310 0.000000 
#    z 0.000000 0.000000 3.858970 
# 
# 
# High freq. dielectric constant tensor:
#      x y z
#    x 1.728240 0.000000 0.000000 
#    y 0.000000 1.693840 0.000000 
#    z 0.000000 0.000000 1.741670 
# 
# From -- ./inp_files/6431.got.cif
#   From: 2010.03.12/outbox.cif.g09.slc.cpg/sg38_4_cif.got.tgz:6431.got - 2010.04.14 02:38:36.
