data_PCOD8178955
_publ_section_title
;
Structure prediction by ZEFSAII (Michael W. Deem and Ramdas Pophale) SiO2 
 PCOD8178955
Probable space group: A M M 2
;
_chemical_formula_sum "Si O2"
_cell_formula_units_Z 64
_cell_length_a 20.531401
_cell_length_b 9.158794
_cell_length_c 19.303236
_cell_angle_alpha 90.000000
_cell_angle_beta 90.000000
_cell_angle_gamma 90.000000
_cell_volume 3629.835942
_symmetry_space_group_name_H-M "A M M 2"
_symmetry_group_IT_number 38
_symmetry_cell_setting 'orthorhombic'
loop_
_space_group_symop_operation_xyz
x,y,z
-x,-y,z
-x,y,z
x,-y,z
x,1/2+y,1/2+z
-x,1/2-y,1/2+z
-x,1/2+y,1/2+z
x,1/2-y,1/2+z
loop_
_atom_site_type_symbol
_atom_site_label
_atom_site_fract_x
_atom_site_fract_y
_atom_site_fract_z
Si Si1 0.575290 0.335270 0.312700
Si Si2 0.929571 0.163043 0.903569
Si Si3 0.194783 0.163343 0.566043
Si Si4 0.575262 0.166841 0.651771
Si Si5 0.325522 0.325938 0.557058
Si Si6 0.927948 0.335726 0.568229
Si Si7 0.809841 0.659944 0.901622
Si Si8 0.332323 0.173458 0.412511
O O1 0.500000 0.314762 0.331034
O O2 0.597461 0.500000 0.331606
O O3 0.587972 0.304441 0.232413
O O4 0.614178 0.216785 0.356728
O O5 0.868593 0.246163 0.869360
O O6 0.000000 0.233107 0.882946
O O7 0.926622 0.000000 0.874468
O O8 0.922947 0.163080 0.985759
O O9 0.257086 0.261975 0.584928
O O10 0.129128 0.233372 0.599135
O O11 0.186469 0.155635 0.484164
O O12 0.204049 0.000000 0.596387
O O13 0.500000 0.195117 0.633346
O O14 0.618222 0.282309 0.610316
O O15 0.594053 0.000000 0.632487
O O16 0.320117 0.500000 0.551275
O O17 0.345584 0.258614 0.483423
O O18 0.917641 0.500000 0.596109
O O19 0.000000 0.278334 0.590642
O O20 0.819384 0.500000 0.870014
O O21 0.738366 0.720450 0.881624
O O22 0.334060 0.000000 0.427373
#
# Coordination Sequence:
#
# PCOD8178955 Si02
#       8
#     8   8   8   8   8   8   8   8
#     4   9  19  36  56  76  97 123 156 193 235 285
#     4   8  13  20  31  49  74 107 146 184 223 268
#     4   9  16  26  39  57  85 119 155 194 237 283
#     4   9  19  37  57  74  96 125 155 192 239 287
#     4  11  21  32  49  72  98 128 163 201 240 285
#     4   8  13  21  33  51  78 113 152 191 231 277
#     4   8  15  25  36  54  81 114 150 186 225 269
#     4  10  20  33  49  71  99 129 161 197 238 283
#
# _framework density 17.631651000000002
#
# number of rings (size 3 to 8) (size 9 to 14) (size 15 to 20)
#    0.000    3.000    0.000    4.125    0.000    5.500 
#    0.000    3.750    0.000    0.000    0.000    0.000 
#    0.000    1.000    0.000    7.000    0.000    9.500 
#
# Total GULP energy -396581.753025 kJ/mol
# GULP energy per Si atom -12393.179782 kJ/mol
# Density = 1.759152 g / cm^3
# Si number density = 17.631651 Si / 1000 Ang^3
#
#
#
# Elastic Constant Matrix: (Units=GPa)
#
#
# Indices 1 2 3 4 5 6 
#
# 1 134.5803 71.3255 42.4255 0.0000 0.0000 0.0000
# 2 71.3255 114.1211 31.8313 0.0000 0.0000 0.0000
# 3 42.4255 31.8313 30.6753 0.0000 0.0000 0.0000
# 4 0.0000 0.0000 0.0000 18.4231 0.0000 0.0000
# 5 0.0000 0.0000 0.0000 0.0000 -2.1381 0.0000
# 6 0.0000 0.0000 0.0000 0.0000 0.0000 36.9974
#
#
#
# Elastic Compliance Matrix: (Units=1/GPa)
#
#
# Indices 1 2 3 4 5 6 
#
# 1 0.014990 -0.005047 -0.015495 0.000000 0.000000 0.000000
# 2 -0.005047 0.014031 -0.007580 0.000000 0.000000 0.000000
# 3 -0.015495 -0.007580 0.061895 0.000000 0.000000 0.000000
# 4 0.000000 0.000000 0.000000 0.054280 0.000000 0.000000
# 5 0.000000 0.000000 0.000000 0.000000 -0.467697 0.000000
# 6 0.000000 0.000000 0.000000 0.000000 0.000000 0.027029
#
#
# Mechanical properties :
#
#
# Convention : Reuss Voigt Hill
#
# Bulk Modulus (GPa) = 28.84078 63.39347 46.11712
# Shear Modulus (GPa) = -21.96143 19.57610 -1.19267
#
# Velocity S-wave (km/s) = -3.53309 3.33570 -0.82335
# Velocity P-wave (km/s) = 0.50074 7.13220 5.03078
#
# Compressibility (1/GPa) = 0.03467313
#
# Stress axis : x y z
#
# Youngs Moduli (GPa) = 66.71211 71.27050 16.15639
#
# Poissons Ratio (x) = 0.35968 0.25034
# Poissons Ratio (y) = 0.33668 0.12246
# Poissons Ratio (z) = 1.03368 0.54023
#
# Static dielectric constant tensor:
#      x y z
#    x 3.602380 0.000000 0.000000 
#    y 0.000000 3.394660 0.000000 
#    z 0.000000 0.000000 2.644100 
# 
# 
# High freq. dielectric constant tensor:
#      x y z
#    x 1.700310 0.000000 0.000000 
#    y 0.000000 1.683590 0.000000 
#    z 0.000000 0.000000 1.611980 
# 
# From -- ./inp_files/21522.got.cif
#   From: 2010.03.12/outbox.cif.g09.slc.cpg/sg38_11_cif.got.tgz:21522.got - 2010.04.14 02:38:36.
