data_PCOD8178036
_publ_section_title
;
Structure prediction by ZEFSAII (Michael W. Deem and Ramdas Pophale) SiO2 
 PCOD8178036
Probable space group: A M M 2
;
_chemical_formula_sum "Si O2"
_cell_formula_units_Z 48
_cell_length_a 8.833949
_cell_length_b 15.262025
_cell_length_c 19.157917
_cell_angle_alpha 90.000000
_cell_angle_beta 90.000000
_cell_angle_gamma 90.000000
_cell_volume 2582.946053
_symmetry_space_group_name_H-M "A M M 2"
_symmetry_group_IT_number 38
_symmetry_cell_setting 'orthorhombic'
loop_
_space_group_symop_operation_xyz
x,y,z
-x,-y,z
-x,y,z
x,-y,z
x,1/2+y,1/2+z
-x,1/2-y,1/2+z
-x,1/2+y,1/2+z
x,1/2-y,1/2+z
loop_
_atom_site_type_symbol
_atom_site_label
_atom_site_fract_x
_atom_site_fract_y
_atom_site_fract_z
Si Si1 0.177090 0.600052 0.900470
Si Si2 0.180102 0.596885 0.416412
Si Si3 0.180427 0.246972 0.164453
Si Si4 0.322593 0.601128 0.755406
Si Si5 0.820121 0.254990 0.007358
Si Si6 0.820085 0.902865 0.759986
O O1 0.215919 0.500000 0.919740
O O2 0.262943 0.630944 0.831047
O O3 0.000000 0.613546 0.885964
O O4 0.233153 0.658959 0.965182
O O5 0.234882 0.500000 0.439851
O O6 0.247145 0.668706 0.469365
O O7 0.238521 0.617404 0.338179
O O8 0.000000 0.600692 0.416431
O O9 0.242499 0.156679 0.195301
O O10 0.242818 0.258285 0.085884
O O11 0.245493 0.329511 0.208006
O O12 0.000000 0.243746 0.166463
O O13 0.500000 0.617592 0.752526
O O14 0.280241 0.500000 0.741950
O O15 0.000000 0.250701 0.008804
O O16 0.000000 0.900067 0.758582
O O17 0.764901 0.000000 0.736593
#
# Coordination Sequence:
#
# PCOD8178036 Si02
#       6
#     8   8   8   8   8   8
#     4   9  17  31  52  75  98 126 162 204 247 293
#     4   8  13  22  36  55  83 118 150 180 217 263
#     4  10  19  30  48  74 101 129 160 197 245 301
#     4  10  21  36  52  70  95 130 172 215 255 294
#     4   9  17  27  42  70 102 124 147 188 241 291
#     4   8  14  25  43  67  93 121 153 189 229 276
#
# _framework density 18.583431999999998
#
# number of rings (size 3 to 8) (size 9 to 14) (size 15 to 20)
#    0.000    3.000    0.000    2.500    0.000    5.000 
#    0.000    5.833    0.000    0.500    0.000    0.000 
#    0.000    0.000    0.000    0.000    0.000    0.000 
#
# Total GULP energy -297526.273196 kJ/mol
# GULP energy per Si atom -12396.928050 kJ/mol
# Density = 1.854113 g / cm^3
# Si number density = 18.583432 Si / 1000 Ang^3
#
#
#
# Elastic Constant Matrix: (Units=GPa)
#
#
# Indices 1 2 3 4 5 6 
#
# 1 18.3124 17.2077 19.2727 0.0000 0.0000 0.0000
# 2 17.2077 132.7992 91.9033 0.0000 0.0000 0.0000
# 3 19.2727 91.9033 155.2222 0.0000 0.0000 0.0000
# 4 0.0000 0.0000 0.0000 25.6640 0.0000 0.0000
# 5 0.0000 0.0000 0.0000 0.0000 2.5796 0.0000
# 6 0.0000 0.0000 0.0000 0.0000 0.0000 11.5707
#
#
#
# Elastic Compliance Matrix: (Units=1/GPa)
#
#
# Indices 1 2 3 4 5 6 
#
# 1 0.064555 -0.004774 -0.005189 0.000000 0.000000 0.000000
# 2 -0.004774 0.013111 -0.007170 0.000000 0.000000 0.000000
# 3 -0.005189 -0.007170 0.011332 0.000000 0.000000 0.000000
# 4 0.000000 0.000000 0.000000 0.038965 0.000000 0.000000
# 5 0.000000 0.000000 0.000000 0.000000 0.387663 0.000000
# 6 0.000000 0.000000 0.000000 0.000000 0.000000 0.086426
#
#
# Mechanical properties :
#
#
# Convention : Reuss Voigt Hill
#
# Bulk Modulus (GPa) = 18.27082 62.56679 40.41880
# Shear Modulus (GPa) = 7.63872 19.82617 13.73245
#
# Velocity S-wave (km/s) = 2.02964 3.26985 2.72133
# Velocity P-wave (km/s) = 3.91736 6.92799 5.62773
#
# Compressibility (1/GPa) = 0.05473209
#
# Stress axis : x y z
#
# Youngs Moduli (GPa) = 15.49075 76.27467 88.24879
#
# Poissons Ratio (x) = 0.36413 0.45789
# Poissons Ratio (y) = 0.07395 0.63271
# Poissons Ratio (z) = 0.08038 0.54686
#
# Static dielectric constant tensor:
#      x y z
#    x 2.813090 0.000000 0.000000 
#    y 0.000000 3.730910 0.000000 
#    z 0.000000 0.000000 3.631160 
# 
# 
# High freq. dielectric constant tensor:
#      x y z
#    x 1.658280 0.000000 0.000000 
#    y 0.000000 1.736900 0.000000 
#    z 0.000000 0.000000 1.720410 
# 
# From -- ./inp_files/12044.got.cif
#   From: 2010.03.12/outbox.cif.g09.slc.cpg/sg38_7_cif.got.tgz:12044.got - 2010.04.14 02:38:36.
