data_PCOD8178315
_publ_section_title
;
Structure prediction by ZEFSAII (Michael W. Deem and Ramdas Pophale) SiO2 
 PCOD8178315
Probable space group: A M M 2
;
_chemical_formula_sum "Si O2"
_cell_formula_units_Z 64
_cell_length_a 9.013457
_cell_length_b 19.779522
_cell_length_c 20.145614
_cell_angle_alpha 90.000000
_cell_angle_beta 90.000000
_cell_angle_gamma 90.000000
_cell_volume 3591.597757
_symmetry_space_group_name_H-M "A M M 2"
_symmetry_group_IT_number 38
_symmetry_cell_setting 'orthorhombic'
loop_
_space_group_symop_operation_xyz
x,y,z
-x,-y,z
-x,y,z
x,-y,z
x,1/2+y,1/2+z
-x,1/2-y,1/2+z
-x,1/2+y,1/2+z
x,1/2-y,1/2+z
loop_
_atom_site_type_symbol
_atom_site_label
_atom_site_fract_x
_atom_site_fract_y
_atom_site_fract_z
Si Si1 0.826017 0.830090 0.295000
Si Si2 0.672184 0.079033 0.403804
Si Si3 0.172152 0.318086 0.151492
Si Si4 0.324649 0.575371 0.400224
Si Si5 0.676190 0.075171 0.047851
Si Si6 0.323609 0.820846 0.156901
Si Si7 0.828477 0.077346 0.538794
Si Si8 0.169192 0.675015 0.302250
O O1 0.763641 0.880131 0.349820
O O2 0.745667 0.845387 0.225878
O O3 0.793730 0.753214 0.316733
O O4 0.000000 0.842515 0.285463
O O5 0.500000 0.098092 0.398657
O O6 0.729965 0.099845 0.476422
O O7 0.699993 0.000000 0.390918
O O8 0.271142 0.253257 0.135065
O O9 0.217473 0.377603 0.101607
O O10 0.204578 0.343332 0.225956
O O11 0.000000 0.297292 0.144803
O O12 0.500000 0.576446 0.399384
O O13 0.267783 0.500000 0.381460
O O14 0.267005 0.594630 0.474022
O O15 0.270305 0.629483 0.347887
O O16 0.500000 0.076280 0.048624
O O17 0.738060 0.128287 0.100942
O O18 0.732827 0.000000 0.066665
O O19 0.500000 0.821964 0.163321
O O20 0.000000 0.087878 0.519597
O O21 0.796169 0.000000 0.558603
O O22 0.000000 0.658766 0.319597
#
# Coordination Sequence:
#
# PCOD8178315 Si02
#       8
#     8   8   8   8   8   8   8   8
#     4  10  21  37  54  74 103 137 171 208 254 308
#     4  10  21  36  54  78 106 134 168 212 259 308
#     4   9  19  35  52  72 102 137 170 208 254 305
#     4   9  18  33  52  74 101 133 167 203 247 300
#     4   8  16  32  51  71  98 130 162 198 243 295
#     4  10  19  32  53  78 101 130 169 212 256 301
#     4   9  18  34  55  76 100 135 176 214 256 307
#     4   9  19  34  51  73 101 133 169 209 251 295
#
# _framework density 17.819367
#
# number of rings (size 3 to 8) (size 9 to 14) (size 15 to 20)
#    0.000    2.750    0.000    2.625    0.000    6.000 
#    0.000    6.250    0.000    4.125    0.000    0.000 
#    0.000    0.000    0.000    0.000    0.000    0.000 
#
# Total GULP energy -396789.124332 kJ/mol
# GULP energy per Si atom -12399.660135 kJ/mol
# Density = 1.777881 g / cm^3
# Si number density = 17.819367 Si / 1000 Ang^3
#
#
#
# Elastic Constant Matrix: (Units=GPa)
#
#
# Indices 1 2 3 4 5 6 
#
# 1 62.1001 43.6390 49.1755 0.0000 0.0000 0.0000
# 2 43.6390 98.5409 88.9709 0.0000 0.0000 0.0000
# 3 49.1755 88.9709 132.4006 0.0000 0.0000 0.0000
# 4 0.0000 0.0000 0.0000 43.5090 0.0000 0.0000
# 5 0.0000 0.0000 0.0000 0.0000 27.8446 0.0000
# 6 0.0000 0.0000 0.0000 0.0000 0.0000 26.4696
#
#
#
# Elastic Compliance Matrix: (Units=1/GPa)
#
#
# Indices 1 2 3 4 5 6 
#
# 1 0.024426 -0.006677 -0.004585 0.000000 0.000000 0.000000
# 2 -0.006677 0.027629 -0.016086 0.000000 0.000000 0.000000
# 3 -0.004585 -0.016086 0.020066 0.000000 0.000000 0.000000
# 4 0.000000 0.000000 0.000000 0.022984 0.000000 0.000000
# 5 0.000000 0.000000 0.000000 0.000000 0.035914 0.000000
# 6 0.000000 0.000000 0.000000 0.000000 0.000000 0.037779
#
#
# Mechanical properties :
#
#
# Convention : Reuss Voigt Hill
#
# Bulk Modulus (GPa) = 57.39418 72.95694 65.17556
# Shear Modulus (GPa) = 21.80522 26.98171 24.39347
#
# Velocity S-wave (km/s) = 3.50191 3.89547 3.70392
# Velocity P-wave (km/s) = 6.97352 7.82715 7.41263
#
# Compressibility (1/GPa) = 0.01742337
#
# Stress axis : x y z
#
# Youngs Moduli (GPa) = 40.93962 36.19371 49.83663
#
# Poissons Ratio (x) = 0.24167 0.22851
# Poissons Ratio (y) = 0.27336 0.80169
# Poissons Ratio (z) = 0.18772 0.58222
#
# Static dielectric constant tensor:
#      x y z
#    x 3.184730 0.000000 0.000000 
#    y 0.000000 3.025640 0.000000 
#    z 0.000000 0.000000 3.442350 
# 
# 
# High freq. dielectric constant tensor:
#      x y z
#    x 1.680610 0.000000 0.000000 
#    y 0.000000 1.690200 0.000000 
#    z 0.000000 0.000000 1.695760 
# 
# From -- ./inp_files/17207.got.cif
#   From: 2010.03.12/outbox.cif.g09.slc.cpg/sg38_9_cif.got.tgz:17207.got - 2010.04.14 02:38:36.
