data_PCOD8178013
_publ_section_title
;
Structure prediction by ZEFSAII (Michael W. Deem and Ramdas Pophale) SiO2 
 PCOD8178013
Probable space group: A M M 2
;
_chemical_formula_sum "Si O2"
_cell_formula_units_Z 64
_cell_length_a 20.456042
_cell_length_b 9.083166
_cell_length_c 18.864887
_cell_angle_alpha 90.000000
_cell_angle_beta 90.000000
_cell_angle_gamma 90.000000
_cell_volume 3505.202123
_symmetry_space_group_name_H-M "A M M 2"
_symmetry_group_IT_number 38
_symmetry_cell_setting 'orthorhombic'
loop_
_space_group_symop_operation_xyz
x,y,z
-x,-y,z
-x,y,z
x,-y,z
x,1/2+y,1/2+z
-x,1/2-y,1/2+z
-x,1/2+y,1/2+z
x,1/2-y,1/2+z
loop_
_atom_site_type_symbol
_atom_site_label
_atom_site_fract_x
_atom_site_fract_y
_atom_site_fract_z
Si Si1 0.699268 0.328244 0.020840
Si Si2 0.175675 0.330010 0.928362
Si Si3 0.172310 0.671801 0.764933
Si Si4 0.292549 0.175725 0.168925
Si Si5 0.568654 0.335345 0.680156
Si Si6 0.076399 0.330536 0.167848
Si Si7 0.924390 0.172357 0.024850
Si Si8 0.428285 0.164902 0.011718
O O1 0.691688 0.500000 0.036673
O O2 0.720448 0.247749 0.092897
O O3 0.630930 0.270236 0.987201
O O4 0.755290 0.293859 0.964093
O O5 0.156470 0.500000 0.938931
O O6 0.182803 0.288170 0.846411
O O7 0.117619 0.232148 0.959816
O O8 0.158760 0.500000 0.753483
O O9 0.236357 0.723755 0.722548
O O10 0.110627 0.761442 0.736217
O O11 0.361770 0.235402 0.203212
O O12 0.296273 0.000000 0.158303
O O13 0.500000 0.254065 0.704035
O O14 0.564967 0.500000 0.710679
O O15 0.571263 0.338880 0.595876
O O16 0.096091 0.500000 0.159896
O O17 0.100187 0.248574 0.096955
O O18 0.000000 0.308635 0.179971
O O19 0.000000 0.210240 0.009713
O O20 0.912809 0.000000 0.033606
O O21 0.500000 0.221363 0.984706
O O22 0.415807 0.000000 0.982491
#
# Coordination Sequence:
#
# PCOD8178013 Si02
#       8
#     8   8   8   8   8   8   8   8
#     4  10  19  30  47  72 102 133 165 205 253 303
#     4  10  22  37  51  72 105 142 175 210 255 303
#     4  10  21  36  53  73 101 138 176 213 251 296
#     4   9  17  30  49  71  95 126 167 211 249 291
#     4   7  10  19  38  64  90 114 146 193 243 285
#     4  10  21  37  57  80 105 131 161 203 255 308
#     4  10  21  37  58  82 104 129 167 212 254 302
#     4   8  14  26  45  69  96 126 163 206 250 298
#
# _framework density 18.258576000000001
#
# number of rings (size 3 to 8) (size 9 to 14) (size 15 to 20)
#    0.000    2.750    0.000    3.375    0.000    6.250 
#    0.000    2.500    0.000    0.750    0.000    3.500 
#    0.000    0.000    0.000    0.000    0.000    0.000 
#
# Total GULP energy -396586.526531 kJ/mol
# GULP energy per Si atom -12393.328954 kJ/mol
# Density = 1.821702 g / cm^3
# Si number density = 18.258576 Si / 1000 Ang^3
#
#
#
# Elastic Constant Matrix: (Units=GPa)
#
#
# Indices 1 2 3 4 5 6 
#
# 1 118.6166 56.1873 65.1353 0.0000 0.0000 0.0000
# 2 56.1873 71.3723 45.9725 0.0000 0.0000 0.0000
# 3 65.1353 45.9725 98.1542 0.0000 0.0000 0.0000
# 4 0.0000 0.0000 0.0000 22.7444 0.0000 0.0000
# 5 0.0000 0.0000 0.0000 0.0000 6.2760 0.0000
# 6 0.0000 0.0000 0.0000 0.0000 0.0000 29.3271
#
#
#
# Elastic Compliance Matrix: (Units=1/GPa)
#
#
# Indices 1 2 3 4 5 6 
#
# 1 0.016087 -0.008289 -0.006793 0.000000 0.000000 0.000000
# 2 -0.008289 0.024335 -0.005897 0.000000 0.000000 0.000000
# 3 -0.006793 -0.005897 0.017458 0.000000 0.000000 0.000000
# 4 0.000000 0.000000 0.000000 0.043967 0.000000 0.000000
# 5 0.000000 0.000000 0.000000 0.000000 0.159337 0.000000
# 6 0.000000 0.000000 0.000000 0.000000 0.000000 0.034098
#
#
# Mechanical properties :
#
#
# Convention : Reuss Voigt Hill
#
# Bulk Modulus (GPa) = 62.80780 69.19257 66.00018
# Shear Modulus (GPa) = 14.59649 19.72604 17.16126
#
# Velocity S-wave (km/s) = 2.83049 3.29047 3.06911
# Velocity P-wave (km/s) = 6.71982 7.23978 6.98464
#
# Compressibility (1/GPa) = 0.01592159
#
# Stress axis : x y z
#
# Youngs Moduli (GPa) = 62.16127 41.09320 57.27984
#
# Poissons Ratio (x) = 0.34061 0.38912
# Poissons Ratio (y) = 0.51524 0.33779
# Poissons Ratio (z) = 0.42228 0.24234
#
# Static dielectric constant tensor:
#      x y z
#    x 3.972850 0.000000 0.000000 
#    y 0.000000 3.261310 0.000000 
#    z 0.000000 0.000000 3.036610 
# 
# 
# High freq. dielectric constant tensor:
#      x y z
#    x 1.732510 0.000000 0.000000 
#    y 0.000000 1.691940 0.000000 
#    z 0.000000 0.000000 1.668480 
# 
# From -- ./inp_files/18972.got.cif
#   From: 2010.03.12/outbox.cif.g09.slc.cpg/sg38_10_cif.got.tgz:18972.got - 2010.04.14 02:38:36.
