data_PCOD8178485
_publ_section_title
;
Structure prediction by ZEFSAII (Michael W. Deem and Ramdas Pophale) SiO2 
 PCOD8178485
Probable space group: A M M 2
;
_chemical_formula_sum "Si O2"
_cell_formula_units_Z 56
_cell_length_a 8.795155
_cell_length_b 14.323529
_cell_length_c 22.899857
_cell_angle_alpha 90.000000
_cell_angle_beta 90.000000
_cell_angle_gamma 90.000000
_cell_volume 2884.870347
_symmetry_space_group_name_H-M "A M M 2"
_symmetry_group_IT_number 38
_symmetry_cell_setting 'orthorhombic'
loop_
_space_group_symop_operation_xyz
x,y,z
-x,-y,z
-x,y,z
x,-y,z
x,1/2+y,1/2+z
-x,1/2-y,1/2+z
-x,1/2+y,1/2+z
x,1/2-y,1/2+z
loop_
_atom_site_type_symbol
_atom_site_label
_atom_site_fract_x
_atom_site_fract_y
_atom_site_fract_z
Si Si1 0.674559 0.895916 0.560270
Si Si2 0.322964 0.211359 0.117898
Si Si3 0.680458 0.397569 0.378235
Si Si4 0.179248 0.105694 0.224406
Si Si5 0.322369 0.204331 0.333393
Si Si6 0.673602 0.892998 0.006780
Si Si7 0.826126 0.108772 0.439559
O O1 0.500000 0.890277 0.539290
O O2 0.703051 0.823163 0.613142
O O3 0.778636 0.868298 0.505580
O O4 0.714310 0.000000 0.583233
O O5 0.500000 0.185757 0.125074
O O6 0.237382 0.172230 0.173567
O O7 0.250911 0.166817 0.058816
O O8 0.500000 0.401996 0.385699
O O9 0.738427 0.500000 0.356022
O O10 0.725032 0.314694 0.333662
O O11 0.750091 0.376576 0.443061
O O12 0.227669 0.149095 0.285737
O O13 0.000000 0.102913 0.222332
O O14 0.244204 0.000000 0.218363
O O15 0.500000 0.192507 0.319901
O O16 0.285132 0.164188 0.396867
O O17 0.500000 0.860372 0.002857
O O18 0.688790 0.000000 0.025424
O O19 0.000000 0.140128 0.429936
O O20 0.805455 0.000000 0.426175
#
# Coordination Sequence:
#
# PCOD8178485 Si02
#       7
#     8   8   8   8   8   8   8
#     4   9  18  33  54  82 113 141 174 218 262 307
#     4  10  19  33  55  80 105 137 178 220 260 305
#     4   8  15  29  50  79 111 136 162 204 258 311
#     4  11  25  42  56  73 102 138 175 219 271 324
#     4  11  21  34  56  81 104 137 181 225 267 311
#     4   8  13  23  44  75 106 131 158 199 250 300
#     4  10  20  33  51  78 113 149 179 212 262 319
#
# _framework density 19.411617
#
# number of rings (size 3 to 8) (size 9 to 14) (size 15 to 20)
#    0.000    2.429    0.000    3.857    0.000    7.143 
#    0.000    0.714    0.000    6.000    0.000    2.000 
#    0.000    0.000    0.000    0.000    0.000    0.000 
#
# Total GULP energy -347067.211732 kJ/mol
# GULP energy per Si atom -12395.257562 kJ/mol
# Density = 1.936743 g / cm^3
# Si number density = 19.411617 Si / 1000 Ang^3
#
#
#
# Elastic Constant Matrix: (Units=GPa)
#
#
# Indices 1 2 3 4 5 6 
#
# 1 38.3101 28.7325 21.4409 0.0000 0.0000 0.0000
# 2 28.7325 122.5847 67.7073 0.0000 0.0000 0.0000
# 3 21.4409 67.7073 73.8996 0.0000 0.0000 0.0000
# 4 0.0000 0.0000 0.0000 30.6611 0.0000 0.0000
# 5 0.0000 0.0000 0.0000 0.0000 19.3663 0.0000
# 6 0.0000 0.0000 0.0000 0.0000 0.0000 15.0726
#
#
#
# Elastic Compliance Matrix: (Units=1/GPa)
#
#
# Indices 1 2 3 4 5 6 
#
# 1 0.032546 -0.004885 -0.004967 0.000000 0.000000 0.000000
# 2 -0.004885 0.017248 -0.014386 0.000000 0.000000 0.000000
# 3 -0.004967 -0.014386 0.028153 0.000000 0.000000 0.000000
# 4 0.000000 0.000000 0.000000 0.032615 0.000000 0.000000
# 5 0.000000 0.000000 0.000000 0.000000 0.051636 0.000000
# 6 0.000000 0.000000 0.000000 0.000000 0.000000 0.066345
#
#
# Mechanical properties :
#
#
# Convention : Reuss Voigt Hill
#
# Bulk Modulus (GPa) = 33.93020 52.28398 43.10709
# Shear Modulus (GPa) = 17.43108 20.81427 19.12267
#
# Velocity S-wave (km/s) = 2.99987 3.27809 3.14206
# Velocity P-wave (km/s) = 5.43288 6.42811 5.95134
#
# Compressibility (1/GPa) = 0.02947227
#
# Stress axis : x y z
#
# Youngs Moduli (GPa) = 30.72531 57.97682 35.51982
#
# Poissons Ratio (x) = 0.28322 0.17643
# Poissons Ratio (y) = 0.15009 0.51098
# Poissons Ratio (z) = 0.15262 0.83404
#
# Static dielectric constant tensor:
#      x y z
#    x 3.236690 0.000000 0.000000 
#    y 0.000000 3.970460 0.000000 
#    z 0.000000 0.000000 3.386020 
# 
# 
# High freq. dielectric constant tensor:
#      x y z
#    x 1.720330 0.000000 0.000000 
#    y 0.000000 1.774930 0.000000 
#    z 0.000000 0.000000 1.735100 
# 
# From -- ./inp_files/19819.got.cif
#   From: 2010.03.12/outbox.cif.g09.slc.cpg/sg38_10_cif.got.tgz:19819.got - 2010.04.14 02:38:36.
