data_PCOD8178249
_publ_section_title
;
Structure prediction by ZEFSAII (Michael W. Deem and Ramdas Pophale) SiO2 
 PCOD8178249
Probable space group: A M M 2
;
_chemical_formula_sum "Si O2"
_cell_formula_units_Z 48
_cell_length_a 9.213857
_cell_length_b 7.912643
_cell_length_c 34.368559
_cell_angle_alpha 90.000000
_cell_angle_beta 90.000000
_cell_angle_gamma 90.000000
_cell_volume 2505.672825
_symmetry_space_group_name_H-M "A M M 2"
_symmetry_group_IT_number 38
_symmetry_cell_setting 'orthorhombic'
loop_
_space_group_symop_operation_xyz
x,y,z
-x,-y,z
-x,y,z
x,-y,z
x,1/2+y,1/2+z
-x,1/2-y,1/2+z
-x,1/2+y,1/2+z
x,1/2-y,1/2+z
loop_
_atom_site_type_symbol
_atom_site_label
_atom_site_fract_x
_atom_site_fract_y
_atom_site_fract_z
Si Si1 0.328557 0.300865 0.535040
Si Si2 0.839791 0.808408 0.272190
Si Si3 0.328040 0.687037 0.621317
Si Si4 0.664882 0.809568 0.701920
Si Si5 0.171941 0.500000 0.901632
Si Si6 0.172855 0.813918 0.852860
Si Si7 0.826889 0.000000 0.491085
O O1 0.500000 0.269436 0.529274
O O2 0.292992 0.500000 0.526578
O O3 0.276378 0.250495 0.578855
O O4 0.239094 0.173796 0.507925
O O5 0.748422 0.803030 0.232797
O O6 0.768944 0.708041 0.308517
O O7 0.000000 0.736473 0.262709
O O8 0.849602 0.000000 0.286483
O O9 0.500000 0.687922 0.619545
O O10 0.268102 0.500000 0.628939
O O11 0.271033 0.797356 0.657846
O O12 0.500000 0.744309 0.701209
O O13 0.677252 0.000000 0.716453
O O14 0.236741 0.669166 0.881207
O O15 0.000000 0.500000 0.897759
O O16 0.219205 0.500000 0.946185
O O17 0.000000 0.797819 0.851616
O O18 0.220855 0.000000 0.868002
O O19 0.000000 0.000000 0.497186
#
# Coordination Sequence:
#
# PCOD8178249 Si02
#       7
#     8   8   8   8   4   8   4
#     4   9  19  37  61  84 107 145 195 238 274 328
#     4  10  19  32  51  74 102 135 175 220 264 313
#     4   8  15  30  52  75  97 129 178 227 265 306
#     4  10  20  31  47  75 106 135 172 219 266 314
#     4   9  18  33  49  75 109 139 179 219 261 331
#     4   9  16  29  51  74  99 135 176 219 261 307
#     4  11  23  35  55  87 121 149 177 229 297 349
#
# _framework density 19.156531999999999
#
# number of rings (size 3 to 8) (size 9 to 14) (size 15 to 20)
#    0.000    2.667    0.833    2.250    1.167    3.000 
#    0.000    2.500    0.000    3.000    0.000    2.333 
#    0.000    0.000    0.000    0.000    0.000    0.000 
#
# Total GULP energy -297376.619659 kJ/mol
# GULP energy per Si atom -12390.692486 kJ/mol
# Density = 1.911293 g / cm^3
# Si number density = 19.156532 Si / 1000 Ang^3
#
#
#
# Elastic Constant Matrix: (Units=GPa)
#
#
# Indices 1 2 3 4 5 6 
#
# 1 40.3082 29.9890 38.1151 0.0000 0.0000 0.0000
# 2 29.9890 118.8751 72.3300 0.0000 0.0000 0.0000
# 3 38.1151 72.3300 155.4560 0.0000 0.0000 0.0000
# 4 0.0000 0.0000 0.0000 30.6321 0.0000 0.0000
# 5 0.0000 0.0000 0.0000 0.0000 81.4886 0.0000
# 6 0.0000 0.0000 0.0000 0.0000 0.0000 20.1339
#
#
#
# Elastic Compliance Matrix: (Units=1/GPa)
#
#
# Indices 1 2 3 4 5 6 
#
# 1 0.034246 -0.004925 -0.006105 0.000000 0.000000 0.000000
# 2 -0.004925 0.012442 -0.004582 0.000000 0.000000 0.000000
# 3 -0.006105 -0.004582 0.010061 0.000000 0.000000 0.000000
# 4 0.000000 0.000000 0.000000 0.032645 0.000000 0.000000
# 5 0.000000 0.000000 0.000000 0.000000 0.012272 0.000000
# 6 0.000000 0.000000 0.000000 0.000000 0.000000 0.049667
#
#
# Mechanical properties :
#
#
# Convention : Reuss Voigt Hill
#
# Bulk Modulus (GPa) = 39.17508 66.16752 52.67130
# Shear Modulus (GPa) = 26.16905 38.06459 32.11682
#
# Velocity S-wave (km/s) = 3.70004 4.46245 4.09901
# Velocity P-wave (km/s) = 6.22480 7.82091 7.06805
#
# Compressibility (1/GPa) = 0.02552643
#
# Stress axis : x y z
#
# Youngs Moduli (GPa) = 29.20080 80.37119 99.39053
#
# Poissons Ratio (x) = 0.39579 0.60680
# Poissons Ratio (y) = 0.14380 0.45538
# Poissons Ratio (z) = 0.17828 0.36824
#
# Static dielectric constant tensor:
#      x y z
#    x 2.929690 0.000000 0.000000 
#    y 0.000000 3.579790 0.000000 
#    z 0.000000 0.000000 3.644130 
# 
# 
# High freq. dielectric constant tensor:
#      x y z
#    x 1.684130 0.000000 0.000000 
#    y 0.000000 1.755510 0.000000 
#    z 0.000000 0.000000 1.752560 
# 
# From -- ./inp_files/24386.got.cif
#   From: 2010.03.12/outbox.cif.g09.slc.cpg/sg38_13_cif.got.tgz:24386.got - 2010.04.14 02:38:36.
