data_PCOD8178155
_publ_section_title
;
Structure prediction by ZEFSAII (Michael W. Deem and Ramdas Pophale) SiO2 
 PCOD8178155
Probable space group: A M M 2
;
_chemical_formula_sum "Si O2"
_cell_formula_units_Z 64
_cell_length_a 8.687767
_cell_length_b 30.251292
_cell_length_c 14.231382
_cell_angle_alpha 90.000000
_cell_angle_beta 90.000000
_cell_angle_gamma 90.000000
_cell_volume 3740.237401
_symmetry_space_group_name_H-M "A M M 2"
_symmetry_group_IT_number 38
_symmetry_cell_setting 'orthorhombic'
loop_
_space_group_symop_operation_xyz
x,y,z
-x,-y,z
-x,y,z
x,-y,z
x,1/2+y,1/2+z
-x,1/2-y,1/2+z
-x,1/2+y,1/2+z
x,1/2-y,1/2+z
loop_
_atom_site_type_symbol
_atom_site_label
_atom_site_fract_x
_atom_site_fract_y
_atom_site_fract_z
Si Si1 0.320267 0.288658 0.153920
Si Si2 0.682584 0.048582 0.276635
Si Si3 0.824177 0.272720 0.349006
Si Si4 0.177765 0.296119 0.554419
Si Si5 0.819541 0.135382 0.533315
Si Si6 0.319468 0.049629 0.489940
Si Si7 0.327512 0.817056 0.367778
Si Si8 0.673443 0.866517 0.174975
O O1 0.500000 0.295533 0.138208
O O2 0.286907 0.287094 0.264911
O O3 0.272976 0.243509 0.101902
O O4 0.231149 0.331002 0.114290
O O5 0.500000 0.054093 0.280499
O O6 0.743158 0.054028 0.382868
O O7 0.747881 0.086422 0.206682
O O8 0.729268 0.000000 0.237735
O O9 0.791119 0.300783 0.443017
O O10 0.792319 0.222487 0.378435
O O11 0.000000 0.277487 0.315452
O O12 0.223723 0.343923 0.595104
O O13 0.000000 0.286039 0.575275
O O14 0.771601 0.084615 0.556127
O O15 0.728959 0.144901 0.437053
O O16 0.000000 0.139699 0.518677
O O17 0.500000 0.059799 0.495041
O O18 0.285338 0.000000 0.526853
O O19 0.500000 0.801828 0.396225
O O20 0.327810 0.833792 0.262478
O O21 0.500000 0.872895 0.136526
#
# Coordination Sequence:
#
# PCOD8178155 Si02
#       8
#     8   8   8   8   8   8   8   8
#     4  12  24  37  55  75 100 135 178 220 257 309
#     4   8  14  27  48  73 101 133 170 212 254 296
#     4  11  23  38  53  72 102 137 174 217 266 308
#     4  11  23  36  52  74 104 138 171 210 261 314
#     4  12  23  34  50  75 108 143 177 216 261 312
#     4   9  17  32  53  75 103 138 175 215 259 311
#     4  11  20  31  50  75 104 139 179 215 251 301
#     4  10  19  31  50  75 102 136 177 212 251 303
#
# _framework density 17.111214
#
# number of rings (size 3 to 8) (size 9 to 14) (size 15 to 20)
#    0.000    1.500    3.750    4.125    0.000    2.250 
#    0.000    0.000    0.000    0.375    0.000    0.875 
#    0.000    3.000    0.000    0.000    0.000    0.000 
#
# Total GULP energy -396748.190619 kJ/mol
# GULP energy per Si atom -12398.380957 kJ/mol
# Density = 1.707227 g / cm^3
# Si number density = 17.111214 Si / 1000 Ang^3
#
#
#
# Elastic Constant Matrix: (Units=GPa)
#
#
# Indices 1 2 3 4 5 6 
#
# 1 58.4268 19.2651 26.8573 0.0000 0.0000 0.0000
# 2 19.2651 104.3009 23.4364 0.0000 0.0000 0.0000
# 3 26.8573 23.4364 56.0532 0.0000 0.0000 0.0000
# 4 0.0000 0.0000 0.0000 24.3686 0.0000 0.0000
# 5 0.0000 0.0000 0.0000 0.0000 19.5421 0.0000
# 6 0.0000 0.0000 0.0000 0.0000 0.0000 17.8669
#
#
#
# Elastic Compliance Matrix: (Units=1/GPa)
#
#
# Indices 1 2 3 4 5 6 
#
# 1 0.022284 -0.001895 -0.009885 0.000000 0.000000 0.000000
# 2 -0.001895 0.010743 -0.003584 0.000000 0.000000 0.000000
# 3 -0.009885 -0.003584 0.024075 0.000000 0.000000 0.000000
# 4 0.000000 0.000000 0.000000 0.041036 0.000000 0.000000
# 5 0.000000 0.000000 0.000000 0.000000 0.051172 0.000000
# 6 0.000000 0.000000 0.000000 0.000000 0.000000 0.055969
#
#
# Mechanical properties :
#
#
# Convention : Reuss Voigt Hill
#
# Bulk Modulus (GPa) = 37.91519 39.76651 38.84085
# Shear Modulus (GPa) = 20.42500 22.30366 21.36433
#
# Velocity S-wave (km/s) = 3.45869 3.61425 3.53733
# Velocity P-wave (km/s) = 6.17707 6.38025 6.27948
#
# Compressibility (1/GPa) = 0.02637466
#
# Stress axis : x y z
#
# Youngs Moduli (GPa) = 44.87506 93.08454 41.53708
#
# Poissons Ratio (x) = 0.17639 0.41059
# Poissons Ratio (y) = 0.08503 0.14886
# Poissons Ratio (z) = 0.44359 0.33360
#
# Static dielectric constant tensor:
#      x y z
#    x 3.136430 0.000000 0.000000 
#    y 0.000000 3.361700 0.000000 
#    z 0.000000 0.000000 3.041950 
# 
# 
# High freq. dielectric constant tensor:
#      x y z
#    x 1.657900 0.000000 0.000000 
#    y 0.000000 1.656290 0.000000 
#    z 0.000000 0.000000 1.629940 
# 
# From -- ./inp_files/13134.got.cif
#   From: 2010.03.12/outbox.cif.g09.slc.cpg/sg38_7_cif.got.tgz:13134.got - 2010.04.14 02:38:36.
