data_PCOD8178621
_publ_section_title
;
Structure prediction by ZEFSAII (Michael W. Deem and Ramdas Pophale) SiO2 
 PCOD8178621
Probable space group: A M M 2
;
_chemical_formula_sum "Si O2"
_cell_formula_units_Z 64
_cell_length_a 23.901613
_cell_length_b 9.226234
_cell_length_c 14.993321
_cell_angle_alpha 90.000000
_cell_angle_beta 90.000000
_cell_angle_gamma 90.000000
_cell_volume 3306.355252
_symmetry_space_group_name_H-M "A M M 2"
_symmetry_group_IT_number 38
_symmetry_cell_setting 'orthorhombic'
loop_
_space_group_symop_operation_xyz
x,y,z
-x,-y,z
-x,y,z
x,-y,z
x,1/2+y,1/2+z
-x,1/2-y,1/2+z
-x,1/2+y,1/2+z
x,1/2-y,1/2+z
loop_
_atom_site_type_symbol
_atom_site_label
_atom_site_fract_x
_atom_site_fract_y
_atom_site_fract_z
Si Si1 0.863601 0.171667 0.913570
Si Si2 0.752557 0.333971 0.901172
Si Si3 0.746051 0.835735 0.611147
Si Si4 0.563240 0.170619 0.018165
Si Si5 0.374465 0.165702 0.665053
Si Si6 0.644254 0.333742 0.362223
Si Si7 0.064752 0.332185 0.776000
Si Si8 0.145286 0.831447 0.117546
O O1 0.807940 0.246007 0.873889
O O2 0.915852 0.234174 0.858809
O O3 0.859497 0.000000 0.900748
O O4 0.872239 0.214957 0.017336
O O5 0.759133 0.500000 0.869710
O O6 0.699626 0.262425 0.853293
O O7 0.742689 0.321823 0.005659
O O8 0.688178 0.772687 0.649610
O O9 0.797892 0.745502 0.649561
O O10 0.754916 0.000000 0.642951
O O11 0.500000 0.216370 0.994773
O O12 0.580391 0.242613 0.111167
O O13 0.568485 0.000000 0.029782
O O14 0.603490 0.226485 0.939148
O O15 0.389386 0.177853 0.769381
O O16 0.377080 0.000000 0.631304
O O17 0.661828 0.500000 0.381280
O O18 0.076041 0.500000 0.799472
O O19 0.096105 0.286822 0.684934
O O20 0.000000 0.301201 0.758742
O O21 0.158209 0.000000 0.120351
#
# Coordination Sequence:
#
# PCOD8178621 Si02
#       8
#     8   8   8   8   8   8   8   8
#     4  10  21  37  58  85 115 148 191 237 283 336
#     4  10  19  34  57  84 117 151 187 231 284 341
#     4   9  18  33  54  82 116 146 181 232 283 333
#     4  10  22  40  59  81 114 154 194 237 282 333
#     4  10  21  37  57  85 114 148 190 233 285 338
#     4  10  21  36  57  85 116 149 187 233 286 339
#     4  10  22  40  59  82 115 153 193 235 282 339
#     4   9  20  37  57  82 111 150 191 229 280 337
#
# _framework density 19.356660999999999
#
# number of rings (size 3 to 8) (size 9 to 14) (size 15 to 20)
#    0.000    2.250    1.250    0.750    1.750    4.000 
#    0.000    2.500    0.000    0.000    0.000    0.000 
#    0.000    0.000    0.000    0.000    0.000    0.000 
#
# Total GULP energy -396901.969578 kJ/mol
# GULP energy per Si atom -12403.186549 kJ/mol
# Density = 1.931260 g / cm^3
# Si number density = 19.356661 Si / 1000 Ang^3
#
#
#
# Elastic Constant Matrix: (Units=GPa)
#
#
# Indices 1 2 3 4 5 6 
#
# 1 106.7700 39.8199 36.2909 0.0000 0.0000 0.0000
# 2 39.8199 59.5372 29.6973 0.0000 0.0000 0.0000
# 3 36.2909 29.6973 70.2230 0.0000 0.0000 0.0000
# 4 0.0000 0.0000 0.0000 27.9050 0.0000 0.0000
# 5 0.0000 0.0000 0.0000 0.0000 26.9248 0.0000
# 6 0.0000 0.0000 0.0000 0.0000 0.0000 32.5422
#
#
#
# Elastic Compliance Matrix: (Units=1/GPa)
#
#
# Indices 1 2 3 4 5 6 
#
# 1 0.013286 -0.006921 -0.003939 0.000000 0.000000 0.000000
# 2 -0.006921 0.024892 -0.006950 0.000000 0.000000 0.000000
# 3 -0.003939 -0.006950 0.019215 0.000000 0.000000 0.000000
# 4 0.000000 0.000000 0.000000 0.035836 0.000000 0.000000
# 5 0.000000 0.000000 0.000000 0.000000 0.037140 0.000000
# 6 0.000000 0.000000 0.000000 0.000000 0.000000 0.030729
#
#
# Mechanical properties :
#
#
# Convention : Reuss Voigt Hill
#
# Bulk Modulus (GPa) = 45.92936 49.79404 47.86170
# Shear Modulus (GPa) = 24.51255 26.18921 25.35088
#
# Velocity S-wave (km/s) = 3.56246 3.68228 3.62287
# Velocity P-wave (km/s) = 6.37973 6.62263 6.50231
#
# Compressibility (1/GPa) = 0.02177257
#
# Stress axis : x y z
#
# Youngs Moduli (GPa) = 75.26656 40.17373 52.04197
#
# Poissons Ratio (x) = 0.27805 0.20501
# Poissons Ratio (y) = 0.52093 0.36169
# Poissons Ratio (z) = 0.29649 0.27921
#
# Static dielectric constant tensor:
#      x y z
#    x 3.488010 0.000000 0.000000 
#    y 0.000000 3.479280 0.000000 
#    z 0.000000 0.000000 3.550050 
# 
# 
# High freq. dielectric constant tensor:
#      x y z
#    x 1.747450 0.000000 0.000000 
#    y 0.000000 1.746460 0.000000 
#    z 0.000000 0.000000 1.756850 
# 
# From -- ./inp_files/15746.got.cif
#   From: 2010.03.12/outbox.cif.g09.slc.cpg/sg38_8_cif.got.tgz:15746.got - 2010.04.14 02:38:36.
