data_PCOD8178581
_publ_section_title
;
Structure prediction by ZEFSAII (Michael W. Deem and Ramdas Pophale) SiO2 
 PCOD8178581
Probable space group: A M M 2
;
_chemical_formula_sum "Si O2"
_cell_formula_units_Z 64
_cell_length_a 13.628574
_cell_length_b 18.695260
_cell_length_c 14.242113
_cell_angle_alpha 90.000000
_cell_angle_beta 90.000000
_cell_angle_gamma 90.000000
_cell_volume 3628.744188
_symmetry_space_group_name_H-M "A M M 2"
_symmetry_group_IT_number 38
_symmetry_cell_setting 'orthorhombic'
loop_
_space_group_symop_operation_xyz
x,y,z
-x,-y,z
-x,y,z
x,-y,z
x,1/2+y,1/2+z
-x,1/2-y,1/2+z
-x,1/2+y,1/2+z
x,1/2-y,1/2+z
loop_
_atom_site_type_symbol
_atom_site_label
_atom_site_fract_x
_atom_site_fract_y
_atom_site_fract_z
Si Si1 0.613911 0.679469 0.424570
Si Si2 0.763031 0.200061 0.452177
Si Si3 0.889585 0.878447 0.776127
Si Si4 0.781397 0.919293 0.959073
Si Si5 0.113495 0.189149 0.070862
Si Si6 0.230124 0.081247 0.602406
Si Si7 0.609557 0.421268 0.252752
Si Si8 0.111005 0.210445 0.280348
O O1 0.500000 0.680513 0.458783
O O2 0.659508 0.759570 0.429747
O O3 0.682341 0.625383 0.484787
O O4 0.622881 0.646292 0.320850
O O5 0.832351 0.251718 0.510600
O O6 0.751233 0.127679 0.510032
O O7 0.815728 0.176177 0.355887
O O8 0.813193 0.915201 0.848704
O O9 0.860579 0.894684 0.668432
O O10 0.885918 0.794928 0.795397
O O11 0.000000 0.907723 0.792460
O O12 0.762527 0.000000 0.989013
O O13 0.868557 0.888077 0.023713
O O14 0.151303 0.189234 0.177843
O O15 0.000000 0.209261 0.068879
O O16 0.327799 0.091694 0.661319
O O17 0.212871 0.000000 0.569835
O O18 0.500000 0.423039 0.215073
O O19 0.634457 0.500000 0.300094
O O20 0.000000 0.181750 0.294962
#
# Coordination Sequence:
#
# PCOD8178581 Si02
#       8
#     8   8   8   8   8   8   8   8
#     4  10  20  34  53  80 109 138 173 219 273 322
#     4  11  21  34  55  76 108 141 186 220 266 318
#     4  11  20  32  53  81 112 140 172 222 276 321
#     4  11  21  34  54  81 112 142 174 216 270 326
#     4  10  20  34  53  77 105 141 182 221 264 312
#     4  11  22  35  51  78 112 145 178 219 272 327
#     4   9  17  32  55  80 107 137 169 213 275 334
#     4  10  19  34  56  79 105 141 183 225 264 307
#
# _framework density 17.636956000000001
#
# number of rings (size 3 to 8) (size 9 to 14) (size 15 to 20)
#    0.000    1.625    5.000    1.500    0.000    3.500 
#    0.000    0.625    0.000    0.750    0.000    0.000 
#    0.000    2.250    0.000    0.000    0.000    0.000 
#
# Total GULP energy -396654.405498 kJ/mol
# GULP energy per Si atom -12395.450172 kJ/mol
# Density = 1.759681 g / cm^3
# Si number density = 17.636956 Si / 1000 Ang^3
#
#
#
# Elastic Constant Matrix: (Units=GPa)
#
#
# Indices 1 2 3 4 5 6 
#
# 1 91.8560 22.2728 30.1411 0.0000 0.0000 0.0000
# 2 22.2728 74.2433 34.9705 0.0000 0.0000 0.0000
# 3 30.1411 34.9705 93.3095 0.0000 0.0000 0.0000
# 4 0.0000 0.0000 0.0000 27.4782 0.0000 0.0000
# 5 0.0000 0.0000 0.0000 0.0000 19.9417 0.0000
# 6 0.0000 0.0000 0.0000 0.0000 0.0000 10.7712
#
#
#
# Elastic Compliance Matrix: (Units=1/GPa)
#
#
# Indices 1 2 3 4 5 6 
#
# 1 0.012477 -0.002240 -0.003191 0.000000 0.000000 0.000000
# 2 -0.002240 0.016759 -0.005557 0.000000 0.000000 0.000000
# 3 -0.003191 -0.005557 0.013830 0.000000 0.000000 0.000000
# 4 0.000000 0.000000 0.000000 0.036392 0.000000 0.000000
# 5 0.000000 0.000000 0.000000 0.000000 0.050146 0.000000
# 6 0.000000 0.000000 0.000000 0.000000 0.000000 0.092840
#
#
# Mechanical properties :
#
#
# Convention : Reuss Voigt Hill
#
# Bulk Modulus (GPa) = 47.41610 48.24195 47.82902
# Shear Modulus (GPa) = 19.88456 23.10651 21.49554
#
# Velocity S-wave (km/s) = 3.36138 3.62348 3.49489
# Velocity P-wave (km/s) = 6.48136 6.70211 6.59266
#
# Compressibility (1/GPa) = 0.02108988
#
# Stress axis : x y z
#
# Youngs Moduli (GPa) = 80.14903 59.66983 72.30414
#
# Poissons Ratio (x) = 0.13366 0.23070
# Poissons Ratio (y) = 0.17954 0.40182
# Poissons Ratio (z) = 0.25573 0.33160
#
# Static dielectric constant tensor:
#      x y z
#    x 3.519920 0.000000 0.000000 
#    y 0.000000 3.290560 0.000000 
#    z 0.000000 0.000000 3.262500 
# 
# 
# High freq. dielectric constant tensor:
#      x y z
#    x 1.689860 0.000000 0.000000 
#    y 0.000000 1.665260 0.000000 
#    z 0.000000 0.000000 1.660690 
# 
# From -- ./inp_files/14791.got.cif
#   From: 2010.03.12/outbox.cif.g09.slc.cpg/sg38_8_cif.got.tgz:14791.got - 2010.04.14 02:38:36.
