data_PCOD8178175
_publ_section_title
;
Structure prediction by ZEFSAII (Michael W. Deem and Ramdas Pophale) SiO2 
 PCOD8178175
Probable space group: A M M 2
;
_chemical_formula_sum "Si O2"
_cell_formula_units_Z 48
_cell_length_a 13.881981
_cell_length_b 12.237430
_cell_length_c 14.881645
_cell_angle_alpha 90.000000
_cell_angle_beta 90.000000
_cell_angle_gamma 90.000000
_cell_volume 2528.090441
_symmetry_space_group_name_H-M "A M M 2"
_symmetry_group_IT_number 38
_symmetry_cell_setting 'orthorhombic'
loop_
_space_group_symop_operation_xyz
x,y,z
-x,-y,z
-x,y,z
x,-y,z
x,1/2+y,1/2+z
-x,1/2-y,1/2+z
-x,1/2+y,1/2+z
x,1/2-y,1/2+z
loop_
_atom_site_type_symbol
_atom_site_label
_atom_site_fract_x
_atom_site_fract_y
_atom_site_fract_z
Si Si1 0.387413 0.874209 0.458710
Si Si2 0.890705 0.122862 0.922314
Si Si3 0.104465 0.121077 0.246585
Si Si4 0.894601 0.783494 0.583022
Si Si5 0.261229 0.243601 0.821424
Si Si6 0.705590 0.623161 0.143838
O O1 0.500000 0.862997 0.442242
O O2 0.339723 0.783850 0.393080
O O3 0.365042 0.843134 0.562323
O O4 0.353928 0.000000 0.439281
O O5 0.807463 0.141063 0.848196
O O6 0.000000 0.137281 0.883433
O O7 0.879678 0.000000 0.960732
O O8 0.868073 0.214199 0.995667
O O9 0.104521 0.198155 0.162263
O O10 0.189617 0.153277 0.313528
O O11 0.000000 0.128464 0.296024
O O12 0.123828 0.000000 0.210844
O O13 0.814098 0.873656 0.603317
O O14 0.000000 0.839647 0.573487
O O15 0.310984 0.206526 0.727324
O O16 0.683882 0.500000 0.176179
#
# Coordination Sequence:
#
# PCOD8178175 Si02
#       6
#     8   8   8   8   8   8
#     4  10  22  41  62  82 108 144 187 237 292 344
#     4  10  19  31  50  79 116 154 188 224 272 329
#     4   9  17  29  47  74 108 142 179 223 269 322
#     4   9  17  31  51  77 109 150 190 223 264 322
#     4  11  20  34  57  83 109 147 188 235 275 338
#     4  10  21  37  57  85 115 147 185 227 281 339
#
# _framework density 18.986663
#
# number of rings (size 3 to 8) (size 9 to 14) (size 15 to 20)
#    0.000    2.167    1.667    2.000    0.000    3.667 
#    0.000    0.000    0.000    1.500    0.000    0.000 
#    0.000    0.000    0.000    0.000    0.000    0.000 
#
# Total GULP energy -297398.903457 kJ/mol
# GULP energy per Si atom -12391.620977 kJ/mol
# Density = 1.894345 g / cm^3
# Si number density = 18.986663 Si / 1000 Ang^3
#
#
#
# Elastic Constant Matrix: (Units=GPa)
#
#
# Indices 1 2 3 4 5 6 
#
# 1 78.3150 29.9428 38.3598 0.0000 0.0000 0.0000
# 2 29.9428 66.7642 31.1990 0.0000 0.0000 0.0000
# 3 38.3598 31.1990 89.3778 0.0000 0.0000 0.0000
# 4 0.0000 0.0000 0.0000 247.2612 0.0000 0.0000
# 5 0.0000 0.0000 0.0000 0.0000 19.9948 0.0000
# 6 0.0000 0.0000 0.0000 0.0000 0.0000 18.7199
#
#
#
# Elastic Compliance Matrix: (Units=1/GPa)
#
#
# Indices 1 2 3 4 5 6 
#
# 1 0.017560 -0.005202 -0.005721 0.000000 0.000000 0.000000
# 2 -0.005202 0.019439 -0.004553 0.000000 0.000000 0.000000
# 3 -0.005721 -0.004553 0.015233 0.000000 0.000000 0.000000
# 4 0.000000 0.000000 0.000000 0.004044 0.000000 0.000000
# 5 0.000000 0.000000 0.000000 0.000000 0.050013 0.000000
# 6 0.000000 0.000000 0.000000 0.000000 0.000000 0.053419
#
#
# Mechanical properties :
#
#
# Convention : Reuss Voigt Hill
#
# Bulk Modulus (GPa) = 46.99127 48.16223 47.57675
# Shear Modulus (GPa) = 25.28415 66.19221 45.73818
#
# Velocity S-wave (km/s) = 3.65318 5.91085 4.91344
# Velocity P-wave (km/s) = 6.52669 8.48561 7.56978
#
# Compressibility (1/GPa) = 0.02128055
#
# Stress axis : x y z
#
# Youngs Moduli (GPa) = 56.94773 51.44378 65.64754
#
# Poissons Ratio (x) = 0.26762 0.37554
# Poissons Ratio (y) = 0.29625 0.29888
# Poissons Ratio (z) = 0.32577 0.23421
#
# Static dielectric constant tensor:
#      x y z
#    x 3.883370 0.000000 0.000000 
#    y 0.000000 3.200940 0.000000 
#    z 0.000000 0.000000 3.471770 
# 
# 
# High freq. dielectric constant tensor:
#      x y z
#    x 1.723930 0.000000 0.000000 
#    y 0.000000 1.729880 0.000000 
#    z 0.000000 0.000000 1.733940 
# 
# From -- ./inp_files/13710.got.cif
#   From: 2010.03.12/outbox.cif.g09.slc.cpg/sg38_7_cif.got.tgz:13710.got - 2010.04.14 02:38:36.
