data_PCOD8178379
_publ_section_title
;
Structure prediction by ZEFSAII (Michael W. Deem and Ramdas Pophale) SiO2 
 PCOD8178379
Probable space group: A M M 2
;
_chemical_formula_sum "Si O2"
_cell_formula_units_Z 64
_cell_length_a 13.900164
_cell_length_b 9.190585
_cell_length_c 26.230516
_cell_angle_alpha 90.000000
_cell_angle_beta 90.000000
_cell_angle_gamma 90.000000
_cell_volume 3350.965174
_symmetry_space_group_name_H-M "A M M 2"
_symmetry_group_IT_number 38
_symmetry_cell_setting 'orthorhombic'
loop_
_space_group_symop_operation_xyz
x,y,z
-x,-y,z
-x,y,z
x,-y,z
x,1/2+y,1/2+z
-x,1/2-y,1/2+z
-x,1/2+y,1/2+z
x,1/2-y,1/2+z
loop_
_atom_site_type_symbol
_atom_site_label
_atom_site_fract_x
_atom_site_fract_y
_atom_site_fract_z
Si Si1 0.391556 0.168286 0.298720
Si Si2 0.385911 0.163483 0.897997
Si Si3 0.795921 0.331267 0.745912
Si Si4 0.388239 0.829814 0.498952
Si Si5 0.774132 0.172900 0.045398
Si Si6 0.109080 0.326799 0.643747
Si Si7 0.106397 0.671988 0.449109
Si Si8 0.885672 0.337773 0.337426
O O1 0.500000 0.214594 0.282626
O O2 0.350259 0.261986 0.345809
O O3 0.319225 0.196307 0.251341
O O4 0.390100 0.000000 0.315607
O O5 0.500000 0.159103 0.896163
O O6 0.343024 0.000000 0.902181
O O7 0.352464 0.256096 0.946451
O O8 0.820050 0.500000 0.745203
O O9 0.835768 0.262651 0.693404
O O10 0.851052 0.270256 0.794370
O O11 0.500000 0.799185 0.509467
O O12 0.329090 0.753987 0.544900
O O13 0.366177 0.000000 0.495937
O O14 0.833828 0.227526 0.094187
O O15 0.758115 0.000000 0.046187
O O16 0.829080 0.230520 0.995187
O O17 0.107506 0.500000 0.644360
O O18 0.000000 0.266095 0.642704
O O19 0.096617 0.500000 0.453985
O O20 0.153424 0.710339 0.393713
O O21 0.000000 0.741851 0.454280
O O22 0.849138 0.500000 0.324077
O O23 0.000000 0.335540 0.340758
#
# Coordination Sequence:
#
# PCOD8178379 Si02
#       8
#     8   8   8   8   8   8   8   8
#     4   9  18  32  48  70 105 145 181 217 263 316
#     4   9  17  30  50  75 102 135 177 221 259 302
#     4  10  20  33  52  77 104 140 183 221 262 314
#     4  10  21  36  52  73 108 148 178 210 261 319
#     4  10  19  32  55  82 103 133 181 226 263 307
#     4   9  18  34  56  81 108 137 174 222 273 321
#     4   8  15  29  49  74 103 132 164 208 266 323
#     4   9  18  32  49  72 103 135 167 211 270 329
#
# _framework density 19.098976
#
# number of rings (size 3 to 8) (size 9 to 14) (size 15 to 20)
#    0.000    2.750    0.000    2.250    1.750    5.000 
#    0.000    1.250    0.000    5.250    0.000    1.750 
#    0.000    0.000    0.000    0.000    0.000    0.000 
#
# Total GULP energy -396693.398341 kJ/mol
# GULP energy per Si atom -12396.668698 kJ/mol
# Density = 1.905551 g / cm^3
# Si number density = 19.098976 Si / 1000 Ang^3
#
#
#
# Elastic Constant Matrix: (Units=GPa)
#
#
# Indices 1 2 3 4 5 6 
#
# 1 92.7010 37.9191 77.7986 0.0000 0.0000 0.0000
# 2 37.9191 53.5923 38.2503 0.0000 0.0000 0.0000
# 3 77.7986 38.2503 151.7271 0.0000 0.0000 0.0000
# 4 0.0000 0.0000 0.0000 21.7593 0.0000 0.0000
# 5 0.0000 0.0000 0.0000 0.0000 35.2785 0.0000
# 6 0.0000 0.0000 0.0000 0.0000 0.0000 21.2457
#
#
#
# Elastic Compliance Matrix: (Units=1/GPa)
#
#
# Indices 1 2 3 4 5 6 
#
# 1 0.022131 -0.009218 -0.009024 0.000000 0.000000 0.000000
# 2 -0.009218 0.026593 -0.001977 0.000000 0.000000 0.000000
# 3 -0.009024 -0.001977 0.011716 0.000000 0.000000 0.000000
# 4 0.000000 0.000000 0.000000 0.045957 0.000000 0.000000
# 5 0.000000 0.000000 0.000000 0.000000 0.028346 0.000000
# 6 0.000000 0.000000 0.000000 0.000000 0.000000 0.047068
#
#
# Mechanical properties :
#
#
# Convention : Reuss Voigt Hill
#
# Bulk Modulus (GPa) = 49.99639 67.32849 58.66244
# Shear Modulus (GPa) = 21.84175 25.26019 23.55097
#
# Velocity S-wave (km/s) = 3.38540 3.64069 3.51536
# Velocity P-wave (km/s) = 6.44326 7.28023 6.87450
#
# Compressibility (1/GPa) = 0.02000145
#
# Stress axis : x y z
#
# Youngs Moduli (GPa) = 45.18449 37.60369 85.35058
#
# Poissons Ratio (x) = 0.34665 0.77021
# Poissons Ratio (y) = 0.41653 0.16877
# Poissons Ratio (z) = 0.40775 0.07436
#
# Static dielectric constant tensor:
#      x y z
#    x 3.734870 0.000000 0.000000 
#    y 0.000000 3.237270 0.000000 
#    z 0.000000 0.000000 3.548820 
# 
# 
# High freq. dielectric constant tensor:
#      x y z
#    x 1.757280 0.000000 0.000000 
#    y 0.000000 1.707610 0.000000 
#    z 0.000000 0.000000 1.728250 
# 
# From -- ./inp_files/22917.got.cif
#   From: 2010.03.12/outbox.cif.g09.slc.cpg/sg38_12_cif.got.tgz:22917.got - 2010.04.14 02:38:36.
