data_PCOD8178176
_publ_section_title
;
Structure prediction by ZEFSAII (Michael W. Deem and Ramdas Pophale) SiO2 
 PCOD8178176
Probable space group: A M M 2
;
_chemical_formula_sum "Si O2"
_cell_formula_units_Z 64
_cell_length_a 14.477704
_cell_length_b 9.009707
_cell_length_c 24.979352
_cell_angle_alpha 90.000000
_cell_angle_beta 90.000000
_cell_angle_gamma 90.000000
_cell_volume 3258.303454
_symmetry_space_group_name_H-M "A M M 2"
_symmetry_group_IT_number 38
_symmetry_cell_setting 'orthorhombic'
loop_
_space_group_symop_operation_xyz
x,y,z
-x,-y,z
-x,y,z
x,-y,z
x,1/2+y,1/2+z
-x,1/2-y,1/2+z
-x,1/2+y,1/2+z
x,1/2-y,1/2+z
loop_
_atom_site_type_symbol
_atom_site_label
_atom_site_fract_x
_atom_site_fract_y
_atom_site_fract_z
Si Si1 0.101843 0.330878 0.333530
Si Si2 0.281117 0.177721 0.589332
Si Si3 0.658238 0.336733 0.974836
Si Si4 0.391596 0.824366 0.184858
Si Si5 0.601220 0.337010 0.380818
Si Si6 0.863011 0.666556 0.942468
Si Si7 0.896686 0.672163 0.551544
Si Si8 0.713173 0.324682 0.281751
O O1 0.120623 0.500000 0.351697
O O2 0.104553 0.231292 0.386238
O O3 0.177537 0.288367 0.288016
O O4 0.000000 0.313157 0.307370
O O5 0.328474 0.230239 0.533912
O O6 0.346435 0.242882 0.634587
O O7 0.176581 0.242145 0.589746
O O8 0.274148 0.000000 0.593895
O O9 0.615831 0.500000 0.980601
O O10 0.590541 0.243496 0.937773
O O11 0.753285 0.337920 0.942506
O O12 0.500000 0.780614 0.189913
O O13 0.332992 0.770426 0.235370
O O14 0.380468 0.000000 0.178542
O O15 0.500000 0.341266 0.354492
O O16 0.639601 0.500000 0.393666
O O17 0.668362 0.265124 0.336988
O O18 0.902826 0.500000 0.948819
O O19 0.899295 0.764914 0.991413
O O20 0.868203 0.500000 0.549283
O O21 0.000000 0.691477 0.575901
O O22 0.694331 0.500000 0.271695
#
# Coordination Sequence:
#
# PCOD8178176 Si02
#       8
#     8   8   8   8   8   8   8   8
#     4  10  20  34  55  84 116 153 197 240 288 347
#     4  10  22  40  62  88 117 153 198 247 298 353
#     4   9  19  34  52  79 115 152 188 229 282 341
#     4  11  25  44  66  90 113 146 196 251 304 359
#     4  10  20  33  53  82 112 147 190 232 285 352
#     4  10  19  31  50  79 117 160 202 241 283 340
#     4  10  20  34  55  85 122 162 201 242 290 346
#     4  10  21  39  61  84 115 153 194 243 295 352
#
# _framework density 19.642123000000002
#
# number of rings (size 3 to 8) (size 9 to 14) (size 15 to 20)
#    0.000    2.000    1.250    3.000    0.000    8.500 
#    0.000    3.125    0.000    2.250    0.000    0.000 
#    0.000    0.000    0.000    0.000    0.000    0.000 
#
# Total GULP energy -396622.347513 kJ/mol
# GULP energy per Si atom -12394.448360 kJ/mol
# Density = 1.959742 g / cm^3
# Si number density = 19.642123 Si / 1000 Ang^3
#
#
#
# Elastic Constant Matrix: (Units=GPa)
#
#
# Indices 1 2 3 4 5 6 
#
# 1 130.2417 49.2010 60.5256 0.0000 0.0000 0.0000
# 2 49.2010 95.0029 47.3044 0.0000 0.0000 0.0000
# 3 60.5256 47.3044 108.2445 0.0000 0.0000 0.0000
# 4 0.0000 0.0000 0.0000 33.6528 0.0000 0.0000
# 5 0.0000 0.0000 0.0000 0.0000 20.0482 0.0000
# 6 0.0000 0.0000 0.0000 0.0000 0.0000 23.5953
#
#
#
# Elastic Compliance Matrix: (Units=1/GPa)
#
#
# Indices 1 2 3 4 5 6 
#
# 1 0.011181 -0.003422 -0.004757 0.000000 0.000000 0.000000
# 2 -0.003422 0.014501 -0.004424 0.000000 0.000000 0.000000
# 3 -0.004757 -0.004424 0.013831 0.000000 0.000000 0.000000
# 4 0.000000 0.000000 0.000000 0.029715 0.000000 0.000000
# 5 0.000000 0.000000 0.000000 0.000000 0.049880 0.000000
# 6 0.000000 0.000000 0.000000 0.000000 0.000000 0.042381
#
#
# Mechanical properties :
#
#
# Convention : Reuss Voigt Hill
#
# Bulk Modulus (GPa) = 69.88743 71.95011 70.91877
# Shear Modulus (GPa) = 26.11457 27.22313 26.66885
#
# Velocity S-wave (km/s) = 3.65021 3.72688 3.68875
# Velocity P-wave (km/s) = 7.30911 7.43166 7.37064
#
# Compressibility (1/GPa) = 0.01430873
#
# Stress axis : x y z
#
# Youngs Moduli (GPa) = 89.43515 68.96103 72.30072
#
# Poissons Ratio (x) = 0.23600 0.34390
# Poissons Ratio (y) = 0.30607 0.31982
# Poissons Ratio (z) = 0.42540 0.30505
#
# Static dielectric constant tensor:
#      x y z
#    x 3.786340 0.000000 0.000000 
#    y 0.000000 3.649930 0.000000 
#    z 0.000000 0.000000 3.371220 
# 
# 
# High freq. dielectric constant tensor:
#      x y z
#    x 1.779150 0.000000 0.000000 
#    y 0.000000 1.765520 0.000000 
#    z 0.000000 0.000000 1.740550 
# 
# From -- ./inp_files/22966.got.cif
#   From: 2010.03.12/outbox.cif.g09.slc.cpg/sg38_12_cif.got.tgz:22966.got - 2010.04.14 02:38:36.
