data_PCOD8178721
_publ_section_title
;
Structure prediction by ZEFSAII (Michael W. Deem and Ramdas Pophale) SiO2 
 PCOD8178721
Probable space group: A M M 2
;
_chemical_formula_sum "Si O2"
_cell_formula_units_Z 64
_cell_length_a 15.288159
_cell_length_b 8.619291
_cell_length_c 23.635055
_cell_angle_alpha 90.000000
_cell_angle_beta 90.000000
_cell_angle_gamma 90.000000
_cell_volume 3114.464260
_symmetry_space_group_name_H-M "A M M 2"
_symmetry_group_IT_number 38
_symmetry_cell_setting 'orthorhombic'
loop_
_space_group_symop_operation_xyz
x,y,z
-x,-y,z
-x,y,z
x,-y,z
x,1/2+y,1/2+z
-x,1/2-y,1/2+z
-x,1/2+y,1/2+z
x,1/2-y,1/2+z
loop_
_atom_site_type_symbol
_atom_site_label
_atom_site_fract_x
_atom_site_fract_y
_atom_site_fract_z
Si Si1 0.599840 0.677558 0.227680
Si Si2 0.096536 0.184268 0.222456
Si Si3 0.098602 0.822569 0.959533
Si Si4 0.146818 0.178868 0.345889
Si Si5 0.748795 0.679018 0.028789
Si Si6 0.352190 0.323161 0.845024
Si Si7 0.598538 0.677268 0.457249
Si Si8 0.742094 0.181984 0.149841
O O1 0.500000 0.699035 0.208237
O O2 0.621219 0.500000 0.242378
O O3 0.618200 0.779808 0.282468
O O4 0.658575 0.732323 0.175490
O O5 0.116601 0.245780 0.285403
O O6 0.169317 0.247661 0.179030
O O7 0.000000 0.242006 0.203414
O O8 0.100606 0.000000 0.223053
O O9 0.099540 0.779315 0.893539
O O10 0.000000 0.800183 0.982614
O O11 0.129051 0.000000 0.967055
O O12 0.163212 0.712012 0.994010
O O13 0.249623 0.200115 0.351770
O O14 0.118813 0.000000 0.352862
O O15 0.748003 0.500000 0.046711
O O16 0.746880 0.786485 0.083583
O O17 0.663874 0.711374 0.990787
O O18 0.379473 0.500000 0.856195
O O19 0.400296 0.215999 0.890650
O O20 0.500000 0.702231 0.480017
O O21 0.628217 0.500000 0.465880
O O22 0.731730 0.000000 0.160968
#
# Coordination Sequence:
#
# PCOD8178721 Si02
#       8
#     8   8   8   8   8   8   8   8
#     4  11  24  41  62  90 125 166 209 255 308 366
#     4   9  18  35  61  91 122 156 195 240 294 358
#     4  11  24  41  63  93 127 165 208 255 309 367
#     4  10  19  35  61  93 126 163 202 246 306 369
#     4  12  26  44  65  90 121 162 210 258 313 372
#     4  11  21  36  62  96 128 163 203 249 309 370
#     4  11  24  42  65  93 124 161 204 253 312 373
#     4  11  23  42  65  90 121 159 207 258 311 367
#
# _framework density 20.549278999999999
#
# number of rings (size 3 to 8) (size 9 to 14) (size 15 to 20)
#    0.000    1.250    2.500    3.750    0.000    6.500 
#    0.000    1.250    0.000    1.875    0.000    0.000 
#    0.000    0.000    0.000    0.000    0.000    0.000 
#
# Total GULP energy -396964.648444 kJ/mol
# GULP energy per Si atom -12405.145264 kJ/mol
# Density = 2.050251 g / cm^3
# Si number density = 20.549279 Si / 1000 Ang^3
#
#
#
# Elastic Constant Matrix: (Units=GPa)
#
#
# Indices 1 2 3 4 5 6 
#
# 1 112.7743 43.5359 36.8160 0.0000 0.0000 0.0000
# 2 43.5359 66.8948 4.1222 0.0000 0.0000 0.0000
# 3 36.8160 4.1222 98.0078 0.0000 0.0000 0.0000
# 4 0.0000 0.0000 0.0000 32.1737 0.0000 0.0000
# 5 0.0000 0.0000 0.0000 0.0000 12.9930 0.0000
# 6 0.0000 0.0000 0.0000 0.0000 0.0000 15.3980
#
#
#
# Elastic Compliance Matrix: (Units=1/GPa)
#
#
# Indices 1 2 3 4 5 6 
#
# 1 0.013789 -0.008677 -0.004815 0.000000 0.000000 0.000000
# 2 -0.008677 0.020448 0.002400 0.000000 0.000000 0.000000
# 3 -0.004815 0.002400 0.011911 0.000000 0.000000 0.000000
# 4 0.000000 0.000000 0.000000 0.031081 0.000000 0.000000
# 5 0.000000 0.000000 0.000000 0.000000 0.076964 0.000000
# 6 0.000000 0.000000 0.000000 0.000000 0.000000 0.064944
#
#
# Mechanical properties :
#
#
# Convention : Reuss Voigt Hill
#
# Bulk Modulus (GPa) = 41.73081 49.62500 45.67790
# Shear Modulus (GPa) = 20.05535 24.99312 22.52424
#
# Velocity S-wave (km/s) = 3.12743 3.49127 3.31434
# Velocity P-wave (km/s) = 5.77866 6.36031 6.07645
#
# Compressibility (1/GPa) = 0.02396311
#
# Stress axis : x y z
#
# Youngs Moduli (GPa) = 72.52216 48.90398 83.95616
#
# Poissons Ratio (x) = 0.42435 0.40423
# Poissons Ratio (y) = 0.62929 -0.20145
# Poissons Ratio (z) = 0.34918 -0.11735
#
# Static dielectric constant tensor:
#      x y z
#    x 3.628920 0.000000 0.000000 
#    y 0.000000 3.630450 0.000000 
#    z 0.000000 0.000000 3.608420 
# 
# 
# High freq. dielectric constant tensor:
#      x y z
#    x 1.819320 0.000000 0.000000 
#    y 0.000000 1.795500 0.000000 
#    z 0.000000 0.000000 1.798330 
# 
# From -- ./inp_files/23001.got.cif
#   From: 2010.03.12/outbox.cif.g09.slc.cpg/sg38_12_cif.got.tgz:23001.got - 2010.04.14 02:38:36.
