data_PCOD8178465
_publ_section_title
;
Structure prediction by ZEFSAII (Michael W. Deem and Ramdas Pophale) SiO2 
 PCOD8178465
Probable space group: A M M 2
;
_chemical_formula_sum "Si O2"
_cell_formula_units_Z 56
_cell_length_a 14.089486
_cell_length_b 16.056512
_cell_length_c 12.213224
_cell_angle_alpha 90.000000
_cell_angle_beta 90.000000
_cell_angle_gamma 90.000000
_cell_volume 2762.973252
_symmetry_space_group_name_H-M "A M M 2"
_symmetry_group_IT_number 38
_symmetry_cell_setting 'orthorhombic'
loop_
_space_group_symop_operation_xyz
x,y,z
-x,-y,z
-x,y,z
x,-y,z
x,1/2+y,1/2+z
-x,1/2-y,1/2+z
-x,1/2+y,1/2+z
x,1/2-y,1/2+z
loop_
_atom_site_type_symbol
_atom_site_label
_atom_site_fract_x
_atom_site_fract_y
_atom_site_fract_z
Si Si1 0.391468 0.904511 0.814320
Si Si2 0.390146 0.312556 0.534062
Si Si3 0.270801 0.312244 0.153084
Si Si4 0.784054 0.830877 0.304993
Si Si5 0.889126 0.906378 0.106710
Si Si6 0.396826 0.403052 0.757492
Si Si7 0.889129 0.770166 0.512547
O O1 0.500000 0.880254 0.784307
O O2 0.325513 0.890343 0.706688
O O3 0.384156 0.000000 0.847999
O O4 0.356246 0.853084 0.920153
O O5 0.500000 0.289745 0.529220
O O6 0.331660 0.227666 0.553480
O O7 0.367604 0.374539 0.634820
O O8 0.258474 0.251853 0.254472
O O9 0.165906 0.327617 0.102477
O O10 0.837545 0.891854 0.221477
O O11 0.686845 0.878129 0.343173
O O12 0.859198 0.805260 0.395954
O O13 0.000000 0.902733 0.130010
O O14 0.862030 0.000000 0.061514
O O15 0.862068 0.829007 0.025202
O O16 0.500000 0.363534 0.790677
O O17 0.408656 0.500000 0.755203
O O18 0.000000 0.784716 0.530967
#
# Coordination Sequence:
#
# PCOD8178465 Si02
#       7
#     8   8   8   8   8   8   8
#     4  10  20  35  57  84 113 146 183 223 268 320
#     4   9  17  31  54  83 114 146 180 217 263 325
#     4  10  20  35  53  79 110 146 183 223 272 325
#     4  10  19  33  54  81 110 146 184 223 270 327
#     4   9  18  34  58  87 113 136 172 227 281 325
#     4   9  17  30  50  79 114 147 181 226 275 320
#     4  10  21  37  57  80 108 144 186 229 276 330
#
# _framework density 20.268021000000001
#
# number of rings (size 3 to 8) (size 9 to 14) (size 15 to 20)
#    0.000    2.429    0.000    2.571    0.000    2.857 
#    0.000    8.571    0.000    4.714    0.000    0.000 
#    0.000    0.000    0.000    0.000    0.000    0.000 
#
# Total GULP energy -346880.957106 kJ/mol
# GULP energy per Si atom -12388.605611 kJ/mol
# Density = 2.022189 g / cm^3
# Si number density = 20.268021 Si / 1000 Ang^3
#
#
#
# Elastic Constant Matrix: (Units=GPa)
#
#
# Indices 1 2 3 4 5 6 
#
# 1 104.8392 37.2884 56.5558 0.0000 0.0000 0.0000
# 2 37.2884 45.2323 38.5786 0.0000 0.0000 0.0000
# 3 56.5558 38.5786 73.5165 0.0000 0.0000 0.0000
# 4 0.0000 0.0000 0.0000 25.6128 0.0000 0.0000
# 5 0.0000 0.0000 0.0000 0.0000 32.0353 0.0000
# 6 0.0000 0.0000 0.0000 0.0000 0.0000 28.1565
#
#
#
# Elastic Compliance Matrix: (Units=1/GPa)
#
#
# Indices 1 2 3 4 5 6 
#
# 1 0.016945 -0.005161 -0.010328 0.000000 0.000000 0.000000
# 2 -0.005161 0.041591 -0.017855 0.000000 0.000000 0.000000
# 3 -0.010328 -0.017855 0.030917 0.000000 0.000000 0.000000
# 4 0.000000 0.000000 0.000000 0.039043 0.000000 0.000000
# 5 0.000000 0.000000 0.000000 0.000000 0.031216 0.000000
# 6 0.000000 0.000000 0.000000 0.000000 0.000000 0.035516
#
#
# Mechanical properties :
#
#
# Convention : Reuss Voigt Hill
#
# Bulk Modulus (GPa) = 43.92486 54.27040 49.09763
# Shear Modulus (GPa) = 18.55254 23.23860 20.89557
#
# Velocity S-wave (km/s) = 3.02877 3.38977 3.21434
# Velocity P-wave (km/s) = 5.82669 6.49270 6.16869
#
# Compressibility (1/GPa) = 0.02276615
#
# Stress axis : x y z
#
# Youngs Moduli (GPa) = 59.01337 24.04345 32.34434
#
# Poissons Ratio (x) = 0.12408 0.33405
# Poissons Ratio (y) = 0.30455 0.57752
# Poissons Ratio (z) = 0.60948 0.42931
#
# Static dielectric constant tensor:
#      x y z
#    x 4.080510 0.000000 0.000000 
#    y 0.000000 3.588960 0.000000 
#    z 0.000000 0.000000 3.471410 
# 
# 
# High freq. dielectric constant tensor:
#      x y z
#    x 1.813970 0.000000 0.000000 
#    y 0.000000 1.767850 0.000000 
#    z 0.000000 0.000000 1.763610 
# 
# From -- ./inp_files/10107.got.cif
#   From: 2010.03.12/outbox.cif.g09.slc.cpg/sg38_6_cif.got.tgz:10107.got - 2010.04.14 02:38:36.
