data_PCOD8178572
_publ_section_title
;
Structure prediction by ZEFSAII (Michael W. Deem and Ramdas Pophale) SiO2 
 PCOD8178572
Probable space group: A M M 2
;
_chemical_formula_sum "Si O2"
_cell_formula_units_Z 56
_cell_length_a 14.070178
_cell_length_b 20.242788
_cell_length_c 10.164530
_cell_angle_alpha 90.000000
_cell_angle_beta 90.000000
_cell_angle_gamma 90.000000
_cell_volume 2895.057678
_symmetry_space_group_name_H-M "A M M 2"
_symmetry_group_IT_number 38
_symmetry_cell_setting 'orthorhombic'
loop_
_space_group_symop_operation_xyz
x,y,z
-x,-y,z
-x,y,z
x,-y,z
x,1/2+y,1/2+z
-x,1/2-y,1/2+z
-x,1/2+y,1/2+z
x,1/2-y,1/2+z
loop_
_atom_site_type_symbol
_atom_site_label
_atom_site_fract_x
_atom_site_fract_y
_atom_site_fract_z
Si Si1 0.692301 0.303458 0.180540
Si Si2 0.392366 0.573913 0.571146
Si Si3 0.895223 0.676530 0.822261
Si Si4 0.730392 0.075362 0.324787
Si Si5 0.106619 0.719103 0.106450
Si Si6 0.611177 0.788254 0.951250
Si Si7 0.610042 0.573441 0.073254
O O1 0.804044 0.323081 0.162174
O O2 0.669064 0.268324 0.319527
O O3 0.634574 0.372314 0.182819
O O4 0.657843 0.252605 0.069245
O O5 0.500000 0.576736 0.625355
O O6 0.373184 0.500000 0.510739
O O7 0.321994 0.588734 0.689400
O O8 0.376228 0.632488 0.467173
O O9 0.825817 0.615957 0.835337
O O10 0.879860 0.711467 0.681634
O O11 0.000000 0.645645 0.827005
O O12 0.883271 0.726409 0.948003
O O13 0.660994 0.097311 0.440983
O O14 0.760543 0.000000 0.340311
O O15 0.000000 0.690541 0.141446
O O16 0.500000 0.769187 0.938737
O O17 0.500000 0.573557 0.041739
O O18 0.642364 0.500000 0.119043
#
# Coordination Sequence:
#
# PCOD8178572 Si02
#       7
#     8   8   8   8   8   8   8
#     4  12  23  39  59  83 117 152 190 242 295 348
#     4   9  19  36  57  81 113 153 195 235 280 342
#     4  10  20  36  57  84 112 145 190 239 292 343
#     4  10  19  34  55  82 113 147 188 233 285 340
#     4  10  21  37  57  81 110 145 189 238 288 345
#     4  11  24  37  55  86 119 153 190 235 294 351
#     4  10  21  36  55  80 112 151 191 230 280 346
#
# _framework density 19.343311
#
# number of rings (size 3 to 8) (size 9 to 14) (size 15 to 20)
#    0.000    1.714    1.429    3.429    2.000    2.571 
#    0.000    1.429    0.000    0.429    0.000    0.000 
#    0.000    5.714    0.000    0.000    0.000    0.000 
#
# Total GULP energy -347002.768196 kJ/mol
# GULP energy per Si atom -12392.956007 kJ/mol
# Density = 1.929928 g / cm^3
# Si number density = 19.343311 Si / 1000 Ang^3
#
#
#
# Elastic Constant Matrix: (Units=GPa)
#
#
# Indices 1 2 3 4 5 6 
#
# 1 119.4272 41.5769 42.7536 0.0000 0.0000 0.0000
# 2 41.5769 76.9674 37.6483 0.0000 0.0000 0.0000
# 3 42.7536 37.6483 105.6454 0.0000 0.0000 0.0000
# 4 0.0000 0.0000 0.0000 23.4914 0.0000 0.0000
# 5 0.0000 0.0000 0.0000 0.0000 31.4059 0.0000
# 6 0.0000 0.0000 0.0000 0.0000 0.0000 25.9615
#
#
#
# Elastic Compliance Matrix: (Units=1/GPa)
#
#
# Indices 1 2 3 4 5 6 
#
# 1 0.010964 -0.004544 -0.002818 0.000000 0.000000 0.000000
# 2 -0.004544 0.017619 -0.004440 0.000000 0.000000 0.000000
# 3 -0.002818 -0.004440 0.012188 0.000000 0.000000 0.000000
# 4 0.000000 0.000000 0.000000 0.042569 0.000000 0.000000
# 5 0.000000 0.000000 0.000000 0.000000 0.031841 0.000000
# 6 0.000000 0.000000 0.000000 0.000000 0.000000 0.038519
#
#
# Mechanical properties :
#
#
# Convention : Reuss Voigt Hill
#
# Bulk Modulus (GPa) = 58.24902 60.66640 59.45771
# Shear Modulus (GPa) = 27.31859 28.17584 27.74721
#
# Velocity S-wave (km/s) = 3.76214 3.82071 3.79154
# Velocity P-wave (km/s) = 7.00359 7.13406 7.06912
#
# Compressibility (1/GPa) = 0.01716767
#
# Stress axis : x y z
#
# Youngs Moduli (GPa) = 91.20728 56.75685 82.04784
#
# Poissons Ratio (x) = 0.25793 0.23117
# Poissons Ratio (y) = 0.41449 0.36427
# Poissons Ratio (z) = 0.25698 0.25198
#
# Static dielectric constant tensor:
#      x y z
#    x 3.754080 0.000000 0.000000 
#    y 0.000000 3.525210 0.000000 
#    z 0.000000 0.000000 3.542330 
# 
# 
# High freq. dielectric constant tensor:
#      x y z
#    x 1.763910 0.000000 0.000000 
#    y 0.000000 1.738100 0.000000 
#    z 0.000000 0.000000 1.750630 
# 
# From -- ./inp_files/5695.got.cif
#   From: 2010.03.12/outbox.cif.g09.slc.cpg/sg38_3_cif.got.tgz:5695.got - 2010.04.14 02:38:36.
