data_PCOD8178970
_publ_section_title
;
Structure prediction by ZEFSAII (Michael W. Deem and Ramdas Pophale) SiO2 
 PCOD8178970
Probable space group: A M M 2
;
_chemical_formula_sum "Si O2"
_cell_formula_units_Z 64
_cell_length_a 14.042580
_cell_length_b 8.931329
_cell_length_c 30.795751
_cell_angle_alpha 90.000000
_cell_angle_beta 90.000000
_cell_angle_gamma 90.000000
_cell_volume 3862.369276
_symmetry_space_group_name_H-M "A M M 2"
_symmetry_group_IT_number 38
_symmetry_cell_setting 'orthorhombic'
loop_
_space_group_symop_operation_xyz
x,y,z
-x,-y,z
-x,y,z
x,-y,z
x,1/2+y,1/2+z
-x,1/2-y,1/2+z
-x,1/2+y,1/2+z
x,1/2-y,1/2+z
loop_
_atom_site_type_symbol
_atom_site_label
_atom_site_fract_x
_atom_site_fract_y
_atom_site_fract_z
Si Si1 0.612427 0.828041 0.113240
Si Si2 0.107826 0.172627 0.061121
Si Si3 0.389809 0.175358 0.271688
Si Si4 0.712075 0.823929 0.693653
Si Si5 0.387700 0.828423 0.953229
Si Si6 0.107919 0.172570 0.162103
Si Si7 0.387218 0.165071 0.368359
Si Si8 0.288672 0.676066 0.032134
O O1 0.500000 0.811983 0.111614
O O2 0.649247 0.752023 0.156671
O O3 0.654218 0.752588 0.070738
O O4 0.645350 0.000000 0.113656
O O5 0.132229 0.195875 0.111607
O O6 0.178413 0.273942 0.032797
O O7 0.000000 0.224095 0.051316
O O8 0.121454 0.000000 0.048171
O O9 0.500000 0.219038 0.265163
O O10 0.326254 0.274885 0.240227
O O11 0.353804 0.215268 0.320373
O O12 0.375087 0.000000 0.261824
O O13 0.822089 0.774782 0.690267
O O14 0.704120 0.000000 0.688324
O O15 0.500000 0.803217 0.958943
O O16 0.353643 0.782543 0.904839
O O17 0.359521 0.000000 0.961422
O O18 0.333807 0.723107 0.986717
O O19 0.000000 0.223144 0.171893
O O20 0.122272 0.000000 0.175017
O O21 0.500000 0.154515 0.367117
O O22 0.345988 0.000000 0.379472
O O23 0.295970 0.500000 0.037737
#
# Coordination Sequence:
#
# PCOD8178970 Si02
#       8
#     8   8   8   8   8   8   8   8
#     4  11  23  37  50  64  92 135 175 206 239 286
#     4   9  18  34  55  74  94 125 164 205 248 295
#     4   9  18  33  52  72  98 135 172 204 243 292
#     4  12  23  32  47  74 103 131 163 204 249 292
#     4  10  20  33  50  72 100 135 170 203 244 294
#     4   9  18  34  55  73  92 125 166 206 248 295
#     4   8  15  30  51  73  96 124 163 210 252 287
#     4  12  23  33  49  74 101 130 164 205 248 291
#
# _framework density 16.570139000000001
#
# number of rings (size 3 to 8) (size 9 to 14) (size 15 to 20)
#    0.000    2.000    1.250    5.250    0.000    6.000 
#    0.000    2.500    0.000    0.000    0.000    0.875 
#    0.000    1.000    0.000    0.000    0.000    0.000 
#
# Total GULP energy -396830.555110 kJ/mol
# GULP energy per Si atom -12400.954847 kJ/mol
# Density = 1.653242 g / cm^3
# Si number density = 16.570139 Si / 1000 Ang^3
#
#
#
# Elastic Constant Matrix: (Units=GPa)
#
#
# Indices 1 2 3 4 5 6 
#
# 1 75.1684 52.7820 42.9372 0.0000 0.0000 0.0000
# 2 52.7820 113.6707 52.4340 0.0000 0.0000 0.0000
# 3 42.9372 52.4340 100.6829 0.0000 0.0000 0.0000
# 4 0.0000 0.0000 0.0000 27.9516 0.0000 0.0000
# 5 0.0000 0.0000 0.0000 0.0000 7.7774 0.0000
# 6 0.0000 0.0000 0.0000 0.0000 0.0000 16.9784
#
#
#
# Elastic Compliance Matrix: (Units=1/GPa)
#
#
# Indices 1 2 3 4 5 6 
#
# 1 0.021672 -0.007634 -0.005267 0.000000 0.000000 0.000000
# 2 -0.007634 0.014268 -0.004175 0.000000 0.000000 0.000000
# 3 -0.005267 -0.004175 0.014352 0.000000 0.000000 0.000000
# 4 0.000000 0.000000 0.000000 0.035776 0.000000 0.000000
# 5 0.000000 0.000000 0.000000 0.000000 0.128578 0.000000
# 6 0.000000 0.000000 0.000000 0.000000 0.000000 0.058898
#
#
# Mechanical properties :
#
#
# Convention : Reuss Voigt Hill
#
# Bulk Modulus (GPa) = 61.95216 65.09205 63.52211
# Shear Modulus (GPa) = 15.97053 19.96606 17.96830
#
# Velocity S-wave (km/s) = 3.10790 3.47499 3.29656
# Velocity P-wave (km/s) = 7.09562 7.44774 7.27381
#
# Compressibility (1/GPa) = 0.01614149
#
# Stress axis : x y z
#
# Youngs Moduli (GPa) = 46.14180 70.08747 69.67445
#
# Poissons Ratio (x) = 0.53504 0.36696
# Poissons Ratio (y) = 0.35224 0.29089
# Poissons Ratio (z) = 0.24302 0.29261
#
# Static dielectric constant tensor:
#      x y z
#    x 3.065820 0.000000 0.000000 
#    y 0.000000 3.141960 0.000000 
#    z 0.000000 0.000000 3.183580 
# 
# 
# High freq. dielectric constant tensor:
#      x y z
#    x 1.621500 0.000000 0.000000 
#    y 0.000000 1.642060 0.000000 
#    z 0.000000 0.000000 1.628080 
# 
# From -- ./inp_files/25110.got.cif
#   From: 2010.03.12/outbox.cif.g09.slc.cpg/sg38_13_cif.got.tgz:25110.got - 2010.04.14 02:38:36.
