data_PCOD8178080
_publ_section_title
;
Structure prediction by ZEFSAII (Michael W. Deem and Ramdas Pophale) SiO2 
 PCOD8178080
Probable space group: A M M 2
;
_chemical_formula_sum "Si O2"
_cell_formula_units_Z 64
_cell_length_a 9.309645
_cell_length_b 23.379454
_cell_length_c 18.765607
_cell_angle_alpha 90.000000
_cell_angle_beta 90.000000
_cell_angle_gamma 90.000000
_cell_volume 4084.417252
_symmetry_space_group_name_H-M "A M M 2"
_symmetry_group_IT_number 38
_symmetry_cell_setting 'orthorhombic'
loop_
_space_group_symop_operation_xyz
x,y,z
-x,-y,z
-x,y,z
x,-y,z
x,1/2+y,1/2+z
-x,1/2-y,1/2+z
-x,1/2+y,1/2+z
x,1/2-y,1/2+z
loop_
_atom_site_type_symbol
_atom_site_label
_atom_site_fract_x
_atom_site_fract_y
_atom_site_fract_z
Si Si1 0.165720 0.244217 0.147480
Si Si2 0.832757 0.270104 0.989212
Si Si3 0.664951 0.330623 0.419477
Si Si4 0.829102 0.613688 0.644136
Si Si5 0.664918 0.065576 0.276910
Si Si6 0.664221 0.271537 0.280307
Si Si7 0.334478 0.334834 0.878272
Si Si8 0.664249 0.935278 0.012104
O O1 0.192771 0.277239 0.073519
O O2 0.224331 0.179273 0.143035
O O3 0.244012 0.279677 0.209200
O O4 0.000000 0.242449 0.167698
O O5 0.000000 0.268393 0.970217
O O6 0.765090 0.210041 0.966119
O O7 0.760317 0.323560 0.948625
O O8 0.500000 0.311751 0.433084
O O9 0.699135 0.323205 0.335375
O O10 0.692950 0.395793 0.442892
O O11 0.769636 0.581974 0.713236
O O12 0.769164 0.581656 0.575414
O O13 0.000000 0.609030 0.643156
O O14 0.500000 0.076914 0.253299
O O15 0.702310 0.102950 0.346758
O O16 0.689799 0.000000 0.298319
O O17 0.500000 0.271897 0.256205
O O18 0.704616 0.211867 0.318293
O O19 0.500000 0.329422 0.900808
O O20 0.500000 0.928372 0.038701
O O21 0.696435 0.000000 0.988248
#
# Coordination Sequence:
#
# PCOD8178080 Si02
#       8
#     8   8   8   8   8   8   8   8
#     4  10  20  31  44  67  95 123 153 185 228 275
#     4  10  19  31  47  67  92 121 153 188 231 278
#     4   9  18  32  47  67  92 118 153 194 232 272
#     4  11  21  32  44  65  98 130 161 195 227 265
#     4  10  20  34  50  67  92 127 163 195 229 272
#     4   9  17  29  47  67  88 117 151 189 231 274
#     4   9  18  32  47  68  92 118 154 193 231 271
#     4  10  20  33  49  67  91 127 164 194 229 273
#
# _framework density 15.669309999999999
#
# number of rings (size 3 to 8) (size 9 to 14) (size 15 to 20)
#    0.000    2.250    2.500    1.875    0.000    6.000 
#    0.000    0.000    0.000    0.000    0.000    0.875 
#    0.000    5.000    0.000    0.000    0.000    0.000 
#
# Total GULP energy -396802.213802 kJ/mol
# GULP energy per Si atom -12400.069181 kJ/mol
# Density = 1.563365 g / cm^3
# Si number density = 15.669310 Si / 1000 Ang^3
#
#
#
# Elastic Constant Matrix: (Units=GPa)
#
#
# Indices 1 2 3 4 5 6 
#
# 1 70.6950 39.6288 59.3047 0.0000 0.0000 0.0000
# 2 39.6288 96.0743 61.8605 0.0000 0.0000 0.0000
# 3 59.3047 61.8605 110.0343 0.0000 0.0000 0.0000
# 4 0.0000 0.0000 0.0000 21.2538 0.0000 0.0000
# 5 0.0000 0.0000 0.0000 0.0000 24.1899 0.0000
# 6 0.0000 0.0000 0.0000 0.0000 0.0000 16.8529
#
#
#
# Elastic Compliance Matrix: (Units=1/GPa)
#
#
# Indices 1 2 3 4 5 6 
#
# 1 0.026256 -0.002693 -0.012637 0.000000 0.000000 0.000000
# 2 -0.002693 0.016590 -0.007875 0.000000 0.000000 0.000000
# 3 -0.012637 -0.007875 0.020326 0.000000 0.000000 0.000000
# 4 0.000000 0.000000 0.000000 0.047050 0.000000 0.000000
# 5 0.000000 0.000000 0.000000 0.000000 0.041340 0.000000
# 6 0.000000 0.000000 0.000000 0.000000 0.000000 0.059337
#
#
# Mechanical properties :
#
#
# Convention : Reuss Voigt Hill
#
# Bulk Modulus (GPa) = 59.66062 66.48797 63.07429
# Shear Modulus (GPa) = 19.01879 20.19328 19.60603
#
# Velocity S-wave (km/s) = 3.48769 3.59376 3.54112
# Velocity P-wave (km/s) = 7.37401 7.72944 7.55382
#
# Compressibility (1/GPa) = 0.01676148
#
# Stress axis : x y z
#
# Youngs Moduli (GPa) = 38.08667 60.27585 49.19722
#
# Poissons Ratio (x) = 0.16235 0.62170
# Poissons Ratio (y) = 0.10258 0.38744
# Poissons Ratio (z) = 0.48129 0.47469
#
# Static dielectric constant tensor:
#      x y z
#    x 3.008140 0.000000 0.000000 
#    y 0.000000 2.962180 0.000000 
#    z 0.000000 0.000000 2.966740 
# 
# 
# High freq. dielectric constant tensor:
#      x y z
#    x 1.606580 0.000000 0.000000 
#    y 0.000000 1.577840 0.000000 
#    z 0.000000 0.000000 1.591480 
# 
# From -- ./inp_files/17267.got.cif
#   From: 2010.03.12/outbox.cif.g09.slc.cpg/sg38_9_cif.got.tgz:17267.got - 2010.04.14 02:38:36.
