data_PCOD8178707
_publ_section_title
;
Structure prediction by ZEFSAII (Michael W. Deem and Ramdas Pophale) SiO2 
 PCOD8178707
Probable space group: A M M 2
;
_chemical_formula_sum "Si O2"
_cell_formula_units_Z 48
_cell_length_a 8.600605
_cell_length_b 14.565707
_cell_length_c 20.357988
_cell_angle_alpha 90.000000
_cell_angle_beta 90.000000
_cell_angle_gamma 90.000000
_cell_volume 2550.324399
_symmetry_space_group_name_H-M "A M M 2"
_symmetry_group_IT_number 38
_symmetry_cell_setting 'orthorhombic'
loop_
_space_group_symop_operation_xyz
x,y,z
-x,-y,z
-x,y,z
x,-y,z
x,1/2+y,1/2+z
-x,1/2-y,1/2+z
-x,1/2+y,1/2+z
x,1/2-y,1/2+z
loop_
_atom_site_type_symbol
_atom_site_label
_atom_site_fract_x
_atom_site_fract_y
_atom_site_fract_z
Si Si1 0.682144 0.311469 0.459450
Si Si2 0.815243 0.195333 0.197223
Si Si3 0.184962 0.500000 0.656122
Si Si4 0.184537 0.690183 0.073096
Si Si5 0.820240 0.000000 0.755765
Si Si6 0.817585 0.691446 0.321292
Si Si7 0.682393 0.000000 0.613246
Si Si8 0.815526 0.000000 0.007283
O O1 0.500000 0.315348 0.471478
O O2 0.756260 0.236211 0.506757
O O3 0.720382 0.281952 0.385273
O O4 0.755152 0.410938 0.470357
O O5 0.752617 0.090754 0.193056
O O6 0.750420 0.252661 0.135382
O O7 0.756796 0.240137 0.264597
O O8 0.000000 0.197924 0.194374
O O9 0.247196 0.500000 0.581687
O O10 0.000000 0.500000 0.654724
O O11 0.246299 0.587403 0.076844
O O12 0.000000 0.689564 0.072773
O O13 0.780108 0.087895 0.799506
O O14 0.719013 0.000000 0.690330
O O15 0.000000 0.000000 0.733374
O O16 0.000000 0.704119 0.335293
O O17 0.500000 0.000000 0.602841
O O18 0.000000 0.000000 0.004505
#
# Coordination Sequence:
#
# PCOD8178707 Si02
#       8
#     8   8   4   8   4   8   4   4
#     4  12  25  39  56  88 128 161 196 249 310 362
#     4   9  17  32  59  89 115 146 197 252 288 335
#     4   9  16  30  57  94 118 138 184 248 295 332
#     4  11  21  40  65  87 113 158 211 250 287 355
#     4  10  19  35  60  86 116 154 205 252 291 355
#     4  10  20  36  58  85 116 159 205 245 292 358
#     4  12  24  37  58  93 128 154 188 249 317 364
#     4  11  20  36  63  89 118 158 199 243 295 361
#
# _framework density 18.821134000000001
#
# number of rings (size 3 to 8) (size 9 to 14) (size 15 to 20)
#    0.000    1.500    3.333    3.500    0.000    1.333 
#    0.000    0.833    0.000    2.000    0.000    0.000 
#    0.000    0.000    0.000    0.000    0.000    0.000 
#
# Total GULP energy -297679.837844 kJ/mol
# GULP energy per Si atom -12403.326577 kJ/mol
# Density = 1.877830 g / cm^3
# Si number density = 18.821134 Si / 1000 Ang^3
#
#
#
# Elastic Constant Matrix: (Units=GPa)
#
#
# Indices 1 2 3 4 5 6 
#
# 1 75.8893 34.9138 35.9246 0.0000 0.0000 0.0000
# 2 34.9138 160.4170 81.1496 0.0000 0.0000 0.0000
# 3 35.9246 81.1496 142.0124 0.0000 0.0000 0.0000
# 4 0.0000 0.0000 0.0000 34.0920 0.0000 0.0000
# 5 0.0000 0.0000 0.0000 0.0000 17.6782 0.0000
# 6 0.0000 0.0000 0.0000 0.0000 0.0000 16.8385
#
#
#
# Elastic Compliance Matrix: (Units=1/GPa)
#
#
# Indices 1 2 3 4 5 6 
#
# 1 0.015388 -0.001941 -0.002783 0.000000 0.000000 0.000000
# 2 -0.001941 0.009013 -0.004659 0.000000 0.000000 0.000000
# 3 -0.002783 -0.004659 0.010408 0.000000 0.000000 0.000000
# 4 0.000000 0.000000 0.000000 0.029332 0.000000 0.000000
# 5 0.000000 0.000000 0.000000 0.000000 0.056567 0.000000
# 6 0.000000 0.000000 0.000000 0.000000 0.000000 0.059388
#
#
# Mechanical properties :
#
#
# Convention : Reuss Voigt Hill
#
# Bulk Modulus (GPa) = 62.33824 75.81053 69.07439
# Shear Modulus (GPa) = 24.48449 28.81046 26.64748
#
# Velocity S-wave (km/s) = 3.61072 3.91673 3.76683
# Velocity P-wave (km/s) = 7.11171 7.79880 7.46316
#
# Compressibility (1/GPa) = 0.01604152
#
# Stress axis : x y z
#
# Youngs Moduli (GPa) = 64.98699 110.94805 96.07750
#
# Poissons Ratio (x) = 0.21535 0.26743
# Poissons Ratio (y) = 0.12614 0.44766
# Poissons Ratio (z) = 0.18089 0.51695
#
# Static dielectric constant tensor:
#      x y z
#    x 3.205170 0.000000 0.000000 
#    y 0.000000 3.706530 0.000000 
#    z 0.000000 0.000000 3.520130 
# 
# 
# High freq. dielectric constant tensor:
#      x y z
#    x 1.708670 0.000000 0.000000 
#    y 0.000000 1.739130 0.000000 
#    z 0.000000 0.000000 1.732810 
# 
# From -- ./inp_files/16716.got.cif
#   From: 2010.03.12/outbox.cif.g09.slc.cpg/sg38_9_cif.got.tgz:16716.got - 2010.04.14 02:38:36.
