data_PCOD8178586
_publ_section_title
;
Structure prediction by ZEFSAII (Michael W. Deem and Ramdas Pophale) SiO2 
 PCOD8178586
Probable space group: A M M 2
;
_chemical_formula_sum "Si O2"
_cell_formula_units_Z 64
_cell_length_a 8.976789
_cell_length_b 28.888788
_cell_length_c 12.727547
_cell_angle_alpha 90.000000
_cell_angle_beta 90.000000
_cell_angle_gamma 90.000000
_cell_volume 3300.616364
_symmetry_space_group_name_H-M "A M M 2"
_symmetry_group_IT_number 38
_symmetry_cell_setting 'orthorhombic'
loop_
_space_group_symop_operation_xyz
x,y,z
-x,-y,z
-x,y,z
x,-y,z
x,1/2+y,1/2+z
-x,1/2-y,1/2+z
-x,1/2+y,1/2+z
x,1/2-y,1/2+z
loop_
_atom_site_type_symbol
_atom_site_label
_atom_site_fract_x
_atom_site_fract_y
_atom_site_fract_z
Si Si1 0.833281 0.949556 0.606490
Si Si2 0.825547 0.673772 0.971088
Si Si3 0.674638 0.079408 0.416966
Si Si4 0.322130 0.553376 0.483165
Si Si5 0.328109 0.201093 0.274895
Si Si6 0.327842 0.392552 0.279542
Si Si7 0.669255 0.700109 0.175388
Si Si8 0.324920 0.896491 0.189781
O O1 0.761642 0.956439 0.490699
O O2 0.743199 0.913946 0.676018
O O3 0.000000 0.930099 0.594553
O O4 0.832659 0.000000 0.660608
O O5 0.723456 0.629081 0.959020
O O6 0.775047 0.707710 0.877350
O O7 0.000000 0.662627 0.963174
O O8 0.788832 0.695526 0.083331
O O9 0.500000 0.072306 0.432511
O O10 0.718670 0.074136 0.294132
O O11 0.500000 0.553783 0.485977
O O12 0.265348 0.500000 0.475360
O O13 0.260640 0.584241 0.385319
O O14 0.254749 0.578080 0.587902
O O15 0.500000 0.192691 0.308406
O O16 0.308449 0.247956 0.212436
O O17 0.272407 0.157035 0.204597
O O18 0.500000 0.405339 0.276938
O O19 0.300495 0.337056 0.270161
O O20 0.500000 0.692694 0.134479
O O21 0.500000 0.896444 0.173958
#
# Coordination Sequence:
#
# PCOD8178586 Si02
#       8
#     8   8   8   8   8   8   8   8
#     4  11  23  36  52  78 111 145 181 227 285 341
#     4  11  21  34  54  78 111 148 180 225 288 346
#     4  10  19  34  56  80 106 140 185 230 280 337
#     4   9  17  30  50  78 110 141 178 228 284 338
#     4   9  19  35  55  80 109 144 189 237 283 337
#     4  10  20  34  55  81 108 142 186 233 281 337
#     4  10  20  34  55  81 108 144 191 239 285 338
#     4   8  16  31  52  78 109 140 176 228 283 333
#
# _framework density 19.390319000000002
#
# number of rings (size 3 to 8) (size 9 to 14) (size 15 to 20)
#    0.000    2.250    1.250    3.000    0.000    3.500 
#    0.000    5.000    0.000    3.750    0.000    1.750 
#    0.000    0.000    0.000    0.000    0.000    0.000 
#
# Total GULP energy -396570.119355 kJ/mol
# GULP energy per Si atom -12392.816230 kJ/mol
# Density = 1.934619 g / cm^3
# Si number density = 19.390319 Si / 1000 Ang^3
#
#
#
# Elastic Constant Matrix: (Units=GPa)
#
#
# Indices 1 2 3 4 5 6 
#
# 1 31.4661 13.9887 28.3072 0.0000 0.0000 0.0000
# 2 13.9887 92.2226 50.4432 0.0000 0.0000 0.0000
# 3 28.3072 50.4432 132.5113 0.0000 0.0000 0.0000
# 4 0.0000 0.0000 0.0000 23.4693 0.0000 0.0000
# 5 0.0000 0.0000 0.0000 0.0000 11.2331 0.0000
# 6 0.0000 0.0000 0.0000 0.0000 0.0000 10.1349
#
#
#
# Elastic Compliance Matrix: (Units=1/GPa)
#
#
# Indices 1 2 3 4 5 6 
#
# 1 0.039561 -0.001741 -0.007788 0.000000 0.000000 0.000000
# 2 -0.001741 0.013771 -0.004871 0.000000 0.000000 0.000000
# 3 -0.007788 -0.004871 0.011064 0.000000 0.000000 0.000000
# 4 0.000000 0.000000 0.000000 0.042609 0.000000 0.000000
# 5 0.000000 0.000000 0.000000 0.000000 0.089022 0.000000
# 6 0.000000 0.000000 0.000000 0.000000 0.000000 0.098669
#
#
# Mechanical properties :
#
#
# Convention : Reuss Voigt Hill
#
# Bulk Modulus (GPa) = 28.09209 49.07536 38.58373
# Shear Modulus (GPa) = 14.90928 19.86485 17.38706
#
# Velocity S-wave (km/s) = 2.77592 3.20421 2.99772
# Velocity P-wave (km/s) = 4.97930 6.24928 5.65008
#
# Compressibility (1/GPa) = 0.03559721
#
# Stress axis : x y z
#
# Youngs Moduli (GPa) = 25.27767 72.61415 90.38031
#
# Poissons Ratio (x) = 0.12640 0.70391
# Poissons Ratio (y) = 0.04400 0.44020
# Poissons Ratio (z) = 0.19687 0.35367
#
# Static dielectric constant tensor:
#      x y z
#    x 3.313750 0.000000 0.000000 
#    y 0.000000 3.628310 0.000000 
#    z 0.000000 0.000000 3.891470 
# 
# 
# High freq. dielectric constant tensor:
#      x y z
#    x 1.720620 0.000000 0.000000 
#    y 0.000000 1.757540 0.000000 
#    z 0.000000 0.000000 1.755660 
# 
# From -- ./inp_files/8657.got.cif
#   From: 2010.03.12/outbox.cif.g09.slc.cpg/sg38_5_cif.got.tgz:8657.got - 2010.04.14 02:38:36.
