data_PCOD8178458
_publ_section_title
;
Structure prediction by ZEFSAII (Michael W. Deem and Ramdas Pophale) SiO2 
 PCOD8178458
Probable space group: A M M 2
;
_chemical_formula_sum "Si O2"
_cell_formula_units_Z 64
_cell_length_a 8.880286
_cell_length_b 20.691628
_cell_length_c 19.466766
_cell_angle_alpha 90.000000
_cell_angle_beta 90.000000
_cell_angle_gamma 90.000000
_cell_volume 3576.971035
_symmetry_space_group_name_H-M "A M M 2"
_symmetry_group_IT_number 38
_symmetry_cell_setting 'orthorhombic'
loop_
_space_group_symop_operation_xyz
x,y,z
-x,-y,z
-x,y,z
x,-y,z
x,1/2+y,1/2+z
-x,1/2-y,1/2+z
-x,1/2+y,1/2+z
x,1/2-y,1/2+z
loop_
_atom_site_type_symbol
_atom_site_label
_atom_site_fract_x
_atom_site_fract_y
_atom_site_fract_z
Si Si1 0.826074 0.571637 0.419350
Si Si2 0.173199 0.194492 0.835779
Si Si3 0.827672 0.256213 0.192059
Si Si4 0.175134 0.767863 0.539673
Si Si5 0.326327 0.377337 0.696440
Si Si6 0.322430 0.814706 0.409742
Si Si7 0.325399 0.368676 0.541868
Si Si8 0.173183 0.073380 0.324786
O O1 0.798587 0.500000 0.388552
O O2 0.774645 0.624601 0.363296
O O3 0.725411 0.577635 0.487658
O O4 0.000000 0.581327 0.439503
O O5 0.196701 0.192564 0.753318
O O6 0.269085 0.250911 0.870164
O O7 0.000000 0.208497 0.854348
O O8 0.789078 0.288767 0.118459
O O9 0.717687 0.197045 0.207441
O O10 0.000000 0.230598 0.190463
O O11 0.262821 0.815089 0.488057
O O12 0.226629 0.694537 0.527415
O O13 0.000000 0.772837 0.522381
O O14 0.500000 0.385575 0.716440
O O15 0.295368 0.397397 0.617682
O O16 0.229002 0.422433 0.746131
O O17 0.500000 0.815304 0.410522
O O18 0.267043 0.879524 0.373231
O O19 0.500000 0.350293 0.532751
O O20 0.000000 0.094738 0.327617
O O21 0.194608 0.000000 0.350548
#
# Coordination Sequence:
#
# PCOD8178458 Si02
#       8
#     8   8   8   8   8   8   8   8
#     4  10  21  35  52  76 108 147 186 225 272 323
#     4  10  19  34  56  80 107 141 182 228 271 319
#     4   9  18  32  54  80 107 140 180 223 270 319
#     4  10  19  33  54  80 109 142 179 224 270 322
#     4  10  20  33  51  77 110 144 179 222 270 321
#     4  12  23  35  56  84 110 141 180 225 275 327
#     4  10  20  33  50  76 110 146 184 224 269 320
#     4  11  24  40  57  78 107 145 186 227 272 326
#
# _framework density 17.892233999999998
#
# number of rings (size 3 to 8) (size 9 to 14) (size 15 to 20)
#    0.000    1.750    2.500    2.625    0.000    3.750 
#    0.000    2.500    0.000    0.750    0.000    3.500 
#    0.000    0.000    0.000    0.000    0.000    0.000 
#
# Total GULP energy -396825.081674 kJ/mol
# GULP energy per Si atom -12400.783802 kJ/mol
# Density = 1.785151 g / cm^3
# Si number density = 17.892234 Si / 1000 Ang^3
#
#
#
# Elastic Constant Matrix: (Units=GPa)
#
#
# Indices 1 2 3 4 5 6 
#
# 1 99.7609 44.8465 48.0274 0.0000 0.0000 0.0000
# 2 44.8465 95.5938 59.1630 0.0000 0.0000 0.0000
# 3 48.0274 59.1630 120.8073 0.0000 0.0000 0.0000
# 4 0.0000 0.0000 0.0000 24.2101 0.0000 0.0000
# 5 0.0000 0.0000 0.0000 0.0000 26.3283 0.0000
# 6 0.0000 0.0000 0.0000 0.0000 0.0000 7.1902
#
#
#
# Elastic Compliance Matrix: (Units=1/GPa)
#
#
# Indices 1 2 3 4 5 6 
#
# 1 0.013543 -0.004335 -0.003261 0.000000 0.000000 0.000000
# 2 -0.004335 0.016398 -0.006307 0.000000 0.000000 0.000000
# 3 -0.003261 -0.006307 0.012663 0.000000 0.000000 0.000000
# 4 0.000000 0.000000 0.000000 0.041305 0.000000 0.000000
# 5 0.000000 0.000000 0.000000 0.000000 0.037982 0.000000
# 6 0.000000 0.000000 0.000000 0.000000 0.000000 0.139078
#
#
# Mechanical properties :
#
#
# Convention : Reuss Voigt Hill
#
# Bulk Modulus (GPa) = 67.58046 68.91509 68.24778
# Shear Modulus (GPa) = 17.02372 22.48738 19.75555
#
# Velocity S-wave (km/s) = 3.08792 3.54902 3.32647
# Velocity P-wave (km/s) = 7.11101 7.44274 7.27877
#
# Compressibility (1/GPa) = 0.01479718
#
# Stress axis : x y z
#
# Youngs Moduli (GPa) = 73.84068 60.98192 78.97102
#
# Poissons Ratio (x) = 0.26437 0.25751
# Poissons Ratio (y) = 0.32012 0.49809
# Poissons Ratio (z) = 0.24078 0.38463
#
# Static dielectric constant tensor:
#      x y z
#    x 3.381730 0.000000 0.000000 
#    y 0.000000 3.060470 0.000000 
#    z 0.000000 0.000000 3.602690 
# 
# 
# High freq. dielectric constant tensor:
#      x y z
#    x 1.700910 0.000000 0.000000 
#    y 0.000000 1.659060 0.000000 
#    z 0.000000 0.000000 1.699110 
# 
# From -- ./inp_files/20033.got.cif
#   From: 2010.03.12/outbox.cif.g09.slc.cpg/sg38_11_cif.got.tgz:20033.got - 2010.04.14 02:38:36.
