data_PCOD8178551
_publ_section_title
;
Structure prediction by ZEFSAII (Michael W. Deem and Ramdas Pophale) SiO2 
 PCOD8178551
Probable space group: A M M 2
;
_chemical_formula_sum "Si O2"
_cell_formula_units_Z 40
_cell_length_a 8.635786
_cell_length_b 26.099423
_cell_length_c 9.256987
_cell_angle_alpha 90.000000
_cell_angle_beta 90.000000
_cell_angle_gamma 90.000000
_cell_volume 2086.423337
_symmetry_space_group_name_H-M "A M M 2"
_symmetry_group_IT_number 38
_symmetry_cell_setting 'orthorhombic'
loop_
_space_group_symop_operation_xyz
x,y,z
-x,-y,z
-x,y,z
x,-y,z
x,1/2+y,1/2+z
-x,1/2-y,1/2+z
-x,1/2+y,1/2+z
x,1/2-y,1/2+z
loop_
_atom_site_type_symbol
_atom_site_label
_atom_site_fract_x
_atom_site_fract_y
_atom_site_fract_z
Si Si1 0.685666 0.390404 0.634110
Si Si2 0.328718 0.000000 0.810246
Si Si3 0.683108 0.704223 0.818297
Si Si4 0.316034 0.303437 0.147821
Si Si5 0.818196 0.605458 0.321570
Si Si6 0.669237 0.000000 0.152269
O O1 0.500000 0.392878 0.631260
O O2 0.750311 0.346283 0.739062
O O3 0.739907 0.378731 0.472320
O O4 0.752585 0.445865 0.692179
O O5 0.237132 0.949434 0.760952
O O6 0.500000 0.000000 0.739023
O O7 0.346141 0.000000 0.980831
O O8 0.500000 0.702740 0.805145
O O9 0.744776 0.754975 0.739167
O O10 0.736786 0.705424 0.983328
O O11 0.500000 0.310852 0.161577
O O12 0.229735 0.353582 0.202141
O O13 0.000000 0.604242 0.344547
O O14 0.500000 0.000000 0.225539
#
# Coordination Sequence:
#
# PCOD8178551 Si02
#       6
#     8   4   8   8   8   4
#     4   9  16  31  53  78 105 138 177 219 260 306
#     4   9  17  33  56  79 102 136 176 216 254 301
#     4   9  18  32  55  79 101 134 182 229 267 308
#     4  10  19  34  53  75 101 136 180 226 269 313
#     4  11  21  33  51  79 110 141 172 211 261 316
#     4   7  12  23  46  75 102 128 160 200 248 297
#
# _framework density 19.171565999999999
#
# number of rings (size 3 to 8) (size 9 to 14) (size 15 to 20)
#    0.000    2.600    0.000    4.500    0.000    3.200 
#    0.000    6.000    0.000    3.600    0.000    2.800 
#    0.000    0.000    0.000    0.000    0.000    0.000 
#
# Total GULP energy -247894.707359 kJ/mol
# GULP energy per Si atom -12394.735368 kJ/mol
# Density = 1.912793 g / cm^3
# Si number density = 19.171566 Si / 1000 Ang^3
#
#
#
# Elastic Constant Matrix: (Units=GPa)
#
#
# Indices 1 2 3 4 5 6 
#
# 1 46.7234 28.3984 16.3886 0.0000 0.0000 0.0000
# 2 28.3984 189.3647 75.6722 0.0000 0.0000 0.0000
# 3 16.3886 75.6722 104.3028 0.0000 0.0000 0.0000
# 4 0.0000 0.0000 0.0000 33.3088 0.0000 0.0000
# 5 0.0000 0.0000 0.0000 0.0000 6.9886 0.0000
# 6 0.0000 0.0000 0.0000 0.0000 0.0000 11.4592
#
#
#
# Elastic Compliance Matrix: (Units=1/GPa)
#
#
# Indices 1 2 3 4 5 6 
#
# 1 0.023741 -0.002915 -0.001616 0.000000 0.000000 0.000000
# 2 -0.002915 0.007795 -0.005197 0.000000 0.000000 0.000000
# 3 -0.001616 -0.005197 0.013612 0.000000 0.000000 0.000000
# 4 0.000000 0.000000 0.000000 0.030022 0.000000 0.000000
# 5 0.000000 0.000000 0.000000 0.000000 0.143091 0.000000
# 6 0.000000 0.000000 0.000000 0.000000 0.000000 0.087266
#
#
# Mechanical properties :
#
#
# Convention : Reuss Voigt Hill
#
# Bulk Modulus (GPa) = 38.92198 64.58992 51.75595
# Shear Modulus (GPa) = 14.99046 25.01344 20.00195
#
# Velocity S-wave (km/s) = 2.79930 3.61600 3.23354
# Velocity P-wave (km/s) = 5.54924 7.15525 6.40280
#
# Compressibility (1/GPa) = 0.02569242
#
# Stress axis : x y z
#
# Youngs Moduli (GPa) = 42.12159 128.29128 73.46514
#
# Poissons Ratio (x) = 0.37393 0.11870
# Poissons Ratio (y) = 0.12277 0.38181
# Poissons Ratio (z) = 0.06805 0.66675
#
# Static dielectric constant tensor:
#      x y z
#    x 3.099040 0.000000 0.000000 
#    y 0.000000 4.087630 0.000000 
#    z 0.000000 0.000000 3.293810 
# 
# 
# High freq. dielectric constant tensor:
#      x y z
#    x 1.703740 0.000000 0.000000 
#    y 0.000000 1.772970 0.000000 
#    z 0.000000 0.000000 1.718790 
# 
# From -- ./inp_files/3486.got.cif
#   From: 2010.03.12/outbox.cif.g09.slc.cpg/sg38_2_cif.got.tgz:3486.got - 2010.04.14 02:38:36.
