data_PCOD8178052
_publ_section_title
;
Structure prediction by ZEFSAII (Michael W. Deem and Ramdas Pophale) SiO2 
 PCOD8178052
Probable space group: A M M 2
;
_chemical_formula_sum "Si O2"
_cell_formula_units_Z 64
_cell_length_a 20.045053
_cell_length_b 8.957691
_cell_length_c 20.075709
_cell_angle_alpha 90.000000
_cell_angle_beta 90.000000
_cell_angle_gamma 90.000000
_cell_volume 3604.741928
_symmetry_space_group_name_H-M "A M M 2"
_symmetry_group_IT_number 38
_symmetry_cell_setting 'orthorhombic'
loop_
_space_group_symop_operation_xyz
x,y,z
-x,-y,z
-x,y,z
x,-y,z
x,1/2+y,1/2+z
-x,1/2-y,1/2+z
-x,1/2+y,1/2+z
x,1/2-y,1/2+z
loop_
_atom_site_type_symbol
_atom_site_label
_atom_site_fract_x
_atom_site_fract_y
_atom_site_fract_z
Si Si1 0.837702 0.824542 0.204050
Si Si2 0.328135 0.828565 0.594891
Si Si3 0.575871 0.826526 0.479646
Si Si4 0.805572 0.323997 0.559831
Si Si5 0.073847 0.677226 0.821037
Si Si6 0.817509 0.822573 0.426348
Si Si7 0.679148 0.674137 0.385354
Si Si8 0.295175 0.829531 0.739043
O O1 0.843863 0.771825 0.127301
O O2 0.901324 0.772364 0.247401
O O3 0.771618 0.765874 0.239403
O O4 0.830190 0.000000 0.205814
O O5 0.395486 0.797264 0.553903
O O6 0.271888 0.720410 0.565363
O O7 0.340188 0.793889 0.673503
O O8 0.304675 0.000000 0.584887
O O9 0.500000 0.770125 0.479619
O O10 0.615659 0.734451 0.424602
O O11 0.581021 0.000000 0.460899
O O12 0.810973 0.500000 0.547640
O O13 0.839355 0.236467 0.498936
O O14 0.070665 0.500000 0.825355
O O15 0.125672 0.736914 0.876077
O O16 0.000000 0.745276 0.832950
O O17 0.745940 0.757346 0.407427
O O18 0.812311 0.000000 0.426324
O O19 0.688556 0.500000 0.400701
O O20 0.664585 0.704486 0.306892
O O21 0.271706 0.000000 0.737630
#
# Coordination Sequence:
#
# PCOD8178052 Si02
#       8
#     8   8   8   8   8   8   8   8
#     4   9  17  31  51  75 101 132 170 212 257 307
#     4   9  17  32  52  74 101 134 171 208 254 309
#     4  10  21  36  54  76 104 140 181 219 258 312
#     4  10  19  30  49  78 107 131 165 215 264 305
#     4   9  18  33  53  76 102 137 181 220 258 312
#     4  11  20  32  53  77 103 138 178 220 261 309
#     4  11  21  33  52  79 109 138 171 218 267 313
#     4   9  18  31  50  77 105 131 165 212 261 304
#
# _framework density 17.754391999999999
#
# number of rings (size 3 to 8) (size 9 to 14) (size 15 to 20)
#    0.000    2.250    2.500    1.125    0.000    1.250 
#    0.000    1.250    0.000    6.375    0.000    0.000 
#    0.000    0.000    0.000    0.000    0.000    0.000 
#
# Total GULP energy -396684.574237 kJ/mol
# GULP energy per Si atom -12396.392945 kJ/mol
# Density = 1.771398 g / cm^3
# Si number density = 17.754392 Si / 1000 Ang^3
#
#
#
# Elastic Constant Matrix: (Units=GPa)
#
#
# Indices 1 2 3 4 5 6 
#
# 1 116.8516 30.1637 73.9130 0.0000 0.0000 0.0000
# 2 30.1637 45.6861 38.9555 0.0000 0.0000 0.0000
# 3 73.9130 38.9555 150.6732 0.0000 0.0000 0.0000
# 4 0.0000 0.0000 0.0000 25.4401 0.0000 0.0000
# 5 0.0000 0.0000 0.0000 0.0000 26.4126 0.0000
# 6 0.0000 0.0000 0.0000 0.0000 0.0000 12.9383
#
#
#
# Elastic Compliance Matrix: (Units=1/GPa)
#
#
# Indices 1 2 3 4 5 6 
#
# 1 0.012960 -0.004022 -0.005317 0.000000 0.000000 0.000000
# 2 -0.004022 0.029327 -0.005609 0.000000 0.000000 0.000000
# 3 -0.005317 -0.005609 0.010696 0.000000 0.000000 0.000000
# 4 0.000000 0.000000 0.000000 0.039308 0.000000 0.000000
# 5 0.000000 0.000000 0.000000 0.000000 0.037861 0.000000
# 6 0.000000 0.000000 0.000000 0.000000 0.000000 0.077290
#
#
# Mechanical properties :
#
#
# Convention : Reuss Voigt Hill
#
# Bulk Modulus (GPa) = 43.31942 66.58614 54.95278
# Shear Modulus (GPa) = 20.40540 24.30345 22.35442
#
# Velocity S-wave (km/s) = 3.39383 3.70384 3.55222
# Velocity P-wave (km/s) = 6.30949 7.47507 6.91688
#
# Compressibility (1/GPa) = 0.02308434
#
# Stress axis : x y z
#
# Youngs Moduli (GPa) = 77.16252 34.09832 93.49699
#
# Poissons Ratio (x) = 0.13716 0.49716
# Poissons Ratio (y) = 0.31038 0.52443
# Poissons Ratio (z) = 0.41031 0.19126
#
# Static dielectric constant tensor:
#      x y z
#    x 3.178060 0.000000 0.000000 
#    y 0.000000 3.214590 0.000000 
#    z 0.000000 0.000000 3.850000 
# 
# 
# High freq. dielectric constant tensor:
#      x y z
#    x 1.652110 0.000000 0.000000 
#    y 0.000000 1.678160 0.000000 
#    z 0.000000 0.000000 1.708270 
# 
# From -- ./inp_files/21406.got.cif
#   From: 2010.03.12/outbox.cif.g09.slc.cpg/sg38_11_cif.got.tgz:21406.got - 2010.04.14 02:38:36.
