data_PCOD8178962
_publ_section_title
;
Structure prediction by ZEFSAII (Michael W. Deem and Ramdas Pophale) SiO2 
 PCOD8178962
Probable space group: A M M 2
;
_chemical_formula_sum "Si O2"
_cell_formula_units_Z 64
_cell_length_a 19.081617
_cell_length_b 9.303366
_cell_length_c 20.559115
_cell_angle_alpha 90.000000
_cell_angle_beta 90.000000
_cell_angle_gamma 90.000000
_cell_volume 3649.721258
_symmetry_space_group_name_H-M "A M M 2"
_symmetry_group_IT_number 38
_symmetry_cell_setting 'orthorhombic'
loop_
_space_group_symop_operation_xyz
x,y,z
-x,-y,z
-x,y,z
x,-y,z
x,1/2+y,1/2+z
-x,1/2-y,1/2+z
-x,1/2+y,1/2+z
x,1/2-y,1/2+z
loop_
_atom_site_type_symbol
_atom_site_label
_atom_site_fract_x
_atom_site_fract_y
_atom_site_fract_z
Si Si1 0.920592 0.833867 0.622630
Si Si2 0.793931 0.831568 0.078222
Si Si3 0.580301 0.664984 0.145475
Si Si4 0.777744 0.830991 0.818862
Si Si5 0.703446 0.830149 0.203567
Si Si6 0.924248 0.670083 0.269369
Si Si7 0.292407 0.668008 0.453966
Si Si8 0.578868 0.667567 0.995626
O O1 0.869136 0.745153 0.576166
O O2 0.912218 0.773794 0.696026
O O3 0.000000 0.810905 0.598074
O O4 0.899052 0.000000 0.619139
O O5 0.753134 0.787948 0.143511
O O6 0.807157 0.000000 0.073373
O O7 0.750119 0.776041 0.016479
O O8 0.500000 0.684320 0.167046
O O9 0.603951 0.500000 0.155067
O O10 0.626196 0.768670 0.190428
O O11 0.589676 0.711336 0.070630
O O12 0.731958 0.741969 0.768486
O O13 0.859332 0.781026 0.814262
O O14 0.752285 0.792296 0.890660
O O15 0.769932 0.000000 0.803279
O O16 0.698563 0.000000 0.213507
O O17 0.928769 0.500000 0.266343
O O18 0.000000 0.728997 0.295610
O O19 0.307467 0.500000 0.458882
O O20 0.367396 0.745799 0.450494
O O21 0.500000 0.707101 0.973638
O O22 0.592828 0.500000 0.986057
#
# Coordination Sequence:
#
# PCOD8178962 Si02
#       8
#     8   8   8   8   8   8   8   8
#     4   9  17  30  51  78 102 130 175 222 260 303
#     4  10  20  33  49  75 109 138 166 206 262 318
#     4   9  18  33  54  80 106 133 173 220 262 308
#     4  10  20  35  55  76 104 140 179 220 258 306
#     4  11  21  33  52  78 108 137 169 212 261 315
#     4   8  14  27  49  75  98 124 168 220 259 296
#     4  10  21  36  52  77 109 141 176 213 259 315
#     4   9  18  33  54  79 104 134 174 217 261 311
#
# _framework density 17.535585999999999
#
# number of rings (size 3 to 8) (size 9 to 14) (size 15 to 20)
#    0.000    2.500    2.500    1.875    0.000    2.250 
#    0.000    2.500    0.000    3.375    0.000    0.000 
#    0.000    0.000    0.000    0.000    0.000    0.000 
#
# Total GULP energy -396769.650255 kJ/mol
# GULP energy per Si atom -12399.051570 kJ/mol
# Density = 1.749567 g / cm^3
# Si number density = 17.535586 Si / 1000 Ang^3
#
#
#
# Elastic Constant Matrix: (Units=GPa)
#
#
# Indices 1 2 3 4 5 6 
#
# 1 143.2837 50.4913 54.3096 0.0000 0.0000 0.0000
# 2 50.4913 48.0277 35.4512 0.0000 0.0000 0.0000
# 3 54.3096 35.4512 77.8767 0.0000 0.0000 0.0000
# 4 0.0000 0.0000 0.0000 22.8689 0.0000 0.0000
# 5 0.0000 0.0000 0.0000 0.0000 28.5893 0.0000
# 6 0.0000 0.0000 0.0000 0.0000 0.0000 31.4768
#
#
#
# Elastic Compliance Matrix: (Units=1/GPa)
#
#
# Indices 1 2 3 4 5 6 
#
# 1 0.011822 -0.009553 -0.003896 0.000000 0.000000 0.000000
# 2 -0.009553 0.039077 -0.011127 0.000000 0.000000 0.000000
# 3 -0.003896 -0.011127 0.020623 0.000000 0.000000 0.000000
# 4 0.000000 0.000000 0.000000 0.043727 0.000000 0.000000
# 5 0.000000 0.000000 0.000000 0.000000 0.034978 0.000000
# 6 0.000000 0.000000 0.000000 0.000000 0.000000 0.031769
#
#
# Mechanical properties :
#
#
# Convention : Reuss Voigt Hill
#
# Bulk Modulus (GPa) = 44.70035 61.07693 52.88864
# Shear Modulus (GPa) = 20.95506 25.18273 23.06889
#
# Velocity S-wave (km/s) = 3.46063 3.79369 3.63098
# Velocity P-wave (km/s) = 6.44318 7.35496 6.91411
#
# Compressibility (1/GPa) = 0.02237119
#
# Stress axis : x y z
#
# Youngs Moduli (GPa) = 84.58712 25.59020 48.48976
#
# Poissons Ratio (x) = 0.24446 0.18891
# Poissons Ratio (y) = 0.80805 0.53954
# Poissons Ratio (z) = 0.32954 0.28474
#
# Static dielectric constant tensor:
#      x y z
#    x 3.521410 0.000000 0.000000 
#    y 0.000000 3.026770 0.000000 
#    z 0.000000 0.000000 3.050300 
# 
# 
# High freq. dielectric constant tensor:
#      x y z
#    x 1.692370 0.000000 0.000000 
#    y 0.000000 1.661020 0.000000 
#    z 0.000000 0.000000 1.649780 
# 
# From -- ./inp_files/19000.got.cif
#   From: 2010.03.12/outbox.cif.g09.slc.cpg/sg38_10_cif.got.tgz:19000.got - 2010.04.14 02:38:36.
