data_PCOD8178367
_publ_section_title
;
Structure prediction by ZEFSAII (Michael W. Deem and Ramdas Pophale) SiO2 
 PCOD8178367
Probable space group: A M M 2
;
_chemical_formula_sum "Si O2"
_cell_formula_units_Z 56
_cell_length_a 18.023912
_cell_length_b 8.954837
_cell_length_c 18.896056
_cell_angle_alpha 90.000000
_cell_angle_beta 90.000000
_cell_angle_gamma 90.000000
_cell_volume 3049.846001
_symmetry_space_group_name_H-M "A M M 2"
_symmetry_group_IT_number 38
_symmetry_cell_setting 'orthorhombic'
loop_
_space_group_symop_operation_xyz
x,y,z
-x,-y,z
-x,y,z
x,-y,z
x,1/2+y,1/2+z
-x,1/2-y,1/2+z
-x,1/2+y,1/2+z
x,1/2-y,1/2+z
loop_
_atom_site_type_symbol
_atom_site_label
_atom_site_fract_x
_atom_site_fract_y
_atom_site_fract_z
Si Si1 0.704862 0.165898 0.555140
Si Si2 0.746407 0.177360 0.787963
Si Si3 0.416670 0.665988 0.956120
Si Si4 0.185950 0.168074 0.424999
Si Si5 0.417472 0.824904 0.813189
Si Si6 0.914615 0.174944 0.031349
Si Si7 0.195756 0.173415 0.153421
O O1 0.623698 0.211995 0.528739
O O2 0.752417 0.166689 0.484410
O O3 0.729067 0.290317 0.610919
O O4 0.707247 0.000000 0.590380
O O5 0.781221 0.240997 0.859574
O O6 0.659270 0.229155 0.774509
O O7 0.800642 0.234812 0.726004
O O8 0.749975 0.000000 0.792247
O O9 0.500000 0.661989 0.980756
O O10 0.390386 0.500000 0.930433
O O11 0.403252 0.784570 0.894578
O O12 0.113479 0.244656 0.459959
O O13 0.165195 0.000000 0.400790
O O14 0.500000 0.758009 0.788791
O O15 0.423568 0.000000 0.805263
O O16 0.872292 0.227350 0.103266
O O17 0.000000 0.216320 0.042618
O O18 0.901210 0.000000 0.020518
O O19 0.190632 0.000000 0.171942
#
# Coordination Sequence:
#
# PCOD8178367 Si02
#       7
#     8   8   8   8   8   8   8
#     4   9  17  31  49  72 101 133 170 213 258 312
#     4  11  21  34  53  77 108 144 181 223 269 316
#     4   9  16  27  46  72 100 132 171 217 268 314
#     4  10  19  32  54  82 108 135 171 214 258 309
#     4   9  18  31  48  72 101 136 179 225 271 315
#     4   9  19  38  61  83 107 136 171 213 264 321
#     4  10  21  35  54  77 103 138 177 217 264 318
#
# _framework density 18.361583
#
# number of rings (size 3 to 8) (size 9 to 14) (size 15 to 20)
#    0.000    2.429    1.429    1.286    0.000    2.571 
#    0.000    1.429    0.000    6.857    0.000    0.000 
#    0.000    0.000    0.000    0.000    0.000    0.000 
#
# Total GULP energy -346870.745289 kJ/mol
# GULP energy per Si atom -12388.240903 kJ/mol
# Density = 1.831979 g / cm^3
# Si number density = 18.361583 Si / 1000 Ang^3
#
#
#
# Elastic Constant Matrix: (Units=GPa)
#
#
# Indices 1 2 3 4 5 6 
#
# 1 97.3010 33.6338 36.6693 0.0000 0.0000 0.0000
# 2 33.6338 52.7919 29.8314 0.0000 0.0000 0.0000
# 3 36.6693 29.8314 65.3042 0.0000 0.0000 0.0000
# 4 0.0000 0.0000 0.0000 32.2405 0.0000 0.0000
# 5 0.0000 0.0000 0.0000 0.0000 22.3085 0.0000
# 6 0.0000 0.0000 0.0000 0.0000 0.0000 22.0549
#
#
#
# Elastic Compliance Matrix: (Units=1/GPa)
#
#
# Indices 1 2 3 4 5 6 
#
# 1 0.014402 -0.006209 -0.005251 0.000000 0.000000 0.000000
# 2 -0.006209 0.028210 -0.009400 0.000000 0.000000 0.000000
# 3 -0.005251 -0.009400 0.022556 0.000000 0.000000 0.000000
# 4 0.000000 0.000000 0.000000 0.031017 0.000000 0.000000
# 5 0.000000 0.000000 0.000000 0.000000 0.044826 0.000000
# 6 0.000000 0.000000 0.000000 0.000000 0.000000 0.045341
#
#
# Mechanical properties :
#
#
# Convention : Reuss Voigt Hill
#
# Bulk Modulus (GPa) = 42.64749 46.18512 44.41631
# Shear Modulus (GPa) = 21.19656 23.00495 22.10076
#
# Velocity S-wave (km/s) = 3.40133 3.54345 3.47312
# Velocity P-wave (km/s) = 6.22112 6.47681 6.35025
#
# Compressibility (1/GPa) = 0.02344804
#
# Stress axis : x y z
#
# Youngs Moduli (GPa) = 69.43276 35.44891 44.33502
#
# Poissons Ratio (x) = 0.22009 0.23281
# Poissons Ratio (y) = 0.43108 0.41676
# Poissons Ratio (z) = 0.36459 0.33322
#
# Static dielectric constant tensor:
#      x y z
#    x 3.701180 0.000000 0.000000 
#    y 0.000000 3.461160 0.000000 
#    z 0.000000 0.000000 3.302900 
# 
# 
# High freq. dielectric constant tensor:
#      x y z
#    x 1.712140 0.000000 0.000000 
#    y 0.000000 1.708450 0.000000 
#    z 0.000000 0.000000 1.689740 
# 
# From -- ./inp_files/18806.got.cif
#   From: 2010.03.12/outbox.cif.g09.slc.cpg/sg38_10_cif.got.tgz:18806.got - 2010.04.14 02:38:36.
