data_PCOD8178686
_publ_section_title
;
Structure prediction by ZEFSAII (Michael W. Deem and Ramdas Pophale) SiO2 
 PCOD8178686
Probable space group: A M M 2
;
_chemical_formula_sum "Si O2"
_cell_formula_units_Z 64
_cell_length_a 9.161129
_cell_length_b 31.797583
_cell_length_c 11.692183
_cell_angle_alpha 90.000000
_cell_angle_beta 90.000000
_cell_angle_gamma 90.000000
_cell_volume 3405.953483
_symmetry_space_group_name_H-M "A M M 2"
_symmetry_group_IT_number 38
_symmetry_cell_setting 'orthorhombic'
loop_
_space_group_symop_operation_xyz
x,y,z
-x,-y,z
-x,y,z
x,-y,z
x,1/2+y,1/2+z
-x,1/2-y,1/2+z
-x,1/2+y,1/2+z
x,1/2-y,1/2+z
loop_
_atom_site_type_symbol
_atom_site_label
_atom_site_fract_x
_atom_site_fract_y
_atom_site_fract_z
Si Si1 0.670615 0.720276 0.950620
Si Si2 0.169197 0.548322 0.420863
Si Si3 0.832836 0.906898 0.512664
Si Si4 0.829861 0.875534 0.080113
Si Si5 0.327668 0.136383 0.316859
Si Si6 0.831146 0.195081 0.897971
Si Si7 0.661519 0.450932 0.198119
Si Si8 0.836292 0.820692 0.642473
O O1 0.500000 0.726393 0.959338
O O2 0.713299 0.682663 0.863960
O O3 0.738903 0.762898 0.906327
O O4 0.728908 0.711080 0.077818
O O5 0.209056 0.500000 0.453547
O O6 0.205385 0.578461 0.527980
O O7 0.256647 0.565731 0.311276
O O8 0.000000 0.552269 0.387392
O O9 0.751472 0.899070 0.392942
O O10 0.752160 0.943436 0.582210
O O11 0.819602 0.866775 0.592957
O O12 0.000000 0.919536 0.487521
O O13 0.729501 0.868177 0.189114
O O14 0.000000 0.872160 0.113897
O O15 0.785220 0.839455 0.990640
O O16 0.500000 0.128566 0.321033
O O17 0.795114 0.175662 0.774732
O O18 0.000000 0.207041 0.910958
O O19 0.500000 0.430000 0.190052
O O20 0.644807 0.500000 0.212360
O O21 0.000000 0.803317 0.625226
#
# Coordination Sequence:
#
# PCOD8178686 Si02
#       8
#     8   8   8   8   8   8   8   8
#     4  10  22  37  53  76 107 140 179 226 277 331
#     4   9  18  35  59  85 114 147 186 234 283 331
#     4  10  19  35  59  81 105 140 184 229 272 326
#     4  10  21  37  57  83 111 145 190 235 279 335
#     4  10  22  39  56  77 109 148 187 230 282 339
#     4  10  21  35  54  79 107 139 179 226 273 328
#     4  10  20  33  53  84 119 149 179 222 278 336
#     4   9  19  36  56  78 102 134 177 222 270 321
#
# _framework density 18.790628000000002
#
# number of rings (size 3 to 8) (size 9 to 14) (size 15 to 20)
#    0.000    2.250    0.000    2.250    1.750    6.250 
#    0.000    1.875    0.000    2.250    0.000    0.000 
#    0.000    0.000    0.000    0.000    0.000    0.000 
#
# Total GULP energy -396841.626892 kJ/mol
# GULP energy per Si atom -12401.300840 kJ/mol
# Density = 1.874786 g / cm^3
# Si number density = 18.790628 Si / 1000 Ang^3
#
#
#
# Elastic Constant Matrix: (Units=GPa)
#
#
# Indices 1 2 3 4 5 6 
#
# 1 100.6760 37.3091 64.2335 0.0000 0.0000 0.0000
# 2 37.3091 56.9155 37.3503 0.0000 0.0000 0.0000
# 3 64.2335 37.3503 137.4063 0.0000 0.0000 0.0000
# 4 0.0000 0.0000 0.0000 24.7049 0.0000 0.0000
# 5 0.0000 0.0000 0.0000 0.0000 23.2901 0.0000
# 6 0.0000 0.0000 0.0000 0.0000 0.0000 25.8237
#
#
#
# Elastic Compliance Matrix: (Units=1/GPa)
#
#
# Indices 1 2 3 4 5 6 
#
# 1 0.016071 -0.006822 -0.005659 0.000000 0.000000 0.000000
# 2 -0.006822 0.024280 -0.003411 0.000000 0.000000 0.000000
# 3 -0.005659 -0.003411 0.010850 0.000000 0.000000 0.000000
# 4 0.000000 0.000000 0.000000 0.040478 0.000000 0.000000
# 5 0.000000 0.000000 0.000000 0.000000 0.042937 0.000000
# 6 0.000000 0.000000 0.000000 0.000000 0.000000 0.038724
#
#
# Mechanical properties :
#
#
# Convention : Reuss Voigt Hill
#
# Bulk Modulus (GPa) = 51.49588 63.64261 57.56924
# Shear Modulus (GPa) = 23.63007 25.17073 24.40040
#
# Velocity S-wave (km/s) = 3.55004 3.66394 3.60744
# Velocity P-wave (km/s) = 6.65344 7.20015 6.93219
#
# Compressibility (1/GPa) = 0.01941903
#
# Stress axis : x y z
#
# Youngs Moduli (GPa) = 62.22366 41.18628 92.16535
#
# Poissons Ratio (x) = 0.28095 0.52152
# Poissons Ratio (y) = 0.42446 0.31438
# Poissons Ratio (z) = 0.35209 0.14049
#
# Static dielectric constant tensor:
#      x y z
#    x 3.636960 0.000000 0.000000 
#    y 0.000000 3.443900 0.000000 
#    z 0.000000 0.000000 3.450130 
# 
# 
# High freq. dielectric constant tensor:
#      x y z
#    x 1.734470 0.000000 0.000000 
#    y 0.000000 1.721290 0.000000 
#    z 0.000000 0.000000 1.729790 
# 
# From -- ./inp_files/8547.got.cif
#   From: 2010.03.12/outbox.cif.g09.slc.cpg/sg38_5_cif.got.tgz:8547.got - 2010.04.14 02:38:36.
