data_PCOD8178093
_publ_section_title
;
Structure prediction by ZEFSAII (Michael W. Deem and Ramdas Pophale) SiO2 
 PCOD8178093
Probable space group: A M M 2
;
_chemical_formula_sum "Si O2"
_cell_formula_units_Z 56
_cell_length_a 33.902260
_cell_length_b 17.217298
_cell_length_c 5.136802
_cell_angle_alpha 90.000000
_cell_angle_beta 90.000000
_cell_angle_gamma 90.000000
_cell_volume 2998.378621
_symmetry_space_group_name_H-M "A M M 2"
_symmetry_group_IT_number 38
_symmetry_cell_setting 'orthorhombic'
loop_
_space_group_symop_operation_xyz
x,y,z
-x,-y,z
-x,y,z
x,-y,z
x,1/2+y,1/2+z
-x,1/2-y,1/2+z
-x,1/2+y,1/2+z
x,1/2-y,1/2+z
loop_
_atom_site_type_symbol
_atom_site_label
_atom_site_fract_x
_atom_site_fract_y
_atom_site_fract_z
Si Si1 0.044868 0.799905 0.637230
Si Si2 0.542075 0.200190 0.621513
Si Si3 0.251954 0.907747 0.175284
Si Si4 0.373676 0.197505 0.712475
Si Si5 0.700487 0.092197 0.675093
Si Si6 0.163531 0.907612 0.188435
Si Si7 0.883702 0.407978 0.189141
O O1 0.053412 0.764962 0.353905
O O2 0.072576 0.873701 0.680168
O O3 0.000000 0.830015 0.660275
O O4 0.500000 0.154210 0.665845
O O5 0.542719 0.227410 0.322106
O O6 0.583114 0.155180 0.680615
O O7 0.275918 0.877769 0.424062
O O8 0.207753 0.873038 0.179566
O O9 0.249570 0.000000 0.177553
O O10 0.274413 0.878079 0.920240
O O11 0.368711 0.264466 0.496057
O O12 0.342401 0.129587 0.676745
O O13 0.694921 0.000000 0.676228
O O14 0.141961 0.877910 0.446839
O O15 0.165568 0.000000 0.183753
O O16 0.138870 0.876932 0.943147
O O17 0.888358 0.500000 0.188887
#
# Coordination Sequence:
#
# PCOD8178093 Si02
#       7
#     8   8   8   8   8   8   8
#     4  10  21  37  55  74 101 137 167 191 230 288
#     4   8  14  25  42  64  87 114 152 191 227 277
#     4   9  17  30  49  71  95 126 163 198 232 279
#     4  10  19  31  48  69  95 125 154 194 245 285
#     4  10  19  31  49  71  94 125 164 199 231 278
#     4   9  17  30  50  76 100 123 158 202 243 279
#     4  10  19  32  54  80 101 123 158 206 246 275
#
# _framework density 18.676759000000001
#
# number of rings (size 3 to 8) (size 9 to 14) (size 15 to 20)
#    0.000    2.571    0.000    2.571    0.000    3.714 
#    0.000    0.000    0.000   22.714    0.000    0.000 
#    0.000   14.857    0.000    0.000    0.000    2.286 
#
# Total GULP energy -347038.782303 kJ/mol
# GULP energy per Si atom -12394.242225 kJ/mol
# Density = 1.863425 g / cm^3
# Si number density = 18.676759 Si / 1000 Ang^3
#
#
#
# Elastic Constant Matrix: (Units=GPa)
#
#
# Indices 1 2 3 4 5 6 
#
# 1 174.3321 38.7675 40.7882 0.0000 0.0000 0.0000
# 2 38.7675 22.2179 11.9230 0.0000 0.0000 0.0000
# 3 40.7882 11.9230 120.4144 0.0000 0.0000 0.0000
# 4 0.0000 0.0000 0.0000 7.1421 0.0000 0.0000
# 5 0.0000 0.0000 0.0000 0.0000 28.7925 0.0000
# 6 0.0000 0.0000 0.0000 0.0000 0.0000 29.4856
#
#
#
# Elastic Compliance Matrix: (Units=1/GPa)
#
#
# Indices 1 2 3 4 5 6 
#
# 1 0.009691 -0.015999 -0.001699 0.000000 0.000000 0.000000
# 2 -0.015999 0.073946 -0.001903 0.000000 0.000000 0.000000
# 3 -0.001699 -0.001903 0.009068 0.000000 0.000000 0.000000
# 4 0.000000 0.000000 0.000000 0.140014 0.000000 0.000000
# 5 0.000000 0.000000 0.000000 0.000000 0.034731 0.000000
# 6 0.000000 0.000000 0.000000 0.000000 0.000000 0.033915
#
#
# Mechanical properties :
#
#
# Convention : Reuss Voigt Hill
#
# Bulk Modulus (GPa) = 18.68964 55.54687 37.11825
# Shear Modulus (GPa) = 13.95086 28.11643 21.03365
#
# Velocity S-wave (km/s) = 2.73603 3.88419 3.35952
# Velocity P-wave (km/s) = 4.47323 7.06552 5.91318
#
# Compressibility (1/GPa) = 0.05350557
#
# Stress axis : x y z
#
# Youngs Moduli (GPa) = 103.18476 13.52346 110.27280
#
# Poissons Ratio (x) = 0.21636 0.18731
# Poissons Ratio (y) = 1.65082 0.20980
# Poissons Ratio (z) = 0.17527 0.02573
#
# Static dielectric constant tensor:
#      x y z
#    x 3.857070 0.000000 0.000000 
#    y 0.000000 2.727140 0.000000 
#    z 0.000000 0.000000 3.781860 
# 
# 
# High freq. dielectric constant tensor:
#      x y z
#    x 1.751260 0.000000 0.000000 
#    y 0.000000 1.651540 0.000000 
#    z 0.000000 0.000000 1.750630 
# 
# From -- ./inp_files/2283.got.cif
#   From: 2010.03.12/outbox.cif.g09.slc.cpg/sg38_2_cif.got.tgz:2283.got - 2010.04.14 02:38:36.
