data_PCOD8178848
_publ_section_title
;
Structure prediction by ZEFSAII (Michael W. Deem and Ramdas Pophale) SiO2 
 PCOD8178848
Probable space group: A M M 2
;
_chemical_formula_sum "Si O2"
_cell_formula_units_Z 64
_cell_length_a 14.117097
_cell_length_b 8.922052
_cell_length_c 31.088110
_cell_angle_alpha 90.000000
_cell_angle_beta 90.000000
_cell_angle_gamma 90.000000
_cell_volume 3915.655440
_symmetry_space_group_name_H-M "A M M 2"
_symmetry_group_IT_number 38
_symmetry_cell_setting 'orthorhombic'
loop_
_space_group_symop_operation_xyz
x,y,z
-x,-y,z
-x,y,z
x,-y,z
x,1/2+y,1/2+z
-x,1/2-y,1/2+z
-x,1/2+y,1/2+z
x,1/2-y,1/2+z
loop_
_atom_site_type_symbol
_atom_site_label
_atom_site_fract_x
_atom_site_fract_y
_atom_site_fract_z
Si Si1 0.610135 0.825871 0.106510
Si Si2 0.107331 0.175073 0.065562
Si Si3 0.388362 0.327955 0.268842
Si Si4 0.719945 0.675578 0.692741
Si Si5 0.394574 0.678286 0.947430
Si Si6 0.107553 0.325423 0.156423
Si Si7 0.387457 0.166731 0.353577
Si Si8 0.281185 0.677603 0.029217
O O1 0.500000 0.786928 0.110563
O O2 0.658660 0.779681 0.151189
O O3 0.654250 0.727703 0.068827
O O4 0.627211 0.000000 0.096093
O O5 0.129263 0.240807 0.112244
O O6 0.176444 0.252111 0.031329
O O7 0.000000 0.209183 0.051204
O O8 0.128775 0.000000 0.067853
O O9 0.500000 0.301455 0.263923
O O10 0.360539 0.500000 0.261615
O O11 0.336519 0.225040 0.234577
O O12 0.353182 0.278851 0.316282
O O13 0.739097 0.500000 0.695197
O O14 0.820979 0.760492 0.691984
O O15 0.500000 0.744932 0.955013
O O16 0.400313 0.500000 0.948853
O O17 0.353575 0.726959 0.900526
O O18 0.326631 0.738777 0.984992
O O19 0.126331 0.500000 0.148883
O O20 0.000000 0.295635 0.171905
O O21 0.500000 0.158033 0.355235
O O22 0.346707 0.000000 0.344358
O O23 0.272929 0.500000 0.029647
#
# Coordination Sequence:
#
# PCOD8178848 Si02
#       8
#     8   8   8   8   8   8   8   8
#     4  10  21  34  45  62  94 133 168 197 227 272
#     4  10  20  34  50  67  91 125 163 201 241 286
#     4  10  20  32  47  70 100 129 161 202 244 285
#     4  11  21  33  50  70  95 130 167 197 233 284
#     4   8  15  28  46  70  98 127 159 194 234 285
#     4  10  20  34  52  73  95 120 155 201 248 287
#     4   8  14  28  49  68  90 123 161 198 237 283
#     4  11  20  30  48  72  97 126 161 200 243 286
#
# _framework density 16.344646000000001
#
# number of rings (size 3 to 8) (size 9 to 14) (size 15 to 20)
#    0.000    2.250    1.250    3.375    0.000    4.000 
#    0.000    1.250    0.000    3.000    0.000    0.875 
#    0.000    5.000    0.000    0.000    0.000    0.000 
#
# Total GULP energy -396790.826090 kJ/mol
# GULP energy per Si atom -12399.713315 kJ/mol
# Density = 1.630744 g / cm^3
# Si number density = 16.344646 Si / 1000 Ang^3
#
#
#
# Elastic Constant Matrix: (Units=GPa)
#
#
# Indices 1 2 3 4 5 6 
#
# 1 88.4332 37.6512 47.7900 0.0000 0.0000 0.0000
# 2 37.6512 63.1485 38.4459 0.0000 0.0000 0.0000
# 3 47.7900 38.4459 114.4447 0.0000 0.0000 0.0000
# 4 0.0000 0.0000 0.0000 23.3081 0.0000 0.0000
# 5 0.0000 0.0000 0.0000 0.0000 10.4882 0.0000
# 6 0.0000 0.0000 0.0000 0.0000 0.0000 26.1471
#
#
#
# Elastic Compliance Matrix: (Units=1/GPa)
#
#
# Indices 1 2 3 4 5 6 
#
# 1 0.016894 -0.007263 -0.004615 0.000000 0.000000 0.000000
# 2 -0.007263 0.023030 -0.004703 0.000000 0.000000 0.000000
# 3 -0.004615 -0.004703 0.012245 0.000000 0.000000 0.000000
# 4 0.000000 0.000000 0.000000 0.042904 0.000000 0.000000
# 5 0.000000 0.000000 0.000000 0.000000 0.095345 0.000000
# 6 0.000000 0.000000 0.000000 0.000000 0.000000 0.038245
#
#
# Mechanical properties :
#
#
# Convention : Reuss Voigt Hill
#
# Bulk Modulus (GPa) = 52.61513 57.08895 54.85204
# Shear Modulus (GPa) = 18.64549 21.46463 20.05506
#
# Velocity S-wave (km/s) = 3.38119 3.62781 3.50667
# Velocity P-wave (km/s) = 6.89233 7.24928 7.07306
#
# Compressibility (1/GPa) = 0.01900594
#
# Stress axis : x y z
#
# Youngs Moduli (GPa) = 59.19176 43.42179 81.66653
#
# Poissons Ratio (x) = 0.31539 0.37687
# Poissons Ratio (y) = 0.42993 0.38412
# Poissons Ratio (z) = 0.27315 0.20423
#
# Static dielectric constant tensor:
#      x y z
#    x 3.106750 0.000000 0.000000 
#    y 0.000000 3.059150 0.000000 
#    z 0.000000 0.000000 3.218780 
# 
# 
# High freq. dielectric constant tensor:
#      x y z
#    x 1.612090 0.000000 0.000000 
#    y 0.000000 1.630430 0.000000 
#    z 0.000000 0.000000 1.617920 
# 
# From -- ./inp_files/25094.got.cif
#   From: 2010.03.12/outbox.cif.g09.slc.cpg/sg38_13_cif.got.tgz:25094.got - 2010.04.14 02:38:36.
