data_PCOD8178148
_publ_section_title
;
Structure prediction by ZEFSAII (Michael W. Deem and Ramdas Pophale) SiO2 
 PCOD8178148
Probable space group: A M M 2
;
_chemical_formula_sum "Si O2"
_cell_formula_units_Z 64
_cell_length_a 9.465770
_cell_length_b 18.179965
_cell_length_c 20.495463
_cell_angle_alpha 90.000000
_cell_angle_beta 90.000000
_cell_angle_gamma 90.000000
_cell_volume 3527.010269
_symmetry_space_group_name_H-M "A M M 2"
_symmetry_group_IT_number 38
_symmetry_cell_setting 'orthorhombic'
loop_
_space_group_symop_operation_xyz
x,y,z
-x,-y,z
-x,y,z
x,-y,z
x,1/2+y,1/2+z
-x,1/2-y,1/2+z
-x,1/2+y,1/2+z
x,1/2-y,1/2+z
loop_
_atom_site_type_symbol
_atom_site_label
_atom_site_fract_x
_atom_site_fract_y
_atom_site_fract_z
Si Si1 0.656970 0.823547 0.803580
Si Si2 0.655976 0.851165 0.302672
Si Si3 0.332126 0.815842 0.945361
Si Si4 0.836064 0.820072 0.682190
Si Si5 0.837962 0.584038 0.061399
Si Si6 0.662440 0.414885 0.564012
Si Si7 0.334036 0.150369 0.448535
Si Si8 0.165239 0.648373 0.681453
O O1 0.500000 0.856503 0.792554
O O2 0.649202 0.736137 0.803380
O O3 0.719972 0.846498 0.874664
O O4 0.756866 0.851854 0.745712
O O5 0.500000 0.881872 0.284054
O O6 0.698752 0.877836 0.375124
O O7 0.770501 0.879029 0.250337
O O8 0.500000 0.812820 0.941523
O O9 0.275830 0.733453 0.958944
O O10 0.278479 0.869405 0.002260
O O11 0.780553 0.864295 0.619471
O O12 0.803698 0.734380 0.670263
O O13 0.000000 0.834557 0.694530
O O14 0.821441 0.500000 0.083894
O O15 0.000000 0.603551 0.045531
O O16 0.746884 0.596606 0.996964
O O17 0.500000 0.393252 0.579581
O O18 0.675167 0.500000 0.545874
O O19 0.759443 0.397514 0.625365
O O20 0.500000 0.146252 0.463320
O O21 0.000000 0.630419 0.681256
#
# Coordination Sequence:
#
# PCOD8178148 Si02
#       8
#     8   8   8   8   8   8   8   8
#     4   8  14  27  49  74  97 121 152 193 237 279
#     4   8  15  29  49  73  98 122 151 190 238 288
#     4   8  15  30  51  74  98 123 154 193 238 283
#     4   9  18  32  49  71  97 125 159 195 234 281
#     4  10  21  35  48  65  96 134 163 191 233 283
#     4  10  20  33  49  69  96 131 164 192 229 281
#     4   9  17  31  53  76  95 119 155 199 239 277
#     4  10  19  31  50  74  97 122 156 200 240 274
#
# _framework density 18.145679999999999
#
# number of rings (size 3 to 8) (size 9 to 14) (size 15 to 20)
#    0.000    3.000    0.000    2.625    0.000    2.000 
#    0.000    3.750    0.000    1.500    0.000    0.000 
#    0.000    0.000    0.000    0.000    0.000    0.000 
#
# Total GULP energy -396720.406405 kJ/mol
# GULP energy per Si atom -12397.512700 kJ/mol
# Density = 1.810438 g / cm^3
# Si number density = 18.145680 Si / 1000 Ang^3
#
#
#
# Elastic Constant Matrix: (Units=GPa)
#
#
# Indices 1 2 3 4 5 6 
#
# 1 61.3806 16.9715 47.7486 0.0000 0.0000 0.0000
# 2 16.9715 37.3054 22.1131 0.0000 0.0000 0.0000
# 3 47.7486 22.1131 121.7599 0.0000 0.0000 0.0000
# 4 0.0000 0.0000 0.0000 5.2088 0.0000 0.0000
# 5 0.0000 0.0000 0.0000 0.0000 22.8903 0.0000
# 6 0.0000 0.0000 0.0000 0.0000 0.0000 16.8978
#
#
#
# Elastic Compliance Matrix: (Units=1/GPa)
#
#
# Indices 1 2 3 4 5 6 
#
# 1 0.024639 -0.006143 -0.008547 0.000000 0.000000 0.000000
# 2 -0.006143 0.031571 -0.003325 0.000000 0.000000 0.000000
# 3 -0.008547 -0.003325 0.012168 0.000000 0.000000 0.000000
# 4 0.000000 0.000000 0.000000 0.191982 0.000000 0.000000
# 5 0.000000 0.000000 0.000000 0.000000 0.043687 0.000000
# 6 0.000000 0.000000 0.000000 0.000000 0.000000 0.059179
#
#
# Mechanical properties :
#
#
# Convention : Reuss Voigt Hill
#
# Bulk Modulus (GPa) = 30.91215 43.79025 37.35120
# Shear Modulus (GPa) = 12.19399 17.90690 15.05044
#
# Velocity S-wave (km/s) = 2.59512 3.14481 2.88309
# Velocity P-wave (km/s) = 5.10412 6.11322 5.63132
#
# Compressibility (1/GPa) = 0.03234974
#
# Stress axis : x y z
#
# Youngs Moduli (GPa) = 40.58653 31.67443 82.18100
#
# Poissons Ratio (x) = 0.19457 0.70236
# Poissons Ratio (y) = 0.24932 0.27323
# Poissons Ratio (z) = 0.34687 0.10531
#
# Static dielectric constant tensor:
#      x y z
#    x 3.272060 0.000000 0.000000 
#    y 0.000000 3.064360 0.000000 
#    z 0.000000 0.000000 3.676390 
# 
# 
# High freq. dielectric constant tensor:
#      x y z
#    x 1.684790 0.000000 0.000000 
#    y 0.000000 1.671350 0.000000 
#    z 0.000000 0.000000 1.715820 
# 
# From -- ./inp_files/20037.got.cif
#   From: 2010.03.12/outbox.cif.g09.slc.cpg/sg38_11_cif.got.tgz:20037.got - 2010.04.14 02:38:36.
