data_PCOD8178875
_publ_section_title
;
Structure prediction by ZEFSAII (Michael W. Deem and Ramdas Pophale) SiO2 
 PCOD8178875
Probable space group: A M M 2
;
_chemical_formula_sum "Si O2"
_cell_formula_units_Z 64
_cell_length_a 9.124831
_cell_length_b 27.072243
_cell_length_c 14.518275
_cell_angle_alpha 90.000000
_cell_angle_beta 90.000000
_cell_angle_gamma 90.000000
_cell_volume 3586.444278
_symmetry_space_group_name_H-M "A M M 2"
_symmetry_group_IT_number 38
_symmetry_cell_setting 'orthorhombic'
loop_
_space_group_symop_operation_xyz
x,y,z
-x,-y,z
-x,y,z
x,-y,z
x,1/2+y,1/2+z
-x,1/2-y,1/2+z
-x,1/2+y,1/2+z
x,1/2-y,1/2+z
loop_
_atom_site_type_symbol
_atom_site_label
_atom_site_fract_x
_atom_site_fract_y
_atom_site_fract_z
Si Si1 0.171643 0.134172 0.532610
Si Si2 0.669058 0.943042 0.198821
Si Si3 0.832709 0.169786 0.889907
Si Si4 0.671846 0.282038 0.707445
Si Si5 0.170406 0.360708 0.589541
Si Si6 0.169059 0.282883 0.890741
Si Si7 0.328474 0.832300 0.708136
Si Si8 0.332651 0.442532 0.910231
O O1 0.212691 0.184090 0.478097
O O2 0.252222 0.134852 0.630435
O O3 0.223791 0.086897 0.475742
O O4 0.000000 0.129571 0.550351
O O5 0.500000 0.929781 0.180170
O O6 0.770971 0.911104 0.132786
O O7 0.708925 0.931364 0.304477
O O8 0.699854 0.000000 0.176064
O O9 0.796109 0.226416 0.916204
O O10 0.729854 0.150521 0.807844
O O11 0.000000 0.165425 0.856296
O O12 0.803507 0.136602 0.979771
O O13 0.500000 0.291704 0.706478
O O14 0.745241 0.313013 0.626691
O O15 0.733614 0.300768 0.805010
O O16 0.712154 0.224914 0.692090
O O17 0.000000 0.354446 0.613014
O O18 0.000000 0.290838 0.863714
O O19 0.500000 0.842010 0.704514
O O20 0.500000 0.426473 0.929175
O O21 0.311914 0.500000 0.931795
#
# Coordination Sequence:
#
# PCOD8178875 Si02
#       8
#     8   8   8   8   8   8   8   8
#     4  11  21  32  51  77 103 133 168 206 251 302
#     4   9  19  36  56  78 105 135 165 201 248 299
#     4   9  19  35  51  69  99 136 171 209 251 294
#     4  10  20  32  48  73 104 136 170 209 250 294
#     4  11  21  32  51  77 103 134 170 207 251 301
#     4   9  18  32  49  71 101 136 170 204 247 299
#     4  10  21  35  51  72  99 134 174 213 252 294
#     4   9  19  36  55  75 102 134 166 203 248 297
#
# _framework density 17.844971000000001
#
# number of rings (size 3 to 8) (size 9 to 14) (size 15 to 20)
#    0.000    2.250    0.000    3.750    0.000    7.500 
#    0.000    3.750    0.000    0.750    0.000    3.500 
#    0.000    0.000    0.000    0.000    0.000    0.000 
#
# Total GULP energy -396914.619736 kJ/mol
# GULP energy per Si atom -12403.581867 kJ/mol
# Density = 1.780436 g / cm^3
# Si number density = 17.844971 Si / 1000 Ang^3
#
#
#
# Elastic Constant Matrix: (Units=GPa)
#
#
# Indices 1 2 3 4 5 6 
#
# 1 88.0364 35.5580 61.1285 0.0000 0.0000 0.0000
# 2 35.5580 59.4574 46.6636 0.0000 0.0000 0.0000
# 3 61.1285 46.6636 114.9738 0.0000 0.0000 0.0000
# 4 0.0000 0.0000 0.0000 27.7104 0.0000 0.0000
# 5 0.0000 0.0000 0.0000 0.0000 29.5107 0.0000
# 6 0.0000 0.0000 0.0000 0.0000 0.0000 29.0550
#
#
#
# Elastic Compliance Matrix: (Units=1/GPa)
#
#
# Indices 1 2 3 4 5 6 
#
# 1 0.018981 -0.005035 -0.008048 0.000000 0.000000 0.000000
# 2 -0.005035 0.026016 -0.007882 0.000000 0.000000 0.000000
# 3 -0.008048 -0.007882 0.016176 0.000000 0.000000 0.000000
# 4 0.000000 0.000000 0.000000 0.036088 0.000000 0.000000
# 5 0.000000 0.000000 0.000000 0.000000 0.033886 0.000000
# 6 0.000000 0.000000 0.000000 0.000000 0.000000 0.034417
#
#
# Mechanical properties :
#
#
# Convention : Reuss Voigt Hill
#
# Bulk Modulus (GPa) = 51.96899 61.01865 56.49382
# Shear Modulus (GPa) = 23.37464 25.19638 24.28551
#
# Velocity S-wave (km/s) = 3.62314 3.76168 3.69306
# Velocity P-wave (km/s) = 6.83291 7.28937 7.06483
#
# Compressibility (1/GPa) = 0.01924224
#
# Stress axis : x y z
#
# Youngs Moduli (GPa) = 52.68489 38.43824 61.82186
#
# Poissons Ratio (x) = 0.19354 0.49754
# Poissons Ratio (y) = 0.26527 0.48727
# Poissons Ratio (z) = 0.42401 0.30296
#
# Static dielectric constant tensor:
#      x y z
#    x 3.315490 0.000000 0.000000 
#    y 0.000000 3.094190 0.000000 
#    z 0.000000 0.000000 3.257250 
# 
# 
# High freq. dielectric constant tensor:
#      x y z
#    x 1.697470 0.000000 0.000000 
#    y 0.000000 1.668440 0.000000 
#    z 0.000000 0.000000 1.688850 
# 
# From -- ./inp_files/12745.got.cif
#   From: 2010.03.12/outbox.cif.g09.slc.cpg/sg38_7_cif.got.tgz:12745.got - 2010.04.14 02:38:36.
