data_PCOD8178020
_publ_section_title
;
Structure prediction by ZEFSAII (Michael W. Deem and Ramdas Pophale) SiO2 
 PCOD8178020
Probable space group: A M M 2
;
_chemical_formula_sum "Si O2"
_cell_formula_units_Z 64
_cell_length_a 9.227843
_cell_length_b 22.874024
_cell_length_c 15.540135
_cell_angle_alpha 90.000000
_cell_angle_beta 90.000000
_cell_angle_gamma 90.000000
_cell_volume 3280.179096
_symmetry_space_group_name_H-M "A M M 2"
_symmetry_group_IT_number 38
_symmetry_cell_setting 'orthorhombic'
loop_
_space_group_symop_operation_xyz
x,y,z
-x,-y,z
-x,y,z
x,-y,z
x,1/2+y,1/2+z
-x,1/2-y,1/2+z
-x,1/2+y,1/2+z
x,1/2-y,1/2+z
loop_
_atom_site_type_symbol
_atom_site_label
_atom_site_fract_x
_atom_site_fract_y
_atom_site_fract_z
Si Si1 0.671079 0.322406 0.192500
Si Si2 0.669739 0.317766 0.380785
Si Si3 0.833792 0.391583 0.951614
Si Si4 0.659974 0.567464 0.793046
Si Si5 0.164685 0.565408 0.138897
Si Si6 0.838732 0.568967 0.636124
Si Si7 0.327920 0.720991 0.010470
Si Si8 0.331551 0.565664 0.465621
O O1 0.500000 0.329708 0.194253
O O2 0.726980 0.298054 0.285603
O O3 0.732615 0.387538 0.182942
O O4 0.717756 0.280194 0.112512
O O5 0.500000 0.308355 0.382308
O O6 0.729830 0.278963 0.460717
O O7 0.708322 0.386419 0.393321
O O8 0.755023 0.427466 0.877842
O O9 0.000000 0.379219 0.926221
O O10 0.822933 0.430819 0.036199
O O11 0.750678 0.331042 0.961978
O O12 0.500000 0.596728 0.803009
O O13 0.638017 0.500000 0.771514
O O14 0.745640 0.597464 0.713641
O O15 0.212354 0.500000 0.166682
O O16 0.000000 0.578031 0.167860
O O17 0.850043 0.500000 0.649228
O O18 0.759741 0.584252 0.548002
O O19 0.000000 0.596452 0.635488
O O20 0.500000 0.712845 0.002875
O O21 0.500000 0.568824 0.491309
O O22 0.291448 0.500000 0.433167
#
# Coordination Sequence:
#
# PCOD8178020 Si02
#       8
#     8   8   8   8   8   8   8   8
#     4   9  18  33  54  77 103 137 178 224 269 314
#     4   9  18  34  55  79 105 137 179 223 272 324
#     4  10  19  32  50  72 103 140 179 221 269 320
#     4  10  19  30  47  73 104 139 181 224 266 316
#     4   9  18  32  50  74 106 142 174 209 263 326
#     4   9  17  30  47  68 100 138 172 212 261 312
#     4   9  18  35  54  73 102 137 178 225 269 316
#     4   9  17  31  51  74 102 135 172 217 269 328
#
# _framework density 19.511130000000001
#
# number of rings (size 3 to 8) (size 9 to 14) (size 15 to 20)
#    0.000    2.750    0.000    1.500    0.000    4.000 
#    2.250    3.125    0.000    1.500    0.000    0.000 
#    0.000    0.000    0.000    0.000    0.000    0.000 
#
# Total GULP energy -396542.832039 kJ/mol
# GULP energy per Si atom -12391.963501 kJ/mol
# Density = 1.946672 g / cm^3
# Si number density = 19.511130 Si / 1000 Ang^3
#
#
#
# Elastic Constant Matrix: (Units=GPa)
#
#
# Indices 1 2 3 4 5 6 
#
# 1 60.5975 15.0597 33.4229 0.0000 0.0000 0.0000
# 2 15.0597 79.0089 47.8841 0.0000 0.0000 0.0000
# 3 33.4229 47.8841 131.4580 0.0000 0.0000 0.0000
# 4 0.0000 0.0000 0.0000 22.8148 0.0000 0.0000
# 5 0.0000 0.0000 0.0000 0.0000 19.3704 0.0000
# 6 0.0000 0.0000 0.0000 0.0000 0.0000 14.4990
#
#
#
# Elastic Compliance Matrix: (Units=1/GPa)
#
#
# Indices 1 2 3 4 5 6 
#
# 1 0.019244 -0.000902 -0.004564 0.000000 0.000000 0.000000
# 2 -0.000902 0.016285 -0.005702 0.000000 0.000000 0.000000
# 3 -0.004564 -0.005702 0.010845 0.000000 0.000000 0.000000
# 4 0.000000 0.000000 0.000000 0.043831 0.000000 0.000000
# 5 0.000000 0.000000 0.000000 0.000000 0.051625 0.000000
# 6 0.000000 0.000000 0.000000 0.000000 0.000000 0.068970
#
#
# Mechanical properties :
#
#
# Convention : Reuss Voigt Hill
#
# Bulk Modulus (GPa) = 41.60408 51.53309 46.56858
# Shear Modulus (GPa) = 20.73407 22.98335 21.85871
#
# Velocity S-wave (km/s) = 3.26341 3.43587 3.35075
# Velocity P-wave (km/s) = 5.96401 6.49690 6.23615
#
# Compressibility (1/GPa) = 0.02403611
#
# Stress axis : x y z
#
# Youngs Moduli (GPa) = 51.96462 61.40710 92.21198
#
# Poissons Ratio (x) = 0.05538 0.42087
# Poissons Ratio (y) = 0.04687 0.52584
# Poissons Ratio (z) = 0.23718 0.35017
#
# Static dielectric constant tensor:
#      x y z
#    x 3.591930 0.000000 0.000000 
#    y 0.000000 3.366530 0.000000 
#    z 0.000000 0.000000 3.781110 
# 
# 
# High freq. dielectric constant tensor:
#      x y z
#    x 1.748420 0.000000 0.000000 
#    y 0.000000 1.731750 0.000000 
#    z 0.000000 0.000000 1.763380 
# 
# From -- ./inp_files/12795.got.cif
#   From: 2010.03.12/outbox.cif.g09.slc.cpg/sg38_7_cif.got.tgz:12795.got - 2010.04.14 02:38:36.
