data_PCOD8178889
_publ_section_title
;
Structure prediction by ZEFSAII (Michael W. Deem and Ramdas Pophale) SiO2 
 PCOD8178889
Probable space group: A M M 2
;
_chemical_formula_sum "Si O2"
_cell_formula_units_Z 64
_cell_length_a 8.874373
_cell_length_b 29.970102
_cell_length_c 14.270924
_cell_angle_alpha 90.000000
_cell_angle_beta 90.000000
_cell_angle_gamma 90.000000
_cell_volume 3795.578632
_symmetry_space_group_name_H-M "A M M 2"
_symmetry_group_IT_number 38
_symmetry_cell_setting 'orthorhombic'
loop_
_space_group_symop_operation_xyz
x,y,z
-x,-y,z
-x,y,z
x,-y,z
x,1/2+y,1/2+z
-x,1/2-y,1/2+z
-x,1/2+y,1/2+z
x,1/2-y,1/2+z
loop_
_atom_site_type_symbol
_atom_site_label
_atom_site_fract_x
_atom_site_fract_y
_atom_site_fract_z
Si Si1 0.327130 0.049782 0.947710
Si Si2 0.322422 0.719468 0.809579
Si Si3 0.831170 0.275243 0.003452
Si Si4 0.177578 0.696589 0.204894
Si Si5 0.323758 0.636595 0.342397
Si Si6 0.829574 0.326612 0.518688
Si Si7 0.822872 0.549902 0.643336
Si Si8 0.323628 0.365468 0.694069
O O1 0.500000 0.054661 0.980606
O O2 0.290882 0.084492 0.864121
O O3 0.294379 0.000000 0.909140
O O4 0.224196 0.060883 0.036667
O O5 0.500000 0.725742 0.796177
O O6 0.241362 0.760180 0.758307
O O7 0.266585 0.672503 0.765451
O O8 0.284450 0.716893 0.919421
O O9 0.784462 0.304037 0.094266
O O10 0.827291 0.225233 0.042510
O O11 0.000000 0.287240 0.968726
O O12 0.254837 0.651110 0.242684
O O13 0.000000 0.695719 0.223224
O O14 0.500000 0.647504 0.345135
O O15 0.237875 0.667855 0.415840
O O16 0.721547 0.352360 0.589191
O O17 0.000000 0.345572 0.525146
O O18 0.767027 0.500000 0.670540
O O19 0.751445 0.586163 0.714721
O O20 0.000000 0.553397 0.651059
O O21 0.500000 0.371703 0.701026
#
# Coordination Sequence:
#
# PCOD8178889 Si02
#       8
#     8   8   8   8   8   8   8   8
#     4   9  18  32  49  70 100 135 167 204 251 301
#     4  11  23  35  52  75 100 131 170 212 251 296
#     4  10  22  37  52  70  97 135 174 211 252 294
#     4  11  22  36  52  72 100 135 172 207 250 300
#     4  11  21  32  49  75 102 134 172 208 250 299
#     4  11  20  31  49  72 101 137 173 209 245 291
#     4  10  20  32  49  74 101 132 170 209 250 299
#     4  11  22  34  49  74 103 137 172 206 254 305
#
# _framework density 16.861725
#
# number of rings (size 3 to 8) (size 9 to 14) (size 15 to 20)
#    0.000    1.500    3.750    2.250    0.000    4.250 
#    0.000    0.000    0.000    0.000    0.000    0.875 
#    0.000    3.000    0.000    0.000    0.000    0.000 
#
# Total GULP energy -396782.031175 kJ/mol
# GULP energy per Si atom -12399.438474 kJ/mol
# Density = 1.682335 g / cm^3
# Si number density = 16.861725 Si / 1000 Ang^3
#
#
#
# Elastic Constant Matrix: (Units=GPa)
#
#
# Indices 1 2 3 4 5 6 
#
# 1 58.0127 36.0438 19.9275 0.0000 0.0000 0.0000
# 2 36.0438 103.5236 32.4355 0.0000 0.0000 0.0000
# 3 19.9275 32.4355 54.2845 0.0000 0.0000 0.0000
# 4 0.0000 0.0000 0.0000 26.4946 0.0000 0.0000
# 5 0.0000 0.0000 0.0000 0.0000 23.9005 0.0000
# 6 0.0000 0.0000 0.0000 0.0000 0.0000 25.7020
#
#
#
# Elastic Compliance Matrix: (Units=1/GPa)
#
#
# Indices 1 2 3 4 5 6 
#
# 1 0.022845 -0.006553 -0.004471 0.000000 0.000000 0.000000
# 2 -0.006553 0.013764 -0.005819 0.000000 0.000000 0.000000
# 3 -0.004471 -0.005819 0.023539 0.000000 0.000000 0.000000
# 4 0.000000 0.000000 0.000000 0.037744 0.000000 0.000000
# 5 0.000000 0.000000 0.000000 0.000000 0.041840 0.000000
# 6 0.000000 0.000000 0.000000 0.000000 0.000000 0.038907
#
#
# Mechanical properties :
#
#
# Convention : Reuss Voigt Hill
#
# Bulk Modulus (GPa) = 37.78787 43.62606 40.70696
# Shear Modulus (GPa) = 22.60952 23.71368 23.16160
#
# Velocity S-wave (km/s) = 3.66577 3.75422 3.71026
# Velocity P-wave (km/s) = 6.35423 6.68739 6.52294
#
# Compressibility (1/GPa) = 0.02646352
#
# Stress axis : x y z
#
# Youngs Moduli (GPa) = 43.77360 72.65148 42.48213
#
# Poissons Ratio (x) = 0.47610 0.18992
# Poissons Ratio (y) = 0.28686 0.24719
# Poissons Ratio (z) = 0.19569 0.42274
#
# Static dielectric constant tensor:
#      x y z
#    x 3.234130 0.000000 0.000000 
#    y 0.000000 3.412870 0.000000 
#    z 0.000000 0.000000 2.970350 
# 
# 
# High freq. dielectric constant tensor:
#      x y z
#    x 1.663510 0.000000 0.000000 
#    y 0.000000 1.648650 0.000000 
#    z 0.000000 0.000000 1.615580 
# 
# From -- ./inp_files/13058.got.cif
#   From: 2010.03.12/outbox.cif.g09.slc.cpg/sg38_7_cif.got.tgz:13058.got - 2010.04.14 02:38:36.
