data_PCOD8178589
_publ_section_title
;
Structure prediction by ZEFSAII (Michael W. Deem and Ramdas Pophale) SiO2 
 PCOD8178589
Probable space group: A M M 2
;
_chemical_formula_sum "Si O2"
_cell_formula_units_Z 64
_cell_length_a 9.451969
_cell_length_b 28.244393
_cell_length_c 12.521636
_cell_angle_alpha 90.000000
_cell_angle_beta 90.000000
_cell_angle_gamma 90.000000
_cell_volume 3342.840146
_symmetry_space_group_name_H-M "A M M 2"
_symmetry_group_IT_number 38
_symmetry_cell_setting 'orthorhombic'
loop_
_space_group_symop_operation_xyz
x,y,z
-x,-y,z
-x,y,z
x,-y,z
x,1/2+y,1/2+z
-x,1/2-y,1/2+z
-x,1/2+y,1/2+z
x,1/2-y,1/2+z
loop_
_atom_site_type_symbol
_atom_site_label
_atom_site_fract_x
_atom_site_fract_y
_atom_site_fract_z
Si Si1 0.334384 0.203839 0.402380
Si Si2 0.342164 0.412044 0.750505
Si Si3 0.840202 0.788771 0.972986
Si Si4 0.161280 0.176007 0.211735
Si Si5 0.658960 0.948509 0.030022
Si Si6 0.832913 0.445055 0.174606
Si Si7 0.835227 0.613309 0.380850
Si Si8 0.660337 0.401495 0.982685
O O1 0.500000 0.211970 0.387524
O O2 0.270487 0.246166 0.471725
O O3 0.257620 0.208701 0.287803
O O4 0.301479 0.153563 0.459209
O O5 0.500000 0.387518 0.748644
O O6 0.217786 0.376712 0.721196
O O7 0.333936 0.451862 0.659529
O O8 0.319912 0.430950 0.871600
O O9 0.803918 0.830247 0.886029
O O10 0.000000 0.770463 0.952065
O O11 0.825819 0.809241 0.090341
O O12 0.000000 0.178399 0.252000
O O13 0.500000 0.935770 0.993747
O O14 0.703025 0.000000 0.986120
O O15 0.761575 0.909505 0.983105
O O16 0.788468 0.500000 0.193627
O O17 0.780172 0.411818 0.272497
O O18 0.763289 0.424481 0.068361
O O19 0.000000 0.440902 0.160196
O O20 0.000000 0.603379 0.394950
O O21 0.500000 0.405680 0.025517
#
# Coordination Sequence:
#
# PCOD8178589 Si02
#       8
#     8   8   8   8   8   8   8   8
#     4  10  22  38  57  84 116 152 193 238 294 352
#     4   9  18  34  55  79 109 144 182 227 284 342
#     4  10  21  36  57  85 113 148 195 241 291 349
#     4  10  19  34  56  80 110 144 183 232 284 340
#     4  10  20  33  53  83 114 143 181 230 283 341
#     4  10  22  39  59  83 114 155 198 244 296 347
#     4  10  21  39  58  80 113 151 193 238 288 349
#     4   9  20  38  58  81 111 149 192 236 285 344
#
# _framework density 19.145396999999999
#
# number of rings (size 3 to 8) (size 9 to 14) (size 15 to 20)
#    0.000    2.250    1.250    1.875    0.000    7.000 
#    0.000    5.000    0.000    0.000    0.000    0.000 
#    0.000    0.000    0.000    0.000    0.000    0.000 
#
# Total GULP energy -396584.949376 kJ/mol
# GULP energy per Si atom -12393.279668 kJ/mol
# Density = 1.910182 g / cm^3
# Si number density = 19.145397 Si / 1000 Ang^3
#
#
#
# Elastic Constant Matrix: (Units=GPa)
#
#
# Indices 1 2 3 4 5 6 
#
# 1 79.8722 38.4805 41.6399 0.0000 0.0000 0.0000
# 2 38.4805 67.9185 31.6489 0.0000 0.0000 0.0000
# 3 41.6399 31.6489 92.1222 0.0000 0.0000 0.0000
# 4 0.0000 0.0000 0.0000 22.5010 0.0000 0.0000
# 5 0.0000 0.0000 0.0000 0.0000 32.7723 0.0000
# 6 0.0000 0.0000 0.0000 0.0000 0.0000 28.8690
#
#
#
# Elastic Compliance Matrix: (Units=1/GPa)
#
#
# Indices 1 2 3 4 5 6 
#
# 1 0.019683 -0.008341 -0.006031 0.000000 0.000000 0.000000
# 2 -0.008341 0.021065 -0.003467 0.000000 0.000000 0.000000
# 3 -0.006031 -0.003467 0.014772 0.000000 0.000000 0.000000
# 4 0.000000 0.000000 0.000000 0.044443 0.000000 0.000000
# 5 0.000000 0.000000 0.000000 0.000000 0.030514 0.000000
# 6 0.000000 0.000000 0.000000 0.000000 0.000000 0.034639
#
#
# Mechanical properties :
#
#
# Convention : Reuss Voigt Hill
#
# Bulk Modulus (GPa) = 50.39833 51.49461 50.94647
# Shear Modulus (GPa) = 24.10718 25.37136 24.73927
#
# Velocity S-wave (km/s) = 3.55232 3.64427 3.59859
# Velocity P-wave (km/s) = 6.57316 6.68301 6.62831
#
# Compressibility (1/GPa) = 0.01984193
#
# Stress axis : x y z
#
# Youngs Moduli (GPa) = 50.80567 47.47256 67.69471
#
# Poissons Ratio (x) = 0.39598 0.40827
# Poissons Ratio (y) = 0.42378 0.23467
# Poissons Ratio (z) = 0.30641 0.16457
#
# Static dielectric constant tensor:
#      x y z
#    x 3.523960 0.000000 0.000000 
#    y 0.000000 3.532730 0.000000 
#    z 0.000000 0.000000 3.571820 
# 
# 
# High freq. dielectric constant tensor:
#      x y z
#    x 1.746190 0.000000 0.000000 
#    y 0.000000 1.733460 0.000000 
#    z 0.000000 0.000000 1.746570 
# 
# From -- ./inp_files/8683.got.cif
#   From: 2010.03.12/outbox.cif.g09.slc.cpg/sg38_5_cif.got.tgz:8683.got - 2010.04.14 02:38:36.
