data_PCOD8178771
_publ_section_title
;
Structure prediction by ZEFSAII (Michael W. Deem and Ramdas Pophale) SiO2 
 PCOD8178771
Probable space group: A M M 2
;
_chemical_formula_sum "Si O2"
_cell_formula_units_Z 48
_cell_length_a 7.812934
_cell_length_b 18.452121
_cell_length_c 16.487281
_cell_angle_alpha 90.000000
_cell_angle_beta 90.000000
_cell_angle_gamma 90.000000
_cell_volume 2376.892221
_symmetry_space_group_name_H-M "A M M 2"
_symmetry_group_IT_number 38
_symmetry_cell_setting 'orthorhombic'
loop_
_space_group_symop_operation_xyz
x,y,z
-x,-y,z
-x,y,z
x,-y,z
x,1/2+y,1/2+z
-x,1/2-y,1/2+z
-x,1/2+y,1/2+z
x,1/2-y,1/2+z
loop_
_atom_site_type_symbol
_atom_site_label
_atom_site_fract_x
_atom_site_fract_y
_atom_site_fract_z
Si Si1 0.804878 0.337984 0.194510
Si Si2 0.304230 0.581038 0.519384
Si Si3 0.500000 0.583943 0.937770
Si Si4 0.803445 0.841176 0.353710
Si Si5 0.500000 0.915379 0.614275
Si Si6 0.803675 0.675568 0.666207
Si Si7 0.704128 0.318703 0.374101
O O1 0.673588 0.395517 0.160110
O O2 0.749037 0.259599 0.159028
O O3 0.795372 0.342335 0.291546
O O4 0.000000 0.356128 0.168796
O O5 0.500000 0.569794 0.497644
O O6 0.218711 0.500000 0.524477
O O7 0.295947 0.623495 0.604725
O O8 0.225352 0.629506 0.446404
O O9 0.500000 0.500000 0.951187
O O10 0.325365 0.602205 0.892190
O O11 0.500000 0.622179 0.025905
O O12 0.766893 0.846842 0.258192
O O13 0.762697 0.763020 0.392328
O O14 0.000000 0.861722 0.373211
O O15 0.500000 0.000000 0.606984
O O16 0.000000 0.666238 0.643551
O O17 0.500000 0.321722 0.364671
#
# Coordination Sequence:
#
# PCOD8178771 Si02
#       7
#     8   8   4   8   4   8   8
#     4  10  22  41  66  94 122 161 211 260 310 367
#     4  10  23  37  56  92 131 166 201 245 307 372
#     4  11  26  43  62  91 121 160 209 260 326 376
#     4  10  22  41  65  93 123 161 212 261 308 367
#     4  11  26  43  62  91 123 158 207 264 322 376
#     4   9  21  38  59  90 123 158 205 254 300 361
#     4  10  19  37  63  93 127 164 209 257 300 363
#
# _framework density 20.194438999999999
#
# number of rings (size 3 to 8) (size 9 to 14) (size 15 to 20)
#    0.000    2.000    1.667    1.500    4.667    4.333 
#    0.000    3.333    0.000    0.000    0.000    0.000 
#    0.000    0.000    0.000    0.000    0.000    0.000 
#
# Total GULP energy -297519.278350 kJ/mol
# GULP energy per Si atom -12396.636598 kJ/mol
# Density = 2.014848 g / cm^3
# Si number density = 20.194439 Si / 1000 Ang^3
#
#
#
# Elastic Constant Matrix: (Units=GPa)
#
#
# Indices 1 2 3 4 5 6 
#
# 1 103.0711 34.3239 27.4184 0.0000 0.0000 0.0000
# 2 34.3239 99.7405 65.0177 0.0000 0.0000 0.0000
# 3 27.4184 65.0177 90.7403 0.0000 0.0000 0.0000
# 4 0.0000 0.0000 0.0000 27.7490 0.0000 0.0000
# 5 0.0000 0.0000 0.0000 0.0000 13.1383 0.0000
# 6 0.0000 0.0000 0.0000 0.0000 0.0000 0.6969
#
#
#
# Elastic Compliance Matrix: (Units=1/GPa)
#
#
# Indices 1 2 3 4 5 6 
#
# 1 0.011021 -0.003043 -0.001150 0.000000 0.000000 0.000000
# 2 -0.003043 0.019654 -0.013163 0.000000 0.000000 0.000000
# 3 -0.001150 -0.013163 0.020799 0.000000 0.000000 0.000000
# 4 0.000000 0.000000 0.000000 0.036037 0.000000 0.000000
# 5 0.000000 0.000000 0.000000 0.000000 0.076113 0.000000
# 6 0.000000 0.000000 0.000000 0.000000 0.000000 1.434884
#
#
# Mechanical properties :
#
#
# Convention : Reuss Voigt Hill
#
# Bulk Modulus (GPa) = 59.65582 60.78577 60.22080
# Shear Modulus (GPa) = 3.05100 19.43630 11.24365
#
# Velocity S-wave (km/s) = 1.23048 3.10572 2.36216
# Velocity P-wave (km/s) = 5.62349 6.55944 6.10941
#
# Compressibility (1/GPa) = 0.01676282
#
# Stress axis : x y z
#
# Youngs Moduli (GPa) = 90.73302 50.88076 48.07851
#
# Poissons Ratio (x) = 0.15485 0.05527
# Poissons Ratio (y) = 0.27614 0.63285
# Poissons Ratio (z) = 0.10430 0.66973
#
# Static dielectric constant tensor:
#      x y z
#    x 3.619030 0.000000 0.000000 
#    y 0.000000 3.732610 0.000000 
#    z 0.000000 0.000000 3.797000 
# 
# 
# High freq. dielectric constant tensor:
#      x y z
#    x 1.791920 0.000000 0.000000 
#    y 0.000000 1.779410 0.000000 
#    z 0.000000 0.000000 1.792580 
# 
# From -- ./inp_files/12070.got.cif
#   From: 2010.03.12/outbox.cif.g09.slc.cpg/sg38_7_cif.got.tgz:12070.got - 2010.04.14 02:38:36.
