data_PCOD8178667
_publ_section_title
;
Structure prediction by ZEFSAII (Michael W. Deem and Ramdas Pophale) SiO2 
 PCOD8178667
Probable space group: A M M 2
;
_chemical_formula_sum "Si O2"
_cell_formula_units_Z 52
_cell_length_a 12.250372
_cell_length_b 26.933372
_cell_length_c 8.442542
_cell_angle_alpha 90.000000
_cell_angle_beta 90.000000
_cell_angle_gamma 90.000000
_cell_volume 2785.564610
_symmetry_space_group_name_H-M "A M M 2"
_symmetry_group_IT_number 38
_symmetry_cell_setting 'orthorhombic'
loop_
_space_group_symop_operation_xyz
x,y,z
-x,-y,z
-x,y,z
x,-y,z
x,1/2+y,1/2+z
-x,1/2-y,1/2+z
-x,1/2+y,1/2+z
x,1/2-y,1/2+z
loop_
_atom_site_type_symbol
_atom_site_label
_atom_site_fract_x
_atom_site_fract_y
_atom_site_fract_z
Si Si1 0.259356 0.418099 0.484330
Si Si2 0.875563 0.699272 0.052868
Si Si3 0.733662 0.249325 0.311629
Si Si4 0.624386 0.000000 0.795498
Si Si5 0.193512 0.000000 0.542063
Si Si6 0.372479 0.319335 0.572470
Si Si7 0.133423 0.000000 0.180925
Si Si8 0.880884 0.598598 0.192077
O O1 0.351371 0.452531 0.405177
O O2 0.313461 0.373160 0.582425
O O3 0.175330 0.450709 0.589793
O O4 0.197858 0.392536 0.338831
O O5 0.791316 0.718012 0.181627
O O6 0.865567 0.639886 0.056514
O O7 0.000000 0.717352 0.081238
O O8 0.833403 0.718590 0.885945
O O9 0.669582 0.285711 0.428251
O O10 0.649202 0.210001 0.235714
O O11 0.687739 0.000000 0.626564
O O12 0.500000 0.000000 0.743861
O O13 0.193355 0.000000 0.351632
O O14 0.128595 0.047004 0.603310
O O15 0.500000 0.328943 0.551029
O O16 0.000000 0.000000 0.191358
O O17 0.000000 0.602580 0.268569
#
# Coordination Sequence:
#
# PCOD8178667 Si02
#       8
#     8   8   8   4   4   8   4   8
#     4  10  21  37  60  87 117 148 195 236 282 350
#     4  10  20  36  58  85 117 149 183 231 290 347
#     4  10  22  38  58  84 118 149 198 238 285 350
#     4   9  19  39  62  82 112 153 193 237 284 334
#     4  10  22  36  58  84 118 148 190 234 280 346
#     4  11  22  40  61  84 115 156 199 247 293 332
#     4  11  23  39  60  92 124 151 183 235 298 356
#     4  10  19  35  57  83 113 152 186 223 281 347
#
# _framework density 18.667670000000001
#
# number of rings (size 3 to 8) (size 9 to 14) (size 15 to 20)
#    0.000    1.846    1.538    3.000    2.154    0.000 
#    0.000    3.846    0.000    0.000    0.000    0.000 
#    0.000    0.000    0.000    0.000    0.000    0.000 
#
# Total GULP energy -322275.305717 kJ/mol
# GULP energy per Si atom -12395.204066 kJ/mol
# Density = 1.862518 g / cm^3
# Si number density = 18.667670 Si / 1000 Ang^3
#
#
#
# Elastic Constant Matrix: (Units=GPa)
#
#
# Indices 1 2 3 4 5 6 
#
# 1 108.6642 48.5696 19.4290 0.0000 0.0000 0.0000
# 2 48.5696 114.9467 20.5303 0.0000 0.0000 0.0000
# 3 19.4290 20.5303 59.1185 0.0000 0.0000 0.0000
# 4 0.0000 0.0000 0.0000 10.7084 0.0000 0.0000
# 5 0.0000 0.0000 0.0000 0.0000 20.0986 0.0000
# 6 0.0000 0.0000 0.0000 0.0000 0.0000 22.8824
#
#
#
# Elastic Compliance Matrix: (Units=1/GPa)
#
#
# Indices 1 2 3 4 5 6 
#
# 1 0.011620 -0.004508 -0.002254 0.000000 0.000000 0.000000
# 2 -0.004508 0.011023 -0.002347 0.000000 0.000000 0.000000
# 3 -0.002254 -0.002347 0.018471 0.000000 0.000000 0.000000
# 4 0.000000 0.000000 0.000000 0.093384 0.000000 0.000000
# 5 0.000000 0.000000 0.000000 0.000000 0.049755 0.000000
# 6 0.000000 0.000000 0.000000 0.000000 0.000000 0.043702
#
#
# Mechanical properties :
#
#
# Convention : Reuss Voigt Hill
#
# Bulk Modulus (GPa) = 43.67056 51.08747 47.37901
# Shear Modulus (GPa) = 19.70024 23.68460 21.69242
#
# Velocity S-wave (km/s) = 3.25208 3.56582 3.41256
# Velocity P-wave (km/s) = 6.12747 6.66180 6.40021
#
# Compressibility (1/GPa) = 0.02289872
#
# Stress axis : x y z
#
# Youngs Moduli (GPa) = 86.05602 90.71571 54.13950
#
# Poissons Ratio (x) = 0.40891 0.12201
# Poissons Ratio (y) = 0.38790 0.12705
# Poissons Ratio (z) = 0.19394 0.21289
#
# Static dielectric constant tensor:
#      x y z
#    x 3.377830 0.000000 0.000000 
#    y 0.000000 3.722580 0.000000 
#    z 0.000000 0.000000 3.463220 
# 
# 
# High freq. dielectric constant tensor:
#      x y z
#    x 1.725500 0.000000 0.000000 
#    y 0.000000 1.739530 0.000000 
#    z 0.000000 0.000000 1.717390 
# 
# From -- ./inp_files/4802.got.cif
#   From: 2010.03.12/outbox.cif.g09.slc.cpg/sg38_3_cif.got.tgz:4802.got - 2010.04.14 02:38:36.
