data_PCOD8178611
_publ_section_title
;
Structure prediction by ZEFSAII (Michael W. Deem and Ramdas Pophale) SiO2 
 PCOD8178611
Probable space group: A M M 2
;
_chemical_formula_sum "Si O2"
_cell_formula_units_Z 32
_cell_length_a 10.478032
_cell_length_b 8.754387
_cell_length_c 18.797535
_cell_angle_alpha 90.000000
_cell_angle_beta 90.000000
_cell_angle_gamma 90.000000
_cell_volume 1724.274335
_symmetry_space_group_name_H-M "A M M 2"
_symmetry_group_IT_number 38
_symmetry_cell_setting 'orthorhombic'
loop_
_space_group_symop_operation_xyz
x,y,z
-x,-y,z
-x,y,z
x,-y,z
x,1/2+y,1/2+z
-x,1/2-y,1/2+z
-x,1/2+y,1/2+z
x,1/2-y,1/2+z
loop_
_atom_site_type_symbol
_atom_site_label
_atom_site_fract_x
_atom_site_fract_y
_atom_site_fract_z
Si Si1 0.000000 0.320740 0.003560
Si Si2 0.500000 0.326956 0.262932
Si Si3 0.227109 0.318318 0.901141
Si Si4 0.500000 0.174533 0.407013
Si Si5 0.780819 0.175699 0.747084
Si Si6 0.000000 0.679073 0.656566
O O1 0.000000 0.500000 0.021073
O O2 0.000000 0.226083 0.074980
O O3 0.877306 0.271443 0.958354
O O4 0.500000 0.500000 0.295697
O O5 0.500000 0.196831 0.322296
O O6 0.367050 0.304908 0.219735
O O7 0.229457 0.500000 0.887846
O O8 0.363983 0.257512 0.933492
O O9 0.197717 0.239389 0.826243
O O10 0.500000 0.000000 0.428482
O O11 0.871333 0.261190 0.692479
O O12 0.821344 0.000000 0.747620
O O13 0.000000 0.500000 0.663611
#
# Coordination Sequence:
#
# PCOD8178611 Si02
#       6
#     4   4   8   4   8   4
#     4  10  21  36  51  69  99 137 175 214 255 300
#     4   8  16  30  51  80 107 131 163 207 255 304
#     4   9  17  31  53  79 105 133 167 207 252 304
#     4   8  14  26  47  76 105 131 161 201 249 300
#     4  10  19  34  57  82 107 135 170 211 257 308
#     4  12  25  38  51  71 103 141 181 220 259 304
#
# _framework density 18.558530999999999
#
# number of rings (size 3 to 8) (size 9 to 14) (size 15 to 20)
#    0.000    2.500    0.000    2.625    0.000    3.000 
#    0.000    1.250    0.000    4.500    0.000    0.000 
#    0.000    0.000    0.000    0.000    0.000    0.000 
#
# Total GULP energy -198209.823902 kJ/mol
# GULP energy per Si atom -12388.113994 kJ/mol
# Density = 1.851629 g / cm^3
# Si number density = 18.558531 Si / 1000 Ang^3
#
#
#
# Elastic Constant Matrix: (Units=GPa)
#
#
# Indices 1 2 3 4 5 6 
#
# 1 195.2677 53.7421 80.4454 0.0000 0.0000 0.0000
# 2 53.7421 80.5456 46.2200 0.0000 0.0000 0.0000
# 3 80.4454 46.2200 96.2925 0.0000 0.0000 0.0000
# 4 0.0000 0.0000 0.0000 28.6404 0.0000 0.0000
# 5 0.0000 0.0000 0.0000 0.0000 -2.6978 0.0000
# 6 0.0000 0.0000 0.0000 0.0000 0.0000 26.7723
#
#
#
# Elastic Compliance Matrix: (Units=1/GPa)
#
#
# Indices 1 2 3 4 5 6 
#
# 1 0.008055 -0.002088 -0.005727 0.000000 0.000000 0.000000
# 2 -0.002088 0.017676 -0.006740 0.000000 0.000000 0.000000
# 3 -0.005727 -0.006740 0.018405 0.000000 0.000000 0.000000
# 4 0.000000 0.000000 0.000000 0.034916 0.000000 0.000000
# 5 0.000000 0.000000 0.000000 0.000000 -0.370667 0.000000
# 6 0.000000 0.000000 0.000000 0.000000 0.000000 0.037352
#
#
# Mechanical properties :
#
#
# Convention : Reuss Voigt Hill
#
# Bulk Modulus (GPa) = 66.55338 81.43566 73.99452
# Shear Modulus (GPa) = -22.71250 23.32285 0.30518
#
# Velocity S-wave (km/s) = -3.50212 3.54887 0.40595
# Velocity P-wave (km/s) = 4.42561 7.79540 6.33855
#
# Compressibility (1/GPa) = 0.01502553
#
# Stress axis : x y z
#
# Youngs Moduli (GPa) = 124.13963 56.57291 54.33292
#
# Poissons Ratio (x) = 0.11814 0.31119
# Poissons Ratio (y) = 0.25923 0.36620
# Poissons Ratio (z) = 0.71100 0.38130
#
# Static dielectric constant tensor:
#      x y z
#    x 4.200150 0.000000 0.000000 
#    y 0.000000 3.409720 0.000000 
#    z 0.000000 0.000000 2.990040 
# 
# 
# High freq. dielectric constant tensor:
#      x y z
#    x 1.755550 0.000000 0.000000 
#    y 0.000000 1.716680 0.000000 
#    z 0.000000 0.000000 1.671300 
# 
# From -- ./inp_files/13329.got.cif
#   From: 2010.03.12/outbox.cif.g09.slc.cpg/sg38_7_cif.got.tgz:13329.got - 2010.04.14 02:38:36.
