data_PCOD8178074
_publ_section_title
;
Structure prediction by ZEFSAII (Michael W. Deem and Ramdas Pophale) SiO2 
 PCOD8178074
Probable space group: A M M 2
;
_chemical_formula_sum "Si O2"
_cell_formula_units_Z 64
_cell_length_a 8.780026
_cell_length_b 23.152036
_cell_length_c 19.103247
_cell_angle_alpha 90.000000
_cell_angle_beta 90.000000
_cell_angle_gamma 90.000000
_cell_volume 3883.221666
_symmetry_space_group_name_H-M "A M M 2"
_symmetry_group_IT_number 38
_symmetry_cell_setting 'orthorhombic'
loop_
_space_group_symop_operation_xyz
x,y,z
-x,-y,z
-x,y,z
x,-y,z
x,1/2+y,1/2+z
-x,1/2-y,1/2+z
-x,1/2+y,1/2+z
x,1/2-y,1/2+z
loop_
_atom_site_type_symbol
_atom_site_label
_atom_site_fract_x
_atom_site_fract_y
_atom_site_fract_z
Si Si1 0.819754 0.158237 0.502250
Si Si2 0.323426 0.128106 0.737004
Si Si3 0.820513 0.750838 0.240992
Si Si4 0.678605 0.434117 0.093973
Si Si5 0.676752 0.934271 0.880208
Si Si6 0.821434 0.233183 0.087998
Si Si7 0.320324 0.276798 0.880705
Si Si8 0.821381 0.831711 0.954397
O O1 0.764555 0.096547 0.529850
O O2 0.756205 0.207473 0.555087
O O3 0.750081 0.171324 0.426112
O O4 0.000000 0.159590 0.495299
O O5 0.500000 0.147473 0.735321
O O6 0.216433 0.183169 0.745457
O O7 0.275054 0.094495 0.667281
O O8 0.291232 0.085207 0.801108
O O9 0.758237 0.775921 0.166494
O O10 0.733212 0.786174 0.300969
O O11 0.000000 0.759644 0.250574
O O12 0.500000 0.429199 0.080799
O O13 0.733428 0.500000 0.095291
O O14 0.500000 0.927949 0.898823
O O15 0.771049 0.896166 0.935507
O O16 0.732257 0.000000 0.888390
O O17 0.000000 0.241421 0.094536
O O18 0.779988 0.180160 0.036202
O O19 0.500000 0.279180 0.885594
O O20 0.264931 0.213754 0.905320
O O21 0.000000 0.822888 0.941549
#
# Coordination Sequence:
#
# PCOD8178074 Si02
#       8
#     8   8   8   8   8   8   8   8
#     4  10  19  34  51  71  96 129 169 209 249 292
#     4  10  19  31  46  68 100 137 174 206 237 283
#     4  11  19  31  50  73  99 131 163 202 249 298
#     4  10  20  33  49  71 101 138 175 209 247 291
#     4  10  20  33  48  68  98 136 172 205 241 283
#     4   8  17  31  48  69  96 124 156 200 250 291
#     4  11  21  33  49  72  99 128 161 203 254 304
#     4  10  19  33  50  71  96 127 165 206 245 289
#
# _framework density 16.481159999999999
#
# number of rings (size 3 to 8) (size 9 to 14) (size 15 to 20)
#    0.000    2.000    2.500    3.375    0.000    2.000 
#    0.000    1.875    0.000    2.250    0.000    0.875 
#    0.000    5.000    0.000    0.000    0.000    0.000 
#
# Total GULP energy -396809.844606 kJ/mol
# GULP energy per Si atom -12400.307644 kJ/mol
# Density = 1.644365 g / cm^3
# Si number density = 16.481160 Si / 1000 Ang^3
#
#
#
# Elastic Constant Matrix: (Units=GPa)
#
#
# Indices 1 2 3 4 5 6 
#
# 1 65.5506 27.9637 39.3469 0.0000 0.0000 0.0000
# 2 27.9637 70.4904 48.9042 0.0000 0.0000 0.0000
# 3 39.3469 48.9042 128.1721 0.0000 0.0000 0.0000
# 4 0.0000 0.0000 0.0000 25.9561 0.0000 0.0000
# 5 0.0000 0.0000 0.0000 0.0000 23.3607 0.0000
# 6 0.0000 0.0000 0.0000 0.0000 0.0000 20.6703
#
#
#
# Elastic Compliance Matrix: (Units=1/GPa)
#
#
# Indices 1 2 3 4 5 6 
#
# 1 0.019906 -0.004974 -0.004213 0.000000 0.000000 0.000000
# 2 -0.004974 0.020536 -0.006309 0.000000 0.000000 0.000000
# 3 -0.004213 -0.006309 0.011502 0.000000 0.000000 0.000000
# 4 0.000000 0.000000 0.000000 0.038527 0.000000 0.000000
# 5 0.000000 0.000000 0.000000 0.000000 0.042807 0.000000
# 6 0.000000 0.000000 0.000000 0.000000 0.000000 0.048379
#
#
# Mechanical properties :
#
#
# Convention : Reuss Voigt Hill
#
# Bulk Modulus (GPa) = 47.72478 55.18252 51.45365
# Shear Modulus (GPa) = 22.76525 23.86397 23.31461
#
# Velocity S-wave (km/s) = 3.72060 3.80933 3.76523
# Velocity P-wave (km/s) = 6.89037 7.27343 7.08449
#
# Compressibility (1/GPa) = 0.02095347
#
# Stress axis : x y z
#
# Youngs Moduli (GPa) = 50.23568 48.69426 86.93786
#
# Poissons Ratio (x) = 0.24220 0.36628
# Poissons Ratio (y) = 0.24987 0.54847
# Poissons Ratio (z) = 0.21165 0.30720
#
# Static dielectric constant tensor:
#      x y z
#    x 3.019930 0.000000 0.000000 
#    y 0.000000 2.931550 0.000000 
#    z 0.000000 0.000000 3.390820 
# 
# 
# High freq. dielectric constant tensor:
#      x y z
#    x 1.633140 0.000000 0.000000 
#    y 0.000000 1.602710 0.000000 
#    z 0.000000 0.000000 1.637340 
# 
# From -- ./inp_files/17310.got.cif
#   From: 2010.03.12/outbox.cif.g09.slc.cpg/sg38_9_cif.got.tgz:17310.got - 2010.04.14 02:38:36.
