data_PCOD8178509
_publ_section_title
;
Structure prediction by ZEFSAII (Michael W. Deem and Ramdas Pophale) SiO2 
 PCOD8178509
Probable space group: A M M 2
;
_chemical_formula_sum "Si O2"
_cell_formula_units_Z 64
_cell_length_a 19.295910
_cell_length_b 8.846762
_cell_length_c 20.125101
_cell_angle_alpha 90.000000
_cell_angle_beta 90.000000
_cell_angle_gamma 90.000000
_cell_volume 3435.481999
_symmetry_space_group_name_H-M "A M M 2"
_symmetry_group_IT_number 38
_symmetry_cell_setting 'orthorhombic'
loop_
_space_group_symop_operation_xyz
x,y,z
-x,-y,z
-x,y,z
x,-y,z
x,1/2+y,1/2+z
-x,1/2-y,1/2+z
-x,1/2+y,1/2+z
x,1/2-y,1/2+z
loop_
_atom_site_type_symbol
_atom_site_label
_atom_site_fract_x
_atom_site_fract_y
_atom_site_fract_z
Si Si1 0.578239 0.675805 0.567590
Si Si2 0.709745 0.674157 0.110515
Si Si3 0.924483 0.820727 0.545054
Si Si4 0.284631 0.321231 0.354210
Si Si5 0.922033 0.322651 0.195324
Si Si6 0.213424 0.321868 0.729992
Si Si7 0.211397 0.324625 0.975339
Si Si8 0.575368 0.320609 0.417248
O O1 0.500000 0.702666 0.593479
O O2 0.598113 0.500000 0.571371
O O3 0.630520 0.768576 0.614558
O O4 0.585524 0.737863 0.492421
O O5 0.713718 0.500000 0.132044
O O6 0.758308 0.768889 0.159072
O O7 0.736060 0.699632 0.035858
O O8 0.914134 0.761289 0.620023
O O9 0.864333 0.761797 0.496649
O O10 0.000000 0.768429 0.517921
O O11 0.920409 0.000000 0.549161
O O12 0.282680 0.500000 0.345267
O O13 0.262836 0.243964 0.286372
O O14 0.233469 0.275785 0.413384
O O15 0.362416 0.261445 0.370874
O O16 0.906301 0.500000 0.199356
O O17 0.865535 0.236017 0.240136
O O18 0.000000 0.288049 0.221361
O O19 0.214367 0.500000 0.734909
O O20 0.208584 0.500000 0.954029
O O21 0.500000 0.264409 0.390169
O O22 0.576185 0.500000 0.419757
#
# Coordination Sequence:
#
# PCOD8178509 Si02
#       8
#     8   8   8   8   8   8   8   8
#     4   9  17  32  55  84 116 147 184 231 284 337
#     4  11  21  35  57  84 114 146 188 234 281 336
#     4   8  14  28  53  82 110 141 177 222 276 328
#     4  11  22  37  58  81 111 149 191 232 283 342
#     4   9  17  34  60  86 112 144 185 231 282 338
#     4  12  25  39  56  80 116 154 194 236 282 336
#     4  10  19  33  55  83 113 141 179 229 279 335
#     4   8  15  30  54  82 108 137 178 228 280 336
#
# _framework density 18.629117000000001
#
# number of rings (size 3 to 8) (size 9 to 14) (size 15 to 20)
#    0.000    2.250    2.500    3.375    0.000    1.000 
#    0.000    1.250    0.000    6.375    0.000    0.000 
#    0.000    0.000    0.000    0.000    0.000    0.000 
#
# Total GULP energy -396719.747704 kJ/mol
# GULP energy per Si atom -12397.492116 kJ/mol
# Density = 1.858672 g / cm^3
# Si number density = 18.629117 Si / 1000 Ang^3
#
#
#
# Elastic Constant Matrix: (Units=GPa)
#
#
# Indices 1 2 3 4 5 6 
#
# 1 145.4950 36.2809 25.1384 0.0000 0.0000 0.0000
# 2 36.2809 67.2039 19.9136 0.0000 0.0000 0.0000
# 3 25.1384 19.9136 40.3125 0.0000 0.0000 0.0000
# 4 0.0000 0.0000 0.0000 26.2210 0.0000 0.0000
# 5 0.0000 0.0000 0.0000 0.0000 28.4586 0.0000
# 6 0.0000 0.0000 0.0000 0.0000 0.0000 26.7264
#
#
#
# Elastic Compliance Matrix: (Units=1/GPa)
#
#
# Indices 1 2 3 4 5 6 
#
# 1 0.008341 -0.003470 -0.003487 0.000000 0.000000 0.000000
# 2 -0.003470 0.018875 -0.007160 0.000000 0.000000 0.000000
# 3 -0.003487 -0.007160 0.030518 0.000000 0.000000 0.000000
# 4 0.000000 0.000000 0.000000 0.038137 0.000000 0.000000
# 5 0.000000 0.000000 0.000000 0.000000 0.035139 0.000000
# 6 0.000000 0.000000 0.000000 0.000000 0.000000 0.037416
#
#
# Mechanical properties :
#
#
# Convention : Reuss Voigt Hill
#
# Bulk Modulus (GPa) = 33.89913 46.18634 40.04274
# Shear Modulus (GPa) = 24.21387 27.72644 25.97015
#
# Velocity S-wave (km/s) = 3.60917 3.86208 3.73777
# Velocity P-wave (km/s) = 5.96695 6.68835 6.33792
#
# Compressibility (1/GPa) = 0.02949928
#
# Stress axis : x y z
#
# Youngs Moduli (GPa) = 119.89271 52.98048 32.76766
#
# Poissons Ratio (x) = 0.18382 0.11427
# Poissons Ratio (y) = 0.41597 0.23463
# Poissons Ratio (z) = 0.41810 0.37936
#
# Static dielectric constant tensor:
#      x y z
#    x 3.925040 0.000000 0.000000 
#    y 0.000000 3.137040 0.000000 
#    z 0.000000 0.000000 3.144430 
# 
# 
# High freq. dielectric constant tensor:
#      x y z
#    x 1.744890 0.000000 0.000000 
#    y 0.000000 1.698220 0.000000 
#    z 0.000000 0.000000 1.689930 
# 
# From -- ./inp_files/18883.got.cif
#   From: 2010.03.12/outbox.cif.g09.slc.cpg/sg38_10_cif.got.tgz:18883.got - 2010.04.14 02:38:36.
