data_PCOD8178625
_publ_section_title
;
Structure prediction by ZEFSAII (Michael W. Deem and Ramdas Pophale) SiO2 
 PCOD8178625
Probable space group: A M M 2
;
_chemical_formula_sum "Si O2"
_cell_formula_units_Z 64
_cell_length_a 14.396239
_cell_length_b 9.702085
_cell_length_c 23.645841
_cell_angle_alpha 90.000000
_cell_angle_beta 90.000000
_cell_angle_gamma 90.000000
_cell_volume 3302.698188
_symmetry_space_group_name_H-M "A M M 2"
_symmetry_group_IT_number 38
_symmetry_cell_setting 'orthorhombic'
loop_
_space_group_symop_operation_xyz
x,y,z
-x,-y,z
-x,y,z
x,-y,z
x,1/2+y,1/2+z
-x,1/2-y,1/2+z
-x,1/2+y,1/2+z
x,1/2-y,1/2+z
loop_
_atom_site_type_symbol
_atom_site_label
_atom_site_fract_x
_atom_site_fract_y
_atom_site_fract_z
Si Si1 0.230324 0.341181 0.373130
Si Si2 0.396075 0.733695 0.068602
Si Si3 0.197829 0.347062 0.068602
Si Si4 0.769676 0.158819 0.264075
Si Si5 0.892427 0.657055 0.660282
Si Si6 0.892426 0.842945 0.976923
Si Si7 0.399699 0.659417 0.691063
Si Si8 0.399699 0.659417 0.446142
O O1 0.246932 0.500000 0.355383
O O2 0.212531 0.250000 0.318602
O O3 0.139295 0.328839 0.412133
O O4 0.317999 0.276732 0.407821
O O5 0.500000 0.663727 0.068602
O O6 0.309708 0.628470 0.068602
O O7 0.382885 0.826297 0.124210
O O8 0.382885 0.826297 0.012995
O O9 0.153143 0.500000 0.068602
O O10 0.166211 0.263203 0.123389
O O11 0.166211 0.263203 0.013816
O O12 0.860705 0.171161 0.225072
O O13 0.682001 0.223268 0.229384
O O14 0.753068 0.000000 0.281822
O O15 0.874528 0.500000 0.639247
O O16 0.000000 0.695863 0.655486
O O17 0.000000 0.804138 0.981719
O O18 0.874528 0.000000 0.997957
O O19 0.500000 0.725988 0.707664
O O20 0.400929 0.500000 0.705017
O O21 0.500000 0.725988 0.429541
O O22 0.400929 0.500000 0.432187
#
# Coordination Sequence:
#
# PCOD8178625 Si02
#       8
#     8   8   8   8   8   8   8   8
#     4  10  21  37  57  82 113 149 193 239 284 336
#     4  10  19  34  57  85 117 151 187 227 280 342
#     4  12  24  37  59  91 124 151 181 230 289 344
#     4  10  21  37  57  82 113 149 193 239 284 336
#     4  10  22  41  63  85 112 151 195 237 285 343
#     4  10  22  41  63  85 112 151 195 237 285 343
#     4   9  17  31  55  85 113 145 189 237 282 336
#     4   9  17  31  55  85 113 145 189 237 282 336
#
# _framework density 19.378094999999998
#
# number of rings (size 3 to 8) (size 9 to 14) (size 15 to 20)
#    0.000    2.000    2.500    1.125    0.000    6.750 
#    0.000    0.000    0.000    0.000    0.000    0.000 
#    0.000    0.000    0.000    0.000    0.000    0.000 
#
# Total GULP energy -396549.484445 kJ/mol
# GULP energy per Si atom -12392.171389 kJ/mol
# Density = 1.933399 g / cm^3
# Si number density = 19.378095 Si / 1000 Ang^3
#
#
#
# Elastic Constant Matrix: (Units=GPa)
#
#
# Indices 1 2 3 4 5 6 
#
# 1 127.6515 44.9693 39.3431 0.0000 0.0000 0.0000
# 2 44.9693 85.2860 52.3235 0.0000 0.0000 0.0000
# 3 39.3431 52.3235 108.2388 0.0000 0.0000 0.0000
# 4 0.0000 0.0000 0.0000 27.4029 0.0000 0.0000
# 5 0.0000 0.0000 0.0000 0.0000 21.0221 0.0000
# 6 0.0000 0.0000 0.0000 0.0000 0.0000 12.7362
#
#
#
# Elastic Compliance Matrix: (Units=1/GPa)
#
#
# Indices 1 2 3 4 5 6 
#
# 1 0.009792 -0.004236 -0.001512 0.000000 0.000000 0.000000
# 2 -0.004236 0.018501 -0.007404 0.000000 0.000000 0.000000
# 3 -0.001512 -0.007404 0.013367 0.000000 0.000000 0.000000
# 4 0.000000 0.000000 0.000000 0.036492 0.000000 0.000000
# 5 0.000000 0.000000 0.000000 0.000000 0.047569 0.000000
# 6 0.000000 0.000000 0.000000 0.000000 0.000000 0.078516
#
#
# Mechanical properties :
#
#
# Convention : Reuss Voigt Hill
#
# Bulk Modulus (GPa) = 65.11337 66.04980 65.58159
# Shear Modulus (GPa) = 21.21705 24.53494 22.87600
#
# Velocity S-wave (km/s) = 3.31252 3.56211 3.43958
# Velocity P-wave (km/s) = 6.95017 7.14682 7.04918
#
# Compressibility (1/GPa) = 0.01535783
#
# Stress axis : x y z
#
# Youngs Moduli (GPa) = 102.12564 54.05135 74.80880
#
# Poissons Ratio (x) = 0.22894 0.11309
# Poissons Ratio (y) = 0.43256 0.55388
# Poissons Ratio (z) = 0.15438 0.40019
#
# Static dielectric constant tensor:
#      x y z
#    x 4.048360 0.000000 0.000000 
#    y 0.000000 3.150440 0.000000 
#    z 0.000000 0.000000 3.369460 
# 
# 
# High freq. dielectric constant tensor:
#      x y z
#    x 1.774230 0.000000 0.000000 
#    y 0.000000 1.718290 0.000000 
#    z 0.000000 0.000000 1.745630 
# 
# From -- ./inp_files/22935.got.cif
#   From: 2010.03.12/outbox.cif.g09.slc.cpg/sg38_12_cif.got.tgz:22935.got - 2010.04.14 02:38:36.
