data_PCOD8178443
_publ_section_title
;
Structure prediction by ZEFSAII (Michael W. Deem and Ramdas Pophale) SiO2 
 PCOD8178443
Probable space group: A M M 2
;
_chemical_formula_sum "Si O2"
_cell_formula_units_Z 48
_cell_length_a 8.859305
_cell_length_b 16.589857
_cell_length_c 18.564908
_cell_angle_alpha 90.000000
_cell_angle_beta 90.000000
_cell_angle_gamma 90.000000
_cell_volume 2728.569984
_symmetry_space_group_name_H-M "A M M 2"
_symmetry_group_IT_number 38
_symmetry_cell_setting 'orthorhombic'
loop_
_space_group_symop_operation_xyz
x,y,z
-x,-y,z
-x,y,z
x,-y,z
x,1/2+y,1/2+z
-x,1/2-y,1/2+z
-x,1/2+y,1/2+z
x,1/2-y,1/2+z
loop_
_atom_site_type_symbol
_atom_site_label
_atom_site_fract_x
_atom_site_fract_y
_atom_site_fract_z
Si Si1 0.825101 0.327516 0.868600
Si Si2 0.677333 0.189896 0.947488
Si Si3 0.178969 0.000000 0.332071
Si Si4 0.823736 0.768767 0.724856
Si Si5 0.679770 0.839904 0.108724
Si Si6 0.321153 0.592684 0.309860
Si Si7 0.819877 0.000000 0.170771
O O1 0.733993 0.278796 0.928007
O O2 0.766836 0.419763 0.873376
O O3 0.793552 0.294988 0.788423
O O4 0.000000 0.320012 0.887692
O O5 0.500000 0.191380 0.946996
O O6 0.734825 0.125178 0.888024
O O7 0.736071 0.168967 0.026593
O O8 0.243684 0.000000 0.251643
O O9 0.000000 0.000000 0.325644
O O10 0.738433 0.736431 0.654294
O O11 0.758082 0.856059 0.746759
O O12 0.000000 0.777585 0.707641
O O13 0.500000 0.845439 0.115328
O O14 0.756281 0.921517 0.133185
O O15 0.500000 0.602346 0.301948
O O16 0.270601 0.500000 0.302463
O O17 0.000000 0.000000 0.166826
#
# Coordination Sequence:
#
# PCOD8178443 Si02
#       7
#     8   8   4   8   8   8   4
#     4   9  17  32  53  75 102 137 173 210 257 309
#     4   9  20  35  52  75 107 139 171 213 259 310
#     4   9  16  31  53  77 105 132 163 210 259 305
#     4  10  19  33  54  77 105 139 176 218 261 309
#     4  11  22  35  53  78 110 143 177 212 258 317
#     4   9  18  34  56  78 103 137 175 217 266 313
#     4  11  21  35  53  79 113 140 169 212 265 311
#
# _framework density 17.591631
#
# number of rings (size 3 to 8) (size 9 to 14) (size 15 to 20)
#    0.000    2.333    1.667    1.250    1.167    2.333 
#    0.000    0.417    1.833    0.000    0.000    0.000 
#    0.000    0.000    0.000    0.000    0.000    0.000 
#
# Total GULP energy -297582.977563 kJ/mol
# GULP energy per Si atom -12399.290732 kJ/mol
# Density = 1.755159 g / cm^3
# Si number density = 17.591631 Si / 1000 Ang^3
#
#
#
# Elastic Constant Matrix: (Units=GPa)
#
#
# Indices 1 2 3 4 5 6 
#
# 1 29.8669 22.1939 34.7098 0.0000 0.0000 0.0000
# 2 22.1939 149.4208 60.0165 0.0000 0.0000 0.0000
# 3 34.7098 60.0165 93.9594 0.0000 0.0000 0.0000
# 4 0.0000 0.0000 0.0000 16.9096 0.0000 0.0000
# 5 0.0000 0.0000 0.0000 0.0000 22.7478 0.0000
# 6 0.0000 0.0000 0.0000 0.0000 0.0000 41.9888
#
#
#
# Elastic Compliance Matrix: (Units=1/GPa)
#
#
# Indices 1 2 3 4 5 6 
#
# 1 0.058669 -0.000012 -0.021665 0.000000 0.000000 0.000000
# 2 -0.000012 0.009002 -0.005746 0.000000 0.000000 0.000000
# 3 -0.021665 -0.005746 0.022316 0.000000 0.000000 0.000000
# 4 0.000000 0.000000 0.000000 0.059138 0.000000 0.000000
# 5 0.000000 0.000000 0.000000 0.000000 0.043960 0.000000
# 6 0.000000 0.000000 0.000000 0.000000 0.000000 0.023816
#
#
# Mechanical properties :
#
#
# Convention : Reuss Voigt Hill
#
# Bulk Modulus (GPa) = 28.45640 56.34304 42.39972
# Shear Modulus (GPa) = 17.63903 26.75102 22.19502
#
# Velocity S-wave (km/s) = 3.16997 3.90380 3.55587
# Velocity P-wave (km/s) = 5.44146 7.23999 6.40418
#
# Compressibility (1/GPa) = 0.03514148
#
# Stress axis : x y z
#
# Youngs Moduli (GPa) = 17.04466 111.08527 44.81018
#
# Poissons Ratio (x) = 0.00135 0.97083
# Poissons Ratio (y) = 0.00021 0.25746
# Poissons Ratio (z) = 0.36928 0.63825
#
# Static dielectric constant tensor:
#      x y z
#    x 3.173240 0.000000 0.000000 
#    y 0.000000 3.424050 0.000000 
#    z 0.000000 0.000000 3.336290 
# 
# 
# High freq. dielectric constant tensor:
#      x y z
#    x 1.674710 0.000000 0.000000 
#    y 0.000000 1.686160 0.000000 
#    z 0.000000 0.000000 1.665020 
# 
# From -- ./inp_files/12154.got.cif
#   From: 2010.03.12/outbox.cif.g09.slc.cpg/sg38_7_cif.got.tgz:12154.got - 2010.04.14 02:38:36.
