data_PCOD8178637
_publ_section_title
;
Structure prediction by ZEFSAII (Michael W. Deem and Ramdas Pophale) SiO2 
 PCOD8178637
Probable space group: A M M 2
;
_chemical_formula_sum "Si O2"
_cell_formula_units_Z 64
_cell_length_a 23.948347
_cell_length_b 8.720367
_cell_length_c 15.425967
_cell_angle_alpha 90.000000
_cell_angle_beta 90.000000
_cell_angle_gamma 90.000000
_cell_volume 3221.533879
_symmetry_space_group_name_H-M "A M M 2"
_symmetry_group_IT_number 38
_symmetry_cell_setting 'orthorhombic'
loop_
_space_group_symop_operation_xyz
x,y,z
-x,-y,z
-x,y,z
x,-y,z
x,1/2+y,1/2+z
-x,1/2-y,1/2+z
-x,1/2+y,1/2+z
x,1/2-y,1/2+z
loop_
_atom_site_type_symbol
_atom_site_label
_atom_site_fract_x
_atom_site_fract_y
_atom_site_fract_z
Si Si1 0.636137 0.317931 0.594670
Si Si2 0.863265 0.676177 0.845823
Si Si3 0.365035 0.677113 0.400573
Si Si4 0.240248 0.676757 0.416745
Si Si5 0.435220 0.680134 0.241588
Si Si6 0.753746 0.680134 0.099670
Si Si7 0.864663 0.675875 0.652931
Si Si8 0.062468 0.181501 0.504023
O O1 0.641876 0.500000 0.593758
O O2 0.623965 0.254830 0.496980
O O3 0.586020 0.265252 0.655815
O O4 0.694363 0.248846 0.628998
O O5 0.847594 0.500000 0.865311
O O6 0.807108 0.777538 0.848727
O O7 0.889516 0.692593 0.750030
O O8 0.907221 0.739293 0.916462
O O9 0.380711 0.500000 0.404432
O O10 0.300680 0.704490 0.373438
O O11 0.404088 0.750998 0.326293
O O12 0.234640 0.500000 0.445804
O O13 0.232731 0.784017 0.499958
O O14 0.500000 0.716525 0.252719
O O15 0.423230 0.500000 0.230968
O O16 0.753063 0.500000 0.116117
O O17 0.802533 0.755239 0.156257
O O18 0.861903 0.500000 0.623146
O O19 0.904768 0.765432 0.588543
O O20 0.000000 0.250840 0.505320
O O21 0.060078 0.000000 0.504907
#
# Coordination Sequence:
#
# PCOD8178637 Si02
#       8
#     8   8   8   8   8   8   8   8
#     4  10  21  38  59  86 117 152 196 247 299 350
#     4  10  22  38  58  87 121 157 195 240 298 356
#     4   8  18  36  56  81 113 152 193 234 288 348
#     4  10  19  34  58  87 120 154 196 245 294 354
#     4  10  21  38  59  84 115 154 199 241 287 354
#     4  11  21  36  59  86 121 160 197 240 304 362
#     4  11  23  38  59  91 123 155 201 248 296 351
#     4  10  22  42  64  85 116 160 203 244 294 355
#
# _framework density 19.866313000000002
#
# number of rings (size 3 to 8) (size 9 to 14) (size 15 to 20)
#    0.000    2.000    1.250    3.000    1.750    2.500 
#    0.000    5.625    0.000    0.000    0.000    0.000 
#    0.000    0.000    0.000    0.000    0.000    0.000 
#
# Total GULP energy -396818.709244 kJ/mol
# GULP energy per Si atom -12400.584664 kJ/mol
# Density = 1.982110 g / cm^3
# Si number density = 19.866313 Si / 1000 Ang^3
#
#
#
# Elastic Constant Matrix: (Units=GPa)
#
#
# Indices 1 2 3 4 5 6 
#
# 1 120.0567 15.0414 59.8327 0.0000 0.0000 0.0000
# 2 15.0414 22.1475 8.3896 0.0000 0.0000 0.0000
# 3 59.8327 8.3896 112.6207 0.0000 0.0000 0.0000
# 4 0.0000 0.0000 0.0000 25.8234 0.0000 0.0000
# 5 0.0000 0.0000 0.0000 0.0000 23.9682 0.0000
# 6 0.0000 0.0000 0.0000 0.0000 0.0000 26.3929
#
#
#
# Elastic Compliance Matrix: (Units=1/GPa)
#
#
# Indices 1 2 3 4 5 6 
#
# 1 0.012039 -0.005920 -0.005955 0.000000 0.000000 0.000000
# 2 -0.005920 0.049374 -0.000533 0.000000 0.000000 0.000000
# 3 -0.005955 -0.000533 0.012083 0.000000 0.000000 0.000000
# 4 0.000000 0.000000 0.000000 0.038725 0.000000 0.000000
# 5 0.000000 0.000000 0.000000 0.000000 0.041722 0.000000
# 6 0.000000 0.000000 0.000000 0.000000 0.000000 0.037889
#
#
# Mechanical properties :
#
#
# Convention : Reuss Voigt Hill
#
# Bulk Modulus (GPa) = 20.54236 46.81693 33.67965
# Shear Modulus (GPa) = 21.47080 26.67431 24.07255
#
# Velocity S-wave (km/s) = 3.29106 3.66825 3.48476
# Velocity P-wave (km/s) = 4.98038 6.44659 5.76033
#
# Compressibility (1/GPa) = 0.04867989
#
# Stress axis : x y z
#
# Youngs Moduli (GPa) = 83.06389 20.25341 82.76244
#
# Poissons Ratio (x) = 0.11991 0.49285
# Poissons Ratio (y) = 0.49177 0.04409
# Poissons Ratio (z) = 0.49464 0.01079
#
# Static dielectric constant tensor:
#      x y z
#    x 3.679090 0.000000 0.000000 
#    y 0.000000 3.437390 0.000000 
#    z 0.000000 0.000000 3.697320 
# 
# 
# High freq. dielectric constant tensor:
#      x y z
#    x 1.771020 0.000000 0.000000 
#    y 0.000000 1.760010 0.000000 
#    z 0.000000 0.000000 1.779820 
# 
# From -- ./inp_files/15827.got.cif
#   From: 2010.03.12/outbox.cif.g09.slc.cpg/sg38_8_cif.got.tgz:15827.got - 2010.04.14 02:38:36.
