data_PCOD8178845
_publ_section_title
;
Structure prediction by ZEFSAII (Michael W. Deem and Ramdas Pophale) SiO2 
 PCOD8178845
Probable space group: A M M 2
;
_chemical_formula_sum "Si O2"
_cell_formula_units_Z 64
_cell_length_a 8.945337
_cell_length_b 23.470585
_cell_length_c 18.771371
_cell_angle_alpha 90.000000
_cell_angle_beta 90.000000
_cell_angle_gamma 90.000000
_cell_volume 3941.092373
_symmetry_space_group_name_H-M "A M M 2"
_symmetry_group_IT_number 38
_symmetry_cell_setting 'orthorhombic'
loop_
_space_group_symop_operation_xyz
x,y,z
-x,-y,z
-x,y,z
x,-y,z
x,1/2+y,1/2+z
-x,1/2-y,1/2+z
-x,1/2+y,1/2+z
x,1/2-y,1/2+z
loop_
_atom_site_type_symbol
_atom_site_label
_atom_site_fract_x
_atom_site_fract_y
_atom_site_fract_z
Si Si1 0.322236 0.436593 0.143680
Si Si2 0.326956 0.165622 0.550041
Si Si3 0.322634 0.884201 0.790920
Si Si4 0.828941 0.262819 0.940275
Si Si5 0.829336 0.736119 0.283276
Si Si6 0.324260 0.659144 0.514459
Si Si7 0.329440 0.272509 0.649943
Si Si8 0.173230 0.566172 0.430014
O O1 0.500000 0.435371 0.145374
O O2 0.260992 0.500000 0.127752
O O3 0.266671 0.394253 0.081286
O O4 0.263305 0.416109 0.220399
O O5 0.500000 0.162529 0.528006
O O6 0.233071 0.181020 0.479715
O O7 0.302179 0.212662 0.610800
O O8 0.500000 0.886747 0.797558
O O9 0.274151 0.819005 0.787453
O O10 0.253182 0.916489 0.857502
O O11 0.813848 0.272419 0.855753
O O12 0.000000 0.252565 0.963010
O O13 0.734171 0.207449 0.961021
O O14 0.776299 0.776551 0.218709
O O15 0.000000 0.717056 0.271001
O O16 0.500000 0.653335 0.501477
O O17 0.288734 0.676151 0.596052
O O18 0.243689 0.599828 0.496807
O O19 0.500000 0.277347 0.675412
O O20 0.198482 0.500000 0.445431
O O21 0.000000 0.582163 0.423122
#
# Coordination Sequence:
#
# PCOD8178845 Si02
#       8
#     8   8   8   8   8   8   8   8
#     4   9  17  30  48  70  96 127 165 205 241 279
#     4   9  17  31  48  69  94 124 163 203 241 287
#     4  11  20  32  49  69  98 135 173 207 235 279
#     4  10  20  32  47  69  98 128 160 200 247 295
#     4  11  21  31  47  72 100 131 163 198 247 298
#     4  10  20  34  52  72  94 126 167 207 245 289
#     4   9  18  32  49  71  96 123 161 204 245 291
#     4  11  23  36  49  70 102 135 168 206 245 291
#
# _framework density 16.239152000000001
#
# number of rings (size 3 to 8) (size 9 to 14) (size 15 to 20)
#    0.000    2.000    2.500    3.000    0.000    5.500 
#    0.000    0.000    0.000    1.875    0.000    0.875 
#    0.000    3.000    0.000    0.000    0.000    0.000 
#
# Total GULP energy -396824.478015 kJ/mol
# GULP energy per Si atom -12400.764938 kJ/mol
# Density = 1.620219 g / cm^3
# Si number density = 16.239152 Si / 1000 Ang^3
#
#
#
# Elastic Constant Matrix: (Units=GPa)
#
#
# Indices 1 2 3 4 5 6 
#
# 1 86.1987 42.4183 53.5917 0.0000 0.0000 0.0000
# 2 42.4183 99.0263 59.4613 0.0000 0.0000 0.0000
# 3 53.5917 59.4613 102.9902 0.0000 0.0000 0.0000
# 4 0.0000 0.0000 0.0000 24.8504 0.0000 0.0000
# 5 0.0000 0.0000 0.0000 0.0000 23.5637 0.0000
# 6 0.0000 0.0000 0.0000 0.0000 0.0000 20.7096
#
#
#
# Elastic Compliance Matrix: (Units=1/GPa)
#
#
# Indices 1 2 3 4 5 6 
#
# 1 0.017770 -0.003152 -0.007427 0.000000 0.000000 0.000000
# 2 -0.003152 0.016016 -0.007607 0.000000 0.000000 0.000000
# 3 -0.007427 -0.007607 0.017966 0.000000 0.000000 0.000000
# 4 0.000000 0.000000 0.000000 0.040241 0.000000 0.000000
# 5 0.000000 0.000000 0.000000 0.000000 0.042438 0.000000
# 6 0.000000 0.000000 0.000000 0.000000 0.000000 0.048287
#
#
# Mechanical properties :
#
#
# Convention : Reuss Voigt Hill
#
# Bulk Modulus (GPa) = 65.01694 66.57307 65.79500
# Shear Modulus (GPa) = 22.30005 22.67434 22.48719
#
# Velocity S-wave (km/s) = 3.70973 3.74073 3.72526
# Velocity P-wave (km/s) = 7.64680 7.72928 7.68815
#
# Compressibility (1/GPa) = 0.01538061
#
# Stress axis : x y z
#
# Youngs Moduli (GPa) = 56.27580 62.43734 55.66155
#
# Poissons Ratio (x) = 0.19682 0.41337
# Poissons Ratio (y) = 0.17740 0.42339
# Poissons Ratio (z) = 0.41793 0.47493
#
# Static dielectric constant tensor:
#      x y z
#    x 3.102890 0.000000 0.000000 
#    y 0.000000 3.071510 0.000000 
#    z 0.000000 0.000000 3.194700 
# 
# 
# High freq. dielectric constant tensor:
#      x y z
#    x 1.627860 0.000000 0.000000 
#    y 0.000000 1.599080 0.000000 
#    z 0.000000 0.000000 1.618550 
# 
# From -- ./inp_files/17289.got.cif
#   From: 2010.03.12/outbox.cif.g09.slc.cpg/sg38_9_cif.got.tgz:17289.got - 2010.04.14 02:38:36.
