data_PCOD8178804
_publ_section_title
;
Structure prediction by ZEFSAII (Michael W. Deem and Ramdas Pophale) SiO2 
 PCOD8178804
Probable space group: A M M 2
;
_chemical_formula_sum "Si O2"
_cell_formula_units_Z 56
_cell_length_a 15.248186
_cell_length_b 9.304713
_cell_length_c 24.705294
_cell_angle_alpha 90.000000
_cell_angle_beta 90.000000
_cell_angle_gamma 90.000000
_cell_volume 3505.186977
_symmetry_space_group_name_H-M "A M M 2"
_symmetry_group_IT_number 38
_symmetry_cell_setting 'orthorhombic'
loop_
_space_group_symop_operation_xyz
x,y,z
-x,-y,z
-x,y,z
x,-y,z
x,1/2+y,1/2+z
-x,1/2-y,1/2+z
-x,1/2+y,1/2+z
x,1/2-y,1/2+z
loop_
_atom_site_type_symbol
_atom_site_label
_atom_site_fract_x
_atom_site_fract_y
_atom_site_fract_z
Si Si1 0.602302 0.166692 0.858800
Si Si2 0.280752 0.661614 0.937261
Si Si3 0.604152 0.658973 0.756820
Si Si4 0.903409 0.167327 0.056548
Si Si5 0.263319 0.833565 0.565064
Si Si6 0.398087 0.167854 0.136311
Si Si7 0.906546 0.837473 0.448576
O O1 0.500000 0.200270 0.866569
O O2 0.651923 0.229600 0.910445
O O3 0.639299 0.234650 0.803171
O O4 0.622194 0.000000 0.855687
O O5 0.313156 0.500000 0.925034
O O6 0.181620 0.687235 0.913040
O O7 0.276705 0.690813 0.001237
O O8 0.500000 0.654750 0.756947
O O9 0.641080 0.500000 0.769627
O O10 0.634319 0.708646 0.697076
O O11 0.826254 0.256730 0.086099
O O12 0.000000 0.191711 0.083762
O O13 0.878089 0.000000 0.057453
O O14 0.909017 0.219779 0.995114
O O15 0.346103 0.763983 0.594148
O O16 0.257874 0.000000 0.580529
O O17 0.500000 0.204950 0.128798
O O18 0.380996 0.000000 0.125227
O O19 0.000000 0.825460 0.415921
O O20 0.898425 0.000000 0.473636
#
# Coordination Sequence:
#
# PCOD8178804 Si02
#       7
#     8   8   8   8   8   8   8
#     4  10  20  31  44  64  88 115 148 186 224 257
#     4   9  18  30  43  62  89 121 151 176 211 262
#     4   8  15  30  50  67  83 108 144 184 224 264
#     4   9  16  26  42  63  86 114 148 185 223 262
#     4  10  20  31  44  65  93 124 154 183 219 264
#     4   9  18  32  49  68  90 117 148 183 224 267
#     4   8  14  26  43  62  85 112 143 180 220 262
#
# _framework density 15.976324
#
# number of rings (size 3 to 8) (size 9 to 14) (size 15 to 20)
#    0.000    3.000    0.000    3.000    0.000    6.000 
#    0.000    4.286    0.000    0.000    0.000    1.000 
#    0.000    3.429    0.000    0.000    0.000    0.000 
#
# Total GULP energy -346907.491336 kJ/mol
# GULP energy per Si atom -12389.553262 kJ/mol
# Density = 1.593996 g / cm^3
# Si number density = 15.976324 Si / 1000 Ang^3
#
#
#
# Elastic Constant Matrix: (Units=GPa)
#
#
# Indices 1 2 3 4 5 6 
#
# 1 90.4525 66.4667 41.9017 0.0000 0.0000 0.0000
# 2 66.4667 100.6304 42.0681 0.0000 0.0000 0.0000
# 3 41.9017 42.0681 53.7021 0.0000 0.0000 0.0000
# 4 0.0000 0.0000 0.0000 23.3552 0.0000 0.0000
# 5 0.0000 0.0000 0.0000 0.0000 0.9756 0.0000
# 6 0.0000 0.0000 0.0000 0.0000 0.0000 26.2024
#
#
#
# Elastic Compliance Matrix: (Units=1/GPa)
#
#
# Indices 1 2 3 4 5 6 
#
# 1 0.024370 -0.012115 -0.009525 0.000000 0.000000 0.000000
# 2 -0.012115 0.020799 -0.006840 0.000000 0.000000 0.000000
# 3 -0.009525 -0.006840 0.031412 0.000000 0.000000 0.000000
# 4 0.000000 0.000000 0.000000 0.042817 0.000000 0.000000
# 5 0.000000 0.000000 0.000000 0.000000 1.024993 0.000000
# 6 0.000000 0.000000 0.000000 0.000000 0.000000 0.038164
#
#
# Mechanical properties :
#
#
# Convention : Reuss Voigt Hill
#
# Bulk Modulus (GPa) = 50.96666 60.62867 55.79767
# Shear Modulus (GPa) = 4.01267 16.39653 10.20460
#
# Velocity S-wave (km/s) = 1.58653 3.20707 2.53006
# Velocity P-wave (km/s) = 5.94363 7.19341 6.59818
#
# Compressibility (1/GPa) = 0.01962067
#
# Stress axis : x y z
#
# Youngs Moduli (GPa) = 41.03402 48.08003 31.83543
#
# Poissons Ratio (x) = 0.58247 0.30323
# Poissons Ratio (y) = 0.49711 0.21776
# Poissons Ratio (z) = 0.39084 0.32888
#
# Static dielectric constant tensor:
#      x y z
#    x 3.259130 0.000000 0.000000 
#    y 0.000000 3.111280 0.000000 
#    z 0.000000 0.000000 2.769950 
# 
# 
# High freq. dielectric constant tensor:
#      x y z
#    x 1.613220 0.000000 0.000000 
#    y 0.000000 1.623720 0.000000 
#    z 0.000000 0.000000 1.567410 
# 
# From -- ./inp_files/21316.got.cif
#   From: 2010.03.12/outbox.cif.g09.slc.cpg/sg38_11_cif.got.tgz:21316.got - 2010.04.14 02:38:36.
