data_PCOD8178067
_publ_section_title
;
Structure prediction by ZEFSAII (Michael W. Deem and Ramdas Pophale) SiO2 
 PCOD8178067
Probable space group: A M M 2
;
_chemical_formula_sum "Si O2"
_cell_formula_units_Z 64
_cell_length_a 9.015468
_cell_length_b 22.605973
_cell_length_c 19.744067
_cell_angle_alpha 90.000000
_cell_angle_beta 90.000000
_cell_angle_gamma 90.000000
_cell_volume 4023.908502
_symmetry_space_group_name_H-M "A M M 2"
_symmetry_group_IT_number 38
_symmetry_cell_setting 'orthorhombic'
loop_
_space_group_symop_operation_xyz
x,y,z
-x,-y,z
-x,y,z
x,-y,z
x,1/2+y,1/2+z
-x,1/2-y,1/2+z
-x,1/2+y,1/2+z
x,1/2-y,1/2+z
loop_
_atom_site_type_symbol
_atom_site_label
_atom_site_fract_x
_atom_site_fract_y
_atom_site_fract_z
Si Si1 0.334356 0.241605 0.823710
Si Si2 0.666397 0.660955 0.455764
Si Si3 0.833594 0.754957 0.530812
Si Si4 0.676359 0.644096 0.105723
Si Si5 0.836157 0.166586 0.397120
Si Si6 0.172891 0.932296 0.873488
Si Si7 0.826227 0.646112 0.244933
Si Si8 0.173624 0.568107 0.993713
O O1 0.500000 0.247110 0.793861
O O2 0.334132 0.203989 0.891813
O O3 0.274322 0.307526 0.840406
O O4 0.228601 0.210768 0.768770
O O5 0.500000 0.648104 0.480758
O O6 0.755776 0.691746 0.517177
O O7 0.742078 0.599234 0.435120
O O8 0.740717 0.791630 0.586059
O O9 0.839320 0.791172 0.461825
O O10 0.000000 0.744097 0.558415
O O11 0.500000 0.647223 0.105440
O O12 0.736152 0.626000 0.179219
O O13 0.729500 0.593008 0.055044
O O14 0.784875 0.101977 0.423671
O O15 0.000000 0.163397 0.364677
O O16 0.211392 0.902405 0.801825
O O17 0.000000 0.926099 0.889095
O O18 0.224873 0.000000 0.869996
O O19 0.000000 0.649254 0.228714
O O20 0.212892 0.500000 0.982821
O O21 0.000000 0.578403 0.010801
#
# Coordination Sequence:
#
# PCOD8178067 Si02
#       8
#     8   8   8   8   8   8   8   8
#     4   9  16  26  41  61  83 106 134 173 220 263
#     4   9  16  26  42  64  86 107 134 174 223 264
#     4   9  16  28  45  62  81 108 141 175 214 260
#     4  11  21  31  43  62  88 115 146 184 222 258
#     4   8  14  25  42  62  81 104 136 174 215 256
#     4   9  18  31  45  61  83 115 153 186 214 251
#     4  10  19  31  45  60  82 115 152 185 216 254
#     4   9  18  32  47  62  84 117 154 185 212 249
#
# _framework density 15.904934000000001
#
# number of rings (size 3 to 8) (size 9 to 14) (size 15 to 20)
#    0.000    2.750    0.000    3.375    0.000    7.500 
#    0.000    1.250    0.000    0.000    0.000    0.000 
#    0.000    1.000    0.000    6.000    0.000    4.875 
#
# Total GULP energy -396725.747317 kJ/mol
# GULP energy per Si atom -12397.679604 kJ/mol
# Density = 1.586873 g / cm^3
# Si number density = 15.904934 Si / 1000 Ang^3
#
#
#
# Elastic Constant Matrix: (Units=GPa)
#
#
# Indices 1 2 3 4 5 6 
#
# 1 105.5923 58.1164 23.5882 0.0000 0.0000 0.0000
# 2 58.1164 116.0776 44.0450 0.0000 0.0000 0.0000
# 3 23.5882 44.0450 19.5797 0.0000 0.0000 0.0000
# 4 0.0000 0.0000 0.0000 13.5841 0.0000 0.0000
# 5 0.0000 0.0000 0.0000 0.0000 20.6806 0.0000
# 6 0.0000 0.0000 0.0000 0.0000 0.0000 18.7135
#
#
#
# Elastic Compliance Matrix: (Units=1/GPa)
#
#
# Indices 1 2 3 4 5 6 
#
# 1 0.013215 -0.003930 -0.007081 0.000000 0.000000 0.000000
# 2 -0.003930 0.060001 -0.130241 0.000000 0.000000 0.000000
# 3 -0.007081 -0.130241 0.352583 0.000000 0.000000 0.000000
# 4 0.000000 0.000000 0.000000 0.073615 0.000000 0.000000
# 5 0.000000 0.000000 0.000000 0.000000 0.048355 0.000000
# 6 0.000000 0.000000 0.000000 0.000000 0.000000 0.053437
#
#
# Mechanical properties :
#
#
# Convention : Reuss Voigt Hill
#
# Bulk Modulus (GPa) = 6.97849 54.74988 30.86418
# Shear Modulus (GPa) = 5.36784 18.29564 11.83174
#
# Velocity S-wave (km/s) = 1.83910 3.39530 2.73042
# Velocity P-wave (km/s) = 2.98444 7.06178 5.42105
#
# Compressibility (1/GPa) = 0.14329750
#
# Stress axis : x y z
#
# Youngs Moduli (GPa) = 75.67211 16.66628 2.83621
#
# Poissons Ratio (x) = 0.06549 0.02008
# Poissons Ratio (y) = 0.29736 0.36939
# Poissons Ratio (z) = 0.53581 2.17063
#
# Static dielectric constant tensor:
#      x y z
#    x 3.187530 0.000000 0.000000 
#    y 0.000000 3.056590 0.000000 
#    z 0.000000 0.000000 2.746220 
# 
# 
# High freq. dielectric constant tensor:
#      x y z
#    x 1.623580 0.000000 0.000000 
#    y 0.000000 1.593700 0.000000 
#    z 0.000000 0.000000 1.567490 
# 
# From -- ./inp_files/17280.got.cif
#   From: 2010.03.12/outbox.cif.g09.slc.cpg/sg38_9_cif.got.tgz:17280.got - 2010.04.14 02:38:36.
