data_PCOD8178304
_publ_section_title
;
Structure prediction by ZEFSAII (Michael W. Deem and Ramdas Pophale) SiO2 
 PCOD8178304
Probable space group: A M M 2
;
_chemical_formula_sum "Si O2"
_cell_formula_units_Z 48
_cell_length_a 10.294063
_cell_length_b 27.576685
_cell_length_c 9.053360
_cell_angle_alpha 90.000000
_cell_angle_beta 90.000000
_cell_angle_gamma 90.000000
_cell_volume 2570.032825
_symmetry_space_group_name_H-M "A M M 2"
_symmetry_group_IT_number 38
_symmetry_cell_setting 'orthorhombic'
loop_
_space_group_symop_operation_xyz
x,y,z
-x,-y,z
-x,y,z
x,-y,z
x,1/2+y,1/2+z
-x,1/2-y,1/2+z
-x,1/2+y,1/2+z
x,1/2-y,1/2+z
loop_
_atom_site_type_symbol
_atom_site_label
_atom_site_fract_x
_atom_site_fract_y
_atom_site_fract_z
Si Si1 0.346391 0.000000 0.170620
Si Si2 0.858049 0.818365 0.041308
Si Si3 0.346251 0.092353 0.671905
Si Si4 0.655446 0.000000 0.501911
Si Si5 0.772562 0.252237 0.793186
Si Si6 0.345402 0.901851 0.010484
Si Si7 0.351594 0.691865 0.054469
O O1 0.299252 0.049367 0.092825
O O2 0.500000 0.000000 0.168015
O O3 0.290893 0.000000 0.335929
O O4 0.864016 0.780760 0.178455
O O5 0.740179 0.856362 0.066931
O O6 0.000000 0.844123 0.036766
O O7 0.844367 0.789577 0.886389
O O8 0.500000 0.093304 0.656748
O O9 0.286720 0.140649 0.599100
O O10 0.287599 0.046667 0.585515
O O11 0.307793 0.088955 0.841922
O O12 0.500000 0.000000 0.504818
O O13 0.660003 0.228118 0.693298
O O14 0.715354 0.290694 0.906331
O O15 0.500000 0.890602 0.032852
O O16 0.500000 0.684879 0.014913
#
# Coordination Sequence:
#
# PCOD8178304 Si02
#       7
#     4   8   8   4   8   8   8
#     4   9  19  33  54  85 116 146 183 230 284 339
#     4  11  23  40  59  82 113 154 196 236 284 339
#     4   9  17  30  49  77 112 143 175 220 276 332
#     4   9  17  29  49  77 110 146 181 220 276 339
#     4  10  22  36  54  77 111 152 194 231 279 342
#     4  10  20  36  58  86 116 147 186 233 284 339
#     4  10  19  32  52  83 115 144 182 233 287 335
#
# _framework density 18.676804000000001
#
# number of rings (size 3 to 8) (size 9 to 14) (size 15 to 20)
#    0.000    2.167    1.667    1.500    2.333    5.333 
#    0.000    0.417    0.000    0.000    0.000    0.000 
#    0.000    0.000    0.000    0.000    0.000    0.000 
#
# Total GULP energy -297463.273382 kJ/mol
# GULP energy per Si atom -12394.303058 kJ/mol
# Density = 1.863430 g / cm^3
# Si number density = 18.676804 Si / 1000 Ang^3
#
#
#
# Elastic Constant Matrix: (Units=GPa)
#
#
# Indices 1 2 3 4 5 6 
#
# 1 63.6823 31.0673 19.5993 0.0000 0.0000 0.0000
# 2 31.0673 130.4253 50.9222 0.0000 0.0000 0.0000
# 3 19.5993 50.9222 109.8351 0.0000 0.0000 0.0000
# 4 0.0000 0.0000 0.0000 37.0991 0.0000 0.0000
# 5 0.0000 0.0000 0.0000 0.0000 4.5856 0.0000
# 6 0.0000 0.0000 0.0000 0.0000 0.0000 11.1946
#
#
#
# Elastic Compliance Matrix: (Units=1/GPa)
#
#
# Indices 1 2 3 4 5 6 
#
# 1 0.017966 -0.003697 -0.001492 0.000000 0.000000 0.000000
# 2 -0.003697 0.010123 -0.004033 0.000000 0.000000 0.000000
# 3 -0.001492 -0.004033 0.011241 0.000000 0.000000 0.000000
# 4 0.000000 0.000000 0.000000 0.026955 0.000000 0.000000
# 5 0.000000 0.000000 0.000000 0.000000 0.218072 0.000000
# 6 0.000000 0.000000 0.000000 0.000000 0.000000 0.089329
#
#
# Mechanical properties :
#
#
# Convention : Reuss Voigt Hill
#
# Bulk Modulus (GPa) = 47.88213 56.34670 52.11441
# Shear Modulus (GPa) = 12.52848 24.06612 18.29730
#
# Velocity S-wave (km/s) = 2.59280 3.59354 3.13338
# Velocity P-wave (km/s) = 5.88696 6.88861 6.40739
#
# Compressibility (1/GPa) = 0.02088462
#
# Stress axis : x y z
#
# Youngs Moduli (GPa) = 55.66180 98.78877 88.96203
#
# Poissons Ratio (x) = 0.36522 0.13272
# Poissons Ratio (y) = 0.20578 0.35882
# Poissons Ratio (z) = 0.08304 0.39845
#
# Static dielectric constant tensor:
#      x y z
#    x 2.925540 0.000000 0.000000 
#    y 0.000000 3.696930 0.000000 
#    z 0.000000 0.000000 3.608220 
# 
# 
# High freq. dielectric constant tensor:
#      x y z
#    x 1.668700 0.000000 0.000000 
#    y 0.000000 1.733140 0.000000 
#    z 0.000000 0.000000 1.742600 
# 
# From -- ./inp_files/3825.got.cif
#   From: 2010.03.12/outbox.cif.g09.slc.cpg/sg38_2_cif.got.tgz:3825.got - 2010.04.14 02:38:36.
