data_PCOD8178423
_publ_section_title
;
Structure prediction by ZEFSAII (Michael W. Deem and Ramdas Pophale) SiO2 
 PCOD8178423
Probable space group: A M M 2
;
_chemical_formula_sum "Si O2"
_cell_formula_units_Z 48
_cell_length_a 8.819955
_cell_length_b 16.441641
_cell_length_c 18.544901
_cell_angle_alpha 90.000000
_cell_angle_beta 90.000000
_cell_angle_gamma 90.000000
_cell_volume 2689.280172
_symmetry_space_group_name_H-M "A M M 2"
_symmetry_group_IT_number 38
_symmetry_cell_setting 'orthorhombic'
loop_
_space_group_symop_operation_xyz
x,y,z
-x,-y,z
-x,y,z
x,-y,z
x,1/2+y,1/2+z
-x,1/2-y,1/2+z
-x,1/2+y,1/2+z
x,1/2-y,1/2+z
loop_
_atom_site_type_symbol
_atom_site_label
_atom_site_fract_x
_atom_site_fract_y
_atom_site_fract_z
Si Si1 0.321085 0.590474 0.132690
Si Si2 0.177012 0.835969 0.094497
Si Si3 0.824564 0.819862 0.504790
Si Si4 0.677939 0.500000 0.774974
Si Si5 0.677620 0.000000 0.106011
Si Si6 0.179801 0.660504 0.841634
Si Si7 0.679505 0.757712 0.722214
O O1 0.500000 0.592940 0.127551
O O2 0.262707 0.500000 0.152557
O O3 0.260549 0.615423 0.054561
O O4 0.266055 0.653393 0.194467
O O5 0.206788 0.772103 0.030543
O O6 0.268141 0.810258 0.165652
O O7 0.000000 0.843034 0.113686
O O8 0.244475 0.921918 0.068943
O O9 0.765089 0.828716 0.423645
O O10 0.000000 0.841852 0.510260
O O11 0.500000 0.500000 0.789878
O O12 0.714794 0.500000 0.690643
O O13 0.750319 0.421312 0.810734
O O14 0.500000 0.000000 0.089353
O O15 0.241247 0.738972 0.798233
O O16 0.000000 0.657077 0.835520
O O17 0.500000 0.752045 0.731194
#
# Coordination Sequence:
#
# PCOD8178423 Si02
#       7
#     8   8   8   4   4   8   8
#     4   9  19  35  55  79 104 135 173 216 260 306
#     4  10  19  34  55  77 102 138 177 213 260 308
#     4   9  21  37  53  77 107 138 171 214 259 308
#     4  11  23  35  51  79 112 139 170 211 258 308
#     4  11  21  33  53  81 110 133 170 219 258 304
#     4  11  22  36  54  77 109 141 173 211 259 311
#     4  10  19  33  53  77 105 137 175 217 258 304
#
# _framework density 17.848642000000002
#
# number of rings (size 3 to 8) (size 9 to 14) (size 15 to 20)
#    0.000    2.000    1.667    2.000    1.167    3.667 
#    0.000    0.000    1.833    0.000    0.000    0.000 
#    0.000    0.000    0.000    0.000    0.000    0.000 
#
# Total GULP energy -297643.658038 kJ/mol
# GULP energy per Si atom -12401.819085 kJ/mol
# Density = 1.780802 g / cm^3
# Si number density = 17.848642 Si / 1000 Ang^3
#
#
#
# Elastic Constant Matrix: (Units=GPa)
#
#
# Indices 1 2 3 4 5 6 
#
# 1 58.2353 36.3614 31.6759 0.0000 0.0000 0.0000
# 2 36.3614 138.8817 48.3552 0.0000 0.0000 0.0000
# 3 31.6759 48.3552 91.3047 0.0000 0.0000 0.0000
# 4 0.0000 0.0000 0.0000 20.7804 0.0000 0.0000
# 5 0.0000 0.0000 0.0000 0.0000 22.2145 0.0000
# 6 0.0000 0.0000 0.0000 0.0000 0.0000 26.4610
#
#
#
# Elastic Compliance Matrix: (Units=1/GPa)
#
#
# Indices 1 2 3 4 5 6 
#
# 1 0.022800 -0.003942 -0.005822 0.000000 0.000000 0.000000
# 2 -0.003942 0.009510 -0.003669 0.000000 0.000000 0.000000
# 3 -0.005822 -0.003669 0.014915 0.000000 0.000000 0.000000
# 4 0.000000 0.000000 0.000000 0.048122 0.000000 0.000000
# 5 0.000000 0.000000 0.000000 0.000000 0.045016 0.000000
# 6 0.000000 0.000000 0.000000 0.000000 0.000000 0.037791
#
#
# Mechanical properties :
#
#
# Convention : Reuss Voigt Hill
#
# Bulk Modulus (GPa) = 49.11878 57.91186 53.51532
# Shear Modulus (GPa) = 23.60640 25.35980 24.48310
#
# Velocity S-wave (km/s) = 3.64069 3.77347 3.70767
# Velocity P-wave (km/s) = 6.72697 7.17649 6.95536
#
# Compressibility (1/GPa) = 0.02035881
#
# Stress axis : x y z
#
# Youngs Moduli (GPa) = 43.85956 105.15339 67.04583
#
# Poissons Ratio (x) = 0.41455 0.39034
# Poissons Ratio (y) = 0.17291 0.24598
# Poissons Ratio (z) = 0.25535 0.38579
#
# Static dielectric constant tensor:
#      x y z
#    x 3.338780 0.000000 0.000000 
#    y 0.000000 3.573070 0.000000 
#    z 0.000000 0.000000 3.295860 
# 
# 
# High freq. dielectric constant tensor:
#      x y z
#    x 1.699670 0.000000 0.000000 
#    y 0.000000 1.698260 0.000000 
#    z 0.000000 0.000000 1.670860 
# 
# From -- ./inp_files/16690.got.cif
#   From: 2010.03.12/outbox.cif.g09.slc.cpg/sg38_9_cif.got.tgz:16690.got - 2010.04.14 02:38:36.
