data_PCOD8178566
_publ_section_title
;
Structure prediction by ZEFSAII (Michael W. Deem and Ramdas Pophale) SiO2 
 PCOD8178566
Probable space group: A M M 2
;
_chemical_formula_sum "Si O2"
_cell_formula_units_Z 56
_cell_length_a 21.632579
_cell_length_b 8.646425
_cell_length_c 15.213519
_cell_angle_alpha 90.000000
_cell_angle_beta 90.000000
_cell_angle_gamma 90.000000
_cell_volume 2845.604627
_symmetry_space_group_name_H-M "A M M 2"
_symmetry_group_IT_number 38
_symmetry_cell_setting 'orthorhombic'
loop_
_space_group_symop_operation_xyz
x,y,z
-x,-y,z
-x,y,z
x,-y,z
x,1/2+y,1/2+z
-x,1/2-y,1/2+z
-x,1/2+y,1/2+z
x,1/2-y,1/2+z
loop_
_atom_site_type_symbol
_atom_site_label
_atom_site_fract_x
_atom_site_fract_y
_atom_site_fract_z
Si Si1 0.867799 0.814513 0.727350
Si Si2 0.643981 0.818483 0.894059
Si Si3 0.216117 0.183230 0.883686
Si Si4 0.872164 0.317168 0.537670
Si Si5 0.428040 0.678939 0.736878
Si Si6 0.429127 0.320775 0.053733
Si Si7 0.000000 0.329740 0.030634
Si Si8 0.000000 0.831862 0.738250
O O1 0.815928 0.753871 0.794550
O O2 0.852201 0.752284 0.631066
O O3 0.934973 0.748142 0.761941
O O4 0.871725 0.000000 0.722412
O O5 0.713964 0.756215 0.887524
O O6 0.610407 0.784846 0.802643
O O7 0.640952 0.000000 0.914468
O O8 0.612111 0.725214 0.971713
O O9 0.214864 0.000000 0.880428
O O10 0.179087 0.242182 0.968766
O O11 0.873510 0.500000 0.545663
O O12 0.938726 0.262200 0.501746
O O13 0.500000 0.715783 0.751431
O O14 0.413170 0.500000 0.754490
O O15 0.408298 0.721927 0.638031
O O16 0.500000 0.284837 0.028944
O O17 0.419572 0.500000 0.076058
O O18 0.000000 0.500000 0.986383
O O19 0.000000 0.349577 0.134037
O O20 0.000000 0.000000 0.784067
#
# Coordination Sequence:
#
# PCOD8178566 Si02
#       8
#     8   8   8   8   8   8   4   4
#     4   9  17  34  55  75 103 140 178 217 265 322
#     4  11  22  37  56  81 116 154 189 227 272 326
#     4   9  21  37  53  77 110 148 187 219 260 323
#     4  10  19  34  55  80 107 136 175 226 274 314
#     4  10  21  38  60  86 113 142 181 230 282 334
#     4  10  21  38  60  86 113 143 184 232 280 331
#     4   9  17  32  53  79 106 136 174 217 271 329
#     4   7  12  24  49  75  92 120 166 213 255 303
#
# _framework density 19.679473000000002
#
# number of rings (size 3 to 8) (size 9 to 14) (size 15 to 20)
#    0.000    2.429    0.000    3.214    0.000    5.143 
#    0.000   10.714    0.000    0.000    0.000    0.000 
#    0.000    0.000    0.000    0.000    0.000    0.000 
#
# Total GULP energy -347136.737573 kJ/mol
# GULP energy per Si atom -12397.740628 kJ/mol
# Density = 1.963468 g / cm^3
# Si number density = 19.679473 Si / 1000 Ang^3
#
#
#
# Elastic Constant Matrix: (Units=GPa)
#
#
# Indices 1 2 3 4 5 6 
#
# 1 134.7105 26.5498 74.9043 0.0000 0.0000 0.0000
# 2 26.5498 49.3903 20.5432 0.0000 0.0000 0.0000
# 3 74.9043 20.5432 116.1985 0.0000 0.0000 0.0000
# 4 0.0000 0.0000 0.0000 31.4409 0.0000 0.0000
# 5 0.0000 0.0000 0.0000 0.0000 -659.5769 0.0000
# 6 0.0000 0.0000 0.0000 0.0000 0.0000 23.4520
#
#
#
# Elastic Compliance Matrix: (Units=1/GPa)
#
#
# Indices 1 2 3 4 5 6 
#
# 1 0.012113 -0.003523 -0.007186 0.000000 0.000000 0.000000
# 2 -0.003523 0.022878 -0.001774 0.000000 0.000000 0.000000
# 3 -0.007186 -0.001774 0.013552 0.000000 0.000000 0.000000
# 4 0.000000 0.000000 0.000000 0.031806 0.000000 0.000000
# 5 0.000000 0.000000 0.000000 0.000000 -0.001516 0.000000
# 6 0.000000 0.000000 0.000000 0.000000 0.000000 0.042640
#
#
# Mechanical properties :
#
#
# Convention : Reuss Voigt Hill
#
# Bulk Modulus (GPa) = 42.41137 60.47712 51.44424
# Shear Modulus (GPa) = 32.40506 -109.05001 -38.32247
#
# Velocity S-wave (km/s) = 4.06229 -7.45207 -4.41765
# Velocity P-wave (km/s) = 6.60309 6.57622 0.42074
#
# Compressibility (1/GPa) = 0.02357858
#
# Stress axis : x y z
#
# Youngs Moduli (GPa) = 82.55549 43.70944 73.79212
#
# Poissons Ratio (x) = 0.15397 0.53024
# Poissons Ratio (y) = 0.29081 0.13091
# Poissons Ratio (z) = 0.59321 0.07754
#
# Static dielectric constant tensor:
#      x y z
#    x 4.021560 0.000000 0.000000 
#    y 0.000000 3.402720 0.000000 
#    z 0.000000 0.000000 3.534180 
# 
# 
# High freq. dielectric constant tensor:
#      x y z
#    x 1.770350 0.000000 0.000000 
#    y 0.000000 1.750580 0.000000 
#    z 0.000000 0.000000 1.766750 
# 
# From -- ./inp_files/15586.got.cif
#   From: 2010.03.12/outbox.cif.g09.slc.cpg/sg38_8_cif.got.tgz:15586.got - 2010.04.14 02:38:36.
