data_PCOD8178494
_publ_section_title
;
Structure prediction by ZEFSAII (Michael W. Deem and Ramdas Pophale) SiO2 
 PCOD8178494
Probable space group: A M M 2
;
_chemical_formula_sum "Si O2"
_cell_formula_units_Z 64
_cell_length_a 9.126815
_cell_length_b 27.280478
_cell_length_c 13.030990
_cell_angle_alpha 90.000000
_cell_angle_beta 90.000000
_cell_angle_gamma 90.000000
_cell_volume 3244.506396
_symmetry_space_group_name_H-M "A M M 2"
_symmetry_group_IT_number 38
_symmetry_cell_setting 'orthorhombic'
loop_
_space_group_symop_operation_xyz
x,y,z
-x,-y,z
-x,y,z
x,-y,z
x,1/2+y,1/2+z
-x,1/2-y,1/2+z
-x,1/2+y,1/2+z
x,1/2-y,1/2+z
loop_
_atom_site_type_symbol
_atom_site_label
_atom_site_fract_x
_atom_site_fract_y
_atom_site_fract_z
Si Si1 0.825845 0.377305 0.159280
Si Si2 0.674893 0.380242 0.372767
Si Si3 0.671598 0.275378 0.456888
Si Si4 0.162030 0.293899 0.819963
Si Si5 0.173437 0.399873 0.761910
Si Si6 0.829219 0.057826 0.046800
Si Si7 0.161597 0.767598 0.626149
Si Si8 0.825937 0.445119 0.972703
O O1 0.743429 0.393576 0.262762
O O2 0.777436 0.322833 0.125891
O O3 0.770828 0.412207 0.067438
O O4 0.000000 0.380594 0.178378
O O5 0.500000 0.384865 0.367775
O O6 0.725443 0.325230 0.403324
O O7 0.736241 0.417763 0.456496
O O8 0.500000 0.273080 0.456408
O O9 0.732406 0.224857 0.408902
O O10 0.731964 0.271823 0.572250
O O11 0.223447 0.343184 0.767554
O O12 0.152537 0.248989 0.742669
O O13 0.000000 0.305297 0.865672
O O14 0.234007 0.423395 0.656539
O O15 0.000000 0.405724 0.759428
O O16 0.237360 0.426640 0.863268
O O17 0.000000 0.071922 0.033549
O O18 0.805891 0.000000 0.040801
O O19 0.000000 0.765355 0.575054
O O20 0.768553 0.500000 0.991557
O O21 0.000000 0.443062 0.968668
#
# Coordination Sequence:
#
# PCOD8178494 Si02
#       8
#     8   8   8   8   8   8   8   8
#     4  10  20  36  58  84 114 150 194 242 287 342
#     4  11  24  40  57  81 118 161 198 240 293 349
#     4  11  23  36  53  79 114 153 190 232 281 344
#     4  10  19  33  55  81 108 144 185 226 278 338
#     4   9  17  32  56  87 119 145 181 236 295 353
#     4  10  21  38  63  91 116 149 196 249 302 356
#     4  10  20  34  55  81 109 144 187 238 288 338
#     4   9  17  30  52  83 115 143 176 229 292 344
#
# _framework density 19.725650999999999
#
# number of rings (size 3 to 8) (size 9 to 14) (size 15 to 20)
#    0.000    2.000    1.250    2.625    0.000    7.750 
#    0.000    1.875    0.000    0.750    0.000    0.000 
#    0.000    0.000    0.000    0.000    0.000    0.000 
#
# Total GULP energy -396735.589922 kJ/mol
# GULP energy per Si atom -12397.987185 kJ/mol
# Density = 1.968075 g / cm^3
# Si number density = 19.725651 Si / 1000 Ang^3
#
#
#
# Elastic Constant Matrix: (Units=GPa)
#
#
# Indices 1 2 3 4 5 6 
#
# 1 41.9124 28.4815 32.0427 0.0000 0.0000 0.0000
# 2 28.4815 120.8285 51.8497 0.0000 0.0000 0.0000
# 3 32.0427 51.8497 133.8798 0.0000 0.0000 0.0000
# 4 0.0000 0.0000 0.0000 38.6062 0.0000 0.0000
# 5 0.0000 0.0000 0.0000 0.0000 9.6153 0.0000
# 6 0.0000 0.0000 0.0000 0.0000 0.0000 19.2315
#
#
#
# Elastic Compliance Matrix: (Units=1/GPa)
#
#
# Indices 1 2 3 4 5 6 
#
# 1 0.031566 -0.005036 -0.005605 0.000000 0.000000 0.000000
# 2 -0.005036 0.010729 -0.002950 0.000000 0.000000 0.000000
# 3 -0.005605 -0.002950 0.009953 0.000000 0.000000 0.000000
# 4 0.000000 0.000000 0.000000 0.025903 0.000000 0.000000
# 5 0.000000 0.000000 0.000000 0.000000 0.104001 0.000000
# 6 0.000000 0.000000 0.000000 0.000000 0.000000 0.051998
#
#
# Mechanical properties :
#
#
# Convention : Reuss Voigt Hill
#
# Bulk Modulus (GPa) = 39.89185 57.92985 48.91085
# Shear Modulus (GPa) = 18.53999 25.77371 22.15685
#
# Velocity S-wave (km/s) = 3.06909 3.61863 3.35513
# Velocity P-wave (km/s) = 5.72943 6.84769 6.31336
#
# Compressibility (1/GPa) = 0.02506777
#
# Stress axis : x y z
#
# Youngs Moduli (GPa) = 31.67943 93.20469 100.46884
#
# Poissons Ratio (x) = 0.46934 0.56311
# Poissons Ratio (y) = 0.15953 0.29638
# Poissons Ratio (z) = 0.17756 0.27495
#
# Static dielectric constant tensor:
#      x y z
#    x 3.220380 0.000000 0.000000 
#    y 0.000000 3.691810 0.000000 
#    z 0.000000 0.000000 3.698940 
# 
# 
# High freq. dielectric constant tensor:
#      x y z
#    x 1.724030 0.000000 0.000000 
#    y 0.000000 1.776020 0.000000 
#    z 0.000000 0.000000 1.782390 
# 
# From -- ./inp_files/8590.got.cif
#   From: 2010.03.12/outbox.cif.g09.slc.cpg/sg38_5_cif.got.tgz:8590.got - 2010.04.14 02:38:36.
