data_PCOD8178598
_publ_section_title
;
Structure prediction by ZEFSAII (Michael W. Deem and Ramdas Pophale) SiO2 
 PCOD8178598
Probable space group: A M M 2
;
_chemical_formula_sum "Si O2"
_cell_formula_units_Z 64
_cell_length_a 9.083996
_cell_length_b 25.018923
_cell_length_c 14.982002
_cell_angle_alpha 90.000000
_cell_angle_beta 90.000000
_cell_angle_gamma 90.000000
_cell_volume 3404.986509
_symmetry_space_group_name_H-M "A M M 2"
_symmetry_group_IT_number 38
_symmetry_cell_setting 'orthorhombic'
loop_
_space_group_symop_operation_xyz
x,y,z
-x,-y,z
-x,y,z
x,-y,z
x,1/2+y,1/2+z
-x,1/2-y,1/2+z
-x,1/2+y,1/2+z
x,1/2-y,1/2+z
loop_
_atom_site_type_symbol
_atom_site_label
_atom_site_fract_x
_atom_site_fract_y
_atom_site_fract_z
Si Si1 0.167031 0.778280 0.486700
Si Si2 0.674593 0.850841 0.814820
Si Si3 0.171187 0.561685 0.201932
Si Si4 0.828577 0.561885 0.825886
Si Si5 0.174770 0.895485 0.513755
Si Si6 0.667421 0.674914 0.510923
Si Si7 0.169366 0.243753 0.280072
Si Si8 0.670235 0.644183 0.701520
O O1 0.234941 0.834784 0.518513
O O2 0.250493 0.729983 0.533531
O O3 0.181598 0.776121 0.380772
O O4 0.000000 0.773633 0.518500
O O5 0.500000 0.847533 0.802712
O O6 0.734107 0.905036 0.772048
O O7 0.749326 0.800283 0.766202
O O8 0.723789 0.852194 0.919214
O O9 0.197563 0.500000 0.224177
O O10 0.228143 0.573022 0.101332
O O11 0.000000 0.577407 0.210953
O O12 0.801537 0.500000 0.806294
O O13 0.742305 0.594376 0.750886
O O14 0.000000 0.577298 0.818963
O O15 0.765685 0.575717 0.924312
O O16 0.000000 0.895452 0.507903
O O17 0.500000 0.691771 0.496812
O O18 0.686735 0.634740 0.594514
O O19 0.249097 0.199593 0.221213
O O20 0.000000 0.250141 0.250044
O O21 0.500000 0.648736 0.729743
#
# Coordination Sequence:
#
# PCOD8178598 Si02
#       8
#     8   8   8   8   8   8   8   8
#     4   9  17  31  53  81 111 143 180 219 267 326
#     4  10  21  39  59  80 109 146 189 234 282 331
#     4  10  21  37  58  84 112 145 188 235 280 329
#     4  10  20  37  60  83 111 149 190 230 273 328
#     4   9  17  33  55  83 113 145 183 223 273 331
#     4   9  21  38  54  76 111 149 185 226 277 332
#     4  10  19  34  56  83 113 144 181 224 273 330
#     4  11  22  36  55  82 115 149 186 229 278 329
#
# _framework density 18.795964000000001
#
# number of rings (size 3 to 8) (size 9 to 14) (size 15 to 20)
#    0.000    2.250    1.250    1.500    1.750    4.000 
#    0.000    1.250    0.000    5.250    0.000    0.000 
#    0.000    0.000    0.000    0.000    0.000    0.000 
#
# Total GULP energy -396798.632253 kJ/mol
# GULP energy per Si atom -12399.957258 kJ/mol
# Density = 1.875318 g / cm^3
# Si number density = 18.795964 Si / 1000 Ang^3
#
#
#
# Elastic Constant Matrix: (Units=GPa)
#
#
# Indices 1 2 3 4 5 6 
#
# 1 83.2066 54.3707 46.0860 0.0000 0.0000 0.0000
# 2 54.3707 116.1514 62.5519 0.0000 0.0000 0.0000
# 3 46.0860 62.5519 98.4486 0.0000 0.0000 0.0000
# 4 0.0000 0.0000 0.0000 30.0107 0.0000 0.0000
# 5 0.0000 0.0000 0.0000 0.0000 24.2670 0.0000
# 6 0.0000 0.0000 0.0000 0.0000 0.0000 16.5014
#
#
#
# Elastic Compliance Matrix: (Units=1/GPa)
#
#
# Indices 1 2 3 4 5 6 
#
# 1 0.018728 -0.006150 -0.004860 0.000000 0.000000 0.000000
# 2 -0.006150 0.015107 -0.006720 0.000000 0.000000 0.000000
# 3 -0.004860 -0.006720 0.016702 0.000000 0.000000 0.000000
# 4 0.000000 0.000000 0.000000 0.033321 0.000000 0.000000
# 5 0.000000 0.000000 0.000000 0.000000 0.041208 0.000000
# 6 0.000000 0.000000 0.000000 0.000000 0.000000 0.060601
#
#
# Mechanical properties :
#
#
# Convention : Reuss Voigt Hill
#
# Bulk Modulus (GPa) = 66.31746 69.31376 67.81561
# Shear Modulus (GPa) = 22.10888 23.14235 22.62562
#
# Velocity S-wave (km/s) = 3.43338 3.51271 3.47327
# Velocity P-wave (km/s) = 7.14681 7.30816 7.22793
#
# Compressibility (1/GPa) = 0.01507899
#
# Stress axis : x y z
#
# Youngs Moduli (GPa) = 53.39473 66.19448 59.87213
#
# Poissons Ratio (x) = 0.40707 0.29097
# Poissons Ratio (y) = 0.32836 0.40233
# Poissons Ratio (z) = 0.25949 0.44482
#
# Static dielectric constant tensor:
#      x y z
#    x 3.349740 0.000000 0.000000 
#    y 0.000000 3.368040 0.000000 
#    z 0.000000 0.000000 3.547590 
# 
# 
# High freq. dielectric constant tensor:
#      x y z
#    x 1.715650 0.000000 0.000000 
#    y 0.000000 1.722830 0.000000 
#    z 0.000000 0.000000 1.735170 
# 
# From -- ./inp_files/12723.got.cif
#   From: 2010.03.12/outbox.cif.g09.slc.cpg/sg38_7_cif.got.tgz:12723.got - 2010.04.14 02:38:36.
