data_PCOD8178340
_publ_section_title
;
Structure prediction by ZEFSAII (Michael W. Deem and Ramdas Pophale) SiO2 
 PCOD8178340
Probable space group: A M M 2
;
_chemical_formula_sum "Si O2"
_cell_formula_units_Z 40
_cell_length_a 7.815204
_cell_length_b 9.294009
_cell_length_c 28.898838
_cell_angle_alpha 90.000000
_cell_angle_beta 90.000000
_cell_angle_gamma 90.000000
_cell_volume 2099.054854
_symmetry_space_group_name_H-M "A M M 2"
_symmetry_group_IT_number 38
_symmetry_cell_setting 'orthorhombic'
loop_
_space_group_symop_operation_xyz
x,y,z
-x,-y,z
-x,y,z
x,-y,z
x,1/2+y,1/2+z
-x,1/2-y,1/2+z
-x,1/2+y,1/2+z
x,1/2-y,1/2+z
loop_
_atom_site_type_symbol
_atom_site_label
_atom_site_fract_x
_atom_site_fract_y
_atom_site_fract_z
Si Si1 0.188037 0.329593 0.998590
Si Si2 0.694910 0.840188 0.595626
Si Si3 0.500000 0.167029 0.842093
Si Si4 0.500000 0.328281 0.937580
Si Si5 0.804230 0.666601 0.273592
Si Si6 0.799755 0.336049 0.682240
O O1 0.209294 0.500000 0.000787
O O2 0.332063 0.268172 0.964136
O O3 0.000000 0.283961 0.980123
O O4 0.207756 0.272563 0.051274
O O5 0.500000 0.852992 0.579995
O O6 0.707423 0.736774 0.639257
O O7 0.766342 0.000000 0.608308
O O8 0.500000 0.265009 0.886763
O O9 0.672761 0.205917 0.814222
O O10 0.500000 0.000000 0.856058
O O11 0.500000 0.500000 0.933966
O O12 0.788354 0.500000 0.259938
O O13 0.746369 0.757111 0.229226
O O14 0.000000 0.704043 0.288737
O O15 0.737990 0.500000 0.685980
O O16 0.000000 0.323515 0.673714
#
# Coordination Sequence:
#
# PCOD8178340 Si02
#       6
#     8   8   4   4   8   8
#     4   9  17  32  55  80 107 139 176 220 263 306
#     4  10  19  32  53  80 109 143 185 224 258 310
#     4  10  22  38  57  80 105 135 174 221 273 324
#     4  10  20  36  55  80 107 133 174 221 267 322
#     4   9  19  37  58  78 104 140 181 222 262 313
#     4  10  21  35  51  77 113 146 178 219 267 319
#
# _framework density 19.056197999999998
#
# number of rings (size 3 to 8) (size 9 to 14) (size 15 to 20)
#    0.000    2.400    1.000    1.200    1.400    4.000 
#    0.000    1.000    0.000    1.200    0.000    0.000 
#    0.000    0.000    0.000    0.000    0.000    0.000 
#
# Total GULP energy -247978.038485 kJ/mol
# GULP energy per Si atom -12398.901924 kJ/mol
# Density = 1.901282 g / cm^3
# Si number density = 19.056198 Si / 1000 Ang^3
#
#
#
# Elastic Constant Matrix: (Units=GPa)
#
#
# Indices 1 2 3 4 5 6 
#
# 1 124.2849 33.0199 72.8207 0.0000 0.0000 0.0000
# 2 33.0199 65.8167 55.0942 0.0000 0.0000 0.0000
# 3 72.8207 55.0942 142.0363 0.0000 0.0000 0.0000
# 4 0.0000 0.0000 0.0000 30.8276 0.0000 0.0000
# 5 0.0000 0.0000 0.0000 0.0000 26.7573 0.0000
# 6 0.0000 0.0000 0.0000 0.0000 0.0000 16.5068
#
#
#
# Elastic Compliance Matrix: (Units=1/GPa)
#
#
# Indices 1 2 3 4 5 6 
#
# 1 0.011569 -0.001243 -0.005449 0.000000 0.000000 0.000000
# 2 -0.001243 0.022632 -0.008142 0.000000 0.000000 0.000000
# 3 -0.005449 -0.008142 0.012992 0.000000 0.000000 0.000000
# 4 0.000000 0.000000 0.000000 0.032438 0.000000 0.000000
# 5 0.000000 0.000000 0.000000 0.000000 0.037373 0.000000
# 6 0.000000 0.000000 0.000000 0.000000 0.000000 0.060581
#
#
# Mechanical properties :
#
#
# Convention : Reuss Voigt Hill
#
# Bulk Modulus (GPa) = 57.05664 72.66751 64.86207
# Shear Modulus (GPa) = 23.46359 26.23187 24.84773
#
# Velocity S-wave (km/s) = 3.51277 3.71422 3.61490
# Velocity P-wave (km/s) = 6.81608 7.52396 7.17875
#
# Compressibility (1/GPa) = 0.01752645
#
# Stress axis : x y z
#
# Youngs Moduli (GPa) = 86.43773 44.18428 76.96802
#
# Poissons Ratio (x) = 0.05490 0.41943
# Poissons Ratio (y) = 0.10740 0.62666
# Poissons Ratio (z) = 0.47103 0.35974
#
# Static dielectric constant tensor:
#      x y z
#    x 3.675150 0.000000 0.000000 
#    y 0.000000 3.242020 0.000000 
#    z 0.000000 0.000000 3.331970 
# 
# 
# High freq. dielectric constant tensor:
#      x y z
#    x 1.754950 0.000000 0.000000 
#    y 0.000000 1.709910 0.000000 
#    z 0.000000 0.000000 1.735410 
# 
# From -- ./inp_files/23193.got.cif
#   From: 2010.03.12/outbox.cif.g09.slc.cpg/sg38_12_cif.got.tgz:23193.got - 2010.04.14 02:38:36.
