data_PCOD8178676
_publ_section_title
;
Structure prediction by ZEFSAII (Michael W. Deem and Ramdas Pophale) SiO2 
 PCOD8178676
Probable space group: A M M 2
;
_chemical_formula_sum "Si O2"
_cell_formula_units_Z 48
_cell_length_a 14.279232
_cell_length_b 8.514238
_cell_length_c 20.594435
_cell_angle_alpha 90.000000
_cell_angle_beta 90.000000
_cell_angle_gamma 90.000000
_cell_volume 2503.805087
_symmetry_space_group_name_H-M "A M M 2"
_symmetry_group_IT_number 38
_symmetry_cell_setting 'orthorhombic'
loop_
_space_group_symop_operation_xyz
x,y,z
-x,-y,z
-x,y,z
x,-y,z
x,1/2+y,1/2+z
-x,1/2-y,1/2+z
-x,1/2+y,1/2+z
x,1/2-y,1/2+z
loop_
_atom_site_type_symbol
_atom_site_label
_atom_site_fract_x
_atom_site_fract_y
_atom_site_fract_z
Si Si1 0.109893 0.680612 0.058200
Si Si2 0.203662 0.687029 0.684194
Si Si3 0.397820 0.686383 0.487570
Si Si4 0.601992 0.186319 0.133288
Si Si5 0.104519 0.815514 0.313105
Si Si6 0.206205 0.682677 0.435572
O O1 0.137537 0.500000 0.046080
O O2 0.142121 0.733889 0.128867
O O3 0.000000 0.706094 0.053033
O O4 0.157545 0.789548 0.004472
O O5 0.195188 0.500000 0.677686
O O6 0.312299 0.743351 0.678555
O O7 0.164635 0.750482 0.752775
O O8 0.500000 0.742560 0.461198
O O9 0.394432 0.500000 0.491345
O O10 0.382024 0.752529 0.560418
O O11 0.314144 0.743683 0.440640
O O12 0.500000 0.245819 0.159540
O O13 0.601127 0.000000 0.130707
O O14 0.155528 0.779160 0.380007
O O15 0.000000 0.740984 0.312731
O O16 0.095820 0.000000 0.306168
O O17 0.200877 0.500000 0.418062
#
# Coordination Sequence:
#
# PCOD8178676 Si02
#       6
#     8   8   8   8   8   8
#     4  11  23  36  52  77 109 139 171 221 278 319
#     4  10  19  35  58  81 104 138 183 220 256 314
#     4   8  14  27  50  80 108 132 165 213 266 314
#     4   8  13  25  50  82 109 132 165 212 263 313
#     4  10  22  38  53  73 109 150 179 216 273 319
#     4  11  21  35  57  81 103 137 185 224 256 311
#
# _framework density 19.170822000000001
#
# number of rings (size 3 to 8) (size 9 to 14) (size 15 to 20)
#    0.000    2.333    1.667    3.000    0.000    5.000 
#    0.000    0.833    0.000    4.500    0.000    0.000 
#    0.000    0.000    0.000    0.000    0.000    0.000 
#
# Total GULP energy -297481.356968 kJ/mol
# GULP energy per Si atom -12395.056540 kJ/mol
# Density = 1.912719 g / cm^3
# Si number density = 19.170822 Si / 1000 Ang^3
#
#
#
# Elastic Constant Matrix: (Units=GPa)
#
#
# Indices 1 2 3 4 5 6 
#
# 1 161.7916 17.7924 59.0378 0.0000 0.0000 0.0000
# 2 17.7924 14.7469 1.1487 0.0000 0.0000 0.0000
# 3 59.0378 1.1487 95.2445 0.0000 0.0000 0.0000
# 4 0.0000 0.0000 0.0000 22.5324 0.0000 0.0000
# 5 0.0000 0.0000 0.0000 0.0000 34.7434 0.0000
# 6 0.0000 0.0000 0.0000 0.0000 0.0000 18.3471
#
#
#
# Elastic Compliance Matrix: (Units=1/GPa)
#
#
# Indices 1 2 3 4 5 6 
#
# 1 0.009488 -0.011000 -0.005749 0.000000 0.000000 0.000000
# 2 -0.011000 0.080627 0.005846 0.000000 0.000000 0.000000
# 3 -0.005749 0.005846 0.013992 0.000000 0.000000 0.000000
# 4 0.000000 0.000000 0.000000 0.044380 0.000000 0.000000
# 5 0.000000 0.000000 0.000000 0.000000 0.028782 0.000000
# 6 0.000000 0.000000 0.000000 0.000000 0.000000 0.054504
#
#
# Mechanical properties :
#
#
# Convention : Reuss Voigt Hill
#
# Bulk Modulus (GPa) = 12.15036 47.52677 29.83857
# Shear Modulus (GPa) = 17.79274 28.04487 22.91881
#
# Velocity S-wave (km/s) = 3.04980 3.82893 3.46136
# Velocity P-wave (km/s) = 4.33052 6.66278 5.61899
#
# Compressibility (1/GPa) = 0.08230207
#
# Stress axis : x y z
#
# Youngs Moduli (GPa) = 105.39495 12.40281 71.46892
#
# Poissons Ratio (x) = 0.13643 0.41085
# Poissons Ratio (y) = 1.15932 -0.41780
# Poissons Ratio (z) = 0.60587 -0.07251
#
# Static dielectric constant tensor:
#      x y z
#    x 4.189010 0.000000 0.000000 
#    y 0.000000 3.122170 0.000000 
#    z 0.000000 0.000000 3.371490 
# 
# 
# High freq. dielectric constant tensor:
#      x y z
#    x 1.771530 0.000000 0.000000 
#    y 0.000000 1.708300 0.000000 
#    z 0.000000 0.000000 1.725380 
# 
# From -- ./inp_files/18151.got.cif
#   From: 2010.03.12/outbox.cif.g09.slc.cpg/sg38_10_cif.got.tgz:18151.got - 2010.04.14 02:38:36.
