data_PCOD8178131
_publ_section_title
;
Structure prediction by ZEFSAII (Michael W. Deem and Ramdas Pophale) SiO2 
 PCOD8178131
Probable space group: A M M 2
;
_chemical_formula_sum "Si O2"
_cell_formula_units_Z 56
_cell_length_a 17.853382
_cell_length_b 8.729337
_cell_length_c 19.316811
_cell_angle_alpha 90.000000
_cell_angle_beta 90.000000
_cell_angle_gamma 90.000000
_cell_volume 3010.489994
_symmetry_space_group_name_H-M "A M M 2"
_symmetry_group_IT_number 38
_symmetry_cell_setting 'orthorhombic'
loop_
_space_group_symop_operation_xyz
x,y,z
-x,-y,z
-x,y,z
x,-y,z
x,1/2+y,1/2+z
-x,1/2-y,1/2+z
-x,1/2+y,1/2+z
x,1/2-y,1/2+z
loop_
_atom_site_type_symbol
_atom_site_label
_atom_site_fract_x
_atom_site_fract_y
_atom_site_fract_z
Si Si1 0.914665 0.831630 0.077670
Si Si2 0.195036 0.822131 0.660569
Si Si3 0.238329 0.679229 0.396023
Si Si4 0.085109 0.818701 0.431383
Si Si5 0.300318 0.320041 0.764047
Si Si6 0.417121 0.180512 0.150673
Si Si7 0.294080 0.678828 0.546960
O O1 0.888893 0.733494 0.144488
O O2 0.000000 0.860319 0.090610
O O3 0.875049 0.000000 0.071926
O O4 0.898711 0.738288 0.008298
O O5 0.224440 0.722850 0.724244
O O6 0.236133 0.781653 0.588916
O O7 0.200445 0.000000 0.679056
O O8 0.226839 0.500000 0.387833
O O9 0.154747 0.752128 0.386726
O O10 0.296354 0.739198 0.338274
O O11 0.282131 0.720998 0.466866
O O12 0.000000 0.766275 0.407651
O O13 0.089604 0.000000 0.428834
O O14 0.305775 0.500000 0.775433
O O15 0.369566 0.257730 0.716915
O O16 0.500000 0.255840 0.150928
O O17 0.376596 0.221051 0.077481
O O18 0.423972 0.000000 0.158745
O O19 0.278930 0.500000 0.561195
#
# Coordination Sequence:
#
# PCOD8178131 Si02
#       7
#     8   8   8   8   8   8   8
#     4  10  19  31  49  74 104 138 177 223 273 319
#     4  11  20  32  52  76 103 135 176 223 268 319
#     4  11  21  34  53  79 112 146 184 227 272 322
#     4  10  20  33  51  77 107 142 184 228 275 321
#     4  10  21  36  55  77 107 144 182 222 271 325
#     4   8  15  32  58  83 105 137 181 222 266 325
#     4   9  18  32  53  79 106 137 174 218 266 317
#
# _framework density 18.601623
#
# number of rings (size 3 to 8) (size 9 to 14) (size 15 to 20)
#    0.000    2.143    1.429    3.857    0.000    2.286 
#    0.000    1.429    0.000   15.857    0.000    0.000 
#    0.000    0.000    0.000    0.000    0.000    0.000 
#
# Total GULP energy -346936.792832 kJ/mol
# GULP energy per Si atom -12390.599744 kJ/mol
# Density = 1.855928 g / cm^3
# Si number density = 18.601623 Si / 1000 Ang^3
#
#
#
# Elastic Constant Matrix: (Units=GPa)
#
#
# Indices 1 2 3 4 5 6 
#
# 1 100.2934 22.4330 50.1587 0.0000 0.0000 0.0000
# 2 22.4330 60.5302 25.2977 0.0000 0.0000 0.0000
# 3 50.1587 25.2977 103.4000 0.0000 0.0000 0.0000
# 4 0.0000 0.0000 0.0000 29.5697 0.0000 0.0000
# 5 0.0000 0.0000 0.0000 0.0000 22.9705 0.0000
# 6 0.0000 0.0000 0.0000 0.0000 0.0000 15.9051
#
#
#
# Elastic Compliance Matrix: (Units=1/GPa)
#
#
# Indices 1 2 3 4 5 6 
#
# 1 0.013502 -0.002525 -0.005932 0.000000 0.000000 0.000000
# 2 -0.002525 0.018874 -0.003393 0.000000 0.000000 0.000000
# 3 -0.005932 -0.003393 0.013379 0.000000 0.000000 0.000000
# 4 0.000000 0.000000 0.000000 0.033818 0.000000 0.000000
# 5 0.000000 0.000000 0.000000 0.000000 0.043534 0.000000
# 6 0.000000 0.000000 0.000000 0.000000 0.000000 0.062873
#
#
# Mechanical properties :
#
#
# Convention : Reuss Voigt Hill
#
# Bulk Modulus (GPa) = 45.33973 51.11140 48.22557
# Shear Modulus (GPa) = 23.03797 24.77801 23.90799
#
# Velocity S-wave (km/s) = 3.52304 3.65366 3.58895
# Velocity P-wave (km/s) = 6.40126 6.73317 6.56931
#
# Compressibility (1/GPa) = 0.02205571
#
# Stress axis : x y z
#
# Youngs Moduli (GPa) = 74.06164 52.98164 74.74418
#
# Poissons Ratio (x) = 0.13377 0.44339
# Poissons Ratio (y) = 0.18699 0.25361
# Poissons Ratio (z) = 0.43935 0.17977
#
# Static dielectric constant tensor:
#      x y z
#    x 3.857510 0.000000 0.000000 
#    y 0.000000 3.413600 0.000000 
#    z 0.000000 0.000000 3.374910 
# 
# 
# High freq. dielectric constant tensor:
#      x y z
#    x 1.717070 0.000000 0.000000 
#    y 0.000000 1.715780 0.000000 
#    z 0.000000 0.000000 1.704190 
# 
# From -- ./inp_files/21292.got.cif
#   From: 2010.03.12/outbox.cif.g09.slc.cpg/sg38_11_cif.got.tgz:21292.got - 2010.04.14 02:38:36.
