data_PCOD8178796
_publ_section_title
;
Structure prediction by ZEFSAII (Michael W. Deem and Ramdas Pophale) SiO2 
 PCOD8178796
Probable space group: A M M 2
;
_chemical_formula_sum "Si O2"
_cell_formula_units_Z 64
_cell_length_a 9.232256
_cell_length_b 20.464136
_cell_length_c 22.353432
_cell_angle_alpha 90.000000
_cell_angle_beta 90.000000
_cell_angle_gamma 90.000000
_cell_volume 4223.237090
_symmetry_space_group_name_H-M "A M M 2"
_symmetry_group_IT_number 38
_symmetry_cell_setting 'orthorhombic'
loop_
_space_group_symop_operation_xyz
x,y,z
-x,-y,z
-x,y,z
x,-y,z
x,1/2+y,1/2+z
-x,1/2-y,1/2+z
-x,1/2+y,1/2+z
x,1/2-y,1/2+z
loop_
_atom_site_type_symbol
_atom_site_label
_atom_site_fract_x
_atom_site_fract_y
_atom_site_fract_z
Si Si1 0.159483 0.156881 0.040320
Si Si2 0.172596 0.072609 0.144722
Si Si3 0.338386 0.352586 0.040711
Si Si4 0.831597 0.576789 0.941249
Si Si5 0.839955 0.221353 0.628424
Si Si6 0.673403 0.325696 0.856655
Si Si7 0.171112 0.184774 0.232649
Si Si8 0.658136 0.729495 0.455084
O O1 0.232656 0.100300 0.081260
O O2 0.151584 0.221621 0.079916
O O3 0.000000 0.135337 0.019947
O O4 0.245954 0.169606 0.979061
O O5 0.220450 0.118416 0.199333
O O6 0.000000 0.073740 0.140559
O O7 0.234124 0.000000 0.155686
O O8 0.500000 0.381415 0.050858
O O9 0.267497 0.335746 0.105432
O O10 0.240513 0.404431 0.004731
O O11 0.349148 0.286394 0.003747
O O12 0.815678 0.500000 0.931035
O O13 0.750008 0.611326 0.885969
O O14 0.000000 0.598211 0.942135
O O15 0.789536 0.252407 0.691666
O O16 0.000000 0.190617 0.635844
O O17 0.500000 0.336542 0.857717
O O18 0.731464 0.312222 0.791007
O O19 0.718584 0.261045 0.894047
O O20 0.000000 0.183477 0.247765
O O21 0.500000 0.699813 0.443849
#
# Coordination Sequence:
#
# PCOD8178796 Si02
#       8
#     8   8   8   8   8   8   8   8
#     4   8  13  22  39  59  74  95 128 163 198 234
#     4   8  14  25  40  58  81 107 135 166 197 231
#     4   9  16  26  42  62  81 102 130 167 212 254
#     4  10  20  32  45  60  80 110 145 176 207 246
#     4   8  14  25  40  58  80 104 133 169 205 243
#     4  10  20  31  42  58  82 111 141 174 211 247
#     4   9  17  28  42  60  82 112 147 176 202 236
#     4   8  15  26  38  54  76 101 127 160 206 249
#
# _framework density 15.154252
#
# number of rings (size 3 to 8) (size 9 to 14) (size 15 to 20)
#    0.000    3.250    0.000    3.375    0.000    5.500 
#    0.000    3.125    0.000    1.125    0.000    0.000 
#    0.000    1.000    0.000    5.500    0.000    4.000 
#
# Total GULP energy -396518.126389 kJ/mol
# GULP energy per Si atom -12391.191450 kJ/mol
# Density = 1.511976 g / cm^3
# Si number density = 15.154252 Si / 1000 Ang^3
#
#
#
# Elastic Constant Matrix: (Units=GPa)
#
#
# Indices 1 2 3 4 5 6 
#
# 1 82.3636 27.4556 55.0077 0.0000 0.0000 0.0000
# 2 27.4556 26.1708 52.3889 0.0000 0.0000 0.0000
# 3 55.0077 52.3889 106.6023 0.0000 0.0000 0.0000
# 4 0.0000 0.0000 0.0000 15.8691 0.0000 0.0000
# 5 0.0000 0.0000 0.0000 0.0000 22.3537 0.0000
# 6 0.0000 0.0000 0.0000 0.0000 0.0000 11.8058
#
#
#
# Elastic Compliance Matrix: (Units=1/GPa)
#
#
# Indices 1 2 3 4 5 6 
#
# 1 0.018671 -0.018573 -0.000507 0.000000 0.000000 0.000000
# 2 -0.018573 2.373180 -1.156697 0.000000 0.000000 0.000000
# 3 -0.000507 -1.156697 0.578092 0.000000 0.000000 0.000000
# 4 0.000000 0.000000 0.000000 0.063016 0.000000 0.000000
# 5 0.000000 0.000000 0.000000 0.000000 0.044735 0.000000
# 6 0.000000 0.000000 0.000000 0.000000 0.000000 0.084704
#
#
# Mechanical properties :
#
#
# Convention : Reuss Voigt Hill
#
# Bulk Modulus (GPa) = 1.61710 53.87122 27.74416
# Shear Modulus (GPa) = 0.87411 15.35803 8.11607
#
# Velocity S-wave (km/s) = 0.76030 3.18692 2.31674
# Velocity P-wave (km/s) = 1.35653 7.01197 5.05014
#
# Compressibility (1/GPa) = 0.61838996
#
# Stress axis : x y z
#
# Youngs Moduli (GPa) = 53.55889 0.42138 1.72983
#
# Poissons Ratio (x) = 0.00783 0.00088
# Poissons Ratio (y) = 0.99473 2.00089
# Poissons Ratio (z) = 0.02716 0.48740
#
# Static dielectric constant tensor:
#      x y z
#    x 3.089050 0.000000 0.000000 
#    y 0.000000 2.778400 0.000000 
#    z 0.000000 0.000000 2.883890 
# 
# 
# High freq. dielectric constant tensor:
#      x y z
#    x 1.578900 0.000000 0.000000 
#    y 0.000000 1.542080 0.000000 
#    z 0.000000 0.000000 1.563760 
# 
# From -- ./inp_files/17282.got.cif
#   From: 2010.03.12/outbox.cif.g09.slc.cpg/sg38_9_cif.got.tgz:17282.got - 2010.04.14 02:38:36.
