data_PCOD8178307
_publ_section_title
;
Structure prediction by ZEFSAII (Michael W. Deem and Ramdas Pophale) SiO2 
 PCOD8178307
Probable space group: A M M 2
;
_chemical_formula_sum "Si O2"
_cell_formula_units_Z 40
_cell_length_a 8.518526
_cell_length_b 13.607696
_cell_length_c 18.640575
_cell_angle_alpha 90.000000
_cell_angle_beta 90.000000
_cell_angle_gamma 90.000000
_cell_volume 2160.769080
_symmetry_space_group_name_H-M "A M M 2"
_symmetry_group_IT_number 38
_symmetry_cell_setting 'orthorhombic'
loop_
_space_group_symop_operation_xyz
x,y,z
-x,-y,z
-x,y,z
x,-y,z
x,1/2+y,1/2+z
-x,1/2-y,1/2+z
-x,1/2+y,1/2+z
x,1/2-y,1/2+z
loop_
_atom_site_type_symbol
_atom_site_label
_atom_site_fract_x
_atom_site_fract_y
_atom_site_fract_z
Si Si1 0.315774 0.786166 0.168140
Si Si2 0.684227 0.713835 0.380952
Si Si3 0.182147 0.111298 0.746104
Si Si4 0.313100 0.610588 0.524546
Si Si5 0.817853 0.611298 0.802988
O O1 0.500000 0.766889 0.163985
O O2 0.230225 0.681924 0.180462
O O3 0.250818 0.832621 0.094630
O O4 0.280753 0.861215 0.232568
O O5 0.500000 0.733104 0.385105
O O6 0.719252 0.638787 0.316525
O O7 0.749183 0.667382 0.454463
O O8 0.769772 0.818079 0.368630
O O9 0.000000 0.125738 0.764297
O O10 0.220937 0.000000 0.723499
O O11 0.500000 0.606318 0.524547
O O12 0.244642 0.500000 0.524545
O O13 0.779067 0.500000 0.825594
O O14 0.000000 0.625739 0.784793
#
# Coordination Sequence:
#
# PCOD8178307 Si02
#       5
#     8   8   8   8   8
#     4  10  19  32  53  77 100 128 164 206 247 291
#     4  10  19  32  53  77 100 128 164 206 247 291
#     4  10  20  34  51  72 101 134 166 203 245 290
#     4   9  18  32  50  75 104 128 155 199 252 297
#     4  10  20  34  51  72 101 134 166 203 245 290
#
# _framework density 18.511925999999999
#
# number of rings (size 3 to 8) (size 9 to 14) (size 15 to 20)
#    0.000    2.200    0.000    6.000    0.000    4.800 
#    0.000    5.000    0.000   13.200    0.000    0.000 
#    0.000    0.000    0.000    0.000    0.000    0.000 
#
# Total GULP energy -248027.742223 kJ/mol
# GULP energy per Si atom -12401.387111 kJ/mol
# Density = 1.846979 g / cm^3
# Si number density = 18.511926 Si / 1000 Ang^3
#
#
#
# Elastic Constant Matrix: (Units=GPa)
#
#
# Indices 1 2 3 4 5 6 
#
# 1 37.6951 23.4349 5.4694 0.0000 0.0000 0.0000
# 2 23.4349 178.1580 76.4252 0.0000 0.0000 0.0000
# 3 5.4694 76.4252 130.4251 0.0000 0.0000 0.0000
# 4 0.0000 0.0000 0.0000 25.2235 0.0000 0.0000
# 5 0.0000 0.0000 0.0000 0.0000 1.9176 0.0000
# 6 0.0000 0.0000 0.0000 0.0000 0.0000 30.7381
#
#
#
# Elastic Compliance Matrix: (Units=1/GPa)
#
#
# Indices 1 2 3 4 5 6 
#
# 1 0.029072 -0.004410 0.001365 0.000000 0.000000 0.000000
# 2 -0.004410 0.008166 -0.004600 0.000000 0.000000 0.000000
# 3 0.001365 -0.004600 0.010306 0.000000 0.000000 0.000000
# 4 0.000000 0.000000 0.000000 0.039646 0.000000 0.000000
# 5 0.000000 0.000000 0.000000 0.000000 0.521486 0.000000
# 6 0.000000 0.000000 0.000000 0.000000 0.000000 0.032533
#
#
# Mechanical properties :
#
#
# Convention : Reuss Voigt Hill
#
# Bulk Modulus (GPa) = 31.00412 61.88188 46.44300
# Shear Modulus (GPa) = 7.49344 27.63908 17.56626
#
# Velocity S-wave (km/s) = 2.01412 3.86818 3.08379
# Velocity P-wave (km/s) = 4.71099 7.31103 6.14998
#
# Compressibility (1/GPa) = 0.03225378
#
# Stress axis : x y z
#
# Youngs Moduli (GPa) = 34.39730 122.45178 97.03370
#
# Poissons Ratio (x) = 0.53996 -0.13243
# Poissons Ratio (y) = 0.15168 0.44639
# Poissons Ratio (z) = -0.04694 0.56333
#
# Static dielectric constant tensor:
#      x y z
#    x 3.297800 0.000000 0.000000 
#    y 0.000000 3.616540 0.000000 
#    z 0.000000 0.000000 3.413280 
# 
# 
# High freq. dielectric constant tensor:
#      x y z
#    x 1.712520 0.000000 0.000000 
#    y 0.000000 1.728420 0.000000 
#    z 0.000000 0.000000 1.702210 
# 
# From -- ./inp_files/16466.got.cif
#   From: 2010.03.12/outbox.cif.g09.slc.cpg/sg38_9_cif.got.tgz:16466.got - 2010.04.14 02:38:36.
