data_PCOD8178212
_publ_section_title
;
Structure prediction by ZEFSAII (Michael W. Deem and Ramdas Pophale) SiO2 
 PCOD8178212
Probable space group: A M M 2
;
_chemical_formula_sum "Si O2"
_cell_formula_units_Z 48
_cell_length_a 16.343626
_cell_length_b 13.348475
_cell_length_c 12.916467
_cell_angle_alpha 90.000000
_cell_angle_beta 90.000000
_cell_angle_gamma 90.000000
_cell_volume 2817.888513
_symmetry_space_group_name_H-M "A M M 2"
_symmetry_group_IT_number 38
_symmetry_cell_setting 'orthorhombic'
loop_
_space_group_symop_operation_xyz
x,y,z
-x,-y,z
-x,y,z
x,-y,z
x,1/2+y,1/2+z
-x,1/2-y,1/2+z
-x,1/2+y,1/2+z
x,1/2-y,1/2+z
loop_
_atom_site_type_symbol
_atom_site_label
_atom_site_fract_x
_atom_site_fract_y
_atom_site_fract_z
Si Si1 0.500000 0.113736 0.565380
Si Si2 0.670716 0.789472 0.592459
Si Si3 0.330950 0.115732 0.235773
Si Si4 0.500000 0.388193 0.822131
Si Si5 0.905958 0.617033 0.044886
Si Si6 0.222486 0.211974 0.395970
Si Si7 0.201256 0.615537 0.235301
O O1 0.421936 0.175107 0.602554
O O2 0.500000 0.109918 0.443633
O O3 0.500000 0.000000 0.609763
O O4 0.683607 0.676340 0.631078
O O5 0.702226 0.783746 0.475620
O O6 0.719196 0.867746 0.664408
O O7 0.415493 0.161489 0.283210
O O8 0.253402 0.132160 0.311213
O O9 0.336726 0.000000 0.207875
O O10 0.500000 0.500000 0.777237
O O11 0.891945 0.500000 0.024007
O O12 0.875382 0.644147 0.160878
O O13 0.000000 0.648693 0.037242
O O14 0.858809 0.676845 0.954975
O O15 0.202907 0.317297 0.339134
O O16 0.197337 0.500000 0.270969
#
# Coordination Sequence:
#
# PCOD8178212 Si02
#       7
#     4   8   8   4   8   8   8
#     4  11  19  30  51  72  94 128 169 209 246 285
#     4  10  20  32  49  73  97 129 167 206 244 286
#     4  10  19  32  49  71  99 130 164 202 245 289
#     4   9  17  28  46  68  90 124 164 199 237 281
#     4   9  18  33  53  76  99 124 158 200 243 289
#     4  10  19  32  51  75  99 127 163 200 243 291
#     4   9  19  34  51  72 101 132 164 200 242 291
#
# _framework density 17.034030999999999
#
# number of rings (size 3 to 8) (size 9 to 14) (size 15 to 20)
#    0.000    2.333    1.667    1.500    0.000    2.667 
#    0.000    0.000    0.000    0.000    0.000    0.000 
#    0.000    0.000    0.000    0.000    0.000    0.000 
#
# Total GULP energy -297475.302284 kJ/mol
# GULP energy per Si atom -12394.804262 kJ/mol
# Density = 1.699526 g / cm^3
# Si number density = 17.034031 Si / 1000 Ang^3
#
#
#
# Elastic Constant Matrix: (Units=GPa)
#
#
# Indices 1 2 3 4 5 6 
#
# 1 116.0035 36.9568 33.9202 0.0000 0.0000 0.0000
# 2 36.9568 90.0378 43.5414 0.0000 0.0000 0.0000
# 3 33.9202 43.5414 72.1468 0.0000 0.0000 0.0000
# 4 0.0000 0.0000 0.0000 19.2653 0.0000 0.0000
# 5 0.0000 0.0000 0.0000 0.0000 11.7469 0.0000
# 6 0.0000 0.0000 0.0000 0.0000 0.0000 13.9744
#
#
#
# Elastic Compliance Matrix: (Units=1/GPa)
#
#
# Indices 1 2 3 4 5 6 
#
# 1 0.010439 -0.002699 -0.003279 0.000000 0.000000 0.000000
# 2 -0.002699 0.016382 -0.008618 0.000000 0.000000 0.000000
# 3 -0.003279 -0.008618 0.020603 0.000000 0.000000 0.000000
# 4 0.000000 0.000000 0.000000 0.051907 0.000000 0.000000
# 5 0.000000 0.000000 0.000000 0.000000 0.085129 0.000000
# 6 0.000000 0.000000 0.000000 0.000000 0.000000 0.071559
#
#
# Mechanical properties :
#
#
# Convention : Reuss Voigt Hill
#
# Bulk Modulus (GPa) = 54.84719 56.33610 55.59165
# Shear Modulus (GPa) = 17.16517 19.91531 18.54024
#
# Velocity S-wave (km/s) = 3.17787 3.42299 3.30271
# Velocity P-wave (km/s) = 6.76267 6.98333 6.87389
#
# Compressibility (1/GPa) = 0.01823247
#
# Stress axis : x y z
#
# Youngs Moduli (GPa) = 95.79327 61.04379 48.53647
#
# Poissons Ratio (x) = 0.16476 0.15915
# Poissons Ratio (y) = 0.25856 0.41826
# Poissons Ratio (z) = 0.31411 0.52605
#
# Static dielectric constant tensor:
#      x y z
#    x 3.443930 0.000000 0.000000 
#    y 0.000000 3.072280 0.000000 
#    z 0.000000 0.000000 3.065060 
# 
# 
# High freq. dielectric constant tensor:
#      x y z
#    x 1.660740 0.000000 0.000000 
#    y 0.000000 1.646590 0.000000 
#    z 0.000000 0.000000 1.650750 
# 
# From -- ./inp_files/10030.got.cif
#   From: 2010.03.12/outbox.cif.g09.slc.cpg/sg38_6_cif.got.tgz:10030.got - 2010.04.14 02:38:36.
