data_PCOD8178286
_publ_section_title
;
Structure prediction by ZEFSAII (Michael W. Deem and Ramdas Pophale) SiO2 
 PCOD8178286
Probable space group: A M M 2
;
_chemical_formula_sum "Si O2"
_cell_formula_units_Z 64
_cell_length_a 9.125816
_cell_length_b 15.768499
_cell_length_c 23.449981
_cell_angle_alpha 90.000000
_cell_angle_beta 90.000000
_cell_angle_gamma 90.000000
_cell_volume 3374.462126
_symmetry_space_group_name_H-M "A M M 2"
_symmetry_group_IT_number 38
_symmetry_cell_setting 'orthorhombic'
loop_
_space_group_symop_operation_xyz
x,y,z
-x,-y,z
-x,y,z
x,-y,z
x,1/2+y,1/2+z
-x,1/2-y,1/2+z
-x,1/2+y,1/2+z
x,1/2-y,1/2+z
loop_
_atom_site_type_symbol
_atom_site_label
_atom_site_fract_x
_atom_site_fract_y
_atom_site_fract_z
Si Si1 0.673106 0.653661 0.820750
Si Si2 0.171839 0.245791 0.654548
Si Si3 0.167689 0.907805 0.216798
Si Si4 0.830097 0.403042 0.470902
Si Si5 0.659074 0.903544 0.861495
Si Si6 0.672034 0.402928 0.947670
Si Si7 0.827973 0.730577 0.029862
Si Si8 0.172676 0.317898 0.274359
O O1 0.500000 0.663469 0.812882
O O2 0.735354 0.588709 0.773867
O O3 0.714379 0.618581 0.882792
O O4 0.754081 0.742339 0.810352
O O5 0.230582 0.339224 0.672124
O O6 0.236696 0.215186 0.594055
O O7 0.211932 0.183063 0.706955
O O8 0.000000 0.251923 0.645145
O O9 0.000000 0.883058 0.233460
O O10 0.174136 0.000000 0.187445
O O11 0.783048 0.500000 0.489676
O O12 0.746722 0.367260 0.415395
O O13 0.795995 0.330685 0.517822
O O14 0.000000 0.404400 0.455109
O O15 0.500000 0.857143 0.856007
O O16 0.753593 0.899460 0.803107
O O17 0.630020 0.000000 0.874718
O O18 0.500000 0.393321 0.957215
O O19 0.721582 0.500000 0.960967
O O20 0.749756 0.336068 0.988965
O O21 0.000000 0.711773 0.025117
O O22 0.000000 0.316629 0.283628
#
# Coordination Sequence:
#
# PCOD8178286 Si02
#       8
#     8   8   8   8   8   8   8   8
#     4  10  19  32  52  76 103 133 164 203 254 310
#     4   8  17  33  50  71  99 130 166 207 251 298
#     4   9  17  30  50  76 105 135 165 200 245 299
#     4   9  18  32  52  80 110 138 169 206 251 305
#     4  10  20  33  50  74 103 132 164 205 253 305
#     4  10  22  38  53  72 101 137 174 213 262 313
#     4  10  20  35  55  77 102 135 176 218 255 297
#     4  10  19  33  53  75 101 132 165 204 253 307
#
# _framework density 18.965986999999998
#
# number of rings (size 3 to 8) (size 9 to 14) (size 15 to 20)
#    0.000    2.500    0.000    3.000    0.000    5.750 
#    0.000    6.250    0.000    3.750    0.000    3.500 
#    0.000    0.000    0.000    0.000    0.000    0.000 
#
# Total GULP energy -396477.058243 kJ/mol
# GULP energy per Si atom -12389.908070 kJ/mol
# Density = 1.892282 g / cm^3
# Si number density = 18.965987 Si / 1000 Ang^3
#
#
#
# Elastic Constant Matrix: (Units=GPa)
#
#
# Indices 1 2 3 4 5 6 
#
# 1 66.2662 24.9780 45.2020 0.0000 0.0000 0.0000
# 2 24.9780 67.1139 42.3105 0.0000 0.0000 0.0000
# 3 45.2020 42.3105 128.1883 0.0000 0.0000 0.0000
# 4 0.0000 0.0000 0.0000 19.2296 0.0000 0.0000
# 5 0.0000 0.0000 0.0000 0.0000 12.6534 0.0000
# 6 0.0000 0.0000 0.0000 0.0000 0.0000 24.0203
#
#
#
# Elastic Compliance Matrix: (Units=1/GPa)
#
#
# Indices 1 2 3 4 5 6 
#
# 1 0.020651 -0.003908 -0.005992 0.000000 0.000000 0.000000
# 2 -0.003908 0.019555 -0.005076 0.000000 0.000000 0.000000
# 3 -0.005992 -0.005076 0.011589 0.000000 0.000000 0.000000
# 4 0.000000 0.000000 0.000000 0.052003 0.000000 0.000000
# 5 0.000000 0.000000 0.000000 0.000000 0.079030 0.000000
# 6 0.000000 0.000000 0.000000 0.000000 0.000000 0.041631
#
#
# Mechanical properties :
#
#
# Convention : Reuss Voigt Hill
#
# Bulk Modulus (GPa) = 45.78269 54.06105 49.92187
# Shear Modulus (GPa) = 19.10628 21.11918 20.11273
#
# Velocity S-wave (km/s) = 3.17739 3.34058 3.26001
# Velocity P-wave (km/s) = 6.13620 6.59131 6.36782
#
# Compressibility (1/GPa) = 0.02184232
#
# Stress axis : x y z
#
# Youngs Moduli (GPa) = 48.42340 51.13837 86.28543
#
# Poissons Ratio (x) = 0.19986 0.51703
# Poissons Ratio (y) = 0.18925 0.43800
# Poissons Ratio (z) = 0.29016 0.25959
#
# Static dielectric constant tensor:
#      x y z
#    x 3.618950 0.000000 0.000000 
#    y 0.000000 3.549690 0.000000 
#    z 0.000000 0.000000 3.610090 
# 
# 
# High freq. dielectric constant tensor:
#      x y z
#    x 1.725100 0.000000 0.000000 
#    y 0.000000 1.733700 0.000000 
#    z 0.000000 0.000000 1.730250 
# 
# From -- ./inp_files/20105.got.cif
#   From: 2010.03.12/outbox.cif.g09.slc.cpg/sg38_11_cif.got.tgz:20105.got - 2010.04.14 02:38:36.
