data_PCOD8178762
_publ_section_title
;
Structure prediction by ZEFSAII (Michael W. Deem and Ramdas Pophale) SiO2 
 PCOD8178762
Probable space group: A M M 2
;
_chemical_formula_sum "Si O2"
_cell_formula_units_Z 64
_cell_length_a 9.107628
_cell_length_b 30.725258
_cell_length_c 11.860236
_cell_angle_alpha 90.000000
_cell_angle_beta 90.000000
_cell_angle_gamma 90.000000
_cell_volume 3318.899891
_symmetry_space_group_name_H-M "A M M 2"
_symmetry_group_IT_number 38
_symmetry_cell_setting 'orthorhombic'
loop_
_space_group_symop_operation_xyz
x,y,z
-x,-y,z
-x,y,z
x,-y,z
x,1/2+y,1/2+z
-x,1/2-y,1/2+z
-x,1/2+y,1/2+z
x,1/2-y,1/2+z
loop_
_atom_site_type_symbol
_atom_site_label
_atom_site_fract_x
_atom_site_fract_y
_atom_site_fract_z
Si Si1 0.330891 0.048671 0.264890
Si Si2 0.334345 0.706977 0.242581
Si Si3 0.326098 0.372388 0.400893
Si Si4 0.173986 0.874491 0.140331
Si Si5 0.674528 0.451838 0.247899
Si Si6 0.672597 0.576023 0.007177
Si Si7 0.172710 0.707120 0.791226
Si Si8 0.666556 0.327957 0.993323
O O1 0.500000 0.063484 0.249240
O O2 0.227100 0.081015 0.197283
O O3 0.289749 0.047282 0.397780
O O4 0.307202 0.000000 0.217175
O O5 0.500000 0.722285 0.270023
O O6 0.283007 0.670984 0.332691
O O7 0.227883 0.747986 0.239075
O O8 0.325536 0.685519 0.121636
O O9 0.500000 0.375461 0.420086
O O10 0.245213 0.369683 0.518838
O O11 0.267612 0.415016 0.333730
O O12 0.225709 0.833399 0.214970
O O13 0.000000 0.876058 0.127836
O O14 0.500000 0.449281 0.242921
O O15 0.725149 0.500000 0.288717
O O16 0.739997 0.444179 0.121769
O O17 0.500000 0.580387 0.026720
O O18 0.736338 0.624024 0.984154
O O19 0.000000 0.708712 0.799394
O O20 0.237394 0.703837 0.916657
O O21 0.500000 0.326628 0.947998
#
# Coordination Sequence:
#
# PCOD8178762 Si02
#       8
#     8   8   8   8   8   8   8   8
#     4  10  20  35  60  91 117 147 191 239 286 340
#     4  10  22  39  61  89 116 148 191 240 296 347
#     4  10  21  38  59  85 115 149 192 240 284 339
#     4  11  25  42  57  79 115 159 197 237 288 341
#     4   9  16  29  54  88 120 145 175 224 283 337
#     4   9  15  29  55  88 121 145 174 224 285 340
#     4  11  25  41  58  83 116 153 196 240 288 346
#     4  10  19  36  63  90 117 148 186 236 291 345
#
# _framework density 19.283498000000002
#
# number of rings (size 3 to 8) (size 9 to 14) (size 15 to 20)
#    0.000    2.000    2.500    1.125    1.750    4.750 
#    0.000    1.250    0.000    0.750    0.000    0.000 
#    0.000    0.000    0.000    0.000    0.000    0.000 
#
# Total GULP energy -396793.346101 kJ/mol
# GULP energy per Si atom -12399.792066 kJ/mol
# Density = 1.923961 g / cm^3
# Si number density = 19.283498 Si / 1000 Ang^3
#
#
#
# Elastic Constant Matrix: (Units=GPa)
#
#
# Indices 1 2 3 4 5 6 
#
# 1 50.5732 41.0654 39.2415 0.0000 0.0000 0.0000
# 2 41.0654 125.9859 43.6843 0.0000 0.0000 0.0000
# 3 39.2415 43.6843 108.7268 0.0000 0.0000 0.0000
# 4 0.0000 0.0000 0.0000 19.2156 0.0000 0.0000
# 5 0.0000 0.0000 0.0000 0.0000 6.0037 0.0000
# 6 0.0000 0.0000 0.0000 0.0000 0.0000 19.8411
#
#
#
# Elastic Compliance Matrix: (Units=1/GPa)
#
#
# Indices 1 2 3 4 5 6 
#
# 1 0.032779 -0.007648 -0.008758 0.000000 0.000000 0.000000
# 2 -0.007648 0.011006 -0.001662 0.000000 0.000000 0.000000
# 3 -0.008758 -0.001662 0.013026 0.000000 0.000000 0.000000
# 4 0.000000 0.000000 0.000000 0.052041 0.000000 0.000000
# 5 0.000000 0.000000 0.000000 0.000000 0.166564 0.000000
# 6 0.000000 0.000000 0.000000 0.000000 0.000000 0.050400
#
#
# Mechanical properties :
#
#
# Convention : Reuss Voigt Hill
#
# Bulk Modulus (GPa) = 48.36458 59.25202 53.80830
# Shear Modulus (GPa) = 13.55591 19.76506 16.66048
#
# Velocity S-wave (km/s) = 2.65425 3.20499 2.94254
# Velocity P-wave (km/s) = 5.87611 6.67004 6.28562
#
# Compressibility (1/GPa) = 0.02067629
#
# Stress axis : x y z
#
# Youngs Moduli (GPa) = 30.50768 90.85592 76.76974
#
# Poissons Ratio (x) = 0.69483 0.67233
# Poissons Ratio (y) = 0.23331 0.12759
# Poissons Ratio (z) = 0.26718 0.15100
#
# Static dielectric constant tensor:
#      x y z
#    x 3.182610 0.000000 0.000000 
#    y 0.000000 3.769310 0.000000 
#    z 0.000000 0.000000 3.539810 
# 
# 
# High freq. dielectric constant tensor:
#      x y z
#    x 1.708980 0.000000 0.000000 
#    y 0.000000 1.764970 0.000000 
#    z 0.000000 0.000000 1.757550 
# 
# From -- ./inp_files/8596.got.cif
#   From: 2010.03.12/outbox.cif.g09.slc.cpg/sg38_5_cif.got.tgz:8596.got - 2010.04.14 02:38:36.
