data_PCOD8178004
_publ_section_title
;
Structure prediction by ZEFSAII (Michael W. Deem and Ramdas Pophale) SiO2 
 PCOD8178004
Probable space group: A M M 2
;
_chemical_formula_sum "Si O2"
_cell_formula_units_Z 64
_cell_length_a 9.268062
_cell_length_b 23.339824
_cell_length_c 18.738037
_cell_angle_alpha 90.000000
_cell_angle_beta 90.000000
_cell_angle_gamma 90.000000
_cell_volume 4053.317273
_symmetry_space_group_name_H-M "A M M 2"
_symmetry_group_IT_number 38
_symmetry_cell_setting 'orthorhombic'
loop_
_space_group_symop_operation_xyz
x,y,z
-x,-y,z
-x,y,z
x,-y,z
x,1/2+y,1/2+z
-x,1/2-y,1/2+z
-x,1/2+y,1/2+z
x,1/2-y,1/2+z
loop_
_atom_site_type_symbol
_atom_site_label
_atom_site_fract_x
_atom_site_fract_y
_atom_site_fract_z
Si Si1 0.333611 0.671855 0.800240
Si Si2 0.665574 0.435822 0.888032
Si Si3 0.335188 0.767968 0.160491
Si Si4 0.830274 0.884796 0.518899
Si Si5 0.833153 0.433218 0.171714
Si Si6 0.330265 0.841062 0.755571
Si Si7 0.167912 0.273224 0.368429
Si Si8 0.833982 0.744380 0.025925
O O1 0.500000 0.689897 0.815484
O O2 0.302040 0.606295 0.821478
O O3 0.301615 0.680688 0.716170
O O4 0.229797 0.711412 0.847078
O O5 0.500000 0.430373 0.911724
O O6 0.702953 0.500000 0.862205
O O7 0.759546 0.420791 0.956229
O O8 0.500000 0.767929 0.136499
O O9 0.294182 0.707862 0.197731
O O10 0.243164 0.778210 0.089659
O O11 0.786376 0.914800 0.592628
O O12 0.770251 0.819855 0.518303
O O13 0.000000 0.886023 0.505596
O O14 0.803601 0.500000 0.181844
O O15 0.735418 0.400719 0.229306
O O16 0.000000 0.417553 0.185094
O O17 0.500000 0.847617 0.768640
O O18 0.254796 0.824180 0.830167
O O19 0.188369 0.280055 0.453393
O O20 0.000000 0.275848 0.346920
O O21 0.000000 0.739495 0.047203
#
# Coordination Sequence:
#
# PCOD8178004 Si02
#       8
#     8   8   8   8   8   8   8   8
#     4   9  18  32  46  66  94 122 157 197 236 279
#     4  10  20  32  47  67  94 130 166 198 233 274
#     4   9  18  30  46  66  90 121 154 192 238 282
#     4  10  19  32  46  66  97 130 164 197 229 271
#     4  10  20  33  49  68  94 131 167 198 234 274
#     4  10  20  33  48  69  94 124 159 198 240 278
#     4  10  19  31  48  69  93 121 155 193 237 286
#     4  10  19  30  47  71  95 122 155 191 235 282
#
# _framework density 15.789536999999999
#
# number of rings (size 3 to 8) (size 9 to 14) (size 15 to 20)
#    0.000    2.250    2.500    1.875    0.000    5.000 
#    0.000    0.000    0.000    0.000    0.000    0.875 
#    0.000    3.000    0.000    0.000    0.000    0.000 
#
# Total GULP energy -396830.323078 kJ/mol
# GULP energy per Si atom -12400.947596 kJ/mol
# Density = 1.575360 g / cm^3
# Si number density = 15.789537 Si / 1000 Ang^3
#
#
#
# Elastic Constant Matrix: (Units=GPa)
#
#
# Indices 1 2 3 4 5 6 
#
# 1 70.5823 40.6618 57.0503 0.0000 0.0000 0.0000
# 2 40.6618 92.6935 57.7214 0.0000 0.0000 0.0000
# 3 57.0503 57.7214 105.2570 0.0000 0.0000 0.0000
# 4 0.0000 0.0000 0.0000 24.6994 0.0000 0.0000
# 5 0.0000 0.0000 0.0000 0.0000 29.0688 0.0000
# 6 0.0000 0.0000 0.0000 0.0000 0.0000 20.6342
#
#
#
# Elastic Compliance Matrix: (Units=1/GPa)
#
#
# Indices 1 2 3 4 5 6 
#
# 1 0.026164 -0.004019 -0.011977 0.000000 0.000000 0.000000
# 2 -0.004019 0.017000 -0.007144 0.000000 0.000000 0.000000
# 3 -0.011977 -0.007144 0.019910 0.000000 0.000000 0.000000
# 4 0.000000 0.000000 0.000000 0.040487 0.000000 0.000000
# 5 0.000000 0.000000 0.000000 0.000000 0.034401 0.000000
# 6 0.000000 0.000000 0.000000 0.000000 0.000000 0.048463
#
#
# Mechanical properties :
#
#
# Convention : Reuss Voigt Hill
#
# Bulk Modulus (GPa) = 59.54742 64.37775 61.96259
# Shear Modulus (GPa) = 20.98157 22.42043 21.70100
#
# Velocity S-wave (km/s) = 3.64926 3.77232 3.71130
# Velocity P-wave (km/s) = 7.45327 7.73529 7.59559
#
# Compressibility (1/GPa) = 0.01679334
#
# Stress axis : x y z
#
# Youngs Moduli (GPa) = 38.22021 58.82330 50.22572
#
# Poissons Ratio (x) = 0.23641 0.60157
# Poissons Ratio (y) = 0.15361 0.35882
# Poissons Ratio (z) = 0.45777 0.42025
#
# Static dielectric constant tensor:
#      x y z
#    x 3.024810 0.000000 0.000000 
#    y 0.000000 2.916360 0.000000 
#    z 0.000000 0.000000 2.947950 
# 
# 
# High freq. dielectric constant tensor:
#      x y z
#    x 1.612200 0.000000 0.000000 
#    y 0.000000 1.582050 0.000000 
#    z 0.000000 0.000000 1.597560 
# 
# From -- ./inp_files/12861.got.cif
#   From: 2010.03.12/outbox.cif.g09.slc.cpg/sg38_7_cif.got.tgz:12861.got - 2010.04.14 02:38:36.
