data_PCOD8178744
_publ_section_title
;
Structure prediction by ZEFSAII (Michael W. Deem and Ramdas Pophale) SiO2 
 PCOD8178744
Probable space group: A M M 2
;
_chemical_formula_sum "Si O2"
_cell_formula_units_Z 48
_cell_length_a 8.895881
_cell_length_b 28.229013
_cell_length_c 10.311113
_cell_angle_alpha 90.000000
_cell_angle_beta 90.000000
_cell_angle_gamma 90.000000
_cell_volume 2589.346704
_symmetry_space_group_name_H-M "A M M 2"
_symmetry_group_IT_number 38
_symmetry_cell_setting 'orthorhombic'
loop_
_space_group_symop_operation_xyz
x,y,z
-x,-y,z
-x,y,z
x,-y,z
x,1/2+y,1/2+z
-x,1/2-y,1/2+z
-x,1/2+y,1/2+z
x,1/2-y,1/2+z
loop_
_atom_site_type_symbol
_atom_site_label
_atom_site_fract_x
_atom_site_fract_y
_atom_site_fract_z
Si Si1 0.176303 0.053452 0.220330
Si Si2 0.677285 0.145596 0.144030
Si Si3 0.823744 0.192180 0.898626
Si Si4 0.178324 0.854257 0.637767
Si Si5 0.175237 0.198000 0.381663
Si Si6 0.821243 0.448558 0.015654
O O1 0.262947 0.091625 0.132478
O O2 0.230950 0.060355 0.368377
O O3 0.000000 0.063146 0.207246
O O4 0.214692 0.000000 0.173313
O O5 0.500000 0.144861 0.140984
O O6 0.732051 0.169481 0.275907
O O7 0.735806 0.176170 0.024619
O O8 0.758848 0.163190 0.775532
O O9 0.790545 0.246781 0.869321
O O10 0.000000 0.183492 0.921783
O O11 0.228720 0.818797 0.523732
O O12 0.242040 0.907039 0.607984
O O13 0.000000 0.854712 0.645343
O O14 0.000000 0.186543 0.359175
O O15 0.761780 0.500000 0.064203
O O16 0.000000 0.448368 0.017228
#
# Coordination Sequence:
#
# PCOD8178744 Si02
#       6
#     8   8   8   8   8   8
#     4   9  17  33  59  84 106 139 187 239 280 320
#     4  12  24  36  53  81 119 156 182 219 278 342
#     4  10  21  36  56  80 108 145 188 232 274 321
#     4   9  16  29  52  79 103 130 174 234 283 313
#     4  10  19  36  60  81 103 138 191 242 274 314
#     4   8  13  24  48  80 106 127 161 220 281 320
#
# _framework density 18.537496000000001
#
# number of rings (size 3 to 8) (size 9 to 14) (size 15 to 20)
#    0.000    2.333    1.667    3.500    0.000    3.667 
#    0.000    1.667    0.000    3.000    0.000    0.000 
#    0.000    0.000    0.000    0.000    0.000    0.000 
#
# Total GULP energy -297543.759024 kJ/mol
# GULP energy per Si atom -12397.656626 kJ/mol
# Density = 1.849530 g / cm^3
# Si number density = 18.537496 Si / 1000 Ang^3
#
#
#
# Elastic Constant Matrix: (Units=GPa)
#
#
# Indices 1 2 3 4 5 6 
#
# 1 60.8459 40.2791 25.6752 0.0000 0.0000 0.0000
# 2 40.2791 116.8359 26.9450 0.0000 0.0000 0.0000
# 3 25.6752 26.9450 66.8218 0.0000 0.0000 0.0000
# 4 0.0000 0.0000 0.0000 17.3186 0.0000 0.0000
# 5 0.0000 0.0000 0.0000 0.0000 9.9633 0.0000
# 6 0.0000 0.0000 0.0000 0.0000 0.0000 10.2984
#
#
#
# Elastic Compliance Matrix: (Units=1/GPa)
#
#
# Indices 1 2 3 4 5 6 
#
# 1 0.023513 -0.006640 -0.006357 0.000000 0.000000 0.000000
# 2 -0.006640 0.011312 -0.002010 0.000000 0.000000 0.000000
# 3 -0.006357 -0.002010 0.018218 0.000000 0.000000 0.000000
# 4 0.000000 0.000000 0.000000 0.057741 0.000000 0.000000
# 5 0.000000 0.000000 0.000000 0.000000 0.100368 0.000000
# 6 0.000000 0.000000 0.000000 0.000000 0.000000 0.097102
#
#
# Mechanical properties :
#
#
# Convention : Reuss Voigt Hill
#
# Bulk Modulus (GPa) = 43.42353 47.81134 45.61744
# Shear Modulus (GPa) = 14.45316 17.62303 16.03809
#
# Velocity S-wave (km/s) = 2.79529 3.08664 2.94457
# Velocity P-wave (km/s) = 5.82183 6.20893 6.01849
#
# Compressibility (1/GPa) = 0.02302899
#
# Stress axis : x y z
#
# Youngs Moduli (GPa) = 42.52955 88.40399 54.89001
#
# Poissons Ratio (x) = 0.58701 0.34894
# Poissons Ratio (y) = 0.28240 0.11033
# Poissons Ratio (z) = 0.27036 0.17769
#
# Static dielectric constant tensor:
#      x y z
#    x 2.968020 0.000000 0.000000 
#    y 0.000000 3.881690 0.000000 
#    z 0.000000 0.000000 3.410200 
# 
# 
# High freq. dielectric constant tensor:
#      x y z
#    x 1.669640 0.000000 0.000000 
#    y 0.000000 1.741940 0.000000 
#    z 0.000000 0.000000 1.706190 
# 
# From -- ./inp_files/3795.got.cif
#   From: 2010.03.12/outbox.cif.g09.slc.cpg/sg38_2_cif.got.tgz:3795.got - 2010.04.14 02:38:36.
