data_PCOD8178592
_publ_section_title
;
Structure prediction by ZEFSAII (Michael W. Deem and Ramdas Pophale) SiO2 
 PCOD8178592
Probable space group: A M M 2
;
_chemical_formula_sum "Si O2"
_cell_formula_units_Z 48
_cell_length_a 8.726644
_cell_length_b 30.639657
_cell_length_c 9.155018
_cell_angle_alpha 90.000000
_cell_angle_beta 90.000000
_cell_angle_gamma 90.000000
_cell_volume 2447.881337
_symmetry_space_group_name_H-M "A M M 2"
_symmetry_group_IT_number 38
_symmetry_cell_setting 'orthorhombic'
loop_
_space_group_symop_operation_xyz
x,y,z
-x,-y,z
-x,y,z
x,-y,z
x,1/2+y,1/2+z
-x,1/2-y,1/2+z
-x,1/2+y,1/2+z
x,1/2-y,1/2+z
loop_
_atom_site_type_symbol
_atom_site_label
_atom_site_fract_x
_atom_site_fract_y
_atom_site_fract_z
Si Si1 0.824128 0.050551 0.040060
Si Si2 0.182247 0.703243 0.542472
Si Si3 0.182427 0.870949 0.553462
Si Si4 0.320688 0.625104 0.369381
Si Si5 0.818390 0.288327 0.874115
Si Si6 0.817658 0.048127 0.369533
O O1 0.764375 0.059039 0.204781
O O2 0.000000 0.065949 0.024182
O O3 0.808281 0.000000 0.998550
O O4 0.720130 0.077105 0.927448
O O5 0.261120 0.659659 0.486476
O O6 0.238039 0.710476 0.707889
O O7 0.242681 0.744116 0.448363
O O8 0.000000 0.697803 0.532377
O O9 0.239796 0.866097 0.716573
O O10 0.246376 0.830183 0.460550
O O11 0.246924 0.915510 0.480351
O O12 0.000000 0.871302 0.554085
O O13 0.500000 0.629540 0.347160
O O14 0.000000 0.288811 0.881977
O O15 0.000000 0.047638 0.370654
O O16 0.756585 0.000000 0.416307
#
# Coordination Sequence:
#
# PCOD8178592 Si02
#       6
#     8   8   8   8   8   8
#     4   9  18  36  62  86 106 135 178 226 274 322
#     4  10  19  36  60  84 108 136 177 226 276 326
#     4  10  19  34  56  81 109 142 181 224 269 318
#     4  12  25  37  50  76 114 152 185 218 263 318
#     4   9  18  33  60  89 107 132 177 232 279 320
#     4   8  15  30  56  87 110 130 168 222 273 322
#
# _framework density 19.608794
#
# number of rings (size 3 to 8) (size 9 to 14) (size 15 to 20)
#    0.000    2.333    0.000    4.500    0.000    6.333 
#    0.000    8.333    0.000    1.000    0.000    0.000 
#    0.000    0.000    0.000    0.000    0.000    0.000 
#
# Total GULP energy -297622.373660 kJ/mol
# GULP energy per Si atom -12400.932236 kJ/mol
# Density = 1.956416 g / cm^3
# Si number density = 19.608794 Si / 1000 Ang^3
#
#
#
# Elastic Constant Matrix: (Units=GPa)
#
#
# Indices 1 2 3 4 5 6 
#
# 1 19.2489 17.8169 4.9929 0.0000 0.0000 0.0000
# 2 17.8169 116.6154 53.8123 0.0000 0.0000 0.0000
# 3 4.9929 53.8123 118.1703 0.0000 0.0000 0.0000
# 4 0.0000 0.0000 0.0000 42.5547 0.0000 0.0000
# 5 0.0000 0.0000 0.0000 0.0000 -1.1095 0.0000
# 6 0.0000 0.0000 0.0000 0.0000 0.0000 9.6919
#
#
#
# Elastic Compliance Matrix: (Units=1/GPa)
#
#
# Indices 1 2 3 4 5 6 
#
# 1 0.060920 -0.010280 0.002107 0.000000 0.000000 0.000000
# 2 -0.010280 0.012591 -0.005299 0.000000 0.000000 0.000000
# 3 0.002107 -0.005299 0.010787 0.000000 0.000000 0.000000
# 4 0.000000 0.000000 0.000000 0.023499 0.000000 0.000000
# 5 0.000000 0.000000 0.000000 0.000000 -0.901342 0.000000
# 6 0.000000 0.000000 0.000000 0.000000 0.000000 0.103179
#
#
# Mechanical properties :
#
#
# Convention : Reuss Voigt Hill
#
# Bulk Modulus (GPa) = 17.43580 45.25319 31.34450
# Shear Modulus (GPa) = -7.76031 22.05494 7.14732
#
# Velocity S-wave (km/s) = -1.99152 3.35736 1.91125
# Velocity P-wave (km/s) = 1.90340 6.17716 4.57057
#
# Compressibility (1/GPa) = 0.05735325
#
# Stress axis : x y z
#
# Youngs Moduli (GPa) = 16.41509 79.42031 92.70782
#
# Poissons Ratio (x) = 0.81644 -0.19537
# Poissons Ratio (y) = 0.16875 0.49130
# Poissons Ratio (z) = -0.03459 0.42088
#
# Static dielectric constant tensor:
#      x y z
#    x 3.062130 0.000000 0.000000 
#    y 0.000000 3.894610 0.000000 
#    z 0.000000 0.000000 3.664320 
# 
# 
# High freq. dielectric constant tensor:
#      x y z
#    x 1.709230 0.000000 0.000000 
#    y 0.000000 1.782630 0.000000 
#    z 0.000000 0.000000 1.772920 
# 
# From -- ./inp_files/3744.got.cif
#   From: 2010.03.12/outbox.cif.g09.slc.cpg/sg38_2_cif.got.tgz:3744.got - 2010.04.14 02:38:36.
