data_PCOD8178915
_publ_section_title
;
Structure prediction by ZEFSAII (Michael W. Deem and Ramdas Pophale) SiO2 
 PCOD8178915
Probable space group: A M M 2
;
_chemical_formula_sum "Si O2"
_cell_formula_units_Z 64
_cell_length_a 15.791550
_cell_length_b 9.429335
_cell_length_c 23.163933
_cell_angle_alpha 90.000000
_cell_angle_beta 90.000000
_cell_angle_gamma 90.000000
_cell_volume 3449.197997
_symmetry_space_group_name_H-M "A M M 2"
_symmetry_group_IT_number 38
_symmetry_cell_setting 'orthorhombic'
loop_
_space_group_symop_operation_xyz
x,y,z
-x,-y,z
-x,y,z
x,-y,z
x,1/2+y,1/2+z
-x,1/2-y,1/2+z
-x,1/2+y,1/2+z
x,1/2-y,1/2+z
loop_
_atom_site_type_symbol
_atom_site_label
_atom_site_fract_x
_atom_site_fract_y
_atom_site_fract_z
Si Si1 0.095823 0.667852 0.941180
Si Si2 0.905649 0.341833 0.674606
Si Si3 0.317977 0.156721 0.627881
Si Si4 0.753839 0.165357 0.357130
Si Si5 0.223493 0.833486 0.742740
Si Si6 0.401585 0.345542 0.544367
Si Si7 0.403229 0.337857 0.937687
Si Si8 0.140103 0.338127 0.069463
O O1 0.096901 0.500000 0.940440
O O2 0.166433 0.721354 0.895424
O O3 0.000000 0.723060 0.926397
O O4 0.123231 0.719099 0.004952
O O5 0.864307 0.500000 0.669794
O O6 0.860694 0.245083 0.722088
O O7 0.908533 0.266318 0.612455
O O8 0.000000 0.358104 0.697823
O O9 0.294417 0.191212 0.693794
O O10 0.385237 0.270736 0.605807
O O11 0.238696 0.168360 0.584690
O O12 0.357788 0.000000 0.624203
O O13 0.745795 0.262943 0.301321
O O14 0.662813 0.188610 0.386618
O O15 0.766880 0.000000 0.341003
O O16 0.204680 0.000000 0.751127
O O17 0.500000 0.365236 0.537155
O O18 0.357075 0.500000 0.543222
O O19 0.368269 0.252607 0.491197
O O20 0.500000 0.297243 0.918855
O O21 0.400365 0.500000 0.958224
O O22 0.106669 0.500000 0.076892
#
# Coordination Sequence:
#
# PCOD8178915 Si02
#       8
#     8   8   8   8   8   8   8   8
#     4   9  17  29  48  75 105 137 170 204 249 306
#     4  10  20  33  51  76 104 134 170 214 262 308
#     4   9  18  33  52  73  98 131 170 210 256 312
#     4  10  20  35  54  75 102 136 176 220 260 304
#     4  10  22  38  54  73  98 132 176 218 258 308
#     4  10  20  32  50  80 111 134 161 203 255 309
#     4   9  18  34  56  79 104 138 176 212 257 313
#     4   9  17  31  52  76 102 133 170 211 255 307
#
# _framework density 18.555036999999999
#
# number of rings (size 3 to 8) (size 9 to 14) (size 15 to 20)
#    0.000    2.500    0.000    3.000    0.000    7.750 
#    0.000    2.500    0.000    3.000    0.000    0.000 
#    0.000    0.000    0.000    0.000    0.000    0.000 
#
# Total GULP energy -396646.198944 kJ/mol
# GULP energy per Si atom -12395.193717 kJ/mol
# Density = 1.851281 g / cm^3
# Si number density = 18.555037 Si / 1000 Ang^3
#
#
#
# Elastic Constant Matrix: (Units=GPa)
#
#
# Indices 1 2 3 4 5 6 
#
# 1 60.1287 34.9323 48.2870 0.0000 0.0000 0.0000
# 2 34.9323 118.3384 71.9946 0.0000 0.0000 0.0000
# 3 48.2870 71.9946 127.4426 0.0000 0.0000 0.0000
# 4 0.0000 0.0000 0.0000 31.6965 0.0000 0.0000
# 5 0.0000 0.0000 0.0000 0.0000 16.8438 0.0000
# 6 0.0000 0.0000 0.0000 0.0000 0.0000 18.8258
#
#
#
# Elastic Compliance Matrix: (Units=1/GPa)
#
#
# Indices 1 2 3 4 5 6 
#
# 1 0.024343 -0.002399 -0.007868 0.000000 0.000000 0.000000
# 2 -0.002399 0.013112 -0.006498 0.000000 0.000000 0.000000
# 3 -0.007868 -0.006498 0.014499 0.000000 0.000000 0.000000
# 4 0.000000 0.000000 0.000000 0.031549 0.000000 0.000000
# 5 0.000000 0.000000 0.000000 0.000000 0.059369 0.000000
# 6 0.000000 0.000000 0.000000 0.000000 0.000000 0.053119
#
#
# Mechanical properties :
#
#
# Convention : Reuss Voigt Hill
#
# Bulk Modulus (GPa) = 54.27940 68.48193 61.38067
# Shear Modulus (GPa) = 21.21673 23.51959 22.36816
#
# Velocity S-wave (km/s) = 3.38516 3.56414 3.47580
# Velocity P-wave (km/s) = 6.67801 7.34337 7.01858
#
# Compressibility (1/GPa) = 0.01842320
#
# Stress axis : x y z
#
# Youngs Moduli (GPa) = 41.07881 76.26690 68.97111
#
# Poissons Ratio (x) = 0.18297 0.54268
# Poissons Ratio (y) = 0.09855 0.44818
# Poissons Ratio (z) = 0.32322 0.49559
#
# Static dielectric constant tensor:
#      x y z
#    x 3.400080 0.000000 0.000000 
#    y 0.000000 3.629350 0.000000 
#    z 0.000000 0.000000 3.321970 
# 
# 
# High freq. dielectric constant tensor:
#      x y z
#    x 1.712270 0.000000 0.000000 
#    y 0.000000 1.713310 0.000000 
#    z 0.000000 0.000000 1.710450 
# 
# From -- ./inp_files/21450.got.cif
#   From: 2010.03.12/outbox.cif.g09.slc.cpg/sg38_11_cif.got.tgz:21450.got - 2010.04.14 02:38:36.
