data_PCOD8178773
_publ_section_title
;
Structure prediction by ZEFSAII (Michael W. Deem and Ramdas Pophale) SiO2 
 PCOD8178773
Probable space group: A M M 2
;
_chemical_formula_sum "Si O2"
_cell_formula_units_Z 48
_cell_length_a 18.971604
_cell_length_b 8.787517
_cell_length_c 14.818224
_cell_angle_alpha 90.000000
_cell_angle_beta 90.000000
_cell_angle_gamma 90.000000
_cell_volume 2470.394915
_symmetry_space_group_name_H-M "A M M 2"
_symmetry_group_IT_number 38
_symmetry_cell_setting 'orthorhombic'
loop_
_space_group_symop_operation_xyz
x,y,z
-x,-y,z
-x,y,z
x,-y,z
x,1/2+y,1/2+z
-x,1/2-y,1/2+z
-x,1/2+y,1/2+z
x,1/2-y,1/2+z
loop_
_atom_site_type_symbol
_atom_site_label
_atom_site_fract_x
_atom_site_fract_y
_atom_site_fract_z
Si Si1 0.000000 0.819999 0.416880
Si Si2 0.395714 0.179739 0.510064
Si Si3 0.500000 0.681575 0.370622
Si Si4 0.859523 0.671932 0.662936
Si Si5 0.244219 0.178668 0.008553
Si Si6 0.500000 0.678849 0.164038
Si Si7 0.847792 0.173608 0.363147
Si Si8 0.000000 0.678504 0.118189
O O1 0.071703 0.763435 0.368958
O O2 0.000000 0.752943 0.517616
O O3 0.000000 0.000000 0.415379
O O4 0.431005 0.259153 0.423102
O O5 0.315190 0.226703 0.514840
O O6 0.432118 0.230683 0.604717
O O7 0.403595 0.000000 0.496409
O O8 0.500000 0.500000 0.371197
O O9 0.500000 0.746039 0.266510
O O10 0.880227 0.500000 0.637303
O O11 0.805027 0.737163 0.590039
O O12 0.822348 0.680070 0.760055
O O13 0.930588 0.767783 0.669220
O O14 0.204439 0.216237 0.916161
O O15 0.260784 0.000000 0.014489
O O16 0.500000 0.500000 0.175400
O O17 0.843204 0.000000 0.400561
O O18 0.000000 0.500000 0.115237
#
# Coordination Sequence:
#
# PCOD8178773 Si02
#       8
#     4   8   4   8   8   4   8   4
#     4   9  17  31  55  80 103 137 186 232 277 336
#     4  10  21  39  60  85 117 155 190 221 268 336
#     4  10  19  37  64  93 120 145 181 234 278 314
#     4  10  22  38  57  80 110 147 189 238 290 339
#     4  11  23  38  55  83 117 148 186 236 285 326
#     4   8  18  37  62  89 116 147 183 220 268 324
#     4  10  20  38  59  79 107 148 190 231 285 347
#     4  11  20  33  57  84 107 141 190 238 285 342
#
# _framework density 19.430091999999998
#
# number of rings (size 3 to 8) (size 9 to 14) (size 15 to 20)
#    0.000    2.000    1.667    2.500    0.000    4.000 
#    0.000    8.750    0.000    0.000    0.000    0.000 
#    0.000    0.000    0.000    0.000    0.000    0.000 
#
# Total GULP energy -297575.886390 kJ/mol
# GULP energy per Si atom -12398.995266 kJ/mol
# Density = 1.938587 g / cm^3
# Si number density = 19.430092 Si / 1000 Ang^3
#
#
#
# Elastic Constant Matrix: (Units=GPa)
#
#
# Indices 1 2 3 4 5 6 
#
# 1 134.9852 31.4894 54.5066 0.0000 0.0000 0.0000
# 2 31.4894 54.1276 33.1414 0.0000 0.0000 0.0000
# 3 54.5066 33.1414 139.3059 0.0000 0.0000 0.0000
# 4 0.0000 0.0000 0.0000 27.3365 0.0000 0.0000
# 5 0.0000 0.0000 0.0000 0.0000 -9.5663 0.0000
# 6 0.0000 0.0000 0.0000 0.0000 0.0000 19.9557
#
#
#
# Elastic Compliance Matrix: (Units=1/GPa)
#
#
# Indices 1 2 3 4 5 6 
#
# 1 0.009413 -0.003770 -0.002786 0.000000 0.000000 0.000000
# 2 -0.003770 0.023135 -0.004029 0.000000 0.000000 0.000000
# 3 -0.002786 -0.004029 0.009227 0.000000 0.000000 0.000000
# 4 0.000000 0.000000 0.000000 0.036581 0.000000 0.000000
# 5 0.000000 0.000000 0.000000 0.000000 -0.104534 0.000000
# 6 0.000000 0.000000 0.000000 0.000000 0.000000 0.050111
#
#
# Mechanical properties :
#
#
# Convention : Reuss Voigt Hill
#
# Bulk Modulus (GPa) = 48.53223 62.96593 55.74908
# Shear Modulus (GPa) = 96.20730 21.49726 58.85228
#
# Velocity S-wave (km/s) = 7.04429 3.32985 5.50954
# Velocity P-wave (km/s) = 9.54960 6.87464 8.32032
#
# Compressibility (1/GPa) = 0.02060487
#
# Stress axis : x y z
#
# Youngs Moduli (GPa) = 106.23943 43.22469 108.37773
#
# Poissons Ratio (x) = 0.16296 0.30194
# Poissons Ratio (y) = 0.40054 0.43662
# Poissons Ratio (z) = 0.29598 0.17414
#
# Static dielectric constant tensor:
#      x y z
#    x 3.515940 0.000000 0.000000 
#    y 0.000000 3.360920 0.000000 
#    z 0.000000 0.000000 3.744250 
# 
# 
# High freq. dielectric constant tensor:
#      x y z
#    x 1.752890 0.000000 0.000000 
#    y 0.000000 1.741200 0.000000 
#    z 0.000000 0.000000 1.765770 
# 
# From -- ./inp_files/15116.got.cif
#   From: 2010.03.12/outbox.cif.g09.slc.cpg/sg38_8_cif.got.tgz:15116.got - 2010.04.14 02:38:36.
