data_PCOD8178385
_publ_section_title
;
Structure prediction by ZEFSAII (Michael W. Deem and Ramdas Pophale) SiO2 
 PCOD8178385
Probable space group: A M M 2
;
_chemical_formula_sum "Si O2"
_cell_formula_units_Z 64
_cell_length_a 9.703763
_cell_length_b 26.883272
_cell_length_c 12.575188
_cell_angle_alpha 90.000000
_cell_angle_beta 90.000000
_cell_angle_gamma 90.000000
_cell_volume 3280.475463
_symmetry_space_group_name_H-M "A M M 2"
_symmetry_group_IT_number 38
_symmetry_cell_setting 'orthorhombic'
loop_
_space_group_symop_operation_xyz
x,y,z
-x,-y,z
-x,y,z
x,-y,z
x,1/2+y,1/2+z
-x,1/2-y,1/2+z
-x,1/2+y,1/2+z
x,1/2-y,1/2+z
loop_
_atom_site_type_symbol
_atom_site_label
_atom_site_fract_x
_atom_site_fract_y
_atom_site_fract_z
Si Si1 0.152315 0.340610 0.339540
Si Si2 0.342406 0.443337 0.846146
Si Si3 0.838699 0.202365 0.053542
Si Si4 0.834519 0.190015 0.615769
Si Si5 0.351178 0.443854 0.515527
Si Si6 0.838071 0.108933 0.175225
Si Si7 0.343694 0.900475 0.571421
Si Si8 0.245709 0.944278 0.789377
O O1 0.230056 0.323645 0.448234
O O2 0.219754 0.313862 0.237545
O O3 0.139989 0.400041 0.318016
O O4 0.000000 0.319512 0.350169
O O5 0.500000 0.430856 0.814819
O O6 0.306385 0.500000 0.817265
O O7 0.240766 0.407620 0.780845
O O8 0.319004 0.436385 0.971455
O O9 0.778810 0.257501 0.071200
O O10 0.813668 0.168012 0.157497
O O11 0.000000 0.207452 0.035661
O O12 0.760279 0.145519 0.553152
O O13 0.000000 0.183588 0.606762
O O14 0.500000 0.421631 0.551857
O O15 0.340372 0.500000 0.556615
O O16 0.222793 0.416240 0.569002
O O17 0.352101 0.442335 0.387245
O O18 0.000000 0.095771 0.184026
O O19 0.500000 0.880269 0.574029
O O20 0.318329 0.932606 0.677527
O O21 0.178019 0.000000 0.783485
#
# Coordination Sequence:
#
# PCOD8178385 Si02
#       8
#     8   8   8   8   8   8   8   8
#     4   9  17  32  52  79 114 146 181 228 281 333
#     4  10  22  40  59  79 111 155 192 227 280 340
#     4   9  18  34  55  80 110 147 187 228 280 338
#     4   9  19  35  58  82 107 145 188 231 282 335
#     4  10  20  33  51  78 112 147 180 218 272 335
#     4  11  22  36  56  82 110 144 191 236 274 324
#     4  10  21  38  59  83 112 145 188 238 283 332
#     4  10  19  32  55  84 112 147 188 226 271 335
#
# _framework density 19.509367999999998
#
# number of rings (size 3 to 8) (size 9 to 14) (size 15 to 20)
#    0.000    2.250    1.250    1.500    0.000    5.000 
#    0.000    5.000    0.000    3.750    0.000    0.000 
#    0.000    0.000    0.000    0.000    0.000    0.000 
#
# Total GULP energy -396442.105502 kJ/mol
# GULP energy per Si atom -12388.815797 kJ/mol
# Density = 1.946496 g / cm^3
# Si number density = 19.509368 Si / 1000 Ang^3
#
#
#
# Elastic Constant Matrix: (Units=GPa)
#
#
# Indices 1 2 3 4 5 6 
#
# 1 69.8079 26.0305 29.3651 0.0000 0.0000 0.0000
# 2 26.0305 118.8705 45.6883 0.0000 0.0000 0.0000
# 3 29.3651 45.6883 109.7408 0.0000 0.0000 0.0000
# 4 0.0000 0.0000 0.0000 28.4149 0.0000 0.0000
# 5 0.0000 0.0000 0.0000 0.0000 23.4598 0.0000
# 6 0.0000 0.0000 0.0000 0.0000 0.0000 18.0936
#
#
#
# Elastic Compliance Matrix: (Units=1/GPa)
#
#
# Indices 1 2 3 4 5 6 
#
# 1 0.016655 -0.002303 -0.003498 0.000000 0.000000 0.000000
# 2 -0.002303 0.010333 -0.003686 0.000000 0.000000 0.000000
# 3 -0.003498 -0.003686 0.011583 0.000000 0.000000 0.000000
# 4 0.000000 0.000000 0.000000 0.035193 0.000000 0.000000
# 5 0.000000 0.000000 0.000000 0.000000 0.042626 0.000000
# 6 0.000000 0.000000 0.000000 0.000000 0.000000 0.055268
#
#
# Mechanical properties :
#
#
# Convention : Reuss Voigt Hill
#
# Bulk Modulus (GPa) = 51.02496 55.62079 53.32288
# Shear Modulus (GPa) = 25.35951 27.14934 26.25443
#
# Velocity S-wave (km/s) = 3.60927 3.73447 3.67241
# Velocity P-wave (km/s) = 6.60151 6.86780 6.73597
#
# Compressibility (1/GPa) = 0.01959825
#
# Stress axis : x y z
#
# Youngs Moduli (GPa) = 60.04153 96.77279 86.33363
#
# Poissons Ratio (x) = 0.22284 0.30199
# Poissons Ratio (y) = 0.13826 0.31822
# Poissons Ratio (z) = 0.21003 0.35670
#
# Static dielectric constant tensor:
#      x y z
#    x 3.291800 0.000000 0.000000 
#    y 0.000000 3.729000 0.000000 
#    z 0.000000 0.000000 3.743860 
# 
# 
# High freq. dielectric constant tensor:
#      x y z
#    x 1.727750 0.000000 0.000000 
#    y 0.000000 1.757510 0.000000 
#    z 0.000000 0.000000 1.769880 
# 
# From -- ./inp_files/9635.got.cif
#   From: 2010.03.12/outbox.cif.g09.slc.cpg/sg38_5_cif.got.tgz:9635.got - 2010.04.14 02:38:36.
