data_PCOD8178084
_publ_section_title
;
Structure prediction by ZEFSAII (Michael W. Deem and Ramdas Pophale) SiO2 
 PCOD8178084
Probable space group: A M M 2
;
_chemical_formula_sum "Si O2"
_cell_formula_units_Z 44
_cell_length_a 26.179719
_cell_length_b 16.449282
_cell_length_c 5.174795
_cell_angle_alpha 90.000000
_cell_angle_beta 90.000000
_cell_angle_gamma 90.000000
_cell_volume 2228.461198
_symmetry_space_group_name_H-M "A M M 2"
_symmetry_group_IT_number 38
_symmetry_cell_setting 'orthorhombic'
loop_
_space_group_symop_operation_xyz
x,y,z
-x,-y,z
-x,y,z
x,-y,z
x,1/2+y,1/2+z
-x,1/2-y,1/2+z
-x,1/2+y,1/2+z
x,1/2-y,1/2+z
loop_
_atom_site_type_symbol
_atom_site_label
_atom_site_fract_x
_atom_site_fract_y
_atom_site_fract_z
Si Si1 0.000000 0.300196 0.668260
Si Si2 0.109159 0.196377 0.070981
Si Si3 0.616689 0.402985 0.108248
Si Si4 0.791373 0.903564 0.110027
Si Si5 0.268103 0.903130 0.610089
Si Si6 0.557659 0.096986 0.108261
O O1 0.053180 0.346965 0.604776
O O2 0.000000 0.222819 0.471374
O O3 0.115004 0.266968 0.284736
O O4 0.151034 0.127584 0.111972
O O5 0.617304 0.500000 0.108262
O O6 0.674314 0.368891 0.108399
O O7 0.587121 0.369499 0.358123
O O8 0.587201 0.369485 0.858157
O O9 0.761650 0.870064 0.360090
O O10 0.793511 0.000000 0.109500
O O11 0.760982 0.870023 0.862022
O O12 0.269247 0.000000 0.609950
O O13 0.500000 0.130806 0.108466
O O14 0.557135 0.000000 0.108320
#
# Coordination Sequence:
#
# PCOD8178084 Si02
#       6
#     4   8   8   8   8   8
#     4   8  16  30  49  70  93 122 156 190 224 276
#     4  10  19  33  52  73  96 125 159 192 232 280
#     4   9  15  23  34  48  70 104 145 183 220 266
#     4  10  19  31  47  69  95 122 157 199 235 270
#     4   9  17  28  42  60  85 118 155 192 229 275
#     4   9  15  21  30  46  69  99 141 189 225 257
#
# _framework density 19.744565000000001
#
# number of rings (size 3 to 8) (size 9 to 14) (size 15 to 20)
#    0.000    2.727    0.000    2.727    0.000    6.545 
#    0.000    0.455    0.000    0.000    0.000   11.455 
#    0.000    0.000    0.000    0.000    0.000  229.091 
#
# Total GULP energy -272716.877989 kJ/mol
# GULP energy per Si atom -12396.221727 kJ/mol
# Density = 1.969963 g / cm^3
# Si number density = 19.744565 Si / 1000 Ang^3
#
#
#
# Elastic Constant Matrix: (Units=GPa)
#
#
# Indices 1 2 3 4 5 6 
#
# 1 224.7818 19.0949 88.6428 0.0000 0.0000 0.0000
# 2 19.0949 5.4837 10.0587 0.0000 0.0000 0.0000
# 3 88.6428 10.0587 177.4616 0.0000 0.0000 0.0000
# 4 0.0000 0.0000 0.0000 6.1597 0.0000 0.0000
# 5 0.0000 0.0000 0.0000 0.0000 38.5451 0.0000
# 6 0.0000 0.0000 0.0000 0.0000 0.0000 7.4574
#
#
#
# Elastic Compliance Matrix: (Units=1/GPa)
#
#
# Indices 1 2 3 4 5 6 
#
# 1 0.007132 -0.020424 -0.002405 0.000000 0.000000 0.000000
# 2 -0.020424 0.262003 -0.004649 0.000000 0.000000 0.000000
# 3 -0.002405 -0.004649 0.007100 0.000000 0.000000 0.000000
# 4 0.000000 0.000000 0.000000 0.162346 0.000000 0.000000
# 5 0.000000 0.000000 0.000000 0.000000 0.025944 0.000000
# 6 0.000000 0.000000 0.000000 0.000000 0.000000 0.134095
#
#
# Mechanical properties :
#
#
# Convention : Reuss Voigt Hill
#
# Bulk Modulus (GPa) = 4.51916 71.47999 37.99958
# Shear Modulus (GPa) = 6.87443 29.76116 18.31779
#
# Velocity S-wave (km/s) = 1.86795 3.88662 3.04918
# Velocity P-wave (km/s) = 2.63555 7.51146 5.62886
#
# Compressibility (1/GPa) = 0.22128007
#
# Stress axis : x y z
#
# Youngs Moduli (GPa) = 140.21159 3.81675 140.84957
#
# Poissons Ratio (x) = 0.07795 0.33873
# Poissons Ratio (y) = 2.86361 0.65479
# Poissons Ratio (z) = 0.33719 0.01774
#
# Static dielectric constant tensor:
#      x y z
#    x 3.992530 0.000000 0.000000 
#    y 0.000000 2.678040 0.000000 
#    z 0.000000 0.000000 3.928230 
# 
# 
# High freq. dielectric constant tensor:
#      x y z
#    x 1.795670 0.000000 0.000000 
#    y 0.000000 1.680360 0.000000 
#    z 0.000000 0.000000 1.793620 
# 
# From -- ./inp_files/2077.got.cif
#   From: 2010.03.12/outbox.cif.g09.slc.cpg/sg38_2_cif.got.tgz:2077.got - 2010.04.14 02:38:36.
