data_PCOD8178092
_publ_section_title
;
Structure prediction by ZEFSAII (Michael W. Deem and Ramdas Pophale) SiO2 
 PCOD8178092
Probable space group: A M M 2
;
_chemical_formula_sum "Si O2"
_cell_formula_units_Z 64
_cell_length_a 14.078423
_cell_length_b 9.018198
_cell_length_c 31.055188
_cell_angle_alpha 90.000000
_cell_angle_beta 90.000000
_cell_angle_gamma 90.000000
_cell_volume 3942.828970
_symmetry_space_group_name_H-M "A M M 2"
_symmetry_group_IT_number 38
_symmetry_cell_setting 'orthorhombic'
loop_
_space_group_symop_operation_xyz
x,y,z
-x,-y,z
-x,y,z
x,-y,z
x,1/2+y,1/2+z
-x,1/2-y,1/2+z
-x,1/2+y,1/2+z
x,1/2-y,1/2+z
loop_
_atom_site_type_symbol
_atom_site_label
_atom_site_fract_x
_atom_site_fract_y
_atom_site_fract_z
Si Si1 0.282856 0.675293 0.482430
Si Si2 0.387169 0.664169 0.810778
Si Si3 0.892070 0.673371 0.016443
Si Si4 0.107942 0.671552 0.606646
Si Si5 0.389297 0.826777 0.406353
Si Si6 0.392848 0.174987 0.727329
Si Si7 0.724289 0.173617 0.645656
Si Si8 0.389661 0.171479 0.559656
O O1 0.274256 0.500000 0.483817
O O2 0.177533 0.745831 0.483149
O O3 0.331065 0.724435 0.438376
O O4 0.344117 0.728790 0.522867
O O5 0.500000 0.661866 0.811525
O O6 0.347497 0.500000 0.801527
O O7 0.354154 0.717002 0.858199
O O8 0.349151 0.769831 0.772759
O O9 0.868873 0.500000 0.017792
O O10 0.872085 0.736602 0.063630
O O11 0.000000 0.704569 0.001825
O O12 0.130203 0.500000 0.597343
O O13 0.177321 0.735952 0.643091
O O14 0.000000 0.693386 0.622591
O O15 0.500000 0.791594 0.412785
O O16 0.369787 0.000000 0.415473
O O17 0.500000 0.236259 0.720987
O O18 0.328925 0.233023 0.688111
O O19 0.393972 0.000000 0.727982
O O20 0.657960 0.209677 0.605066
O O21 0.747252 0.000000 0.648907
O O22 0.500000 0.210668 0.563607
O O23 0.374257 0.000000 0.547224
#
# Coordination Sequence:
#
# PCOD8178092 Si02
#       8
#     8   8   8   8   8   8   8   8
#     4  12  23  32  46  71 100 127 158 198 243 286
#     4   8  15  29  48  69  92 122 161 201 239 278
#     4  10  20  35  54  71  89 120 161 200 239 287
#     4  10  20  33  49  70  95 121 153 200 251 287
#     4   9  18  33  51  69  94 130 168 201 235 282
#     4   9  17  29  46  70  99 128 159 196 237 281
#     4  10  19  31  48  69  94 129 167 196 230 283
#     4  10  20  33  47  63  91 133 172 199 226 269
#
# _framework density 16.231999999999999
#
# number of rings (size 3 to 8) (size 9 to 14) (size 15 to 20)
#    0.000    2.250    1.250    3.375    0.000    6.000 
#    0.000    1.250    0.000    2.250    0.000    0.875 
#    0.000    5.000    0.000    0.000    0.000    0.000 
#
# Total GULP energy -396790.239182 kJ/mol
# GULP energy per Si atom -12399.694974 kJ/mol
# Density = 1.619505 g / cm^3
# Si number density = 16.232000 Si / 1000 Ang^3
#
#
#
# Elastic Constant Matrix: (Units=GPa)
#
#
# Indices 1 2 3 4 5 6 
#
# 1 93.6006 49.7007 51.7748 0.0000 0.0000 0.0000
# 2 49.7007 81.2700 52.4572 0.0000 0.0000 0.0000
# 3 51.7748 52.4572 117.1775 0.0000 0.0000 0.0000
# 4 0.0000 0.0000 0.0000 26.7273 0.0000 0.0000
# 5 0.0000 0.0000 0.0000 0.0000 9.4441 0.0000
# 6 0.0000 0.0000 0.0000 0.0000 0.0000 22.5374
#
#
#
# Elastic Compliance Matrix: (Units=1/GPa)
#
#
# Indices 1 2 3 4 5 6 
#
# 1 0.017079 -0.007839 -0.004037 0.000000 0.000000 0.000000
# 2 -0.007839 0.020903 -0.005894 0.000000 0.000000 0.000000
# 3 -0.004037 -0.005894 0.012956 0.000000 0.000000 0.000000
# 4 0.000000 0.000000 0.000000 0.037415 0.000000 0.000000
# 5 0.000000 0.000000 0.000000 0.000000 0.105886 0.000000
# 6 0.000000 0.000000 0.000000 0.000000 0.000000 0.044371
#
#
# Mechanical properties :
#
#
# Convention : Reuss Voigt Hill
#
# Bulk Modulus (GPa) = 64.94198 66.65706 65.79952
# Shear Modulus (GPa) = 17.90297 20.94945 19.42621
#
# Velocity S-wave (km/s) = 3.32466 3.59643 3.46321
# Velocity P-wave (km/s) = 7.40495 7.64199 7.52441
#
# Compressibility (1/GPa) = 0.01539836
#
# Stress axis : x y z
#
# Youngs Moduli (GPa) = 58.55071 47.83992 77.18134
#
# Poissons Ratio (x) = 0.37502 0.31159
# Poissons Ratio (y) = 0.45898 0.45491
# Poissons Ratio (z) = 0.23638 0.28197
#
# Static dielectric constant tensor:
#      x y z
#    x 3.085880 0.000000 0.000000 
#    y 0.000000 3.066680 0.000000 
#    z 0.000000 0.000000 3.131500 
# 
# 
# High freq. dielectric constant tensor:
#      x y z
#    x 1.607900 0.000000 0.000000 
#    y 0.000000 1.625660 0.000000 
#    z 0.000000 0.000000 1.613350 
# 
# From -- ./inp_files/25078.got.cif
#   From: 2010.03.12/outbox.cif.g09.slc.cpg/sg38_13_cif.got.tgz:25078.got - 2010.04.14 02:38:36.
