data_PCOD8178997
_publ_section_title
;
Structure prediction by ZEFSAII (Michael W. Deem and Ramdas Pophale) SiO2 
 PCOD8178997
Probable space group: A M M 2
;
_chemical_formula_sum "Si O2"
_cell_formula_units_Z 64
_cell_length_a 9.458008
_cell_length_b 32.411256
_cell_length_c 11.542691
_cell_angle_alpha 90.000000
_cell_angle_beta 90.000000
_cell_angle_gamma 90.000000
_cell_volume 3538.364815
_symmetry_space_group_name_H-M "A M M 2"
_symmetry_group_IT_number 38
_symmetry_cell_setting 'orthorhombic'
loop_
_space_group_symop_operation_xyz
x,y,z
-x,-y,z
-x,y,z
x,-y,z
x,1/2+y,1/2+z
-x,1/2-y,1/2+z
-x,1/2+y,1/2+z
x,1/2-y,1/2+z
loop_
_atom_site_type_symbol
_atom_site_label
_atom_site_fract_x
_atom_site_fract_y
_atom_site_fract_z
Si Si1 0.164029 0.684397 0.303480
Si Si2 0.656625 0.605706 0.663268
Si Si3 0.163011 0.225532 0.212370
Si Si4 0.334099 0.047823 0.709885
Si Si5 0.657127 0.811358 0.025003
Si Si6 0.164989 0.880035 0.605630
Si Si7 0.668192 0.454175 0.469689
Si Si8 0.163629 0.643698 0.848758
O O1 0.198674 0.731199 0.270264
O O2 0.261414 0.673329 0.411646
O O3 0.207694 0.653913 0.200369
O O4 0.000000 0.679008 0.336849
O O5 0.500000 0.589518 0.698142
O O6 0.642869 0.650277 0.608741
O O7 0.730231 0.575671 0.568678
O O8 0.752535 0.608622 0.777382
O O9 0.254301 0.223054 0.094591
O O10 0.200827 0.189810 0.305036
O O11 0.000000 0.222866 0.174098
O O12 0.500000 0.056607 0.696443
O O13 0.249699 0.077456 0.623131
O O14 0.281206 0.058197 0.840640
O O15 0.301238 0.000000 0.680304
O O16 0.500000 0.794640 0.993531
O O17 0.206799 0.860187 0.482572
O O18 0.000000 0.890693 0.611419
O O19 0.500000 0.451795 0.469933
O O20 0.721295 0.500000 0.499304
O O21 0.000000 0.634133 0.829404
#
# Coordination Sequence:
#
# PCOD8178997 Si02
#       8
#     8   8   8   8   8   8   8   8
#     4  10  21  34  54  78 101 134 177 220 260 315
#     4   9  17  31  51  73  98 130 165 203 250 305
#     4   9  19  35  56  74  96 134 178 220 259 308
#     4   9  18  34  56  80 106 138 175 213 261 319
#     4  10  20  33  50  74 104 132 164 210 265 315
#     4  10  21  35  52  78 107 137 177 220 265 315
#     4   8  14  27  50  77 101 126 160 205 252 299
#     4   9  19  35  52  71  99 136 173 213 258 305
#
# _framework density 18.087451000000001
#
# number of rings (size 3 to 8) (size 9 to 14) (size 15 to 20)
#    0.000    2.750    0.000    1.875    1.750    3.250 
#    0.000    1.250    0.000    3.375    0.000    0.000 
#    0.000    0.000    0.000    0.000    0.000    0.000 
#
# Total GULP energy -396736.511260 kJ/mol
# GULP energy per Si atom -12398.015977 kJ/mol
# Density = 1.804628 g / cm^3
# Si number density = 18.087451 Si / 1000 Ang^3
#
#
#
# Elastic Constant Matrix: (Units=GPa)
#
#
# Indices 1 2 3 4 5 6 
#
# 1 65.6351 32.3932 54.0924 0.0000 0.0000 0.0000
# 2 32.3932 76.3630 36.3852 0.0000 0.0000 0.0000
# 3 54.0924 36.3852 113.1508 0.0000 0.0000 0.0000
# 4 0.0000 0.0000 0.0000 19.8712 0.0000 0.0000
# 5 0.0000 0.0000 0.0000 0.0000 29.0119 0.0000
# 6 0.0000 0.0000 0.0000 0.0000 0.0000 21.4097
#
#
#
# Elastic Compliance Matrix: (Units=1/GPa)
#
#
# Indices 1 2 3 4 5 6 
#
# 1 0.027551 -0.006391 -0.011116 0.000000 0.000000 0.000000
# 2 -0.006391 0.016947 -0.002395 0.000000 0.000000 0.000000
# 3 -0.011116 -0.002395 0.014922 0.000000 0.000000 0.000000
# 4 0.000000 0.000000 0.000000 0.050324 0.000000 0.000000
# 5 0.000000 0.000000 0.000000 0.000000 0.034469 0.000000
# 6 0.000000 0.000000 0.000000 0.000000 0.000000 0.046708
#
#
# Mechanical properties :
#
#
# Convention : Reuss Voigt Hill
#
# Bulk Modulus (GPa) = 50.97420 55.65449 53.31435
# Shear Modulus (GPa) = 21.07381 22.87708 21.97544
#
# Velocity S-wave (km/s) = 3.41707 3.56027 3.48940
# Velocity P-wave (km/s) = 6.61904 6.90921 6.76568
#
# Compressibility (1/GPa) = 0.01961777
#
# Stress axis : x y z
#
# Youngs Moduli (GPa) = 36.29675 59.00683 67.01635
#
# Poissons Ratio (x) = 0.37709 0.74494
# Poissons Ratio (y) = 0.23196 0.16047
# Poissons Ratio (z) = 0.40347 0.14129
#
# Static dielectric constant tensor:
#      x y z
#    x 3.368350 0.000000 0.000000 
#    y 0.000000 3.320530 0.000000 
#    z 0.000000 0.000000 3.373190 
# 
# 
# High freq. dielectric constant tensor:
#      x y z
#    x 1.685380 0.000000 0.000000 
#    y 0.000000 1.693580 0.000000 
#    z 0.000000 0.000000 1.698430 
# 
# From -- ./inp_files/8540.got.cif
#   From: 2010.03.12/outbox.cif.g09.slc.cpg/sg38_5_cif.got.tgz:8540.got - 2010.04.14 02:38:36.
