data_PCOD8178134
_publ_section_title
;
Structure prediction by ZEFSAII (Michael W. Deem and Ramdas Pophale) SiO2 
 PCOD8178134
Probable space group: A M M 2
;
_chemical_formula_sum "Si O2"
_cell_formula_units_Z 64
_cell_length_a 8.820543
_cell_length_b 20.531002
_cell_length_c 19.703077
_cell_angle_alpha 90.000000
_cell_angle_beta 90.000000
_cell_angle_gamma 90.000000
_cell_volume 3568.120572
_symmetry_space_group_name_H-M "A M M 2"
_symmetry_group_IT_number 38
_symmetry_cell_setting 'orthorhombic'
loop_
_space_group_symop_operation_xyz
x,y,z
-x,-y,z
-x,y,z
x,-y,z
x,1/2+y,1/2+z
-x,1/2-y,1/2+z
-x,1/2+y,1/2+z
x,1/2-y,1/2+z
loop_
_atom_site_type_symbol
_atom_site_label
_atom_site_fract_x
_atom_site_fract_y
_atom_site_fract_z
Si Si1 0.678726 0.810004 0.830050
Si Si2 0.320578 0.227772 0.538715
Si Si3 0.178435 0.687856 0.906005
Si Si4 0.678665 0.731526 0.187233
Si Si5 0.826470 0.573727 0.403805
Si Si6 0.677147 0.878820 0.179689
Si Si7 0.174523 0.633755 0.545283
Si Si8 0.675097 0.426315 0.824293
O O1 0.500000 0.798755 0.833578
O O2 0.753964 0.751748 0.871391
O O3 0.738917 0.809149 0.751856
O O4 0.719595 0.879643 0.860345
O O5 0.500000 0.221557 0.529049
O O6 0.238451 0.183018 0.483144
O O7 0.266471 0.203868 0.614047
O O8 0.275537 0.303029 0.529592
O O9 0.222643 0.621819 0.867938
O O10 0.000000 0.695236 0.906596
O O11 0.500000 0.730051 0.186998
O O12 0.732290 0.805778 0.196643
O O13 0.781356 0.500000 0.385852
O O14 0.802327 0.583775 0.483876
O O15 0.000000 0.588516 0.384071
O O16 0.500000 0.882116 0.162050
O O17 0.769183 0.902819 0.113542
O O18 0.717963 0.922628 0.244664
O O19 0.000000 0.655142 0.552785
O O20 0.500000 0.405783 0.833859
O O21 0.704285 0.500000 0.849126
#
# Coordination Sequence:
#
# PCOD8178134 Si02
#       8
#     8   8   8   8   8   8   8   8
#     4  11  20  35  59  83 106 138 183 230 269 318
#     4  10  19  34  56  80 107 141 179 227 274 319
#     4  12  23  35  54  83 114 144 179 224 279 333
#     4   8  16  31  53  80 107 133 171 223 275 314
#     4  10  22  38  52  73 111 151 182 220 272 325
#     4   9  17  32  51  75 108 144 181 221 267 319
#     4  10  19  31  49  76 109 146 185 222 265 321
#     4  10  21  38  58  79 107 147 191 232 274 322
#
# _framework density 17.936613000000001
#
# number of rings (size 3 to 8) (size 9 to 14) (size 15 to 20)
#    0.000    2.000    2.500    3.000    0.000    2.000 
#    0.000    1.875    0.000    0.750    0.000    1.750 
#    0.000    0.000    0.000    0.000    0.000    0.000 
#
# Total GULP energy -396739.503333 kJ/mol
# GULP energy per Si atom -12398.109479 kJ/mol
# Density = 1.789579 g / cm^3
# Si number density = 17.936613 Si / 1000 Ang^3
#
#
#
# Elastic Constant Matrix: (Units=GPa)
#
#
# Indices 1 2 3 4 5 6 
#
# 1 82.4756 34.7688 52.3946 0.0000 0.0000 0.0000
# 2 34.7688 77.8273 50.9994 0.0000 0.0000 0.0000
# 3 52.3946 50.9994 130.6607 0.0000 0.0000 0.0000
# 4 0.0000 0.0000 0.0000 24.2196 0.0000 0.0000
# 5 0.0000 0.0000 0.0000 0.0000 16.7636 0.0000
# 6 0.0000 0.0000 0.0000 0.0000 0.0000 22.6501
#
#
#
# Elastic Compliance Matrix: (Units=1/GPa)
#
#
# Indices 1 2 3 4 5 6 
#
# 1 0.017263 -0.004268 -0.005257 0.000000 0.000000 0.000000
# 2 -0.004268 0.018320 -0.005439 0.000000 0.000000 0.000000
# 3 -0.005257 -0.005439 0.011884 0.000000 0.000000 0.000000
# 4 0.000000 0.000000 0.000000 0.041289 0.000000 0.000000
# 5 0.000000 0.000000 0.000000 0.000000 0.059653 0.000000
# 6 0.000000 0.000000 0.000000 0.000000 0.000000 0.044150
#
#
# Mechanical properties :
#
#
# Convention : Reuss Voigt Hill
#
# Bulk Modulus (GPa) = 57.01180 63.03213 60.02197
# Shear Modulus (GPa) = 21.89779 22.91339 22.40559
#
# Velocity S-wave (km/s) = 3.49785 3.57804 3.53817
# Velocity P-wave (km/s) = 6.94027 7.23103 7.08714
#
# Compressibility (1/GPa) = 0.01754023
#
# Stress axis : x y z
#
# Youngs Moduli (GPa) = 57.92602 54.58593 84.14343
#
# Poissons Ratio (x) = 0.23295 0.44233
# Poissons Ratio (y) = 0.24720 0.45768
# Poissons Ratio (z) = 0.30451 0.29691
#
# Static dielectric constant tensor:
#      x y z
#    x 3.249530 0.000000 0.000000 
#    y 0.000000 3.049500 0.000000 
#    z 0.000000 0.000000 3.799070 
# 
# 
# High freq. dielectric constant tensor:
#      x y z
#    x 1.688020 0.000000 0.000000 
#    y 0.000000 1.661480 0.000000 
#    z 0.000000 0.000000 1.706010 
# 
# From -- ./inp_files/20014.got.cif
#   From: 2010.03.12/outbox.cif.g09.slc.cpg/sg38_11_cif.got.tgz:20014.got - 2010.04.14 02:38:36.
