data_PCOD8178743
_publ_section_title
;
Structure prediction by ZEFSAII (Michael W. Deem and Ramdas Pophale) SiO2 
 PCOD8178743
Probable space group: A M M 2
;
_chemical_formula_sum "Si O2"
_cell_formula_units_Z 64
_cell_length_a 14.663326
_cell_length_b 9.026781
_cell_length_c 24.957798
_cell_angle_alpha 90.000000
_cell_angle_beta 90.000000
_cell_angle_gamma 90.000000
_cell_volume 3303.479846
_symmetry_space_group_name_H-M "A M M 2"
_symmetry_group_IT_number 38
_symmetry_cell_setting 'orthorhombic'
loop_
_space_group_symop_operation_xyz
x,y,z
-x,-y,z
-x,y,z
x,-y,z
x,1/2+y,1/2+z
-x,1/2-y,1/2+z
-x,1/2+y,1/2+z
x,1/2-y,1/2+z
loop_
_atom_site_type_symbol
_atom_site_label
_atom_site_fract_x
_atom_site_fract_y
_atom_site_fract_z
Si Si1 0.604223 0.324188 0.600610
Si Si2 0.899747 0.173043 0.729932
Si Si3 0.896940 0.328939 0.957223
Si Si4 0.280566 0.174668 0.202242
Si Si5 0.333828 0.165062 0.806356
Si Si6 0.402671 0.324238 0.413408
Si Si7 0.270509 0.176522 0.002652
Si Si8 0.864423 0.164537 0.848006
O O1 0.500000 0.260644 0.596985
O O2 0.598292 0.500000 0.598732
O O3 0.653368 0.269878 0.654935
O O4 0.669570 0.266932 0.552890
O O5 0.821123 0.256916 0.696730
O O6 0.904251 0.226829 0.791774
O O7 0.000000 0.201805 0.704040
O O8 0.873464 0.000000 0.729298
O O9 0.869249 0.500000 0.956007
O O10 0.891603 0.269521 0.896623
O O11 0.000000 0.306892 0.978487
O O12 0.830572 0.245785 0.999467
O O13 0.328881 0.223601 0.257016
O O14 0.269048 0.000000 0.201356
O O15 0.402998 0.228161 0.851110
O O16 0.243094 0.156621 0.841652
O O17 0.359285 0.000000 0.785108
O O18 0.500000 0.275415 0.438224
O O19 0.393254 0.500000 0.414223
O O20 0.322280 0.260510 0.450151
O O21 0.260405 0.000000 0.004019
O O22 0.903341 0.000000 0.860074
#
# Coordination Sequence:
#
# PCOD8178743 Si02
#       8
#     8   8   8   8   8   8   8   8
#     4   9  19  37  61  85 106 134 179 230 274 319
#     4   9  18  33  53  77 107 145 186 224 264 312
#     4  11  23  35  49  75 112 148 177 212 267 328
#     4  10  20  33  52  80 111 142 177 220 269 320
#     4   9  17  31  49  75 111 145 177 216 261 313
#     4   9  16  28  51  81 106 130 169 220 268 313
#     4  10  19  36  60  81 101 134 182 230 270 310
#     4   9  16  30  51  75 103 140 186 226 257 302
#
# _framework density 19.37351
#
# number of rings (size 3 to 8) (size 9 to 14) (size 15 to 20)
#    0.000    2.500    1.250    2.250    0.000    5.750 
#    0.000    1.875    0.000    8.625    0.000    0.000 
#    0.000    0.000    0.000    0.000    0.000    0.000 
#
# Total GULP energy -396515.368360 kJ/mol
# GULP energy per Si atom -12391.105261 kJ/mol
# Density = 1.932941 g / cm^3
# Si number density = 19.373510 Si / 1000 Ang^3
#
#
#
# Elastic Constant Matrix: (Units=GPa)
#
#
# Indices 1 2 3 4 5 6 
#
# 1 133.5828 39.3781 66.0947 0.0000 0.0000 0.0000
# 2 39.3781 54.9649 34.4045 0.0000 0.0000 0.0000
# 3 66.0947 34.4045 99.0212 0.0000 0.0000 0.0000
# 4 0.0000 0.0000 0.0000 21.7678 0.0000 0.0000
# 5 0.0000 0.0000 0.0000 0.0000 20.2445 0.0000
# 6 0.0000 0.0000 0.0000 0.0000 0.0000 19.9745
#
#
#
# Elastic Compliance Matrix: (Units=1/GPa)
#
#
# Indices 1 2 3 4 5 6 
#
# 1 0.012019 -0.004587 -0.006429 0.000000 0.000000 0.000000
# 2 -0.004587 0.025000 -0.005625 0.000000 0.000000 0.000000
# 3 -0.006429 -0.005625 0.016344 0.000000 0.000000 0.000000
# 4 0.000000 0.000000 0.000000 0.045940 0.000000 0.000000
# 5 0.000000 0.000000 0.000000 0.000000 0.049396 0.000000
# 6 0.000000 0.000000 0.000000 0.000000 0.000000 0.050064
#
#
# Mechanical properties :
#
#
# Convention : Reuss Voigt Hill
#
# Bulk Modulus (GPa) = 49.79335 63.03594 56.41464
# Shear Modulus (GPa) = 20.94354 22.24347 21.59350
#
# Velocity S-wave (km/s) = 3.29148 3.39209 3.34217
# Velocity P-wave (km/s) = 6.34056 6.92456 6.63899
#
# Compressibility (1/GPa) = 0.02008300
#
# Stress axis : x y z
#
# Youngs Moduli (GPa) = 83.20221 39.99990 61.18381
#
# Poissons Ratio (x) = 0.18346 0.39334
# Poissons Ratio (y) = 0.38162 0.34414
# Poissons Ratio (z) = 0.53489 0.22499
#
# Static dielectric constant tensor:
#      x y z
#    x 3.829080 0.000000 0.000000 
#    y 0.000000 3.153710 0.000000 
#    z 0.000000 0.000000 3.477990 
# 
# 
# High freq. dielectric constant tensor:
#      x y z
#    x 1.770110 0.000000 0.000000 
#    y 0.000000 1.713260 0.000000 
#    z 0.000000 0.000000 1.736140 
# 
# From -- ./inp_files/22925.got.cif
#   From: 2010.03.12/outbox.cif.g09.slc.cpg/sg38_12_cif.got.tgz:22925.got - 2010.04.14 02:38:36.
