data_PCOD8178687
_publ_section_title
;
Structure prediction by ZEFSAII (Michael W. Deem and Ramdas Pophale) SiO2 
 PCOD8178687
Probable space group: A M M 2
;
_chemical_formula_sum "Si O2"
_cell_formula_units_Z 48
_cell_length_a 18.922318
_cell_length_b 9.103233
_cell_length_c 14.957007
_cell_angle_alpha 90.000000
_cell_angle_beta 90.000000
_cell_angle_gamma 90.000000
_cell_volume 2576.408317
_symmetry_space_group_name_H-M "A M M 2"
_symmetry_group_IT_number 38
_symmetry_cell_setting 'orthorhombic'
loop_
_space_group_symop_operation_xyz
x,y,z
-x,-y,z
-x,y,z
x,-y,z
x,1/2+y,1/2+z
-x,1/2-y,1/2+z
-x,1/2+y,1/2+z
x,1/2-y,1/2+z
loop_
_atom_site_type_symbol
_atom_site_label
_atom_site_fract_x
_atom_site_fract_y
_atom_site_fract_z
Si Si1 0.170901 0.174389 0.718860
Si Si2 0.314140 0.829934 0.262758
Si Si3 0.579750 0.327049 0.609436
Si Si4 0.335837 0.169715 0.464533
Si Si5 0.182179 0.326092 0.017304
Si Si6 0.081604 0.328076 0.861132
O O1 0.243985 0.233842 0.758085
O O2 0.161523 0.226534 0.616415
O O3 0.105584 0.241413 0.773069
O O4 0.170369 0.000000 0.727395
O O5 0.370206 0.772840 0.189985
O O6 0.349352 0.808027 0.359487
O O7 0.293534 0.000000 0.247775
O O8 0.500000 0.277329 0.631260
O O9 0.584785 0.500000 0.598096
O O10 0.603294 0.255304 0.516563
O O11 0.259394 0.235741 0.491818
O O12 0.340309 0.000000 0.492071
O O13 0.184023 0.500000 0.011720
O O14 0.124619 0.266869 0.946758
O O15 0.096071 0.500000 0.845663
O O16 0.000000 0.295067 0.879319
#
# Coordination Sequence:
#
# PCOD8178687 Si02
#       6
#     8   8   8   8   8   8
#     4  11  21  34  57  86 115 143 181 233 281 324
#     4  10  20  36  59  82 109 147 190 227 268 332
#     4  10  22  38  55  82 118 147 177 229 289 332
#     4  10  19  35  59  83 108 143 190 231 266 326
#     4   9  18  34  56  83 110 142 184 225 270 327
#     4  10  21  39  60  81 111 150 187 225 274 333
#
# _framework density 18.630587999999999
#
# number of rings (size 3 to 8) (size 9 to 14) (size 15 to 20)
#    0.000    2.000    3.333    0.500    0.000    2.667 
#    0.000    5.000    0.000    0.000    0.000    0.000 
#    0.000    0.000    0.000    0.000    0.000    0.000 
#
# Total GULP energy -297667.555935 kJ/mol
# GULP energy per Si atom -12402.814831 kJ/mol
# Density = 1.858818 g / cm^3
# Si number density = 18.630588 Si / 1000 Ang^3
#
#
#
# Elastic Constant Matrix: (Units=GPa)
#
#
# Indices 1 2 3 4 5 6 
#
# 1 95.7952 27.8895 34.6452 0.0000 0.0000 0.0000
# 2 27.8895 34.9804 25.6139 0.0000 0.0000 0.0000
# 3 34.6452 25.6139 110.5301 0.0000 0.0000 0.0000
# 4 0.0000 0.0000 0.0000 30.4576 0.0000 0.0000
# 5 0.0000 0.0000 0.0000 0.0000 34.8436 0.0000
# 6 0.0000 0.0000 0.0000 0.0000 0.0000 26.0355
#
#
#
# Elastic Compliance Matrix: (Units=1/GPa)
#
#
# Indices 1 2 3 4 5 6 
#
# 1 0.014014 -0.009583 -0.002172 0.000000 0.000000 0.000000
# 2 -0.009583 0.040983 -0.006493 0.000000 0.000000 0.000000
# 3 -0.002172 -0.006493 0.011233 0.000000 0.000000 0.000000
# 4 0.000000 0.000000 0.000000 0.032833 0.000000 0.000000
# 5 0.000000 0.000000 0.000000 0.000000 0.028700 0.000000
# 6 0.000000 0.000000 0.000000 0.000000 0.000000 0.038409
#
#
# Mechanical properties :
#
#
# Convention : Reuss Voigt Hill
#
# Bulk Modulus (GPa) = 33.63278 46.40031 40.01654
# Shear Modulus (GPa) = 23.52063 28.47782 25.99922
#
# Velocity S-wave (km/s) = 3.55699 3.91391 3.73971
# Velocity P-wave (km/s) = 5.91280 6.73680 6.33820
#
# Compressibility (1/GPa) = 0.02973290
#
# Stress axis : x y z
#
# Youngs Moduli (GPa) = 71.35485 24.40058 89.02442
#
# Poissons Ratio (x) = 0.23383 0.19336
# Poissons Ratio (y) = 0.68380 0.57807
# Poissons Ratio (z) = 0.15498 0.15844
#
# Static dielectric constant tensor:
#      x y z
#    x 3.437170 0.000000 0.000000 
#    y 0.000000 3.206040 0.000000 
#    z 0.000000 0.000000 3.632300 
# 
# 
# High freq. dielectric constant tensor:
#      x y z
#    x 1.720440 0.000000 0.000000 
#    y 0.000000 1.699740 0.000000 
#    z 0.000000 0.000000 1.737080 
# 
# From -- ./inp_files/10486.got.cif
#   From: 2010.03.12/outbox.cif.g09.slc.cpg/sg38_6_cif.got.tgz:10486.got - 2010.04.14 02:38:36.
