data_PCOD8178770
_publ_section_title
;
Structure prediction by ZEFSAII (Michael W. Deem and Ramdas Pophale) SiO2 
 PCOD8178770
Probable space group: A M M 2
;
_chemical_formula_sum "Si O2"
_cell_formula_units_Z 48
_cell_length_a 8.657699
_cell_length_b 14.443375
_cell_length_c 20.209088
_cell_angle_alpha 90.000000
_cell_angle_beta 90.000000
_cell_angle_gamma 90.000000
_cell_volume 2527.073566
_symmetry_space_group_name_H-M "A M M 2"
_symmetry_group_IT_number 38
_symmetry_cell_setting 'orthorhombic'
loop_
_space_group_symop_operation_xyz
x,y,z
-x,-y,z
-x,y,z
x,-y,z
x,1/2+y,1/2+z
-x,1/2-y,1/2+z
-x,1/2+y,1/2+z
x,1/2-y,1/2+z
loop_
_atom_site_type_symbol
_atom_site_label
_atom_site_fract_x
_atom_site_fract_y
_atom_site_fract_z
Si Si1 0.682478 0.809286 0.661390
Si Si2 0.180641 0.500000 0.120817
Si Si3 0.318958 0.315420 0.538394
Si Si4 0.819843 0.500000 0.581521
Si Si5 0.819223 0.810869 0.275235
Si Si6 0.678613 0.000000 0.478888
Si Si7 0.678925 0.307280 0.912784
Si Si8 0.682438 0.500000 0.725764
O O1 0.500000 0.815942 0.662618
O O2 0.737560 0.748050 0.599146
O O3 0.741982 0.764634 0.728542
O O4 0.750028 0.911181 0.656666
O O5 0.000000 0.500000 0.131555
O O6 0.217221 0.500000 0.043463
O O7 0.500000 0.337156 0.544476
O O8 0.223767 0.410366 0.538698
O O9 0.278477 0.263717 0.470713
O O10 0.723166 0.500000 0.648820
O O11 0.000000 0.500000 0.598697
O O12 0.783967 0.781599 0.350370
O O13 0.748971 0.911114 0.262066
O O14 0.000000 0.813176 0.261634
O O15 0.718497 0.089094 0.435542
O O16 0.500000 0.000000 0.501974
O O17 0.500000 0.299289 0.892917
O O18 0.500000 0.500000 0.733810
#
# Coordination Sequence:
#
# PCOD8178770 Si02
#       8
#     8   4   8   4   8   4   8   4
#     4  11  22  41  66  89 119 164 208 249 299 366
#     4  12  24  37  60  95 130 158 198 258 310 353
#     4  10  21  39  65  90 118 160 210 252 294 362
#     4  12  24  37  60  93 128 158 198 258 314 355
#     4  12  25  40  60  93 129 160 200 256 315 363
#     4  10  19  37  62  90 123 159 206 249 297 366
#     4  10  21  39  63  90 122 164 206 247 298 365
#     4  12  23  39  62  88 123 167 208 247 299 368
#
# _framework density 18.994304
#
# number of rings (size 3 to 8) (size 9 to 14) (size 15 to 20)
#    0.000    1.000    3.333    4.750    0.000    2.667 
#    0.000    0.833    0.000    3.000    0.000    0.000 
#    0.000    0.000    0.000    0.000    0.000    0.000 
#
# Total GULP energy -297771.364651 kJ/mol
# GULP energy per Si atom -12407.140194 kJ/mol
# Density = 1.895107 g / cm^3
# Si number density = 18.994304 Si / 1000 Ang^3
#
#
#
# Elastic Constant Matrix: (Units=GPa)
#
#
# Indices 1 2 3 4 5 6 
#
# 1 59.1781 46.8960 16.8116 0.0000 0.0000 0.0000
# 2 46.8960 150.5744 61.3037 0.0000 0.0000 0.0000
# 3 16.8116 61.3037 109.6511 0.0000 0.0000 0.0000
# 4 0.0000 0.0000 0.0000 26.0361 0.0000 0.0000
# 5 0.0000 0.0000 0.0000 0.0000 25.7447 0.0000
# 6 0.0000 0.0000 0.0000 0.0000 0.0000 19.0013
#
#
#
# Elastic Compliance Matrix: (Units=1/GPa)
#
#
# Indices 1 2 3 4 5 6 
#
# 1 0.022466 -0.007243 0.000605 0.000000 0.000000 0.000000
# 2 -0.007243 0.010934 -0.005002 0.000000 0.000000 0.000000
# 3 0.000605 -0.005002 0.011824 0.000000 0.000000 0.000000
# 4 0.000000 0.000000 0.000000 0.038408 0.000000 0.000000
# 5 0.000000 0.000000 0.000000 0.000000 0.038843 0.000000
# 6 0.000000 0.000000 0.000000 0.000000 0.000000 0.052628
#
#
# Mechanical properties :
#
#
# Convention : Reuss Voigt Hill
#
# Bulk Modulus (GPa) = 45.57333 63.26957 54.42145
# Shear Modulus (GPa) = 24.30743 27.11591 25.71167
#
# Velocity S-wave (km/s) = 3.58120 3.78243 3.68319
# Velocity P-wave (km/s) = 6.41446 7.24278 6.84116
#
# Compressibility (1/GPa) = 0.02194266
#
# Stress axis : x y z
#
# Youngs Moduli (GPa) = 44.51104 91.45966 84.57565
#
# Poissons Ratio (x) = 0.66248 -0.05118
# Poissons Ratio (y) = 0.32241 0.42307
# Poissons Ratio (z) = -0.02694 0.45751
#
# Static dielectric constant tensor:
#      x y z
#    x 3.470890 0.000000 0.000000 
#    y 0.000000 3.634470 0.000000 
#    z 0.000000 0.000000 3.472700 
# 
# 
# High freq. dielectric constant tensor:
#      x y z
#    x 1.741220 0.000000 0.000000 
#    y 0.000000 1.745340 0.000000 
#    z 0.000000 0.000000 1.738540 
# 
# From -- ./inp_files/16745.got.cif
#   From: 2010.03.12/outbox.cif.g09.slc.cpg/sg38_9_cif.got.tgz:16745.got - 2010.04.14 02:38:36.
