data_PCOD8178221
_publ_section_title
;
Structure prediction by ZEFSAII (Michael W. Deem and Ramdas Pophale) SiO2 
 PCOD8178221
Probable space group: A M M 2
;
_chemical_formula_sum "Si O2"
_cell_formula_units_Z 40
_cell_length_a 8.648704
_cell_length_b 25.766809
_cell_length_c 9.661793
_cell_angle_alpha 90.000000
_cell_angle_beta 90.000000
_cell_angle_gamma 90.000000
_cell_volume 2153.125778
_symmetry_space_group_name_H-M "A M M 2"
_symmetry_group_IT_number 38
_symmetry_cell_setting 'orthorhombic'
loop_
_space_group_symop_operation_xyz
x,y,z
-x,-y,z
-x,y,z
x,-y,z
x,1/2+y,1/2+z
-x,1/2-y,1/2+z
-x,1/2+y,1/2+z
x,1/2-y,1/2+z
loop_
_atom_site_type_symbol
_atom_site_label
_atom_site_fract_x
_atom_site_fract_y
_atom_site_fract_z
Si Si1 0.684025 0.000000 0.556440
Si Si2 0.683460 0.908591 0.749133
Si Si3 0.682020 0.912197 0.063864
Si Si4 0.684583 0.793871 0.754160
Si Si5 0.180556 0.000000 0.251347
Si Si6 0.682731 0.295259 0.561073
O O1 0.749384 0.949727 0.638640
O O2 0.738988 0.000000 0.399923
O O3 0.500000 0.000000 0.557205
O O4 0.500000 0.910216 0.750801
O O5 0.739286 0.851002 0.703407
O O6 0.738237 0.921790 0.905727
O O7 0.500000 0.923306 0.077679
O O8 0.772887 0.949195 0.166733
O O9 0.723464 0.853452 0.110092
O O10 0.500000 0.791518 0.753275
O O11 0.757305 0.748306 0.660430
O O12 0.748754 0.785004 0.908317
O O13 0.000000 0.000000 0.276967
O O14 0.500000 0.288706 0.558775
#
# Coordination Sequence:
#
# PCOD8178221 Si02
#       6
#     4   8   8   8   4   8
#     4  10  19  32  50  72  96 128 163 198 240 284
#     4   8  15  28  49  74 100 127 160 198 235 277
#     4   9  17  33  54  74  95 125 162 198 234 283
#     4   8  13  22  37  67 104 128 147 183 231 276
#     4  12  25  36  46  68  98 126 157 202 250 290
#     4   8  14  23  40  67  99 127 151 183 229 277
#
# _framework density 18.577641
#
# number of rings (size 3 to 8) (size 9 to 14) (size 15 to 20)
#    0.000    3.200    0.000    3.900    0.000    3.200 
#    0.000    8.000    0.000    0.000    0.000   12.600 
#    0.000    0.000    0.000    0.000    0.000    0.000 
#
# Total GULP energy -247847.659967 kJ/mol
# GULP energy per Si atom -12392.382998 kJ/mol
# Density = 1.853536 g / cm^3
# Si number density = 18.577641 Si / 1000 Ang^3
#
#
#
# Elastic Constant Matrix: (Units=GPa)
#
#
# Indices 1 2 3 4 5 6 
#
# 1 14.9664 13.6164 8.3564 0.0000 0.0000 0.0000
# 2 13.6164 169.9477 95.3915 0.0000 0.0000 0.0000
# 3 8.3564 95.3915 117.9857 0.0000 0.0000 0.0000
# 4 0.0000 0.0000 0.0000 42.4707 0.0000 0.0000
# 5 0.0000 0.0000 0.0000 0.0000 0.8948 0.0000
# 6 0.0000 0.0000 0.0000 0.0000 0.0000 2.9622
#
#
#
# Elastic Compliance Matrix: (Units=1/GPa)
#
#
# Indices 1 2 3 4 5 6 
#
# 1 0.072111 -0.005329 -0.000798 0.000000 0.000000 0.000000
# 2 -0.005329 0.011167 -0.008651 0.000000 0.000000 0.000000
# 3 -0.000798 -0.008651 0.015527 0.000000 0.000000 0.000000
# 4 0.000000 0.000000 0.000000 0.023546 0.000000 0.000000
# 5 0.000000 0.000000 0.000000 0.000000 1.117587 0.000000
# 6 0.000000 0.000000 0.000000 0.000000 0.000000 0.337592
#
#
# Mechanical properties :
#
#
# Convention : Reuss Voigt Hill
#
# Bulk Modulus (GPa) = 14.44114 59.73650 37.08882
# Shear Modulus (GPa) = 3.06717 21.63456 12.35086
#
# Velocity S-wave (km/s) = 1.28631 3.41625 2.58122
# Velocity P-wave (km/s) = 3.16171 6.91273 5.37505
#
# Compressibility (1/GPa) = 0.06924661
#
# Stress axis : x y z
#
# Youngs Moduli (GPa) = 13.86751 89.54961 64.40584
#
# Poissons Ratio (x) = 0.47725 0.05143
# Poissons Ratio (y) = 0.07391 0.55718
# Poissons Ratio (z) = 0.01107 0.77470
#
# Static dielectric constant tensor:
#      x y z
#    x 2.694760 0.000000 0.000000 
#    y 0.000000 3.894320 0.000000 
#    z 0.000000 0.000000 3.650670 
# 
# 
# High freq. dielectric constant tensor:
#      x y z
#    x 1.647830 0.000000 0.000000 
#    y 0.000000 1.739810 0.000000 
#    z 0.000000 0.000000 1.720490 
# 
# From -- ./inp_files/3502.got.cif
#   From: 2010.03.12/outbox.cif.g09.slc.cpg/sg38_2_cif.got.tgz:3502.got - 2010.04.14 02:38:36.
