data_PCOD8178060
_publ_section_title
;
Structure prediction by ZEFSAII (Michael W. Deem and Ramdas Pophale) SiO2 
 PCOD8178060
Probable space group: A M M 2
;
_chemical_formula_sum "Si O2"
_cell_formula_units_Z 64
_cell_length_a 8.900582
_cell_length_b 27.886680
_cell_length_c 14.722989
_cell_angle_alpha 90.000000
_cell_angle_beta 90.000000
_cell_angle_gamma 90.000000
_cell_volume 3654.358973
_symmetry_space_group_name_H-M "A M M 2"
_symmetry_group_IT_number 38
_symmetry_cell_setting 'orthorhombic'
loop_
_space_group_symop_operation_xyz
x,y,z
-x,-y,z
-x,y,z
x,-y,z
x,1/2+y,1/2+z
-x,1/2-y,1/2+z
-x,1/2+y,1/2+z
x,1/2-y,1/2+z
loop_
_atom_site_type_symbol
_atom_site_label
_atom_site_fract_x
_atom_site_fract_y
_atom_site_fract_z
Si Si1 0.326270 0.718018 0.202930
Si Si2 0.177610 0.219400 0.515657
Si Si3 0.673490 0.632257 0.332623
Si Si4 0.322180 0.179705 0.013820
Si Si5 0.325578 0.673511 0.713081
Si Si6 0.321387 0.636054 0.899239
Si Si7 0.826265 0.443972 0.011308
Si Si8 0.177561 0.946766 0.714932
O O1 0.500000 0.713741 0.172737
O O2 0.222032 0.705507 0.117967
O O3 0.285155 0.681594 0.282701
O O4 0.290736 0.771310 0.238884
O O5 0.243851 0.270643 0.486856
O O6 0.243973 0.178932 0.451840
O O7 0.000000 0.220448 0.505920
O O8 0.500000 0.619514 0.320061
O O9 0.715676 0.639422 0.438619
O O10 0.765863 0.588483 0.292444
O O11 0.500000 0.190126 0.016880
O O12 0.259669 0.161782 0.112312
O O13 0.500000 0.664012 0.705996
O O14 0.263842 0.639714 0.794008
O O15 0.500000 0.641773 0.906017
O O16 0.272672 0.584974 0.939178
O O17 0.801920 0.500000 0.992288
O O18 0.771114 0.430918 0.113593
O O19 0.000000 0.429699 0.999128
O O20 0.000000 0.947838 0.716753
O O21 0.240410 0.000000 0.735873
#
# Coordination Sequence:
#
# PCOD8178060 Si02
#       8
#     8   8   8   8   8   8   8   8
#     4   9  17  31  48  69  98 129 159 194 239 285
#     4  11  21  31  45  70 101 132 164 196 235 282
#     4  10  19  30  51  77  96 121 160 202 241 283
#     4   9  18  35  52  67  94 130 164 199 240 280
#     4   8  16  31  50  68  92 128 163 195 232 277
#     4  11  20  31  50  74  97 125 163 201 239 283
#     4   9  19  36  54  73  99 128 156 190 237 289
#     4   9  19  35  52  70  97 130 157 187 235 291
#
# _framework density 17.513331000000001
#
# number of rings (size 3 to 8) (size 9 to 14) (size 15 to 20)
#    0.000    2.500    0.000    4.500    0.000    6.000 
#    0.000    8.750    0.000    0.750    0.000    5.250 
#    0.000    0.000    0.000    0.000    0.000    0.000 
#
# Total GULP energy -396671.184116 kJ/mol
# GULP energy per Si atom -12395.974504 kJ/mol
# Density = 1.747347 g / cm^3
# Si number density = 17.513331 Si / 1000 Ang^3
#
#
#
# Elastic Constant Matrix: (Units=GPa)
#
#
# Indices 1 2 3 4 5 6 
#
# 1 57.7522 29.8219 35.3271 0.0000 0.0000 0.0000
# 2 29.8219 83.8496 68.4691 0.0000 0.0000 0.0000
# 3 35.3271 68.4691 108.5194 0.0000 0.0000 0.0000
# 4 0.0000 0.0000 0.0000 26.8040 0.0000 0.0000
# 5 0.0000 0.0000 0.0000 0.0000 13.6479 0.0000
# 6 0.0000 0.0000 0.0000 0.0000 0.0000 27.9036
#
#
#
# Elastic Compliance Matrix: (Units=1/GPa)
#
#
# Indices 1 2 3 4 5 6 
#
# 1 0.022294 -0.004131 -0.004651 0.000000 0.000000 0.000000
# 2 -0.004131 0.025366 -0.014659 0.000000 0.000000 0.000000
# 3 -0.004651 -0.014659 0.019978 0.000000 0.000000 0.000000
# 4 0.000000 0.000000 0.000000 0.037308 0.000000 0.000000
# 5 0.000000 0.000000 0.000000 0.000000 0.073271 0.000000
# 6 0.000000 0.000000 0.000000 0.000000 0.000000 0.035838
#
#
# Mechanical properties :
#
#
# Convention : Reuss Voigt Hill
#
# Bulk Modulus (GPa) = 48.18201 57.48414 52.83307
# Shear Modulus (GPa) = 18.66676 21.43798 20.05237
#
# Velocity S-wave (km/s) = 3.26829 3.50250 3.38742
# Velocity P-wave (km/s) = 6.46635 7.01791 6.74777
#
# Compressibility (1/GPa) = 0.02075464
#
# Stress axis : x y z
#
# Youngs Moduli (GPa) = 44.85611 39.42302 50.05450
#
# Poissons Ratio (x) = 0.16286 0.23280
# Poissons Ratio (y) = 0.18531 0.73377
# Poissons Ratio (z) = 0.20862 0.57792
#
# Static dielectric constant tensor:
#      x y z
#    x 3.080610 0.000000 0.000000 
#    y 0.000000 3.129860 0.000000 
#    z 0.000000 0.000000 3.743090 
# 
# 
# High freq. dielectric constant tensor:
#      x y z
#    x 1.660390 0.000000 0.000000 
#    y 0.000000 1.657520 0.000000 
#    z 0.000000 0.000000 1.682150 
# 
# From -- ./inp_files/13101.got.cif
#   From: 2010.03.12/outbox.cif.g09.slc.cpg/sg38_7_cif.got.tgz:13101.got - 2010.04.14 02:38:36.
