data_PCOD8178049
_publ_section_title
;
Structure prediction by ZEFSAII (Michael W. Deem and Ramdas Pophale) SiO2 
 PCOD8178049
Probable space group: A M M 2
;
_chemical_formula_sum "Si O2"
_cell_formula_units_Z 64
_cell_length_a 38.301397
_cell_length_b 17.230884
_cell_length_c 5.034098
_cell_angle_alpha 90.000000
_cell_angle_beta 90.000000
_cell_angle_gamma 90.000000
_cell_volume 3322.338196
_symmetry_space_group_name_H-M "A M M 2"
_symmetry_group_IT_number 38
_symmetry_cell_setting 'orthorhombic'
loop_
_space_group_symop_operation_xyz
x,y,z
-x,-y,z
-x,y,z
x,-y,z
x,1/2+y,1/2+z
-x,1/2-y,1/2+z
-x,1/2+y,1/2+z
x,1/2-y,1/2+z
loop_
_atom_site_type_symbol
_atom_site_label
_atom_site_fract_x
_atom_site_fract_y
_atom_site_fract_z
Si Si1 0.460552 0.800120 0.603050
Si Si2 0.962722 0.199100 0.619734
Si Si3 0.352996 0.409901 0.506845
Si Si4 0.778954 0.589737 0.511510
Si Si5 0.175852 0.410963 0.014520
Si Si6 0.602212 0.410855 0.016237
Si Si7 0.888945 0.802239 0.510663
Si Si8 0.287030 0.802818 0.027481
O O1 0.500000 0.831802 0.569575
O O2 0.453829 0.729708 0.400047
O O3 0.434620 0.869487 0.542079
O O4 0.961947 0.226125 0.925055
O O5 0.926584 0.153435 0.555032
O O6 0.000000 0.153662 0.571746
O O7 0.341223 0.500000 0.497435
O O8 0.369288 0.381312 0.229023
O O9 0.320039 0.357600 0.574663
O O10 0.382528 0.395935 0.726228
O O11 0.766710 0.500000 0.524417
O O12 0.809198 0.606450 0.724153
O O13 0.746679 0.644569 0.574081
O O14 0.794245 0.611723 0.224772
O O15 0.165196 0.500000 0.050893
O O16 0.141286 0.362749 0.068296
O O17 0.594304 0.500000 0.073965
O O18 0.885917 0.730048 0.712867
O O19 0.287343 0.768064 0.732850
#
# Coordination Sequence:
#
# PCOD8178049 Si02
#       8
#     8   8   8   8   8   8   8   8
#     4  10  21  36  55  81 113 147 179 216 267 317
#     4   8  14  25  41  64  94 126 161 200 244 296
#     4  10  22  40  58  79 110 144 176 212 261 317
#     4  10  22  40  57  73 101 141 173 203 254 313
#     4  10  21  36  54  75 101 135 171 206 253 311
#     4  10  21  37  59  83 107 142 184 221 256 301
#     4  10  19  30  49  75 100 129 166 211 256 295
#     4  12  25  38  57  85 109 133 172 219 262 302
#
# _framework density 19.263542000000001
#
# number of rings (size 3 to 8) (size 9 to 14) (size 15 to 20)
#    0.000    2.000    0.000    3.375    0.000    6.250 
#    0.000    5.000    0.000    4.875    0.000    0.000 
#    0.000   13.000    0.000    0.000    0.000    2.000 
#
# Total GULP energy -396751.284534 kJ/mol
# GULP energy per Si atom -12398.477642 kJ/mol
# Density = 1.921970 g / cm^3
# Si number density = 19.263542 Si / 1000 Ang^3
#
#
#
# Elastic Constant Matrix: (Units=GPa)
#
#
# Indices 1 2 3 4 5 6 
#
# 1 127.3032 60.3837 2.6646 0.0000 0.0000 0.0000
# 2 60.3837 56.8357 11.1625 0.0000 0.0000 0.0000
# 3 2.6646 11.1625 75.8588 0.0000 0.0000 0.0000
# 4 0.0000 0.0000 0.0000 22.5280 0.0000 0.0000
# 5 0.0000 0.0000 0.0000 0.0000 21.0967 0.0000
# 6 0.0000 0.0000 0.0000 0.0000 0.0000 -18.2855
#
#
#
# Elastic Compliance Matrix: (Units=1/GPa)
#
#
# Indices 1 2 3 4 5 6 
#
# 1 0.016128 -0.017531 0.002013 0.000000 0.000000 0.000000
# 2 -0.017531 0.037173 -0.004854 0.000000 0.000000 0.000000
# 3 0.002013 -0.004854 0.013826 0.000000 0.000000 0.000000
# 4 0.000000 0.000000 0.000000 0.044389 0.000000 0.000000
# 5 0.000000 0.000000 0.000000 0.000000 0.047401 0.000000
# 6 0.000000 0.000000 0.000000 0.000000 0.000000 -0.054688
#
#
# Mechanical properties :
#
#
# Convention : Reuss Voigt Hill
#
# Bulk Modulus (GPa) = 37.90190 45.37991 41.64090
# Shear Modulus (GPa) = 32.51674 17.45364 24.98519
#
# Velocity S-wave (km/s) = 4.11298 3.01332 3.60532
# Velocity P-wave (km/s) = 6.50182 5.97623 6.24456
#
# Compressibility (1/GPa) = 0.02638390
#
# Stress axis : x y z
#
# Youngs Moduli (GPa) = 62.00246 26.90135 72.32776
#
# Poissons Ratio (x) = 0.47160 -0.14560
# Poissons Ratio (y) = 1.08694 0.35109
# Poissons Ratio (z) = -0.12482 0.13058
#
# Static dielectric constant tensor:
#      x y z
#    x 3.696840 0.000000 0.000000 
#    y 0.000000 3.193180 0.000000 
#    z 0.000000 0.000000 3.731460 
# 
# 
# High freq. dielectric constant tensor:
#      x y z
#    x 1.766280 0.000000 0.000000 
#    y 0.000000 1.710830 0.000000 
#    z 0.000000 0.000000 1.771750 
# 
# From -- ./inp_files/2313.got.cif
#   From: 2010.03.12/outbox.cif.g09.slc.cpg/sg38_2_cif.got.tgz:2313.got - 2010.04.14 02:38:36.
