data_PCOD8178806
_publ_section_title
;
Structure prediction by ZEFSAII (Michael W. Deem and Ramdas Pophale) SiO2 
 PCOD8178806
Probable space group: A M M 2
;
_chemical_formula_sum "Si O2"
_cell_formula_units_Z 64
_cell_length_a 17.581301
_cell_length_b 9.766743
_cell_length_c 22.532354
_cell_angle_alpha 90.000000
_cell_angle_beta 90.000000
_cell_angle_gamma 90.000000
_cell_volume 3869.076662
_symmetry_space_group_name_H-M "A M M 2"
_symmetry_group_IT_number 38
_symmetry_cell_setting 'orthorhombic'
loop_
_space_group_symop_operation_xyz
x,y,z
-x,-y,z
-x,y,z
x,-y,z
x,1/2+y,1/2+z
-x,1/2-y,1/2+z
-x,1/2+y,1/2+z
x,1/2-y,1/2+z
loop_
_atom_site_type_symbol
_atom_site_label
_atom_site_fract_x
_atom_site_fract_y
_atom_site_fract_z
Si Si1 0.804509 0.341532 0.400460
Si Si2 0.087625 0.655291 0.692424
Si Si3 0.699513 0.650206 0.165559
Si Si4 0.912856 0.344359 0.973043
Si Si5 0.412303 0.337056 0.071026
Si Si6 0.821983 0.747764 0.083023
Si Si7 0.803660 0.837295 0.764482
Si Si8 0.305671 0.152282 0.001662
O O1 0.828203 0.500000 0.407014
O O2 0.873926 0.251975 0.424465
O O3 0.788504 0.301869 0.332570
O O4 0.727020 0.310889 0.436532
O O5 0.097094 0.500000 0.715488
O O6 0.126969 0.665103 0.628122
O O7 0.122221 0.757997 0.741291
O O8 0.000000 0.695870 0.684978
O O9 0.671660 0.500000 0.182535
O O10 0.627388 0.719807 0.132072
O O11 0.770440 0.641270 0.119867
O O12 0.730116 0.719048 0.226558
O O13 0.905273 0.500000 0.950845
O O14 0.000000 0.298509 0.978319
O O15 0.875234 0.333634 0.037737
O O16 0.500000 0.295852 0.072728
O O17 0.400300 0.500000 0.063666
O O18 0.371663 0.261689 0.016016
O O19 0.765089 0.847277 0.047284
O O20 0.815163 0.000000 0.753803
O O21 0.341210 0.000000 0.002470
#
# Coordination Sequence:
#
# PCOD8178806 Si02
#       8
#     8   8   8   8   8   8   8   8
#     4   9  19  34  49  65  88 121 160 198 235 275
#     4  10  20  31  44  65  92 120 151 192 240 283
#     4   8  14  26  46  68  88 112 144 180 215 257
#     4  10  20  31  45  67  92 119 155 199 243 285
#     4   9  17  29  47  73 101 122 140 170 219 276
#     4   9  16  29  46  64  89 118 149 186 231 279
#     4   9  18  33  50  65  85 119 160 197 230 268
#     4   9  17  29  47  69  91 117 151 187 221 265
#
# _framework density 16.541414
#
# number of rings (size 3 to 8) (size 9 to 14) (size 15 to 20)
#    0.000    2.875    0.000    1.125    0.000    5.750 
#    0.000    2.500    0.000    0.750    0.000    3.500 
#    0.000    0.000    0.000    0.000    0.000    0.000 
#
# Total GULP energy -396554.544319 kJ/mol
# GULP energy per Si atom -12392.329510 kJ/mol
# Density = 1.650376 g / cm^3
# Si number density = 16.541414 Si / 1000 Ang^3
#
#
#
# Elastic Constant Matrix: (Units=GPa)
#
#
# Indices 1 2 3 4 5 6 
#
# 1 123.5120 42.4054 60.8227 0.0000 0.0000 0.0000
# 2 42.4054 58.0826 34.4346 0.0000 0.0000 0.0000
# 3 60.8227 34.4346 126.5723 0.0000 0.0000 0.0000
# 4 0.0000 0.0000 0.0000 20.7997 0.0000 0.0000
# 5 0.0000 0.0000 0.0000 0.0000 14.2499 0.0000
# 6 0.0000 0.0000 0.0000 0.0000 0.0000 22.7652
#
#
#
# Elastic Compliance Matrix: (Units=1/GPa)
#
#
# Indices 1 2 3 4 5 6 
#
# 1 0.012413 -0.006589 -0.004172 0.000000 0.000000 0.000000
# 2 -0.006589 0.024025 -0.003370 0.000000 0.000000 0.000000
# 3 -0.004172 -0.003370 0.010822 0.000000 0.000000 0.000000
# 4 0.000000 0.000000 0.000000 0.048078 0.000000 0.000000
# 5 0.000000 0.000000 0.000000 0.000000 0.070176 0.000000
# 6 0.000000 0.000000 0.000000 0.000000 0.000000 0.043927
#
#
# Mechanical properties :
#
#
# Convention : Reuss Voigt Hill
#
# Bulk Modulus (GPa) = 52.63671 64.83248 58.73459
# Shear Modulus (GPa) = 20.48870 22.92992 21.70931
#
# Velocity S-wave (km/s) = 3.52324 3.72723 3.62667
# Velocity P-wave (km/s) = 6.95997 7.60277 7.28846
#
# Compressibility (1/GPa) = 0.01899815
#
# Stress axis : x y z
#
# Youngs Moduli (GPa) = 80.55849 41.62265 92.40069
#
# Poissons Ratio (x) = 0.27426 0.38554
# Poissons Ratio (y) = 0.53081 0.31138
# Poissons Ratio (z) = 0.33613 0.14026
#
# Static dielectric constant tensor:
#      x y z
#    x 3.036020 0.000000 0.000000 
#    y 0.000000 2.982490 0.000000 
#    z 0.000000 0.000000 3.197640 
# 
# 
# High freq. dielectric constant tensor:
#      x y z
#    x 1.620650 0.000000 0.000000 
#    y 0.000000 1.628100 0.000000 
#    z 0.000000 0.000000 1.631190 
# 
# From -- ./inp_files/23085.got.cif
#   From: 2010.03.12/outbox.cif.g09.slc.cpg/sg38_12_cif.got.tgz:23085.got - 2010.04.14 02:38:36.
