data_PCOD8178291
_publ_section_title
;
Structure prediction by ZEFSAII (Michael W. Deem and Ramdas Pophale) SiO2 
 PCOD8178291
Probable space group: A M M 2
;
_chemical_formula_sum "Si O2"
_cell_formula_units_Z 64
_cell_length_a 14.019236
_cell_length_b 14.073452
_cell_length_c 17.904886
_cell_angle_alpha 90.000000
_cell_angle_beta 90.000000
_cell_angle_gamma 90.000000
_cell_volume 3532.616907
_symmetry_space_group_name_H-M "A M M 2"
_symmetry_group_IT_number 38
_symmetry_cell_setting 'orthorhombic'
loop_
_space_group_symop_operation_xyz
x,y,z
-x,-y,z
-x,y,z
x,-y,z
x,1/2+y,1/2+z
-x,1/2-y,1/2+z
-x,1/2+y,1/2+z
x,1/2-y,1/2+z
loop_
_atom_site_type_symbol
_atom_site_label
_atom_site_fract_x
_atom_site_fract_y
_atom_site_fract_z
Si Si1 0.388129 0.722206 0.927160
Si Si2 0.887149 0.255925 0.406846
Si Si3 0.895333 0.606458 0.135843
Si Si4 0.735402 0.613149 0.476144
Si Si5 0.892429 0.228382 0.240881
Si Si6 0.749459 0.889614 0.149122
Si Si7 0.225148 0.889698 0.496284
Si Si8 0.609982 0.607812 0.778860
O O1 0.500000 0.715868 0.946125
O O2 0.329029 0.657493 0.985617
O O3 0.365173 0.681325 0.844862
O O4 0.351464 0.831164 0.934593
O O5 0.835053 0.348002 0.442619
O O6 0.849045 0.236026 0.323365
O O7 0.856853 0.159637 0.447638
O O8 0.000000 0.274286 0.411395
O O9 0.890306 0.500000 0.164619
O O10 0.883209 0.665932 0.210204
O O11 0.000000 0.627118 0.098334
O O12 0.807619 0.627342 0.080943
O O13 0.725598 0.500000 0.462565
O O14 0.730298 0.641057 0.563784
O O15 0.842336 0.158230 0.183332
O O16 0.000000 0.191147 0.245931
O O17 0.661297 0.861207 0.202348
O O18 0.770182 0.000000 0.150840
O O19 0.229003 0.000000 0.474724
O O20 0.500000 0.612348 0.758874
O O21 0.639144 0.500000 0.803106
#
# Coordination Sequence:
#
# PCOD8178291 Si02
#       8
#     8   8   8   8   8   8   8   8
#     4  10  20  34  53  77 105 136 170 211 260 312
#     4  10  21  35  52  77 107 138 172 211 257 307
#     4   9  18  33  52  72  95 129 172 211 247 290
#     4  10  22  37  53  76 105 140 180 217 256 304
#     4  10  20  33  50  72 100 134 171 211 250 294
#     4  10  20  34  52  74 102 135 170 209 253 303
#     4  10  19  32  52  77 105 133 163 205 257 312
#     4   9  18  34  56  79 101 127 162 207 260 314
#
# _framework density 18.116880999999999
#
# number of rings (size 3 to 8) (size 9 to 14) (size 15 to 20)
#    0.000    2.250    0.000    3.750    0.000    6.250 
#    0.000    5.000    0.000    0.000    0.000    0.000 
#    0.000   12.000    0.000    0.000    0.000    0.000 
#
# Total GULP energy -396625.342263 kJ/mol
# GULP energy per Si atom -12394.541946 kJ/mol
# Density = 1.807565 g / cm^3
# Si number density = 18.116881 Si / 1000 Ang^3
#
#
#
# Elastic Constant Matrix: (Units=GPa)
#
#
# Indices 1 2 3 4 5 6 
#
# 1 90.2797 33.7047 25.2870 0.0000 0.0000 0.0000
# 2 33.7047 90.3165 35.7433 0.0000 0.0000 0.0000
# 3 25.2870 35.7433 77.7051 0.0000 0.0000 0.0000
# 4 0.0000 0.0000 0.0000 26.7431 0.0000 0.0000
# 5 0.0000 0.0000 0.0000 0.0000 22.6897 0.0000
# 6 0.0000 0.0000 0.0000 0.0000 0.0000 26.0230
#
#
#
# Elastic Compliance Matrix: (Units=1/GPa)
#
#
# Indices 1 2 3 4 5 6 
#
# 1 0.013253 -0.003960 -0.002491 0.000000 0.000000 0.000000
# 2 -0.003960 0.014720 -0.005482 0.000000 0.000000 0.000000
# 3 -0.002491 -0.005482 0.016202 0.000000 0.000000 0.000000
# 4 0.000000 0.000000 0.000000 0.037393 0.000000 0.000000
# 5 0.000000 0.000000 0.000000 0.000000 0.044073 0.000000
# 6 0.000000 0.000000 0.000000 0.000000 0.000000 0.038427
#
#
# Mechanical properties :
#
#
# Convention : Reuss Voigt Hill
#
# Bulk Modulus (GPa) = 49.24315 49.75238 49.49777
# Shear Modulus (GPa) = 25.68017 25.99559 25.83788
#
# Velocity S-wave (km/s) = 3.76902 3.79209 3.78057
# Velocity P-wave (km/s) = 6.79562 6.83336 6.81452
#
# Compressibility (1/GPa) = 0.02030739
#
# Stress axis : x y z
#
# Youngs Moduli (GPa) = 75.45553 67.93706 61.72217
#
# Poissons Ratio (x) = 0.26902 0.15377
# Poissons Ratio (y) = 0.29879 0.33837
# Poissons Ratio (z) = 0.18798 0.37244
#
# Static dielectric constant tensor:
#      x y z
#    x 3.367770 0.000000 0.000000 
#    y 0.000000 3.412180 0.000000 
#    z 0.000000 0.000000 3.409110 
# 
# 
# High freq. dielectric constant tensor:
#      x y z
#    x 1.700410 0.000000 0.000000 
#    y 0.000000 1.703030 0.000000 
#    z 0.000000 0.000000 1.702040 
# 
# From -- ./inp_files/18520.got.cif
#   From: 2010.03.12/outbox.cif.g09.slc.cpg/sg38_10_cif.got.tgz:18520.got - 2010.04.14 02:38:36.
