data_PCOD8178288
_publ_section_title
;
Structure prediction by ZEFSAII (Michael W. Deem and Ramdas Pophale) SiO2 
 PCOD8178288
Probable space group: A M M 2
;
_chemical_formula_sum "Si O2"
_cell_formula_units_Z 56
_cell_length_a 19.588030
_cell_length_b 9.224782
_cell_length_c 15.872296
_cell_angle_alpha 90.000000
_cell_angle_beta 90.000000
_cell_angle_gamma 90.000000
_cell_volume 2868.049392
_symmetry_space_group_name_H-M "A M M 2"
_symmetry_group_IT_number 38
_symmetry_cell_setting 'orthorhombic'
loop_
_space_group_symop_operation_xyz
x,y,z
-x,-y,z
-x,y,z
x,-y,z
x,1/2+y,1/2+z
-x,1/2-y,1/2+z
-x,1/2+y,1/2+z
x,1/2-y,1/2+z
loop_
_atom_site_type_symbol
_atom_site_label
_atom_site_fract_x
_atom_site_fract_y
_atom_site_fract_z
Si Si1 0.079797 0.830719 0.634050
Si Si2 0.573614 0.671739 0.295362
Si Si3 0.159392 0.828751 0.471260
Si Si4 0.715450 0.164284 0.730421
Si Si5 0.844035 0.671521 0.783316
Si Si6 0.424273 0.669732 0.486512
Si Si7 0.297668 0.662552 0.039854
O O1 0.111685 0.768215 0.546673
O O2 0.107571 0.746948 0.715491
O O3 0.000000 0.801521 0.628054
O O4 0.096768 0.000000 0.646418
O O5 0.500000 0.732830 0.261591
O O6 0.569808 0.500000 0.292152
O O7 0.638307 0.726533 0.241738
O O8 0.584063 0.723771 0.390952
O O9 0.130397 0.788930 0.378490
O O10 0.237611 0.770825 0.481084
O O11 0.162676 0.000000 0.481951
O O12 0.766935 0.270438 0.777810
O O13 0.734647 0.163893 0.632753
O O14 0.721299 0.000000 0.766954
O O15 0.844715 0.500000 0.767944
O O16 0.500000 0.711662 0.519932
O O17 0.412613 0.500000 0.493544
O O18 0.366510 0.745444 0.541481
O O19 0.317227 0.500000 0.012195
#
# Coordination Sequence:
#
# PCOD8178288 Si02
#       7
#     8   8   8   8   8   8   8
#     4  10  21  41  66  87 114 152 189 225 271 333
#     4   8  15  29  49  73 100 135 183 235 282 329
#     4   9  19  37  58  84 116 151 188 226 277 335
#     4  10  19  33  55  79 107 144 189 236 278 332
#     4  11  22  36  59  88 119 151 185 231 282 332
#     4   9  18  32  48  69 102 140 178 226 285 341
#     4  10  19  32  52  76 105 140 185 235 273 324
#
# _framework density 19.525465000000001
#
# number of rings (size 3 to 8) (size 9 to 14) (size 15 to 20)
#    0.000    2.429    1.429    2.143    0.000    2.286 
#    0.000    5.000    0.000    1.286    0.000    0.000 
#    0.000    0.000    0.000    0.000    0.000    0.000 
#
# Total GULP energy -347026.189522 kJ/mol
# GULP energy per Si atom -12393.792483 kJ/mol
# Density = 1.948102 g / cm^3
# Si number density = 19.525465 Si / 1000 Ang^3
#
#
#
# Elastic Constant Matrix: (Units=GPa)
#
#
# Indices 1 2 3 4 5 6 
#
# 1 125.9224 46.1952 63.2435 0.0000 0.0000 0.0000
# 2 46.1952 54.5813 39.4294 0.0000 0.0000 0.0000
# 3 63.2435 39.4294 117.6069 0.0000 0.0000 0.0000
# 4 0.0000 0.0000 0.0000 22.3601 0.0000 0.0000
# 5 0.0000 0.0000 0.0000 0.0000 28.4294 0.0000
# 6 0.0000 0.0000 0.0000 0.0000 0.0000 27.3860
#
#
#
# Elastic Compliance Matrix: (Units=1/GPa)
#
#
# Indices 1 2 3 4 5 6 
#
# 1 0.013019 -0.007866 -0.004364 0.000000 0.000000 0.000000
# 2 -0.007866 0.028930 -0.005469 0.000000 0.000000 0.000000
# 3 -0.004364 -0.005469 0.012683 0.000000 0.000000 0.000000
# 4 0.000000 0.000000 0.000000 0.044722 0.000000 0.000000
# 5 0.000000 0.000000 0.000000 0.000000 0.035175 0.000000
# 6 0.000000 0.000000 0.000000 0.000000 0.000000 0.036515
#
#
# Mechanical properties :
#
#
# Convention : Reuss Voigt Hill
#
# Bulk Modulus (GPa) = 51.99189 66.20518 59.09854
# Shear Modulus (GPa) = 23.49042 25.58461 24.53752
#
# Velocity S-wave (km/s) = 3.47229 3.62376 3.54883
# Velocity P-wave (km/s) = 6.53921 7.17562 6.86479
#
# Compressibility (1/GPa) = 0.01923377
#
# Stress axis : x y z
#
# Youngs Moduli (GPa) = 76.81236 34.56655 78.84561
#
# Poissons Ratio (x) = 0.27191 0.34405
# Poissons Ratio (y) = 0.60422 0.43121
# Poissons Ratio (z) = 0.33518 0.18905
#
# Static dielectric constant tensor:
#      x y z
#    x 3.841490 0.000000 0.000000 
#    y 0.000000 3.185150 0.000000 
#    z 0.000000 0.000000 3.603880 
# 
# 
# High freq. dielectric constant tensor:
#      x y z
#    x 1.769820 0.000000 0.000000 
#    y 0.000000 1.720000 0.000000 
#    z 0.000000 0.000000 1.760450 
# 
# From -- ./inp_files/15473.got.cif
#   From: 2010.03.12/outbox.cif.g09.slc.cpg/sg38_8_cif.got.tgz:15473.got - 2010.04.14 02:38:36.
