data_PCOD8178451
_publ_section_title
;
Structure prediction by ZEFSAII (Michael W. Deem and Ramdas Pophale) SiO2 
 PCOD8178451
Probable space group: A M M 2
;
_chemical_formula_sum "Si O2"
_cell_formula_units_Z 64
_cell_length_a 8.555303
_cell_length_b 20.585929
_cell_length_c 19.511675
_cell_angle_alpha 90.000000
_cell_angle_beta 90.000000
_cell_angle_gamma 90.000000
_cell_volume 3436.373960
_symmetry_space_group_name_H-M "A M M 2"
_symmetry_group_IT_number 38
_symmetry_cell_setting 'orthorhombic'
loop_
_space_group_symop_operation_xyz
x,y,z
-x,-y,z
-x,y,z
x,-y,z
x,1/2+y,1/2+z
-x,1/2-y,1/2+z
-x,1/2+y,1/2+z
x,1/2-y,1/2+z
loop_
_atom_site_type_symbol
_atom_site_label
_atom_site_fract_x
_atom_site_fract_y
_atom_site_fract_z
Si Si1 0.816584 0.231450 0.444090
Si Si2 0.818244 0.128471 0.805014
Si Si3 0.319741 0.927492 0.675721
Si Si4 0.316971 0.688596 0.079634
Si Si5 0.682773 0.769607 0.300398
Si Si6 0.320025 0.573453 0.589072
Si Si7 0.180791 0.192743 0.162282
Si Si8 0.681590 0.628112 0.444430
O O1 0.773873 0.185347 0.507626
O O2 0.737472 0.204704 0.374669
O O3 0.754597 0.302557 0.463389
O O4 0.000000 0.234020 0.432169
O O5 0.780781 0.078100 0.744976
O O6 0.720961 0.193816 0.791979
O O7 0.766471 0.097823 0.877779
O O8 0.000000 0.145891 0.806443
O O9 0.500000 0.914430 0.694099
O O10 0.260839 0.875268 0.620411
O O11 0.295020 0.000000 0.646001
O O12 0.500000 0.687283 0.064213
O O13 0.280040 0.752942 0.122863
O O14 0.500000 0.781247 0.291450
O O15 0.772150 0.809741 0.241900
O O16 0.500000 0.589622 0.605938
O O17 0.277364 0.500000 0.610153
O O18 0.211152 0.621731 0.631456
O O19 0.290413 0.580294 0.507804
O O20 0.000000 0.210640 0.153988
O O21 0.500000 0.638097 0.427644
#
# Coordination Sequence:
#
# PCOD8178451 Si02
#       8
#     8   8   8   8   8   8   8   8
#     4  11  21  34  55  85 117 145 182 236 287 335
#     4  11  21  33  52  80 115 150 188 233 281 333
#     4  10  22  39  58  80 110 151 196 236 278 334
#     4  11  21  36  59  84 112 149 191 234 282 338
#     4  11  21  36  58  83 113 149 188 233 282 340
#     4  10  22  39  58  81 112 153 197 236 279 338
#     4  12  23  36  58  87 116 147 187 239 290 335
#     4  10  19  33  54  78 111 152 192 230 274 332
#
# _framework density 18.624282999999998
#
# number of rings (size 3 to 8) (size 9 to 14) (size 15 to 20)
#    0.000    1.250    2.500    6.750    0.000    2.000 
#    0.000    1.250    0.000    0.750    0.000    1.750 
#    0.000    0.000    0.000    0.000    0.000    0.000 
#
# Total GULP energy -396935.660009 kJ/mol
# GULP energy per Si atom -12404.239375 kJ/mol
# Density = 1.858189 g / cm^3
# Si number density = 18.624283 Si / 1000 Ang^3
#
#
#
# Elastic Constant Matrix: (Units=GPa)
#
#
# Indices 1 2 3 4 5 6 
#
# 1 51.9667 12.1201 34.0073 0.0000 0.0000 0.0000
# 2 12.1201 83.1559 49.5134 0.0000 0.0000 0.0000
# 3 34.0073 49.5134 101.6461 0.0000 0.0000 0.0000
# 4 0.0000 0.0000 0.0000 3.6302 0.0000 0.0000
# 5 0.0000 0.0000 0.0000 0.0000 25.8078 0.0000
# 6 0.0000 0.0000 0.0000 0.0000 0.0000 10.4524
#
#
#
# Elastic Compliance Matrix: (Units=1/GPa)
#
#
# Indices 1 2 3 4 5 6 
#
# 1 0.024842 0.001871 -0.009222 0.000000 0.000000 0.000000
# 2 0.001871 0.017079 -0.008945 0.000000 0.000000 0.000000
# 3 -0.009222 -0.008945 0.017281 0.000000 0.000000 0.000000
# 4 0.000000 0.000000 0.000000 0.275470 0.000000 0.000000
# 5 0.000000 0.000000 0.000000 0.000000 0.038748 0.000000
# 6 0.000000 0.000000 0.000000 0.000000 0.000000 0.095672
#
#
# Mechanical properties :
#
#
# Convention : Reuss Voigt Hill
#
# Bulk Modulus (GPa) = 37.58305 47.56114 42.57209
# Shear Modulus (GPa) = 9.79323 17.38659 13.58991
#
# Velocity S-wave (km/s) = 2.29559 3.05871 2.70420
# Velocity P-wave (km/s) = 5.22013 6.16984 5.71474
#
# Compressibility (1/GPa) = 0.02660774
#
# Stress axis : x y z
#
# Youngs Moduli (GPa) = 40.25430 58.55026 57.86691
#
# Poissons Ratio (x) = -0.10952 0.53368
# Poissons Ratio (y) = -0.07530 0.51764
# Poissons Ratio (z) = 0.37124 0.52376
#
# Static dielectric constant tensor:
#      x y z
#    x 3.449650 0.000000 0.000000 
#    y 0.000000 3.183580 0.000000 
#    z 0.000000 0.000000 3.944500 
# 
# 
# High freq. dielectric constant tensor:
#      x y z
#    x 1.733740 0.000000 0.000000 
#    y 0.000000 1.688160 0.000000 
#    z 0.000000 0.000000 1.730240 
# 
# From -- ./inp_files/20086.got.cif
#   From: 2010.03.12/outbox.cif.g09.slc.cpg/sg38_11_cif.got.tgz:20086.got - 2010.04.14 02:38:36.
