data_PCOD8178971
_publ_section_title
;
Structure prediction by ZEFSAII (Michael W. Deem and Ramdas Pophale) SiO2 
 PCOD8178971
Probable space group: A M M 2
;
_chemical_formula_sum "Si O2"
_cell_formula_units_Z 64
_cell_length_a 13.646351
_cell_length_b 19.326389
_cell_length_c 14.319372
_cell_angle_alpha 90.000000
_cell_angle_beta 90.000000
_cell_angle_gamma 90.000000
_cell_volume 3776.515105
_symmetry_space_group_name_H-M "A M M 2"
_symmetry_group_IT_number 38
_symmetry_cell_setting 'orthorhombic'
loop_
_space_group_symop_operation_xyz
x,y,z
-x,-y,z
-x,y,z
x,-y,z
x,1/2+y,1/2+z
-x,1/2-y,1/2+z
-x,1/2+y,1/2+z
x,1/2-y,1/2+z
loop_
_atom_site_type_symbol
_atom_site_label
_atom_site_fract_x
_atom_site_fract_y
_atom_site_fract_z
Si Si1 0.884714 0.777165 0.893500
Si Si2 0.115328 0.286753 0.610654
Si Si3 0.386796 0.920691 0.681891
Si Si4 0.114875 0.924194 0.566663
Si Si5 0.112724 0.576197 0.716547
Si Si6 0.202035 0.659858 0.222635
Si Si7 0.609307 0.079083 0.463872
Si Si8 0.795155 0.135972 0.388776
O O1 0.843512 0.837903 0.826938
O O2 0.826250 0.711168 0.852821
O O3 0.000000 0.767254 0.877326
O O4 0.859044 0.789572 0.001154
O O5 0.143544 0.363620 0.645174
O O6 0.182627 0.231000 0.664536
O O7 0.000000 0.268910 0.626642
O O8 0.500000 0.901170 0.702779
O O9 0.316472 0.863475 0.730986
O O10 0.363467 0.915401 0.572304
O O11 0.366978 0.000000 0.715429
O O12 0.147280 0.901586 0.669173
O O13 0.151833 0.872425 0.487980
O O14 0.000000 0.925145 0.562757
O O15 0.159299 0.000000 0.546511
O O16 0.132545 0.500000 0.672002
O O17 0.172079 0.579925 0.812991
O O18 0.000000 0.584930 0.743919
O O19 0.500000 0.105894 0.445553
O O20 0.678910 0.128635 0.403231
O O21 0.620896 0.000000 0.430820
#
# Coordination Sequence:
#
# PCOD8178971 Si02
#       8
#     8   8   8   8   8   8   8   8
#     4  11  22  34  51  76 106 144 180 212 262 322
#     4  10  20  35  52  72 105 144 181 216 259 315
#     4   9  18  34  55  78 105 139 178 220 270 325
#     4  11  21  30  46  77 111 136 165 213 268 318
#     4  10  20  33  50  72 100 139 186 224 253 301
#     4  12  20  33  54  76 106 139 176 216 261 322
#     4   9  17  30  49  75 106 136 167 211 271 329
#     4  12  19  30  51  77 105 137 173 219 264 320
#
# _framework density 16.946840999999999
#
# number of rings (size 3 to 8) (size 9 to 14) (size 15 to 20)
#    0.000    1.500    3.750    4.500    0.000    1.000 
#    0.000    1.875    0.000    3.750    0.000    0.000 
#    0.000    2.000    0.000    0.000    0.000    0.000 
#
# Total GULP energy -396696.247608 kJ/mol
# GULP energy per Si atom -12396.757738 kJ/mol
# Density = 1.690827 g / cm^3
# Si number density = 16.946841 Si / 1000 Ang^3
#
#
#
# Elastic Constant Matrix: (Units=GPa)
#
#
# Indices 1 2 3 4 5 6 
#
# 1 94.2369 48.3674 37.0172 0.0000 0.0000 0.0000
# 2 48.3674 70.7685 26.9069 0.0000 0.0000 0.0000
# 3 37.0172 26.9069 76.0560 0.0000 0.0000 0.0000
# 4 0.0000 0.0000 0.0000 24.9163 0.0000 0.0000
# 5 0.0000 0.0000 0.0000 0.0000 22.9970 0.0000
# 6 0.0000 0.0000 0.0000 0.0000 0.0000 27.5609
#
#
#
# Elastic Compliance Matrix: (Units=1/GPa)
#
#
# Indices 1 2 3 4 5 6 
#
# 1 0.017886 -0.010300 -0.005061 0.000000 0.000000 0.000000
# 2 -0.010300 0.022258 -0.002861 0.000000 0.000000 0.000000
# 3 -0.005061 -0.002861 0.016624 0.000000 0.000000 0.000000
# 4 0.000000 0.000000 0.000000 0.040134 0.000000 0.000000
# 5 0.000000 0.000000 0.000000 0.000000 0.043484 0.000000
# 6 0.000000 0.000000 0.000000 0.000000 0.000000 0.036283
#
#
# Mechanical properties :
#
#
# Convention : Reuss Voigt Hill
#
# Bulk Modulus (GPa) = 49.20620 51.73828 50.47224
# Shear Modulus (GPa) = 22.73863 23.67950 23.20907
#
# Velocity S-wave (km/s) = 3.66698 3.74208 3.70472
# Velocity P-wave (km/s) = 6.85767 7.01904 6.93882
#
# Compressibility (1/GPa) = 0.02032264
#
# Stress axis : x y z
#
# Youngs Moduli (GPa) = 55.90862 44.92727 60.15426
#
# Poissons Ratio (x) = 0.46276 0.30447
# Poissons Ratio (y) = 0.57587 0.17212
# Poissons Ratio (z) = 0.28298 0.12855
#
# Static dielectric constant tensor:
#      x y z
#    x 3.167860 0.000000 0.000000 
#    y 0.000000 3.453850 0.000000 
#    z 0.000000 0.000000 3.033460 
# 
# 
# High freq. dielectric constant tensor:
#      x y z
#    x 1.643400 0.000000 0.000000 
#    y 0.000000 1.649130 0.000000 
#    z 0.000000 0.000000 1.634720 
# 
# From -- ./inp_files/14789.got.cif
#   From: 2010.03.12/outbox.cif.g09.slc.cpg/sg38_8_cif.got.tgz:14789.got - 2010.04.14 02:38:36.
