data_PCOD8178577
_publ_section_title
;
Structure prediction by ZEFSAII (Michael W. Deem and Ramdas Pophale) SiO2 
 PCOD8178577
Probable space group: A M M 2
;
_chemical_formula_sum "Si O2"
_cell_formula_units_Z 48
_cell_length_a 9.040989
_cell_length_b 7.578717
_cell_length_c 38.420048
_cell_angle_alpha 90.000000
_cell_angle_beta 90.000000
_cell_angle_gamma 90.000000
_cell_volume 2632.506997
_symmetry_space_group_name_H-M "A M M 2"
_symmetry_group_IT_number 38
_symmetry_cell_setting 'orthorhombic'
loop_
_space_group_symop_operation_xyz
x,y,z
-x,-y,z
-x,y,z
x,-y,z
x,1/2+y,1/2+z
-x,1/2-y,1/2+z
-x,1/2+y,1/2+z
x,1/2-y,1/2+z
loop_
_atom_site_type_symbol
_atom_site_label
_atom_site_fract_x
_atom_site_fract_y
_atom_site_fract_z
Si Si1 0.676004 0.000000 0.150340
Si Si2 0.823116 0.500000 0.980112
Si Si3 0.674073 0.300232 0.279754
Si Si4 0.324684 0.500000 0.728823
Si Si5 0.175457 0.500000 0.902263
Si Si6 0.172113 0.797124 0.606658
Si Si7 0.824249 0.803289 0.029932
Si Si8 0.826329 0.299786 0.351003
O O1 0.737636 0.000000 0.189780
O O2 0.734730 0.176692 0.132480
O O3 0.500000 0.000000 0.148804
O O4 0.757215 0.500000 0.941123
O O5 0.000000 0.500000 0.979806
O O6 0.762969 0.673298 0.000110
O O7 0.500000 0.281095 0.285091
O O8 0.719398 0.500000 0.270012
O O9 0.732099 0.174491 0.248904
O O10 0.748754 0.239788 0.315559
O O11 0.500000 0.500000 0.727610
O O12 0.230357 0.325357 0.882097
O O13 0.000000 0.500000 0.904918
O O14 0.229667 0.763683 0.567542
O O15 0.000000 0.746010 0.609729
O O16 0.199363 0.000000 0.616852
O O17 0.000000 0.801695 0.029255
O O18 0.762886 0.000000 0.022809
O O19 0.783763 0.500000 0.361010
O O20 0.000000 0.277876 0.345126
#
# Coordination Sequence:
#
# PCOD8178577 Si02
#       8
#     4   4   8   4   4   8   8   8
#     4  11  23  36  52  78 108 138 170 208 261 321
#     4   9  16  25  39  68 100 126 160 202 247 293
#     4   9  17  31  52  73  91 119 162 205 237 276
#     4   9  19  34  50  70  98 128 160 200 246 293
#     4   9  17  27  40  62 100 134 156 190 242 295
#     4  10  19  34  56  77 101 133 171 216 262 306
#     4   9  15  25  45  70  95 122 157 205 253 290
#     4   9  17  29  45  67  97 129 156 189 238 291
#
# _framework density 18.233568000000002
#
# number of rings (size 3 to 8) (size 9 to 14) (size 15 to 20)
#    0.000    2.667    1.667    0.750    0.000    1.667 
#    0.000    6.667    0.000    2.000    0.000    2.333 
#    0.000    0.000    0.000    0.000    0.000    0.000 
#
# Total GULP energy -297566.203868 kJ/mol
# GULP energy per Si atom -12398.591828 kJ/mol
# Density = 1.819207 g / cm^3
# Si number density = 18.233568 Si / 1000 Ang^3
#
#
#
# Elastic Constant Matrix: (Units=GPa)
#
#
# Indices 1 2 3 4 5 6 
#
# 1 23.8143 26.6666 31.2579 0.0000 0.0000 0.0000
# 2 26.6666 149.7930 98.3374 0.0000 0.0000 0.0000
# 3 31.2579 98.3374 182.6402 0.0000 0.0000 0.0000
# 4 0.0000 0.0000 0.0000 30.0820 0.0000 0.0000
# 5 0.0000 0.0000 0.0000 0.0000 -19.9395 0.0000
# 6 0.0000 0.0000 0.0000 0.0000 0.0000 16.6738
#
#
#
# Elastic Compliance Matrix: (Units=1/GPa)
#
#
# Indices 1 2 3 4 5 6 
#
# 1 0.057256 -0.005815 -0.006668 0.000000 0.000000 0.000000
# 2 -0.005815 0.010916 -0.004882 0.000000 0.000000 0.000000
# 3 -0.006668 -0.004882 0.009245 0.000000 0.000000 0.000000
# 4 0.000000 0.000000 0.000000 0.033242 0.000000 0.000000
# 5 0.000000 0.000000 0.000000 0.000000 -0.050152 0.000000
# 6 0.000000 0.000000 0.000000 0.000000 0.000000 0.059974
#
#
# Mechanical properties :
#
#
# Convention : Reuss Voigt Hill
#
# Bulk Modulus (GPa) = 23.42693 74.30793 48.86743
# Shear Modulus (GPa) = 29.50863 18.69563 24.10213
#
# Velocity S-wave (km/s) = 4.02726 3.20557 3.63968
# Velocity P-wave (km/s) = 5.87377 7.38531 6.67248
#
# Compressibility (1/GPa) = 0.04268591
#
# Stress axis : x y z
#
# Youngs Moduli (GPa) = 17.46553 91.60564 108.16480
#
# Poissons Ratio (x) = 0.53273 0.72122
# Poissons Ratio (y) = 0.10157 0.52809
# Poissons Ratio (z) = 0.11646 0.44725
#
# Static dielectric constant tensor:
#      x y z
#    x 2.878380 0.000000 0.000000 
#    y 0.000000 3.646620 0.000000 
#    z 0.000000 0.000000 3.577470 
# 
# 
# High freq. dielectric constant tensor:
#      x y z
#    x 1.653670 0.000000 0.000000 
#    y 0.000000 1.725270 0.000000 
#    z 0.000000 0.000000 1.706520 
# 
# From -- ./inp_files/24446.got.cif
#   From: 2010.03.12/outbox.cif.g09.slc.cpg/sg38_13_cif.got.tgz:24446.got - 2010.04.14 02:38:36.
