data_PCOD8178624
_publ_section_title
;
Structure prediction by ZEFSAII (Michael W. Deem and Ramdas Pophale) SiO2 
 PCOD8178624
Probable space group: A M M 2
;
_chemical_formula_sum "Si O2"
_cell_formula_units_Z 64
_cell_length_a 23.682295
_cell_length_b 9.071737
_cell_length_c 15.437872
_cell_angle_alpha 90.000000
_cell_angle_beta 90.000000
_cell_angle_gamma 90.000000
_cell_volume 3316.665501
_symmetry_space_group_name_H-M "A M M 2"
_symmetry_group_IT_number 38
_symmetry_cell_setting 'orthorhombic'
loop_
_space_group_symop_operation_xyz
x,y,z
-x,-y,z
-x,y,z
x,-y,z
x,1/2+y,1/2+z
-x,1/2-y,1/2+z
-x,1/2+y,1/2+z
x,1/2-y,1/2+z
loop_
_atom_site_type_symbol
_atom_site_label
_atom_site_fract_x
_atom_site_fract_y
_atom_site_fract_z
Si Si1 0.936310 0.825946 0.021960
Si Si2 0.744983 0.668718 0.844560
Si Si3 0.373844 0.168233 0.422972
Si Si4 0.868596 0.830709 0.668840
Si Si5 0.856835 0.826476 0.866278
Si Si6 0.260700 0.827957 0.667094
Si Si7 0.637474 0.825410 0.091733
Si Si8 0.436529 0.175235 0.252378
O O1 0.909086 0.765251 0.109456
O O2 0.000000 0.765970 0.014032
O O3 0.935243 0.000000 0.029163
O O4 0.903453 0.774942 0.935523
O O5 0.757705 0.500000 0.818297
O O6 0.693471 0.677507 0.910999
O O7 0.799726 0.739612 0.889677
O O8 0.727117 0.758664 0.760216
O O9 0.391464 0.270403 0.503349
O O10 0.406596 0.231756 0.339629
O O11 0.392143 0.000000 0.441443
O O12 0.877437 0.784922 0.769393
O O13 0.804155 0.801724 0.640225
O O14 0.885272 0.000000 0.655613
O O15 0.843725 0.000000 0.871278
O O16 0.300673 0.747828 0.598062
O O17 0.275152 0.000000 0.670659
O O18 0.598494 0.767419 0.170023
O O19 0.643972 0.000000 0.091472
O O20 0.500000 0.238510 0.247864
O O21 0.436692 0.000000 0.251286
#
# Coordination Sequence:
#
# PCOD8178624 Si02
#       8
#     8   8   8   8   8   8   8   8
#     4  10  22  39  58  82 113 148 190 236 280 334
#     4  10  19  34  57  85 117 149 189 236 286 343
#     4  10  21  37  56  84 117 153 190 232 286 341
#     4   9  20  37  57  82 111 146 187 230 281 339
#     4   9  20  38  57  81 112 151 189 227 283 342
#     4  10  20  36  58  84 118 153 188 235 291 347
#     4  11  22  36  57  88 117 151 194 237 288 341
#     4   9  19  39  62  81 112 156 196 236 285 341
#
# _framework density 19.296489999999999
#
# number of rings (size 3 to 8) (size 9 to 14) (size 15 to 20)
#    0.000    2.250    1.250    1.875    1.750    5.250 
#    0.000    1.250    0.000    2.625    0.000    0.000 
#    0.000    0.000    0.000    0.000    0.000    0.000 
#
# Total GULP energy -396852.605975 kJ/mol
# GULP energy per Si atom -12401.643937 kJ/mol
# Density = 1.925257 g / cm^3
# Si number density = 19.296490 Si / 1000 Ang^3
#
#
#
# Elastic Constant Matrix: (Units=GPa)
#
#
# Indices 1 2 3 4 5 6 
#
# 1 114.4099 37.0571 63.5234 0.0000 0.0000 0.0000
# 2 37.0571 64.5943 39.8397 0.0000 0.0000 0.0000
# 3 63.5234 39.8397 129.3921 0.0000 0.0000 0.0000
# 4 0.0000 0.0000 0.0000 35.0486 0.0000 0.0000
# 5 0.0000 0.0000 0.0000 0.0000 22.6759 0.0000
# 6 0.0000 0.0000 0.0000 0.0000 0.0000 19.2951
#
#
#
# Elastic Compliance Matrix: (Units=1/GPa)
#
#
# Indices 1 2 3 4 5 6 
#
# 1 0.012924 -0.004322 -0.005014 0.000000 0.000000 0.000000
# 2 -0.004322 0.020556 -0.004207 0.000000 0.000000 0.000000
# 3 -0.005014 -0.004207 0.011486 0.000000 0.000000 0.000000
# 4 0.000000 0.000000 0.000000 0.028532 0.000000 0.000000
# 5 0.000000 0.000000 0.000000 0.000000 0.044100 0.000000
# 6 0.000000 0.000000 0.000000 0.000000 0.000000 0.051827
#
#
# Mechanical properties :
#
#
# Convention : Reuss Voigt Hill
#
# Bulk Modulus (GPa) = 55.93300 65.47074 60.70187
# Shear Modulus (GPa) = 24.69496 26.60233 25.64865
#
# Velocity S-wave (km/s) = 3.58126 3.71699 3.64976
# Velocity P-wave (km/s) = 6.79335 7.24043 7.02045
#
# Compressibility (1/GPa) = 0.01787853
#
# Stress axis : x y z
#
# Youngs Moduli (GPa) = 77.37250 48.64860 87.06554
#
# Poissons Ratio (x) = 0.21026 0.43658
# Poissons Ratio (y) = 0.33440 0.36631
# Poissons Ratio (z) = 0.38798 0.20468
#
# Static dielectric constant tensor:
#      x y z
#    x 3.652890 0.000000 0.000000 
#    y 0.000000 3.383560 0.000000 
#    z 0.000000 0.000000 3.521590 
# 
# 
# High freq. dielectric constant tensor:
#      x y z
#    x 1.746660 0.000000 0.000000 
#    y 0.000000 1.736780 0.000000 
#    z 0.000000 0.000000 1.755830 
# 
# From -- ./inp_files/15842.got.cif
#   From: 2010.03.12/outbox.cif.g09.slc.cpg/sg38_8_cif.got.tgz:15842.got - 2010.04.14 02:38:36.
