data_PCOD8178338
_publ_section_title
;
Structure prediction by ZEFSAII (Michael W. Deem and Ramdas Pophale) SiO2 
 PCOD8178338
Probable space group: A M M 2
;
_chemical_formula_sum "Si O2"
_cell_formula_units_Z 64
_cell_length_a 16.203580
_cell_length_b 9.314343
_cell_length_c 22.721914
_cell_angle_alpha 90.000000
_cell_angle_beta 90.000000
_cell_angle_gamma 90.000000
_cell_volume 3429.320820
_symmetry_space_group_name_H-M "A M M 2"
_symmetry_group_IT_number 38
_symmetry_cell_setting 'orthorhombic'
loop_
_space_group_symop_operation_xyz
x,y,z
-x,-y,z
-x,y,z
x,-y,z
x,1/2+y,1/2+z
-x,1/2-y,1/2+z
-x,1/2+y,1/2+z
x,1/2-y,1/2+z
loop_
_atom_site_type_symbol
_atom_site_label
_atom_site_fract_x
_atom_site_fract_y
_atom_site_fract_z
Si Si1 0.595608 0.657666 0.079210
Si Si2 0.221469 0.834507 0.885362
Si Si3 0.905321 0.667227 0.684398
Si Si4 0.908084 0.343741 0.944011
Si Si5 0.294226 0.667065 0.510066
Si Si6 0.754268 0.834478 0.269144
Si Si7 0.405721 0.164126 0.192638
Si Si8 0.149629 0.331939 0.070083
O O1 0.500000 0.635096 0.075354
O O2 0.638449 0.500000 0.075384
O O3 0.617999 0.762862 0.024951
O O4 0.620107 0.732269 0.140108
O O5 0.132275 0.777634 0.904111
O O6 0.254082 0.753217 0.828870
O O7 0.214389 0.000000 0.869355
O O8 0.280347 0.805344 0.941165
O O9 0.892150 0.500000 0.669158
O O10 0.834425 0.716465 0.731059
O O11 0.894022 0.759068 0.625510
O O12 0.000000 0.692814 0.707838
O O13 0.864724 0.500000 0.934460
O O14 0.000000 0.351642 0.920726
O O15 0.908134 0.306781 0.013260
O O16 0.288707 0.500000 0.525718
O O17 0.235072 0.753634 0.554763
O O18 0.664859 0.807193 0.240528
O O19 0.767099 0.000000 0.284846
O O20 0.500000 0.196444 0.215658
O O21 0.401086 0.000000 0.170500
O O22 0.163533 0.500000 0.083602
#
# Coordination Sequence:
#
# PCOD8178338 Si02
#       8
#     8   8   8   8   8   8   8   8
#     4  10  20  33  53  84 115 139 168 210 260 313
#     4  10  22  37  53  75 101 133 177 223 264 309
#     4  10  21  35  51  75 108 145 182 218 262 321
#     4   9  18  33  53  76 103 136 172 212 262 318
#     4  10  20  35  54  76 105 141 177 213 262 322
#     4  10  21  37  55  74 102 142 183 222 265 314
#     4   9  18  34  57  83 109 140 178 217 262 320
#     4  10  19  32  53  80 107 135 172 219 269 318
#
# _framework density 18.662586000000001
#
# number of rings (size 3 to 8) (size 9 to 14) (size 15 to 20)
#    0.000    2.250    0.000    2.625    0.000    6.250 
#    0.000    1.875    0.000    2.250    0.000    0.000 
#    0.000    0.000    0.000    0.000    0.000    0.000 
#
# Total GULP energy -396593.325659 kJ/mol
# GULP energy per Si atom -12393.541427 kJ/mol
# Density = 1.862011 g / cm^3
# Si number density = 18.662586 Si / 1000 Ang^3
#
#
#
# Elastic Constant Matrix: (Units=GPa)
#
#
# Indices 1 2 3 4 5 6 
#
# 1 68.4799 49.9278 64.1617 0.0000 0.0000 0.0000
# 2 49.9278 113.8464 70.8264 0.0000 0.0000 0.0000
# 3 64.1617 70.8264 97.1595 0.0000 0.0000 0.0000
# 4 0.0000 0.0000 0.0000 31.8690 0.0000 0.0000
# 5 0.0000 0.0000 0.0000 0.0000 11.8303 0.0000
# 6 0.0000 0.0000 0.0000 0.0000 0.0000 24.3336
#
#
#
# Elastic Compliance Matrix: (Units=1/GPa)
#
#
# Indices 1 2 3 4 5 6 
#
# 1 0.038537 -0.001955 -0.024024 0.000000 0.000000 0.000000
# 2 -0.001955 0.016172 -0.010498 0.000000 0.000000 0.000000
# 3 -0.024024 -0.010498 0.033810 0.000000 0.000000 0.000000
# 4 0.000000 0.000000 0.000000 0.031378 0.000000 0.000000
# 5 0.000000 0.000000 0.000000 0.000000 0.084529 0.000000
# 6 0.000000 0.000000 0.000000 0.000000 0.000000 0.041095
#
#
# Mechanical properties :
#
#
# Convention : Reuss Voigt Hill
#
# Bulk Modulus (GPa) = 64.24456 72.14639 68.19548
# Shear Modulus (GPa) = 15.44810 19.91123 17.67967
#
# Velocity S-wave (km/s) = 2.88020 3.26990 3.08122
# Velocity P-wave (km/s) = 6.74979 7.28001 7.01991
#
# Compressibility (1/GPa) = 0.01556552
#
# Stress axis : x y z
#
# Youngs Moduli (GPa) = 25.94901 61.83463 29.57699
#
# Poissons Ratio (x) = 0.12087 0.71056
# Poissons Ratio (y) = 0.05072 0.31050
# Poissons Ratio (z) = 0.62340 0.64915
#
# Static dielectric constant tensor:
#      x y z
#    x 3.593580 0.000000 0.000000 
#    y 0.000000 3.992210 0.000000 
#    z 0.000000 0.000000 3.247060 
# 
# 
# High freq. dielectric constant tensor:
#      x y z
#    x 1.724540 0.000000 0.000000 
#    y 0.000000 1.734710 0.000000 
#    z 0.000000 0.000000 1.708390 
# 
# From -- ./inp_files/21385.got.cif
#   From: 2010.03.12/outbox.cif.g09.slc.cpg/sg38_11_cif.got.tgz:21385.got - 2010.04.14 02:38:36.
