data_PCOD8178033
_publ_section_title
;
Structure prediction by ZEFSAII (Michael W. Deem and Ramdas Pophale) SiO2 
 PCOD8178033
Probable space group: A M M 2
;
_chemical_formula_sum "Si O2"
_cell_formula_units_Z 56
_cell_length_a 9.033707
_cell_length_b 18.887498
_cell_length_c 18.118154
_cell_angle_alpha 90.000000
_cell_angle_beta 90.000000
_cell_angle_gamma 90.000000
_cell_volume 3091.394135
_symmetry_space_group_name_H-M "A M M 2"
_symmetry_group_IT_number 38
_symmetry_cell_setting 'orthorhombic'
loop_
_space_group_symop_operation_xyz
x,y,z
-x,-y,z
-x,y,z
x,-y,z
x,1/2+y,1/2+z
-x,1/2-y,1/2+z
-x,1/2+y,1/2+z
x,1/2-y,1/2+z
loop_
_atom_site_type_symbol
_atom_site_label
_atom_site_fract_x
_atom_site_fract_y
_atom_site_fract_z
Si Si1 0.167391 0.423994 0.474170
Si Si2 0.170265 0.698445 0.245131
Si Si3 0.328044 0.205327 0.354325
Si Si4 0.332488 0.295266 0.495481
Si Si5 0.171395 0.080973 0.443096
Si Si6 0.832028 0.178877 0.574796
Si Si7 0.667002 0.421459 0.324782
O O1 0.174477 0.500000 0.516445
O O2 0.223459 0.358401 0.522925
O O3 0.286072 0.425981 0.409234
O O4 0.000000 0.410411 0.446252
O O5 0.258684 0.767361 0.276485
O O6 0.200708 0.676250 0.161079
O O7 0.215904 0.627043 0.284832
O O8 0.000000 0.715535 0.260064
O O9 0.500000 0.188173 0.342399
O O10 0.304888 0.271195 0.410660
O O11 0.254041 0.133503 0.385807
O O12 0.500000 0.318565 0.509013
O O13 0.294291 0.230312 0.546649
O O14 0.191647 0.105734 0.528878
O O15 0.000000 0.083432 0.420845
O O16 0.231670 0.000000 0.436285
O O17 0.000000 0.206095 0.559962
O O18 0.500000 0.390366 0.319853
O O19 0.672641 0.500000 0.289624
#
# Coordination Sequence:
#
# PCOD8178033 Si02
#       7
#     8   8   8   8   8   8   8
#     4  10  19  30  48  73  99 130 167 207 250 297
#     4  11  21  33  52  77 106 142 180 218 263 316
#     4  10  20  33  52  77 105 138 176 220 266 314
#     4  10  19  32  51  74 100 134 172 214 260 308
#     4   9  18  35  58  81 106 138 178 224 271 320
#     4   9  20  35  52  76 105 138 175 216 264 319
#     4  10  20  32  46  69 103 138 170 206 249 298
#
# _framework density 18.114805
#
# number of rings (size 3 to 8) (size 9 to 14) (size 15 to 20)
#    0.000    2.143    1.429    2.143    0.000    4.857 
#    0.000    1.429    0.000    0.857    0.000    6.000 
#    0.000    0.000    0.000    0.000    0.000    0.000 
#
# Total GULP energy -346908.833583 kJ/mol
# GULP energy per Si atom -12389.601199 kJ/mol
# Density = 1.807357 g / cm^3
# Si number density = 18.114805 Si / 1000 Ang^3
#
#
#
# Elastic Constant Matrix: (Units=GPa)
#
#
# Indices 1 2 3 4 5 6 
#
# 1 79.4216 49.7677 19.3983 0.0000 0.0000 0.0000
# 2 49.7677 118.6052 24.5070 0.0000 0.0000 0.0000
# 3 19.3983 24.5070 48.0405 0.0000 0.0000 0.0000
# 4 0.0000 0.0000 0.0000 14.3855 0.0000 0.0000
# 5 0.0000 0.0000 0.0000 0.0000 16.5155 0.0000
# 6 0.0000 0.0000 0.0000 0.0000 0.0000 28.4265
#
#
#
# Elastic Compliance Matrix: (Units=1/GPa)
#
#
# Indices 1 2 3 4 5 6 
#
# 1 0.017666 -0.006639 -0.003747 0.000000 0.000000 0.000000
# 2 -0.006639 0.011919 -0.003400 0.000000 0.000000 0.000000
# 3 -0.003747 -0.003400 0.024063 0.000000 0.000000 0.000000
# 4 0.000000 0.000000 0.000000 0.069514 0.000000 0.000000
# 5 0.000000 0.000000 0.000000 0.000000 0.060549 0.000000
# 6 0.000000 0.000000 0.000000 0.000000 0.000000 0.035178
#
#
# Mechanical properties :
#
#
# Convention : Reuss Voigt Hill
#
# Bulk Modulus (GPa) = 38.34654 48.15705 43.25179
# Shear Modulus (GPa) = 19.59600 22.02512 20.81056
#
# Velocity S-wave (km/s) = 3.29259 3.49071 3.39309
# Velocity P-wave (km/s) = 5.97239 6.54895 6.26730
#
# Compressibility (1/GPa) = 0.02607798
#
# Stress axis : x y z
#
# Youngs Moduli (GPa) = 56.60545 83.89631 41.55741
#
# Poissons Ratio (x) = 0.55696 0.15571
# Poissons Ratio (y) = 0.37578 0.14129
# Poissons Ratio (z) = 0.21209 0.28524
#
# Static dielectric constant tensor:
#      x y z
#    x 3.405570 0.000000 0.000000 
#    y 0.000000 3.624190 0.000000 
#    z 0.000000 0.000000 3.101810 
# 
# 
# High freq. dielectric constant tensor:
#      x y z
#    x 1.715230 0.000000 0.000000 
#    y 0.000000 1.706030 0.000000 
#    z 0.000000 0.000000 1.658560 
# 
# From -- ./inp_files/17123.got.cif
#   From: 2010.03.12/outbox.cif.g09.slc.cpg/sg38_9_cif.got.tgz:17123.got - 2010.04.14 02:38:36.
