data_PCOD8178183
_publ_section_title
;
Structure prediction by ZEFSAII (Michael W. Deem and Ramdas Pophale) SiO2 
 PCOD8178183
Probable space group: A M M 2
;
_chemical_formula_sum "Si O2"
_cell_formula_units_Z 64
_cell_length_a 20.346952
_cell_length_b 9.142876
_cell_length_c 18.470504
_cell_angle_alpha 90.000000
_cell_angle_beta 90.000000
_cell_angle_gamma 90.000000
_cell_volume 3436.061563
_symmetry_space_group_name_H-M "A M M 2"
_symmetry_group_IT_number 38
_symmetry_cell_setting 'orthorhombic'
loop_
_space_group_symop_operation_xyz
x,y,z
-x,-y,z
-x,y,z
x,-y,z
x,1/2+y,1/2+z
-x,1/2-y,1/2+z
-x,1/2+y,1/2+z
x,1/2-y,1/2+z
loop_
_atom_site_type_symbol
_atom_site_label
_atom_site_fract_x
_atom_site_fract_y
_atom_site_fract_z
Si Si1 0.199444 0.670596 0.211640
Si Si2 0.576718 0.670264 0.197156
Si Si3 0.324022 0.669524 0.956946
Si Si4 0.681254 0.170307 0.287773
Si Si5 0.072498 0.664681 0.711865
Si Si6 0.928568 0.835600 0.039837
Si Si7 0.197342 0.169089 0.542382
Si Si8 0.423487 0.669085 0.550467
O O1 0.206611 0.500000 0.229214
O O2 0.255305 0.760457 0.251347
O O3 0.128559 0.725709 0.240968
O O4 0.207148 0.703725 0.126722
O O5 0.500000 0.694107 0.212644
O O6 0.595677 0.500000 0.193881
O O7 0.615592 0.748606 0.261411
O O8 0.598218 0.742516 0.121649
O O9 0.337675 0.500000 0.975130
O O10 0.312692 0.694955 0.872796
O O11 0.260248 0.729098 0.999416
O O12 0.385997 0.765055 0.981736
O O13 0.676840 0.000000 0.267397
O O14 0.087920 0.500000 0.738789
O O15 0.072600 0.668524 0.625892
O O16 0.000000 0.713871 0.740053
O O17 0.868301 0.741619 0.009190
O O18 0.000000 0.774853 0.013347
O O19 0.919412 0.000000 0.011519
O O20 0.188170 0.000000 0.527389
O O21 0.500000 0.690031 0.534428
O O22 0.405142 0.500000 0.561796
#
# Coordination Sequence:
#
# PCOD8178183 Si02
#       8
#     8   8   8   8   8   8   8   8
#     4  10  19  31  51  77 104 135 172 218 269 319
#     4  10  21  38  60  83 108 138 171 212 263 315
#     4  10  22  38  54  75 106 143 180 218 261 309
#     4  11  23  37  54  76 105 142 182 222 262 310
#     4   8  14  26  45  70 101 134 167 208 260 316
#     4   8  14  25  43  70 101 129 160 202 253 306
#     4   9  18  32  50  73 100 131 169 211 256 308
#     4  10  21  37  59  86 111 136 171 213 256 309
#
# _framework density 18.625976999999999
#
# number of rings (size 3 to 8) (size 9 to 14) (size 15 to 20)
#    0.000    2.500    0.000    3.000    0.000    5.500 
#    0.000    5.000    0.000    0.750    0.000    1.750 
#    0.000    0.000    0.000    0.000    0.000    0.000 
#
# Total GULP energy -396784.147820 kJ/mol
# GULP energy per Si atom -12399.504619 kJ/mol
# Density = 1.858358 g / cm^3
# Si number density = 18.625977 Si / 1000 Ang^3
#
#
#
# Elastic Constant Matrix: (Units=GPa)
#
#
# Indices 1 2 3 4 5 6 
#
# 1 124.5421 71.9408 48.6353 0.0000 0.0000 0.0000
# 2 71.9408 111.8466 47.7920 0.0000 0.0000 0.0000
# 3 48.6353 47.7920 54.4945 0.0000 0.0000 0.0000
# 4 0.0000 0.0000 0.0000 23.5213 0.0000 0.0000
# 5 0.0000 0.0000 0.0000 0.0000 3.4412 0.0000
# 6 0.0000 0.0000 0.0000 0.0000 0.0000 38.6505
#
#
#
# Elastic Compliance Matrix: (Units=1/GPa)
#
#
# Indices 1 2 3 4 5 6 
#
# 1 0.014520 -0.006081 -0.007626 0.000000 0.000000 0.000000
# 2 -0.006081 0.016846 -0.009347 0.000000 0.000000 0.000000
# 3 -0.007626 -0.009347 0.033354 0.000000 0.000000 0.000000
# 4 0.000000 0.000000 0.000000 0.042515 0.000000 0.000000
# 5 0.000000 0.000000 0.000000 0.000000 0.290597 0.000000
# 6 0.000000 0.000000 0.000000 0.000000 0.000000 0.025873
#
#
# Mechanical properties :
#
#
# Convention : Reuss Voigt Hill
#
# Bulk Modulus (GPa) = 53.72782 69.73549 61.73165
# Shear Modulus (GPa) = 10.50386 21.29027 15.89706
#
# Velocity S-wave (km/s) = 2.37731 3.38456 2.92462
# Velocity P-wave (km/s) = 6.03686 7.26600 6.67977
#
# Compressibility (1/GPa) = 0.01861233
#
# Stress axis : x y z
#
# Youngs Moduli (GPa) = 68.87081 59.36104 29.98162
#
# Poissons Ratio (x) = 0.36097 0.22863
# Poissons Ratio (y) = 0.41879 0.28024
# Poissons Ratio (z) = 0.52520 0.55485
#
# Static dielectric constant tensor:
#      x y z
#    x 3.810850 0.000000 0.000000 
#    y 0.000000 3.523680 0.000000 
#    z 0.000000 0.000000 3.099110 
# 
# 
# High freq. dielectric constant tensor:
#      x y z
#    x 1.740310 0.000000 0.000000 
#    y 0.000000 1.727070 0.000000 
#    z 0.000000 0.000000 1.684890 
# 
# From -- ./inp_files/18965.got.cif
#   From: 2010.03.12/outbox.cif.g09.slc.cpg/sg38_10_cif.got.tgz:18965.got - 2010.04.14 02:38:36.
