data_PCOD8178428
_publ_section_title
;
Structure prediction by ZEFSAII (Michael W. Deem and Ramdas Pophale) SiO2 
 PCOD8178428
Probable space group: A M M 2
;
_chemical_formula_sum "Si O2"
_cell_formula_units_Z 64
_cell_length_a 9.388702
_cell_length_b 24.889117
_cell_length_c 14.989565
_cell_angle_alpha 90.000000
_cell_angle_beta 90.000000
_cell_angle_gamma 90.000000
_cell_volume 3502.709124
_symmetry_space_group_name_H-M "A M M 2"
_symmetry_group_IT_number 38
_symmetry_cell_setting 'orthorhombic'
loop_
_space_group_symop_operation_xyz
x,y,z
-x,-y,z
-x,y,z
x,-y,z
x,1/2+y,1/2+z
-x,1/2-y,1/2+z
-x,1/2+y,1/2+z
x,1/2-y,1/2+z
loop_
_atom_site_type_symbol
_atom_site_label
_atom_site_fract_x
_atom_site_fract_y
_atom_site_fract_z
Si Si1 0.661072 0.244716 0.176580
Si Si2 0.667325 0.860606 0.070605
Si Si3 0.330782 0.439292 0.724124
Si Si4 0.333148 0.105169 0.411810
Si Si5 0.165741 0.846542 0.706734
Si Si6 0.337944 0.225678 0.380146
Si Si7 0.164318 0.939040 0.575633
Si Si8 0.831973 0.170957 0.908282
O O1 0.500000 0.263992 0.162035
O O2 0.701909 0.198732 0.106931
O O3 0.757831 0.296469 0.159651
O O4 0.681621 0.219653 0.274328
O O5 0.500000 0.868344 0.051898
O O6 0.725311 0.904441 0.140847
O O7 0.755900 0.868169 0.979400
O O8 0.500000 0.436269 0.725658
O O9 0.275350 0.500000 0.712467
O O10 0.272458 0.415202 0.816890
O O11 0.500000 0.092838 0.418928
O O12 0.301857 0.168373 0.423669
O O13 0.255174 0.072477 0.488320
O O14 0.212285 0.901128 0.657513
O O15 0.208680 0.851492 0.810561
O O16 0.000000 0.834967 0.697606
O O17 0.500000 0.243216 0.403220
O O18 0.229715 0.269010 0.420063
O O19 0.000000 0.928922 0.551466
O O20 0.191049 0.000000 0.606893
O O21 0.000000 0.172051 0.925016
#
# Coordination Sequence:
#
# PCOD8178428 Si02
#       8
#     8   8   8   8   8   8   8   8
#     4   9  17  31  52  77 105 136 170 209 256 312
#     4  10  19  33  53  79 109 141 177 216 260 313
#     4   9  17  32  55  80 108 143 179 214 257 313
#     4  10  19  33  55  83 110 138 173 214 259 313
#     4   9  20  38  55  73 101 137 179 220 263 313
#     4   9  17  32  52  77 109 141 172 207 256 315
#     4  10  22  39  56  75 103 140 180 221 267 317
#     4  10  21  35  52  76 107 141 179 222 265 312
#
# _framework density 18.271571999999999
#
# number of rings (size 3 to 8) (size 9 to 14) (size 15 to 20)
#    0.000    2.500    1.250    0.750    1.750    2.750 
#    0.000    1.250    0.000    1.875    0.000    0.000 
#    0.000    0.000    0.000    0.000    0.000    0.000 
#
# Total GULP energy -396834.234970 kJ/mol
# GULP energy per Si atom -12401.069843 kJ/mol
# Density = 1.822998 g / cm^3
# Si number density = 18.271572 Si / 1000 Ang^3
#
#
#
# Elastic Constant Matrix: (Units=GPa)
#
#
# Indices 1 2 3 4 5 6 
#
# 1 51.0845 43.2189 43.3898 0.0000 0.0000 0.0000
# 2 43.2189 116.2597 63.1987 0.0000 0.0000 0.0000
# 3 43.3898 63.1987 108.5399 0.0000 0.0000 0.0000
# 4 0.0000 0.0000 0.0000 30.8375 0.0000 0.0000
# 5 0.0000 0.0000 0.0000 0.0000 28.8573 0.0000
# 6 0.0000 0.0000 0.0000 0.0000 0.0000 20.4539
#
#
#
# Elastic Compliance Matrix: (Units=1/GPa)
#
#
# Indices 1 2 3 4 5 6 
#
# 1 0.033690 -0.007612 -0.009036 0.000000 0.000000 0.000000
# 2 -0.007612 0.014305 -0.005286 0.000000 0.000000 0.000000
# 3 -0.009036 -0.005286 0.015903 0.000000 0.000000 0.000000
# 4 0.000000 0.000000 0.000000 0.032428 0.000000 0.000000
# 5 0.000000 0.000000 0.000000 0.000000 0.034653 0.000000
# 6 0.000000 0.000000 0.000000 0.000000 0.000000 0.048890
#
#
# Mechanical properties :
#
#
# Convention : Reuss Voigt Hill
#
# Bulk Modulus (GPa) = 49.92466 63.94431 56.93449
# Shear Modulus (GPa) = 21.69999 24.43485 23.06742
#
# Velocity S-wave (km/s) = 3.44995 3.66090 3.55699
# Velocity P-wave (km/s) = 6.57667 7.27614 6.93523
#
# Compressibility (1/GPa) = 0.02003018
#
# Stress axis : x y z
#
# Youngs Moduli (GPa) = 29.68205 69.90661 62.88089
#
# Poissons Ratio (x) = 0.53216 0.56816
# Poissons Ratio (y) = 0.22595 0.33239
# Poissons Ratio (z) = 0.26819 0.36953
#
# Static dielectric constant tensor:
#      x y z
#    x 3.170020 0.000000 0.000000 
#    y 0.000000 3.386960 0.000000 
#    z 0.000000 0.000000 3.449870 
# 
# 
# High freq. dielectric constant tensor:
#      x y z
#    x 1.686720 0.000000 0.000000 
#    y 0.000000 1.701080 0.000000 
#    z 0.000000 0.000000 1.713380 
# 
# From -- ./inp_files/12751.got.cif
#   From: 2010.03.12/outbox.cif.g09.slc.cpg/sg38_7_cif.got.tgz:12751.got - 2010.04.14 02:38:36.
