data_PCOD8178873
_publ_section_title
;
Structure prediction by ZEFSAII (Michael W. Deem and Ramdas Pophale) SiO2 
 PCOD8178873
Probable space group: A M M 2
;
_chemical_formula_sum "Si O2"
_cell_formula_units_Z 48
_cell_length_a 8.981492
_cell_length_b 23.631802
_cell_length_c 13.488573
_cell_angle_alpha 90.000000
_cell_angle_beta 90.000000
_cell_angle_gamma 90.000000
_cell_volume 2862.933981
_symmetry_space_group_name_H-M "A M M 2"
_symmetry_group_IT_number 38
_symmetry_cell_setting 'orthorhombic'
loop_
_space_group_symop_operation_xyz
x,y,z
-x,-y,z
-x,y,z
x,-y,z
x,1/2+y,1/2+z
-x,1/2-y,1/2+z
-x,1/2+y,1/2+z
x,1/2-y,1/2+z
loop_
_atom_site_type_symbol
_atom_site_label
_atom_site_fract_x
_atom_site_fract_y
_atom_site_fract_z
Si Si1 0.326013 0.935102 0.480430
Si Si2 0.675100 0.269263 0.481677
Si Si3 0.830108 0.773357 0.182777
Si Si4 0.171697 0.332639 0.314116
Si Si5 0.828407 0.435913 0.183703
Si Si6 0.173402 0.835308 0.381712
O O1 0.500000 0.923074 0.474422
O O2 0.271711 0.919205 0.590285
O O3 0.242675 0.896902 0.399704
O O4 0.286766 0.000000 0.455778
O O5 0.500000 0.261865 0.474019
O O6 0.720177 0.286430 0.592675
O O7 0.726767 0.319475 0.408795
O O8 0.751258 0.210123 0.454004
O O9 0.795444 0.711322 0.225913
O O10 0.798418 0.819851 0.267362
O O11 0.000000 0.777110 0.145512
O O12 0.211940 0.395205 0.275368
O O13 0.000000 0.327377 0.347368
O O14 0.796386 0.500000 0.218561
O O15 0.000000 0.427646 0.152183
O O16 0.000000 0.835653 0.407700
#
# Coordination Sequence:
#
# PCOD8178873 Si02
#       6
#     8   8   8   8   8   8
#     4  10  20  32  48  73 103 130 155 191 239 285
#     4  11  21  31  48  73  99 126 156 195 243 291
#     4   9  18  32  49  69  94 126 161 196 236 281
#     4   9  18  32  49  69  96 128 160 195 235 281
#     4   9  17  30  50  74  98 128 165 200 234 276
#     4  10  20  34  52  71  94 127 163 198 235 278
#
# _framework density 16.766017000000002
#
# number of rings (size 3 to 8) (size 9 to 14) (size 15 to 20)
#    0.000    2.333    0.000    4.500    0.000    6.333 
#    0.000    0.000    0.000    1.000    0.000    2.333 
#    0.000    0.000    0.000    0.000    0.000    0.000 
#
# Total GULP energy -297674.369102 kJ/mol
# GULP energy per Si atom -12403.098713 kJ/mol
# Density = 1.672786 g / cm^3
# Si number density = 16.766017 Si / 1000 Ang^3
#
#
#
# Elastic Constant Matrix: (Units=GPa)
#
#
# Indices 1 2 3 4 5 6 
#
# 1 108.6284 52.2782 60.0458 0.0000 0.0000 0.0000
# 2 52.2782 104.2800 55.8821 0.0000 0.0000 0.0000
# 3 60.0458 55.8821 98.5392 0.0000 0.0000 0.0000
# 4 0.0000 0.0000 0.0000 23.5587 0.0000 0.0000
# 5 0.0000 0.0000 0.0000 0.0000 16.6771 0.0000
# 6 0.0000 0.0000 0.0000 0.0000 0.0000 25.4045
#
#
#
# Elastic Compliance Matrix: (Units=1/GPa)
#
#
# Indices 1 2 3 4 5 6 
#
# 1 0.014823 -0.003722 -0.006922 0.000000 0.000000 0.000000
# 2 -0.003722 0.014711 -0.006075 0.000000 0.000000 0.000000
# 3 -0.006922 -0.006075 0.017811 0.000000 0.000000 0.000000
# 4 0.000000 0.000000 0.000000 0.042447 0.000000 0.000000
# 5 0.000000 0.000000 0.000000 0.000000 0.059963 0.000000
# 6 0.000000 0.000000 0.000000 0.000000 0.000000 0.039363
#
#
# Mechanical properties :
#
#
# Convention : Reuss Voigt Hill
#
# Bulk Modulus (GPa) = 71.89990 71.98441 71.94215
# Shear Modulus (GPa) = 22.00798 22.67748 22.34273
#
# Velocity S-wave (km/s) = 3.62699 3.68174 3.65447
# Velocity P-wave (km/s) = 7.77930 7.81675 7.79804
#
# Compressibility (1/GPa) = 0.01390823
#
# Stress axis : x y z
#
# Youngs Moduli (GPa) = 67.46272 67.97777 56.14480
#
# Poissons Ratio (x) = 0.25300 0.38863
# Poissons Ratio (y) = 0.25108 0.34106
# Poissons Ratio (z) = 0.46697 0.41294
#
# Static dielectric constant tensor:
#      x y z
#    x 3.153890 0.000000 0.000000 
#    y 0.000000 3.192370 0.000000 
#    z 0.000000 0.000000 2.980750 
# 
# 
# High freq. dielectric constant tensor:
#      x y z
#    x 1.651190 0.000000 0.000000 
#    y 0.000000 1.638540 0.000000 
#    z 0.000000 0.000000 1.631640 
# 
# From -- ./inp_files/8115.got.cif
#   From: 2010.03.12/outbox.cif.g09.slc.cpg/sg38_5_cif.got.tgz:8115.got - 2010.04.14 02:38:36.
