data_PCOD8178382
_publ_section_title
;
Structure prediction by ZEFSAII (Michael W. Deem and Ramdas Pophale) SiO2 
 PCOD8178382
Probable space group: A M M 2
;
_chemical_formula_sum "Si O2"
_cell_formula_units_Z 64
_cell_length_a 8.914268
_cell_length_b 18.112113
_cell_length_c 20.549447
_cell_angle_alpha 90.000000
_cell_angle_beta 90.000000
_cell_angle_gamma 90.000000
_cell_volume 3317.836227
_symmetry_space_group_name_H-M "A M M 2"
_symmetry_group_IT_number 38
_symmetry_cell_setting 'orthorhombic'
loop_
_space_group_symop_operation_xyz
x,y,z
-x,-y,z
-x,y,z
x,-y,z
x,1/2+y,1/2+z
-x,1/2-y,1/2+z
-x,1/2+y,1/2+z
x,1/2-y,1/2+z
loop_
_atom_site_type_symbol
_atom_site_label
_atom_site_fract_x
_atom_site_fract_y
_atom_site_fract_z
Si Si1 0.322283 0.183392 0.550000
Si Si2 0.827044 0.086096 0.658804
Si Si3 0.674966 0.680052 0.789476
Si Si4 0.166363 0.351495 0.410601
Si Si5 0.674490 0.148705 0.782687
Si Si6 0.672071 0.415383 0.668218
Si Si7 0.167503 0.323768 0.918729
Si Si8 0.823565 0.658957 0.552558
O O1 0.500000 0.186035 0.546503
O O2 0.273124 0.130209 0.607878
O O3 0.259878 0.150870 0.482104
O O4 0.263127 0.265032 0.565106
O O5 0.770597 0.103177 0.731295
O O6 0.000000 0.110314 0.652501
O O7 0.806921 0.000000 0.644651
O O8 0.500000 0.669990 0.802175
O O9 0.715113 0.765129 0.775726
O O10 0.731113 0.633887 0.727781
O O11 0.756858 0.646759 0.852753
O O12 0.280729 0.379026 0.355196
O O13 0.164921 0.263776 0.415574
O O14 0.217148 0.378078 0.482510
O O15 0.000000 0.380934 0.393163
O O16 0.500000 0.133087 0.771366
O O17 0.500000 0.395607 0.651480
O O18 0.689584 0.500000 0.688734
O O19 0.775118 0.400012 0.606129
O O20 0.000000 0.356383 0.924193
O O21 0.000000 0.676002 0.555962
#
# Coordination Sequence:
#
# PCOD8178382 Si02
#       8
#     8   8   8   8   8   8   8   8
#     4  11  21  35  58  84 110 140 176 220 268 321
#     4  11  24  40  56  76 107 145 182 222 267 316
#     4   9  18  33  53  79 108 140 179 222 269 318
#     4   8  16  31  51  77 107 137 171 216 268 317
#     4  10  19  32  55  83 107 135 175 222 269 320
#     4  10  21  36  53  76 110 149 187 228 272 318
#     4   9  17  31  53  81 109 137 174 220 267 316
#     4  10  20  35  57  83 110 141 180 225 270 320
#
# _framework density 19.289681000000002
#
# number of rings (size 3 to 8) (size 9 to 14) (size 15 to 20)
#    0.000    2.250    0.000    4.125    0.000    6.750 
#    0.000    1.250    0.000    3.000    0.000    0.000 
#    0.000    0.000    0.000    0.000    0.000    0.000 
#
# Total GULP energy -396838.066248 kJ/mol
# GULP energy per Si atom -12401.189570 kJ/mol
# Density = 1.924578 g / cm^3
# Si number density = 19.289681 Si / 1000 Ang^3
#
#
#
# Elastic Constant Matrix: (Units=GPa)
#
#
# Indices 1 2 3 4 5 6 
#
# 1 102.2858 20.4960 43.0301 0.0000 0.0000 0.0000
# 2 20.4960 32.1468 16.2185 0.0000 0.0000 0.0000
# 3 43.0301 16.2185 119.5170 0.0000 0.0000 0.0000
# 4 0.0000 0.0000 0.0000 2.2507 0.0000 0.0000
# 5 0.0000 0.0000 0.0000 0.0000 40.6410 0.0000
# 6 0.0000 0.0000 0.0000 0.0000 0.0000 20.5732
#
#
#
# Elastic Compliance Matrix: (Units=1/GPa)
#
#
# Indices 1 2 3 4 5 6 
#
# 1 0.012560 -0.006147 -0.003688 0.000000 0.000000 0.000000
# 2 -0.006147 0.036402 -0.002727 0.000000 0.000000 0.000000
# 3 -0.003688 -0.002727 0.010065 0.000000 0.000000 0.000000
# 4 0.000000 0.000000 0.000000 0.444312 0.000000 0.000000
# 5 0.000000 0.000000 0.000000 0.000000 0.024606 0.000000
# 6 0.000000 0.000000 0.000000 0.000000 0.000000 0.048607
#
#
# Mechanical properties :
#
#
# Convention : Reuss Voigt Hill
#
# Bulk Modulus (GPa) = 29.49545 45.93764 37.71654
# Shear Modulus (GPa) = 8.15693 24.30663 16.23178
#
# Velocity S-wave (km/s) = 2.05860 3.55362 2.90397
# Velocity P-wave (km/s) = 4.57978 6.37996 5.55330
#
# Compressibility (1/GPa) = 0.03390353
#
# Stress axis : x y z
#
# Youngs Moduli (GPa) = 79.61987 27.47087 99.35704
#
# Poissons Ratio (x) = 0.16887 0.36640
# Poissons Ratio (y) = 0.48944 0.27090
# Poissons Ratio (z) = 0.29362 0.07490
#
# Static dielectric constant tensor:
#      x y z
#    x 3.600440 0.000000 0.000000 
#    y 0.000000 3.160190 0.000000 
#    z 0.000000 0.000000 3.880650 
# 
# 
# High freq. dielectric constant tensor:
#      x y z
#    x 1.756320 0.000000 0.000000 
#    y 0.000000 1.711610 0.000000 
#    z 0.000000 0.000000 1.768300 
# 
# From -- ./inp_files/20028.got.cif
#   From: 2010.03.12/outbox.cif.g09.slc.cpg/sg38_11_cif.got.tgz:20028.got - 2010.04.14 02:38:36.
