data_PCOD8178752
_publ_section_title
;
Structure prediction by ZEFSAII (Michael W. Deem and Ramdas Pophale) SiO2 
 PCOD8178752
Probable space group: A M M 2
;
_chemical_formula_sum "Si O2"
_cell_formula_units_Z 64
_cell_length_a 9.189868
_cell_length_b 28.031104
_cell_length_c 12.656107
_cell_angle_alpha 90.000000
_cell_angle_beta 90.000000
_cell_angle_gamma 90.000000
_cell_volume 3260.240319
_symmetry_space_group_name_H-M "A M M 2"
_symmetry_group_IT_number 38
_symmetry_cell_setting 'orthorhombic'
loop_
_space_group_symop_operation_xyz
x,y,z
-x,-y,z
-x,y,z
x,-y,z
x,1/2+y,1/2+z
-x,1/2-y,1/2+z
-x,1/2+y,1/2+z
x,1/2-y,1/2+z
loop_
_atom_site_type_symbol
_atom_site_label
_atom_site_fract_x
_atom_site_fract_y
_atom_site_fract_z
Si Si1 0.330507 0.203294 0.402380
Si Si2 0.162934 0.426226 0.767168
Si Si3 0.832863 0.793121 0.974678
Si Si4 0.159377 0.182688 0.207674
Si Si5 0.663796 0.947216 0.064121
Si Si6 0.830502 0.444015 0.170988
Si Si7 0.831256 0.608596 0.386602
Si Si8 0.672360 0.403140 0.968801
O O1 0.500000 0.210412 0.398290
O O2 0.263603 0.246275 0.467945
O O3 0.272926 0.209189 0.282926
O O4 0.288547 0.152949 0.456441
O O5 0.151735 0.371330 0.741498
O O6 0.250090 0.451489 0.673927
O O7 0.000000 0.448065 0.778112
O O8 0.250273 0.433641 0.876564
O O9 0.801760 0.834109 0.886412
O O10 0.000000 0.777088 0.969287
O O11 0.790361 0.815605 0.087209
O O12 0.000000 0.206574 0.222061
O O13 0.500000 0.928412 0.086092
O O14 0.660048 0.000000 0.014400
O O15 0.739221 0.913109 0.980939
O O16 0.796646 0.500000 0.187506
O O17 0.785827 0.414954 0.276008
O O18 0.732037 0.422266 0.079275
O O19 0.000000 0.435992 0.143957
O O20 0.000000 0.598237 0.411787
O O21 0.500000 0.411493 0.962458
#
# Coordination Sequence:
#
# PCOD8178752 Si02
#       8
#     8   8   8   8   8   8   8   8
#     4  10  22  37  55  85 119 155 197 241 298 358
#     4  10  19  36  61  85 110 145 192 241 291 348
#     4  10  20  36  59  87 116 151 199 246 297 354
#     4   9  18  35  57  80 109 145 187 237 290 344
#     4  11  23  36  54  85 121 153 187 231 291 357
#     4  10  22  40  63  89 118 158 206 255 307 362
#     4  10  21  40  62  86 116 153 202 252 296 353
#     4  10  22  40  60  84 119 158 199 247 301 360
#
# _framework density 19.630454
#
# number of rings (size 3 to 8) (size 9 to 14) (size 15 to 20)
#    0.000    2.000    1.250    1.875    0.000    6.750 
#    0.000    3.750    0.000    0.000    0.000    0.000 
#    0.000    0.000    0.000    0.000    0.000    0.000 
#
# Total GULP energy -396753.086379 kJ/mol
# GULP energy per Si atom -12398.533949 kJ/mol
# Density = 1.958577 g / cm^3
# Si number density = 19.630454 Si / 1000 Ang^3
#
#
#
# Elastic Constant Matrix: (Units=GPa)
#
#
# Indices 1 2 3 4 5 6 
#
# 1 104.1324 45.7019 56.9404 0.0000 0.0000 0.0000
# 2 45.7019 71.8578 41.2947 0.0000 0.0000 0.0000
# 3 56.9404 41.2947 116.6679 0.0000 0.0000 0.0000
# 4 0.0000 0.0000 0.0000 24.0926 0.0000 0.0000
# 5 0.0000 0.0000 0.0000 0.0000 19.6381 0.0000
# 6 0.0000 0.0000 0.0000 0.0000 0.0000 27.5351
#
#
#
# Elastic Compliance Matrix: (Units=1/GPa)
#
#
# Indices 1 2 3 4 5 6 
#
# 1 0.015399 -0.006873 -0.005083 0.000000 0.000000 0.000000
# 2 -0.006873 0.020537 -0.003915 0.000000 0.000000 0.000000
# 3 -0.005083 -0.003915 0.012438 0.000000 0.000000 0.000000
# 4 0.000000 0.000000 0.000000 0.041507 0.000000 0.000000
# 5 0.000000 0.000000 0.000000 0.000000 0.050921 0.000000
# 6 0.000000 0.000000 0.000000 0.000000 0.000000 0.036317
#
#
# Mechanical properties :
#
#
# Convention : Reuss Voigt Hill
#
# Bulk Modulus (GPa) = 60.12214 64.50356 62.31285
# Shear Modulus (GPa) = 23.32041 24.16789 23.74415
#
# Velocity S-wave (km/s) = 3.45044 3.51257 3.48164
# Velocity P-wave (km/s) = 6.82404 7.02717 6.92635
#
# Compressibility (1/GPa) = 0.01663281
#
# Stress axis : x y z
#
# Youngs Moduli (GPa) = 64.93994 48.69195 80.40038
#
# Poissons Ratio (x) = 0.33465 0.40867
# Poissons Ratio (y) = 0.44632 0.31476
# Poissons Ratio (z) = 0.33008 0.19062
#
# Static dielectric constant tensor:
#      x y z
#    x 3.744460 0.000000 0.000000 
#    y 0.000000 3.592560 0.000000 
#    z 0.000000 0.000000 3.626360 
# 
# 
# High freq. dielectric constant tensor:
#      x y z
#    x 1.767600 0.000000 0.000000 
#    y 0.000000 1.763580 0.000000 
#    z 0.000000 0.000000 1.763240 
# 
# From -- ./inp_files/8600.got.cif
#   From: 2010.03.12/outbox.cif.g09.slc.cpg/sg38_5_cif.got.tgz:8600.got - 2010.04.14 02:38:36.
