data_PCOD8178395
_publ_section_title
;
Structure prediction by ZEFSAII (Michael W. Deem and Ramdas Pophale) SiO2 
 PCOD8178395
Probable space group: A M M 2
;
_chemical_formula_sum "Si O2"
_cell_formula_units_Z 64
_cell_length_a 8.570220
_cell_length_b 27.746208
_cell_length_c 14.597906
_cell_angle_alpha 90.000000
_cell_angle_beta 90.000000
_cell_angle_gamma 90.000000
_cell_volume 3471.252224
_symmetry_space_group_name_H-M "A M M 2"
_symmetry_group_IT_number 38
_symmetry_cell_setting 'orthorhombic'
loop_
_space_group_symop_operation_xyz
x,y,z
-x,-y,z
-x,y,z
x,-y,z
x,1/2+y,1/2+z
-x,1/2-y,1/2+z
-x,1/2+y,1/2+z
x,1/2-y,1/2+z
loop_
_atom_site_type_symbol
_atom_site_label
_atom_site_fract_x
_atom_site_fract_y
_atom_site_fract_z
Si Si1 0.183956 0.218874 0.122260
Si Si2 0.320332 0.556038 0.632265
Si Si3 0.183223 0.724801 0.418364
Si Si4 0.183091 0.635808 0.753033
Si Si5 0.682085 0.172616 0.430065
Si Si6 0.685303 0.946921 0.926401
Si Si7 0.183852 0.327613 0.125161
Si Si8 0.316430 0.640033 0.303254
O O1 0.254732 0.179562 0.191523
O O2 0.242010 0.272867 0.144961
O O3 0.000000 0.217287 0.130486
O O4 0.234311 0.205580 0.018527
O O5 0.500000 0.571627 0.643331
O O6 0.298901 0.500000 0.655106
O O7 0.214838 0.585581 0.702670
O O8 0.260493 0.567021 0.529016
O O9 0.270990 0.774270 0.395844
O O10 0.227851 0.685958 0.343268
O O11 0.000000 0.735972 0.414086
O O12 0.269700 0.635372 0.850573
O O13 0.000000 0.642255 0.769157
O O14 0.500000 0.169623 0.449790
O O15 0.771841 0.157436 0.522351
O O16 0.500000 0.949074 0.925484
O O17 0.747667 0.907886 0.853669
O O18 0.751115 0.000000 0.899856
O O19 0.272291 0.362845 0.196113
O O20 0.000000 0.332961 0.138189
O O21 0.500000 0.645661 0.317836
#
# Coordination Sequence:
#
# PCOD8178395 Si02
#       8
#     8   8   8   8   8   8   8   8
#     4   8  17  31  48  70  98 134 170 202 241 299
#     4   9  18  34  54  76 104 137 171 208 252 301
#     4  10  19  33  50  72 106 143 174 206 253 306
#     4  11  20  32  52  77 104 135 171 209 257 312
#     4  11  22  36  52  73 101 133 175 221 258 299
#     4   8  16  32  53  77 107 139 168 203 250 302
#     4  10  20  36  53  70 100 140 174 209 260 311
#     4  11  20  30  50  79 104 132 175 218 255 300
#
# _framework density 18.437149999999999
#
# number of rings (size 3 to 8) (size 9 to 14) (size 15 to 20)
#    0.000    2.250    0.000    5.625    0.000    1.250 
#    0.000    6.875    0.000    3.750    0.000    1.750 
#    0.000    0.000    0.000    0.000    0.000    0.000 
#
# Total GULP energy -396816.397687 kJ/mol
# GULP energy per Si atom -12400.512428 kJ/mol
# Density = 1.839519 g / cm^3
# Si number density = 18.437150 Si / 1000 Ang^3
#
#
#
# Elastic Constant Matrix: (Units=GPa)
#
#
# Indices 1 2 3 4 5 6 
#
# 1 48.0933 14.3011 14.1629 0.0000 0.0000 0.0000
# 2 14.3011 73.5704 58.4109 0.0000 0.0000 0.0000
# 3 14.1629 58.4109 115.0987 0.0000 0.0000 0.0000
# 4 0.0000 0.0000 0.0000 29.3757 0.0000 0.0000
# 5 0.0000 0.0000 0.0000 0.0000 29.4722 0.0000
# 6 0.0000 0.0000 0.0000 0.0000 0.0000 20.3963
#
#
#
# Elastic Compliance Matrix: (Units=1/GPa)
#
#
# Indices 1 2 3 4 5 6 
#
# 1 0.022125 -0.003583 -0.000904 0.000000 0.000000 0.000000
# 2 -0.003583 0.023345 -0.011406 0.000000 0.000000 0.000000
# 3 -0.000904 -0.011406 0.014588 0.000000 0.000000 0.000000
# 4 0.000000 0.000000 0.000000 0.034042 0.000000 0.000000
# 5 0.000000 0.000000 0.000000 0.000000 0.033930 0.000000
# 6 0.000000 0.000000 0.000000 0.000000 0.000000 0.049029
#
#
# Mechanical properties :
#
#
# Convention : Reuss Voigt Hill
#
# Bulk Modulus (GPa) = 35.37222 45.61245 40.49234
# Shear Modulus (GPa) = 22.90759 25.84133 24.37446
#
# Velocity S-wave (km/s) = 3.52869 3.74784 3.63992
# Velocity P-wave (km/s) = 5.98575 6.59709 6.29884
#
# Compressibility (1/GPa) = 0.02827077
#
# Stress axis : x y z
#
# Youngs Moduli (GPa) = 45.19854 42.83603 68.54958
#
# Poissons Ratio (x) = 0.15347 0.06198
# Poissons Ratio (y) = 0.16194 0.78190
# Poissons Ratio (z) = 0.04087 0.48860
#
# Static dielectric constant tensor:
#      x y z
#    x 3.159240 0.000000 0.000000 
#    y 0.000000 3.383400 0.000000 
#    z 0.000000 0.000000 3.560320 
# 
# 
# High freq. dielectric constant tensor:
#      x y z
#    x 1.701030 0.000000 0.000000 
#    y 0.000000 1.690090 0.000000 
#    z 0.000000 0.000000 1.721290 
# 
# From -- ./inp_files/12837.got.cif
#   From: 2010.03.12/outbox.cif.g09.slc.cpg/sg38_7_cif.got.tgz:12837.got - 2010.04.14 02:38:36.
