data_PCOD8178276
_publ_section_title
;
Structure prediction by ZEFSAII (Michael W. Deem and Ramdas Pophale) SiO2 
 PCOD8178276
Probable space group: A M M 2
;
_chemical_formula_sum "Si O2"
_cell_formula_units_Z 64
_cell_length_a 8.856767
_cell_length_b 14.456188
_cell_length_c 27.864869
_cell_angle_alpha 90.000000
_cell_angle_beta 90.000000
_cell_angle_gamma 90.000000
_cell_volume 3567.680977
_symmetry_space_group_name_H-M "A M M 2"
_symmetry_group_IT_number 38
_symmetry_cell_setting 'orthorhombic'
loop_
_space_group_symop_operation_xyz
x,y,z
-x,-y,z
-x,y,z
x,-y,z
x,1/2+y,1/2+z
-x,1/2-y,1/2+z
-x,1/2+y,1/2+z
x,1/2-y,1/2+z
loop_
_atom_site_type_symbol
_atom_site_label
_atom_site_fract_x
_atom_site_fract_y
_atom_site_fract_z
Si Si1 0.673465 0.102547 0.008290
Si Si2 0.323156 0.605845 0.883551
Si Si3 0.676850 0.400805 0.158882
Si Si4 0.832970 0.144254 0.102903
Si Si5 0.823387 0.106340 0.282361
Si Si6 0.320398 0.294319 0.694742
Si Si7 0.835318 0.149069 0.567996
Si Si8 0.820364 0.719519 0.968095
O O1 0.500000 0.135395 0.011043
O O2 0.737413 0.092823 0.062231
O O3 0.686500 0.000000 0.984900
O O4 0.765689 0.175002 0.975791
O O5 0.500000 0.622293 0.876052
O O6 0.289310 0.500000 0.899007
O O7 0.237787 0.630189 0.834746
O O8 0.260831 0.676425 0.922586
O O9 0.500000 0.391495 0.159181
O O10 0.726743 0.500000 0.182360
O O11 0.741257 0.311576 0.187118
O O12 0.724487 0.405674 0.102933
O O13 0.746510 0.138460 0.153752
O O14 0.852068 0.248690 0.087563
O O15 0.000000 0.099092 0.108305
O O16 0.737099 0.172805 0.245947
O O17 0.000000 0.127881 0.280448
O O18 0.788647 0.000000 0.269249
O O19 0.500000 0.299421 0.692599
O O20 0.773291 0.155447 0.513567
O O21 0.000000 0.100858 0.568411
O O22 0.000000 0.720733 0.961236
#
# Coordination Sequence:
#
# PCOD8178276 Si02
#       8
#     8   8   8   8   8   8   8   8
#     4  10  20  33  50  74 105 140 177 216 256 300
#     4  10  21  37  57  80 104 130 163 206 257 312
#     4   9  18  31  47  70 101 136 171 205 243 288
#     4   9  17  30  47  68  97 132 170 210 250 295
#     4  10  21  37  56  77 101 128 160 204 258 312
#     4  10  19  32  52  75 101 134 170 210 254 302
#     4   8  16  29  44  66  95 128 166 204 241 281
#     4  10  20  34  53  76 104 138 173 211 255 305
#
# _framework density 17.938824
#
# number of rings (size 3 to 8) (size 9 to 14) (size 15 to 20)
#    0.000    2.500    0.000    3.000    0.000    7.750 
#    0.000    2.500    0.000    0.750    0.000    1.750 
#    0.000    0.000    0.000    0.000    0.000    0.000 
#
# Total GULP energy -396613.060354 kJ/mol
# GULP energy per Si atom -12394.158136 kJ/mol
# Density = 1.789799 g / cm^3
# Si number density = 17.938824 Si / 1000 Ang^3
#
#
#
# Elastic Constant Matrix: (Units=GPa)
#
#
# Indices 1 2 3 4 5 6 
#
# 1 43.6071 17.8334 10.4915 0.0000 0.0000 0.0000
# 2 17.8334 81.6669 37.6377 0.0000 0.0000 0.0000
# 3 10.4915 37.6377 81.8990 0.0000 0.0000 0.0000
# 4 0.0000 0.0000 0.0000 21.5769 0.0000 0.0000
# 5 0.0000 0.0000 0.0000 0.0000 33.8379 0.0000
# 6 0.0000 0.0000 0.0000 0.0000 0.0000 14.7138
#
#
#
# Elastic Compliance Matrix: (Units=1/GPa)
#
#
# Indices 1 2 3 4 5 6 
#
# 1 0.025232 -0.005100 -0.000888 0.000000 0.000000 0.000000
# 2 -0.005100 0.016566 -0.006960 0.000000 0.000000 0.000000
# 3 -0.000888 -0.006960 0.015522 0.000000 0.000000 0.000000
# 4 0.000000 0.000000 0.000000 0.046346 0.000000 0.000000
# 5 0.000000 0.000000 0.000000 0.000000 0.029553 0.000000
# 6 0.000000 0.000000 0.000000 0.000000 0.000000 0.067964
#
#
# Mechanical properties :
#
#
# Convention : Reuss Voigt Hill
#
# Bulk Modulus (GPa) = 31.82363 37.67760 34.75061
# Shear Modulus (GPa) = 21.04786 23.43973 22.24379
#
# Velocity S-wave (km/s) = 3.42908 3.61868 3.52516
# Velocity P-wave (km/s) = 5.78418 6.20554 5.99856
#
# Compressibility (1/GPa) = 0.03142319
#
# Stress axis : x y z
#
# Youngs Moduli (GPa) = 39.63284 60.36386 64.42289
#
# Poissons Ratio (x) = 0.30788 0.05723
# Poissons Ratio (y) = 0.20214 0.44837
# Poissons Ratio (z) = 0.03521 0.42012
#
# Static dielectric constant tensor:
#      x y z
#    x 3.583370 0.000000 0.000000 
#    y 0.000000 3.461910 0.000000 
#    z 0.000000 0.000000 3.247910 
# 
# 
# High freq. dielectric constant tensor:
#      x y z
#    x 1.706280 0.000000 0.000000 
#    y 0.000000 1.689830 0.000000 
#    z 0.000000 0.000000 1.671670 
# 
# From -- ./inp_files/22113.got.cif
#   From: 2010.03.12/outbox.cif.g09.slc.cpg/sg38_12_cif.got.tgz:22113.got - 2010.04.14 02:38:36.
