data_PCOD8178137
_publ_section_title
;
Structure prediction by ZEFSAII (Michael W. Deem and Ramdas Pophale) SiO2 
 PCOD8178137
Probable space group: A M M 2
;
_chemical_formula_sum "Si O2"
_cell_formula_units_Z 64
_cell_length_a 9.415249
_cell_length_b 28.550554
_cell_length_c 12.335969
_cell_angle_alpha 90.000000
_cell_angle_beta 90.000000
_cell_angle_gamma 90.000000
_cell_volume 3316.038920
_symmetry_space_group_name_H-M "A M M 2"
_symmetry_group_IT_number 38
_symmetry_cell_setting 'orthorhombic'
loop_
_space_group_symop_operation_xyz
x,y,z
-x,-y,z
-x,y,z
x,-y,z
x,1/2+y,1/2+z
-x,1/2-y,1/2+z
-x,1/2+y,1/2+z
x,1/2-y,1/2+z
loop_
_atom_site_type_symbol
_atom_site_label
_atom_site_fract_x
_atom_site_fract_y
_atom_site_fract_z
Si Si1 0.842332 0.448640 0.572590
Si Si2 0.164301 0.947697 0.491217
Si Si3 0.343272 0.169360 0.193978
Si Si4 0.338501 0.068102 0.278802
Si Si5 0.838783 0.285417 0.861824
Si Si6 0.666994 0.126177 0.968486
Si Si7 0.833982 0.654926 0.063811
Si Si8 0.162697 0.180932 0.802379
O O1 0.861722 0.500000 0.524084
O O2 0.757063 0.452733 0.684144
O O3 0.750919 0.421847 0.483265
O O4 0.000000 0.426050 0.590661
O O5 0.267514 0.948019 0.389358
O O6 0.207131 0.901080 0.561764
O O7 0.000000 0.942199 0.455005
O O8 0.183443 0.000000 0.547841
O O9 0.500000 0.191706 0.193732
O O10 0.340464 0.123761 0.269483
O O11 0.235691 0.205121 0.247248
O O12 0.295649 0.158766 0.071463
O O13 0.500000 0.048655 0.272030
O O14 0.825813 0.229504 0.868314
O O15 0.000000 0.301783 0.849033
O O16 0.768660 0.313572 0.964194
O O17 0.500000 0.116212 0.961317
O O18 0.724270 0.147486 0.858425
O O19 0.787825 0.679672 0.176400
O O20 0.000000 0.660158 0.051122
O O21 0.000000 0.162453 0.810588
#
# Coordination Sequence:
#
# PCOD8178137 Si02
#       8
#     8   8   8   8   8   8   8   8
#     4  10  20  34  55  83 113 149 194 239 286 340
#     4  10  19  32  53  78 108 151 196 237 289 348
#     4   9  19  34  52  78 112 146 180 222 276 338
#     4  10  19  31  49  78 117 153 184 229 288 346
#     4  10  20  34  59  86 109 144 185 233 291 341
#     4  10  22  39  57  81 116 152 189 233 284 340
#     4   9  19  37  55  81 117 144 186 247 292 341
#     4  10  22  38  59  83 111 148 193 240 288 347
#
# _framework density 19.300135999999998
#
# number of rings (size 3 to 8) (size 9 to 14) (size 15 to 20)
#    0.000    2.250    1.250    2.250    1.750    5.750 
#    0.000    1.875    0.000    2.250    0.000    0.000 
#    0.000    0.000    0.000    0.000    0.000    0.000 
#
# Total GULP energy -396438.983723 kJ/mol
# GULP energy per Si atom -12388.718241 kJ/mol
# Density = 1.925621 g / cm^3
# Si number density = 19.300136 Si / 1000 Ang^3
#
#
#
# Elastic Constant Matrix: (Units=GPa)
#
#
# Indices 1 2 3 4 5 6 
#
# 1 97.0717 34.4216 37.3227 0.0000 0.0000 0.0000
# 2 34.4216 82.1507 44.4600 0.0000 0.0000 0.0000
# 3 37.3227 44.4600 89.6839 0.0000 0.0000 0.0000
# 4 0.0000 0.0000 0.0000 8.5511 0.0000 0.0000
# 5 0.0000 0.0000 0.0000 0.0000 23.8919 0.0000
# 6 0.0000 0.0000 0.0000 0.0000 0.0000 -7.6593
#
#
#
# Elastic Compliance Matrix: (Units=1/GPa)
#
#
# Indices 1 2 3 4 5 6 
#
# 1 0.012933 -0.003425 -0.003684 0.000000 0.000000 0.000000
# 2 -0.003425 0.017543 -0.007272 0.000000 0.000000 0.000000
# 3 -0.003684 -0.007272 0.016288 0.000000 0.000000 0.000000
# 4 0.000000 0.000000 0.000000 0.116944 0.000000 0.000000
# 5 0.000000 0.000000 0.000000 0.000000 0.041855 0.000000
# 6 0.000000 0.000000 0.000000 0.000000 0.000000 -0.130560
#
#
# Mechanical properties :
#
#
# Convention : Reuss Voigt Hill
#
# Bulk Modulus (GPa) = 55.54697 55.70165 55.62431
# Shear Modulus (GPa) = 45.55186 15.13688 30.34437
#
# Velocity S-wave (km/s) = 4.86344 2.80355 3.96944
# Velocity P-wave (km/s) = 7.77049 6.27720 7.06342
#
# Compressibility (1/GPa) = 0.01800278
#
# Stress axis : x y z
#
# Youngs Moduli (GPa) = 77.32361 57.00217 61.39400
#
# Poissons Ratio (x) = 0.19523 0.22618
# Poissons Ratio (y) = 0.26483 0.44643
# Poissons Ratio (z) = 0.28487 0.41449
#
# Static dielectric constant tensor:
#      x y z
#    x 3.515480 0.000000 0.000000 
#    y 0.000000 3.659120 0.000000 
#    z 0.000000 0.000000 3.354060 
# 
# 
# High freq. dielectric constant tensor:
#      x y z
#    x 1.743960 0.000000 0.000000 
#    y 0.000000 1.751850 0.000000 
#    z 0.000000 0.000000 1.725380 
# 
# From -- ./inp_files/8565.got.cif
#   From: 2010.03.12/outbox.cif.g09.slc.cpg/sg38_5_cif.got.tgz:8565.got - 2010.04.14 02:38:36.
