data_PCOD8178045
_publ_section_title
;
Structure prediction by ZEFSAII (Michael W. Deem and Ramdas Pophale) SiO2 
 PCOD8178045
Probable space group: A M M 2
;
_chemical_formula_sum "Si O2"
_cell_formula_units_Z 56
_cell_length_a 14.541707
_cell_length_b 22.337779
_cell_length_c 9.321959
_cell_angle_alpha 90.000000
_cell_angle_beta 90.000000
_cell_angle_gamma 90.000000
_cell_volume 3028.046696
_symmetry_space_group_name_H-M "A M M 2"
_symmetry_group_IT_number 38
_symmetry_cell_setting 'orthorhombic'
loop_
_space_group_symop_operation_xyz
x,y,z
-x,-y,z
-x,y,z
x,-y,z
x,1/2+y,1/2+z
-x,1/2-y,1/2+z
-x,1/2+y,1/2+z
x,1/2-y,1/2+z
loop_
_atom_site_type_symbol
_atom_site_label
_atom_site_fract_x
_atom_site_fract_y
_atom_site_fract_z
Si Si1 0.228992 0.360225 0.509940
Si Si2 0.605130 0.783553 0.034906
Si Si3 0.106336 0.851608 0.755047
Si Si4 0.896228 0.112997 0.436736
Si Si5 0.895391 0.785117 0.216641
Si Si6 0.266986 0.066616 0.276907
Si Si7 0.604054 0.826616 0.348851
O O1 0.325798 0.330834 0.460411
O O2 0.171448 0.383085 0.372952
O O3 0.170147 0.310541 0.594215
O O4 0.249215 0.417036 0.610933
O O5 0.500000 0.800148 0.992007
O O6 0.620411 0.787213 0.205858
O O7 0.628058 0.716152 0.983061
O O8 0.127589 0.882128 0.603713
O O9 0.133707 0.782113 0.751150
O O10 0.000000 0.860240 0.798126
O O11 0.883520 0.178093 0.363932
O O12 0.829116 0.065564 0.362486
O O13 0.000000 0.089777 0.414345
O O14 0.000000 0.787840 0.158599
O O15 0.333527 0.114458 0.352815
O O16 0.309797 0.000000 0.283260
O O17 0.500000 0.849800 0.356813
#
# Coordination Sequence:
#
# PCOD8178045 Si02
#       7
#     8   8   8   8   8   8   8
#     4  10  20  30  53  76 104 141 172 212 263 309
#     4   9  19  33  50  78 111 134 163 205 259 321
#     4  10  19  30  48  77 107 133 168 215 265 318
#     4   9  19  33  49  72 103 139 176 214 258 305
#     4   9  17  29  46  74 109 138 165 203 259 323
#     4  10  22  38  53  73 101 141 187 218 248 301
#     4   9  19  35  56  82 108 134 164 210 264 312
#
# _framework density 18.493769
#
# number of rings (size 3 to 8) (size 9 to 14) (size 15 to 20)
#    0.000    2.571    0.000    1.286    8.000    3.429 
#    0.000    0.714    0.000    0.857    0.000    0.000 
#    0.000    8.000    0.000    0.000    0.000    0.000 
#
# Total GULP energy -347194.874790 kJ/mol
# GULP energy per Si atom -12399.816957 kJ/mol
# Density = 1.845168 g / cm^3
# Si number density = 18.493769 Si / 1000 Ang^3
#
#
#
# Elastic Constant Matrix: (Units=GPa)
#
#
# Indices 1 2 3 4 5 6 
#
# 1 96.7592 45.5231 47.6010 0.0000 0.0000 0.0000
# 2 45.5231 97.5971 33.7931 0.0000 0.0000 0.0000
# 3 47.6010 33.7931 75.5087 0.0000 0.0000 0.0000
# 4 0.0000 0.0000 0.0000 9.8191 0.0000 0.0000
# 5 0.0000 0.0000 0.0000 0.0000 27.9188 0.0000
# 6 0.0000 0.0000 0.0000 0.0000 0.0000 15.8484
#
#
#
# Elastic Compliance Matrix: (Units=1/GPa)
#
#
# Indices 1 2 3 4 5 6 
#
# 1 0.016768 -0.004924 -0.008367 0.000000 0.000000 0.000000
# 2 -0.004924 0.013571 -0.002969 0.000000 0.000000 0.000000
# 3 -0.008367 -0.002969 0.019847 0.000000 0.000000 0.000000
# 4 0.000000 0.000000 0.000000 0.101842 0.000000 0.000000
# 5 0.000000 0.000000 0.000000 0.000000 0.035818 0.000000
# 6 0.000000 0.000000 0.000000 0.000000 0.000000 0.063098
#
#
# Mechanical properties :
#
#
# Convention : Reuss Voigt Hill
#
# Bulk Modulus (GPa) = 56.60848 58.18883 57.39865
# Shear Modulus (GPa) = 17.27995 20.24711 18.76353
#
# Velocity S-wave (km/s) = 3.06006 3.31238 3.18871
# Velocity P-wave (km/s) = 6.56972 6.79422 6.68291
#
# Compressibility (1/GPa) = 0.01766520
#
# Stress axis : x y z
#
# Youngs Moduli (GPa) = 59.63868 73.68547 50.38589
#
# Poissons Ratio (x) = 0.36284 0.42156
# Poissons Ratio (y) = 0.29367 0.14962
# Poissons Ratio (z) = 0.49898 0.21881
#
# Static dielectric constant tensor:
#      x y z
#    x 3.643760 0.000000 0.000000 
#    y 0.000000 2.957140 0.000000 
#    z 0.000000 0.000000 3.401290 
# 
# 
# High freq. dielectric constant tensor:
#      x y z
#    x 1.728950 0.000000 0.000000 
#    y 0.000000 1.672950 0.000000 
#    z 0.000000 0.000000 1.712440 
# 
# From -- ./inp_files/5687.got.cif
#   From: 2010.03.12/outbox.cif.g09.slc.cpg/sg38_3_cif.got.tgz:5687.got - 2010.04.14 02:38:36.
