data_PCOD8178271
_publ_section_title
;
Structure prediction by ZEFSAII (Michael W. Deem and Ramdas Pophale) SiO2 
 PCOD8178271
Probable space group: A M M 2
;
_chemical_formula_sum "Si O2"
_cell_formula_units_Z 64
_cell_length_a 9.111221
_cell_length_b 14.517830
_cell_length_c 27.709935
_cell_angle_alpha 90.000000
_cell_angle_beta 90.000000
_cell_angle_gamma 90.000000
_cell_volume 3665.336018
_symmetry_space_group_name_H-M "A M M 2"
_symmetry_group_IT_number 38
_symmetry_cell_setting 'orthorhombic'
loop_
_space_group_symop_operation_xyz
x,y,z
-x,-y,z
-x,y,z
x,-y,z
x,1/2+y,1/2+z
-x,1/2-y,1/2+z
-x,1/2+y,1/2+z
x,1/2-y,1/2+z
loop_
_atom_site_type_symbol
_atom_site_label
_atom_site_fract_x
_atom_site_fract_y
_atom_site_fract_z
Si Si1 0.332139 0.400499 0.587050
Si Si2 0.828013 0.893845 0.354017
Si Si3 0.162649 0.852785 0.638064
Si Si4 0.673898 0.292686 0.768830
Si Si5 0.332564 0.900309 0.728254
Si Si6 0.327839 0.292555 0.047827
Si Si7 0.668843 0.394365 0.952157
Si Si8 0.163597 0.648747 0.677428
O O1 0.500000 0.382637 0.602243
O O2 0.315296 0.500000 0.559985
O O3 0.280956 0.315524 0.553118
O O4 0.239876 0.410935 0.636084
O O5 0.742922 0.825934 0.318561
O O6 0.772423 0.870493 0.407433
O O7 0.000000 0.873451 0.350944
O O8 0.792409 0.000000 0.341051
O O9 0.244349 0.911608 0.678542
O O10 0.248343 0.855546 0.587548
O O11 0.154660 0.750616 0.657690
O O12 0.000000 0.893311 0.629779
O O13 0.500000 0.306466 0.770293
O O14 0.719746 0.184795 0.761751
O O15 0.740515 0.354989 0.726057
O O16 0.500000 0.880783 0.713631
O O17 0.316052 0.000000 0.755266
O O18 0.500000 0.306615 0.055265
O O19 0.279605 0.327627 0.995325
O O20 0.500000 0.375484 0.937689
O O21 0.689222 0.500000 0.968679
O O22 0.000000 0.610377 0.688407
#
# Coordination Sequence:
#
# PCOD8178271 Si02
#       8
#     8   8   8   8   8   8   8   8
#     4   9  17  29  45  66  94 128 163 195 228 272
#     4  10  21  36  53  73  96 121 151 192 243 293
#     4   9  17  28  43  66  95 126 160 195 230 269
#     4  10  19  32  52  74  96 125 160 197 237 282
#     4   9  18  32  49  70  98 131 164 196 231 274
#     4   9  17  30  48  69  94 124 157 194 237 281
#     4   9  18  33  52  72  92 116 150 192 238 287
#     4   9  17  29  44  64  93 126 159 195 232 270
#
# _framework density 17.460882000000002
#
# number of rings (size 3 to 8) (size 9 to 14) (size 15 to 20)
#    0.000    2.750    0.000    1.500    0.000    6.250 
#    0.000    1.250    0.000    0.750    0.000    3.500 
#    0.000    0.000    0.000    0.000    0.000    0.000 
#
# Total GULP energy -396630.545611 kJ/mol
# GULP energy per Si atom -12394.704550 kJ/mol
# Density = 1.742114 g / cm^3
# Si number density = 17.460882 Si / 1000 Ang^3
#
#
#
# Elastic Constant Matrix: (Units=GPa)
#
#
# Indices 1 2 3 4 5 6 
#
# 1 87.0932 36.7661 53.7442 0.0000 0.0000 0.0000
# 2 36.7661 95.4386 57.4886 0.0000 0.0000 0.0000
# 3 53.7442 57.4886 110.5481 0.0000 0.0000 0.0000
# 4 0.0000 0.0000 0.0000 22.9234 0.0000 0.0000
# 5 0.0000 0.0000 0.0000 0.0000 20.4813 0.0000
# 6 0.0000 0.0000 0.0000 0.0000 0.0000 13.0617
#
#
#
# Elastic Compliance Matrix: (Units=1/GPa)
#
#
# Indices 1 2 3 4 5 6 
#
# 1 0.016728 -0.002250 -0.006962 0.000000 0.000000 0.000000
# 2 -0.002250 0.015560 -0.006998 0.000000 0.000000 0.000000
# 3 -0.006962 -0.006998 0.016070 0.000000 0.000000 0.000000
# 4 0.000000 0.000000 0.000000 0.043623 0.000000 0.000000
# 5 0.000000 0.000000 0.000000 0.000000 0.048825 0.000000
# 6 0.000000 0.000000 0.000000 0.000000 0.000000 0.076560
#
#
# Mechanical properties :
#
#
# Convention : Reuss Voigt Hill
#
# Bulk Modulus (GPa) = 62.74652 65.45306 64.09979
# Shear Modulus (GPa) = 19.60017 20.96534 20.28275
#
# Velocity S-wave (km/s) = 3.35404 3.46888 3.41194
# Velocity P-wave (km/s) = 7.14233 7.32196 7.23270
#
# Compressibility (1/GPa) = 0.01593714
#
# Stress axis : x y z
#
# Youngs Moduli (GPa) = 59.77865 64.26736 62.22897
#
# Poissons Ratio (x) = 0.14463 0.43326
# Poissons Ratio (y) = 0.13453 0.43546
# Poissons Ratio (z) = 0.41620 0.44972
#
# Static dielectric constant tensor:
#      x y z
#    x 3.435800 0.000000 0.000000 
#    y 0.000000 3.299970 0.000000 
#    z 0.000000 0.000000 3.055540 
# 
# 
# High freq. dielectric constant tensor:
#      x y z
#    x 1.681120 0.000000 0.000000 
#    y 0.000000 1.673000 0.000000 
#    z 0.000000 0.000000 1.645430 
# 
# From -- ./inp_files/24777.got.cif
#   From: 2010.03.12/outbox.cif.g09.slc.cpg/sg38_13_cif.got.tgz:24777.got - 2010.04.14 02:38:36.
