data_PCOD8178487
_publ_section_title
;
Structure prediction by ZEFSAII (Michael W. Deem and Ramdas Pophale) SiO2 
 PCOD8178487
Probable space group: A M M 2
;
_chemical_formula_sum "Si O2"
_cell_formula_units_Z 64
_cell_length_a 9.086360
_cell_length_b 24.303809
_cell_length_c 14.814987
_cell_angle_alpha 90.000000
_cell_angle_beta 90.000000
_cell_angle_gamma 90.000000
_cell_volume 3271.640364
_symmetry_space_group_name_H-M "A M M 2"
_symmetry_group_IT_number 38
_symmetry_cell_setting 'orthorhombic'
loop_
_space_group_symop_operation_xyz
x,y,z
-x,-y,z
-x,y,z
x,-y,z
x,1/2+y,1/2+z
-x,1/2-y,1/2+z
-x,1/2+y,1/2+z
x,1/2-y,1/2+z
loop_
_atom_site_type_symbol
_atom_site_label
_atom_site_fract_x
_atom_site_fract_y
_atom_site_fract_z
Si Si1 0.830487 0.937210 0.320390
Si Si2 0.827357 0.370558 0.164712
Si Si3 0.827252 0.060693 0.837180
Si Si4 0.171982 0.154132 0.178261
Si Si5 0.674726 0.621111 0.976867
Si Si6 0.173019 0.151631 0.971390
Si Si7 0.335441 0.261550 0.180290
Si Si8 0.337767 0.257935 0.966427
O O1 0.785370 0.899516 0.235675
O O2 0.730334 0.924182 0.406717
O O3 0.000000 0.927278 0.347313
O O4 0.802440 0.000000 0.291181
O O5 0.795341 0.418289 0.236519
O O6 0.760075 0.314679 0.206451
O O7 0.000000 0.361230 0.147551
O O8 0.750780 0.389709 0.072691
O O9 0.759601 0.101753 0.912447
O O10 0.000000 0.057032 0.854059
O O11 0.756166 0.000000 0.848179
O O12 0.259004 0.206451 0.218974
O O13 0.000000 0.167898 0.183140
O O14 0.219646 0.142159 0.075091
O O15 0.500000 0.617117 0.990619
O O16 0.719687 0.681473 0.937793
O O17 0.233179 0.209408 0.931410
O O18 0.000000 0.154874 0.959387
O O19 0.500000 0.266441 0.220978
O O20 0.342341 0.257369 0.073618
O O21 0.500000 0.247365 0.926465
#
# Coordination Sequence:
#
# PCOD8178487 Si02
#       8
#     8   8   8   8   8   8   8   8
#     4  10  22  38  54  76 106 140 181 226 271 321
#     4  10  19  33  55  80 107 140 175 217 267 316
#     4   9  19  34  51  75 105 136 174 215 255 304
#     4   9  18  33  54  80 108 138 175 220 266 314
#     4  10  21  37  56  79 106 138 175 216 267 324
#     4   9  17  31  54  80 104 134 171 211 255 304
#     4   9  17  31  52  78 108 140 174 215 264 319
#     4   8  16  31  50  74 104 133 163 205 259 315
#
# _framework density 19.562052000000001
#
# number of rings (size 3 to 8) (size 9 to 14) (size 15 to 20)
#    0.000    2.750    0.000    1.875    0.000    6.250 
#    0.000    8.750    0.000    3.000    0.000    3.500 
#    0.000    0.000    0.000    0.000    0.000    0.000 
#
# Total GULP energy -396737.298828 kJ/mol
# GULP energy per Si atom -12398.040588 kJ/mol
# Density = 1.951753 g / cm^3
# Si number density = 19.562052 Si / 1000 Ang^3
#
#
#
# Elastic Constant Matrix: (Units=GPa)
#
#
# Indices 1 2 3 4 5 6 
#
# 1 65.6709 29.9768 20.7533 0.0000 0.0000 0.0000
# 2 29.9768 105.3991 15.5739 0.0000 0.0000 0.0000
# 3 20.7533 15.5739 46.4160 0.0000 0.0000 0.0000
# 4 0.0000 0.0000 0.0000 29.7326 0.0000 0.0000
# 5 0.0000 0.0000 0.0000 0.0000 8.3372 0.0000
# 6 0.0000 0.0000 0.0000 0.0000 0.0000 14.7320
#
#
#
# Elastic Compliance Matrix: (Units=1/GPa)
#
#
# Indices 1 2 3 4 5 6 
#
# 1 0.019568 -0.004495 -0.007241 0.000000 0.000000 0.000000
# 2 -0.004495 0.011015 -0.001686 0.000000 0.000000 0.000000
# 3 -0.007241 -0.001686 0.025347 0.000000 0.000000 0.000000
# 4 0.000000 0.000000 0.000000 0.033633 0.000000 0.000000
# 5 0.000000 0.000000 0.000000 0.000000 0.119944 0.000000
# 6 0.000000 0.000000 0.000000 0.000000 0.000000 0.067880
#
#
# Mechanical properties :
#
#
# Convention : Reuss Voigt Hill
#
# Bulk Modulus (GPa) = 34.38041 38.89931 36.63986
# Shear Modulus (GPa) = 15.92729 20.63916 18.28323
#
# Velocity S-wave (km/s) = 2.85650 3.25169 3.06048
# Velocity P-wave (km/s) = 5.33785 5.83321 5.59102
#
# Compressibility (1/GPa) = 0.02908633
#
# Stress axis : x y z
#
# Youngs Moduli (GPa) = 51.10480 90.78180 39.45177
#
# Poissons Ratio (x) = 0.40810 0.28566
# Poissons Ratio (y) = 0.22974 0.06652
# Poissons Ratio (z) = 0.37003 0.15306
#
# Static dielectric constant tensor:
#      x y z
#    x 3.513710 0.000000 0.000000 
#    y 0.000000 3.840070 0.000000 
#    z 0.000000 0.000000 3.422150 
# 
# 
# High freq. dielectric constant tensor:
#      x y z
#    x 1.745680 0.000000 0.000000 
#    y 0.000000 1.763570 0.000000 
#    z 0.000000 0.000000 1.755220 
# 
# From -- ./inp_files/12710.got.cif
#   From: 2010.03.12/outbox.cif.g09.slc.cpg/sg38_7_cif.got.tgz:12710.got - 2010.04.14 02:38:36.
