data_PCOD8178871
_publ_section_title
;
Structure prediction by ZEFSAII (Michael W. Deem and Ramdas Pophale) SiO2 
 PCOD8178871
Probable space group: A M M 2
;
_chemical_formula_sum "Si O2"
_cell_formula_units_Z 64
_cell_length_a 9.560362
_cell_length_b 15.618966
_cell_length_c 23.257718
_cell_angle_alpha 90.000000
_cell_angle_beta 90.000000
_cell_angle_gamma 90.000000
_cell_volume 3472.911505
_symmetry_space_group_name_H-M "A M M 2"
_symmetry_group_IT_number 38
_symmetry_cell_setting 'orthorhombic'
loop_
_space_group_symop_operation_xyz
x,y,z
-x,-y,z
-x,y,z
x,-y,z
x,1/2+y,1/2+z
-x,1/2-y,1/2+z
-x,1/2+y,1/2+z
x,1/2-y,1/2+z
loop_
_atom_site_type_symbol
_atom_site_label
_atom_site_fract_x
_atom_site_fract_y
_atom_site_fract_z
Si Si1 0.660862 0.732934 0.073170
Si Si2 0.165796 0.401097 0.896005
Si Si3 0.337981 0.750947 0.943691
Si Si4 0.654533 0.177856 0.186213
Si Si5 0.334112 0.595701 0.363608
Si Si6 0.341117 0.361867 0.235523
Si Si7 0.149346 0.098407 0.270078
Si Si8 0.158816 0.904102 0.628795
O O1 0.500000 0.704598 0.085216
O O2 0.705794 0.802014 0.121555
O O3 0.760148 0.650925 0.080881
O O4 0.677523 0.775411 0.010884
O O5 0.209446 0.500000 0.908699
O O6 0.251441 0.336553 0.936281
O O7 0.209357 0.370313 0.831507
O O8 0.000000 0.389808 0.905814
O O9 0.500000 0.733401 0.927805
O O10 0.276439 0.831309 0.907259
O O11 0.500000 0.138746 0.184480
O O12 0.661581 0.260381 0.227131
O O13 0.751747 0.108145 0.215454
O O14 0.500000 0.597732 0.366561
O O15 0.280203 0.500000 0.380858
O O16 0.283923 0.616467 0.298945
O O17 0.500000 0.396668 0.227293
O O18 0.238299 0.404836 0.189758
O O19 0.000000 0.144119 0.257213
O O20 0.120020 0.000000 0.280017
O O21 0.000000 0.869711 0.636990
O O22 0.155712 0.000000 0.604486
#
# Coordination Sequence:
#
# PCOD8178871 Si02
#       8
#     8   8   8   8   8   8   8   8
#     4   9  20  36  50  67  95 130 166 203 245 292
#     4   9  19  35  53  75 105 137 165 198 249 309
#     4  10  20  35  54  75 100 132 173 215 248 287
#     4   9  17  30  48  71  96 123 161 206 247 288
#     4   9  17  30  51  78 104 132 167 206 250 299
#     4   9  17  30  50  75 102 130 158 192 242 302
#     4   9  18  32  49  71  99 129 160 195 242 301
#     4  10  20  32  48  73 101 127 159 199 241 290
#
# _framework density 18.428342000000001
#
# number of rings (size 3 to 8) (size 9 to 14) (size 15 to 20)
#    0.000    2.750    0.000    3.000    0.000    6.500 
#    0.000    5.000    0.000    3.375    0.000    0.000 
#    0.000    0.000    0.000    0.000    0.000    0.000 
#
# Total GULP energy -396590.886027 kJ/mol
# GULP energy per Si atom -12393.465188 kJ/mol
# Density = 1.838640 g / cm^3
# Si number density = 18.428342 Si / 1000 Ang^3
#
#
#
# Elastic Constant Matrix: (Units=GPa)
#
#
# Indices 1 2 3 4 5 6 
#
# 1 57.3660 17.4051 28.7195 0.0000 0.0000 0.0000
# 2 17.4051 57.2053 36.6701 0.0000 0.0000 0.0000
# 3 28.7195 36.6701 102.7452 0.0000 0.0000 0.0000
# 4 0.0000 0.0000 0.0000 17.6614 0.0000 0.0000
# 5 0.0000 0.0000 0.0000 0.0000 14.0429 0.0000
# 6 0.0000 0.0000 0.0000 0.0000 0.0000 20.9055
#
#
#
# Elastic Compliance Matrix: (Units=1/GPa)
#
#
# Indices 1 2 3 4 5 6 
#
# 1 0.020756 -0.003366 -0.004600 0.000000 0.000000 0.000000
# 2 -0.003366 0.023213 -0.007344 0.000000 0.000000 0.000000
# 3 -0.004600 -0.007344 0.013640 0.000000 0.000000 0.000000
# 4 0.000000 0.000000 0.000000 0.056620 0.000000 0.000000
# 5 0.000000 0.000000 0.000000 0.000000 0.071210 0.000000
# 6 0.000000 0.000000 0.000000 0.000000 0.000000 0.047834
#
#
# Mechanical properties :
#
#
# Convention : Reuss Voigt Hill
#
# Bulk Modulus (GPa) = 37.05361 42.54511 39.79936
# Shear Modulus (GPa) = 18.32235 19.49009 18.90622
#
# Velocity S-wave (km/s) = 3.15659 3.25563 3.20649
# Velocity P-wave (km/s) = 5.78238 6.10484 5.94580
#
# Compressibility (1/GPa) = 0.02698792
#
# Stress axis : x y z
#
# Youngs Moduli (GPa) = 48.17789 43.08006 73.31526
#
# Poissons Ratio (x) = 0.14502 0.33728
# Poissons Ratio (y) = 0.16218 0.53841
# Poissons Ratio (z) = 0.22164 0.31637
#
# Static dielectric constant tensor:
#      x y z
#    x 3.292410 0.000000 0.000000 
#    y 0.000000 3.242980 0.000000 
#    z 0.000000 0.000000 3.374300 
# 
# 
# High freq. dielectric constant tensor:
#      x y z
#    x 1.698580 0.000000 0.000000 
#    y 0.000000 1.697920 0.000000 
#    z 0.000000 0.000000 1.712750 
# 
# From -- ./inp_files/22137.got.cif
#   From: 2010.03.12/outbox.cif.g09.slc.cpg/sg38_12_cif.got.tgz:22137.got - 2010.04.14 02:38:36.
