data_PCOD8178801
_publ_section_title
;
Structure prediction by ZEFSAII (Michael W. Deem and Ramdas Pophale) SiO2 
 PCOD8178801
Probable space group: A M M 2
;
_chemical_formula_sum "Si O2"
_cell_formula_units_Z 64
_cell_length_a 9.212198
_cell_length_b 21.459102
_cell_length_c 21.328273
_cell_angle_alpha 90.000000
_cell_angle_beta 90.000000
_cell_angle_gamma 90.000000
_cell_volume 4216.290238
_symmetry_space_group_name_H-M "A M M 2"
_symmetry_group_IT_number 38
_symmetry_cell_setting 'orthorhombic'
loop_
_space_group_symop_operation_xyz
x,y,z
-x,-y,z
-x,y,z
x,-y,z
x,1/2+y,1/2+z
-x,1/2-y,1/2+z
-x,1/2+y,1/2+z
x,1/2-y,1/2+z
loop_
_atom_site_type_symbol
_atom_site_label
_atom_site_fract_x
_atom_site_fract_y
_atom_site_fract_z
Si Si1 0.170612 0.153320 0.699340
Si Si2 0.836593 0.344749 0.391447
Si Si3 0.168947 0.570774 0.951982
Si Si4 0.662109 0.156735 0.366742
Si Si5 0.331914 0.426491 0.298514
Si Si6 0.159939 0.739944 0.786445
Si Si7 0.664254 0.259483 0.474626
Si Si8 0.830801 0.668735 0.056516
O O1 0.261835 0.100965 0.735294
O O2 0.211551 0.222455 0.724729
O O3 0.213002 0.150350 0.626736
O O4 0.000000 0.140273 0.711030
O O5 0.749463 0.401891 0.360549
O O6 0.844398 0.288671 0.342849
O O7 0.752068 0.321169 0.453503
O O8 0.000000 0.366089 0.409590
O O9 0.216964 0.500000 0.964218
O O10 0.251524 0.596671 0.891147
O O11 0.000000 0.576492 0.936910
O O12 0.210149 0.609385 0.014018
O O13 0.500000 0.135631 0.350546
O O14 0.732692 0.183240 0.302719
O O15 0.665425 0.209772 0.419011
O O16 0.500000 0.406133 0.301945
O O17 0.313850 0.500000 0.295994
O O18 0.000000 0.711328 0.776152
O O19 0.500000 0.278430 0.492126
O O20 0.741300 0.229414 0.535207
O O21 0.000000 0.685607 0.051052
#
# Coordination Sequence:
#
# PCOD8178801 Si02
#       8
#     8   8   8   8   8   8   8   8
#     4   9  18  30  44  61  82 112 147 179 209 243
#     4   9  16  27  44  62  79 103 136 174 214 253
#     4   9  17  28  41  57  79 109 141 171 203 237
#     4   9  16  25  39  58  77 100 130 166 208 248
#     4  10  20  31  42  59  85 115 145 178 215 254
#     4   8  14  25  40  58  78 100 129 167 210 249
#     4   9  16  26  41  61  83 106 133 168 213 257
#     4   9  17  29  43  60  83 111 145 179 206 240
#
# _framework density 15.179220000000001
#
# number of rings (size 3 to 8) (size 9 to 14) (size 15 to 20)
#    0.000    3.000    0.000    2.250    0.000    8.250 
#    0.000    1.250    0.000    0.000    0.000    0.000 
#    0.000    1.000    0.000    5.750    0.000    4.000 
#
# Total GULP energy -396713.100770 kJ/mol
# GULP energy per Si atom -12397.284399 kJ/mol
# Density = 1.514467 g / cm^3
# Si number density = 15.179220 Si / 1000 Ang^3
#
#
#
# Elastic Constant Matrix: (Units=GPa)
#
#
# Indices 1 2 3 4 5 6 
#
# 1 102.8183 54.0315 45.9797 0.0000 0.0000 0.0000
# 2 54.0315 69.5414 57.7555 0.0000 0.0000 0.0000
# 3 45.9797 57.7555 50.1194 0.0000 0.0000 0.0000
# 4 0.0000 0.0000 0.0000 15.8476 0.0000 0.0000
# 5 0.0000 0.0000 0.0000 0.0000 16.3192 0.0000
# 6 0.0000 0.0000 0.0000 0.0000 0.0000 22.7788
#
#
#
# Elastic Compliance Matrix: (Units=1/GPa)
#
#
# Indices 1 2 3 4 5 6 
#
# 1 0.016592 -0.005814 -0.008522 0.000000 0.000000 0.000000
# 2 -0.005814 0.336888 -0.382882 0.000000 0.000000 0.000000
# 3 -0.008522 -0.382882 0.468987 0.000000 0.000000 0.000000
# 4 0.000000 0.000000 0.000000 0.063101 0.000000 0.000000
# 5 0.000000 0.000000 0.000000 0.000000 0.061278 0.000000
# 6 0.000000 0.000000 0.000000 0.000000 0.000000 0.043900
#
#
# Mechanical properties :
#
#
# Convention : Reuss Voigt Hill
#
# Bulk Modulus (GPa) = 35.67355 59.77917 47.72636
# Shear Modulus (GPa) = 2.78625 15.30329 9.04477
#
# Velocity S-wave (km/s) = 1.35630 3.17862 2.44368
# Velocity P-wave (km/s) = 5.09954 7.27593 6.28270
#
# Compressibility (1/GPa) = 0.02803197
#
# Stress axis : x y z
#
# Youngs Moduli (GPa) = 60.26964 2.96835 2.13226
#
# Poissons Ratio (x) = 0.01726 0.01817
# Poissons Ratio (y) = 0.35041 0.81640
# Poissons Ratio (z) = 0.51361 1.13652
#
# Static dielectric constant tensor:
#      x y z
#    x 3.118790 0.000000 0.000000 
#    y 0.000000 2.753470 0.000000 
#    z 0.000000 0.000000 2.814370 
# 
# 
# High freq. dielectric constant tensor:
#      x y z
#    x 1.593560 0.000000 0.000000 
#    y 0.000000 1.552510 0.000000 
#    z 0.000000 0.000000 1.550630 
# 
# From -- ./inp_files/17303.got.cif
#   From: 2010.03.12/outbox.cif.g09.slc.cpg/sg38_9_cif.got.tgz:17303.got - 2010.04.14 02:38:36.
