data_PCOD8178258
_publ_section_title
;
Structure prediction by ZEFSAII (Michael W. Deem and Ramdas Pophale) SiO2 
 PCOD8178258
Probable space group: A M M 2
;
_chemical_formula_sum "Si O2"
_cell_formula_units_Z 32
_cell_length_a 9.394867
_cell_length_b 7.997874
_cell_length_c 23.685057
_cell_angle_alpha 90.000000
_cell_angle_beta 90.000000
_cell_angle_gamma 90.000000
_cell_volume 1779.670610
_symmetry_space_group_name_H-M "A M M 2"
_symmetry_group_IT_number 38
_symmetry_cell_setting 'orthorhombic'
loop_
_space_group_symop_operation_xyz
x,y,z
-x,-y,z
-x,y,z
x,-y,z
x,1/2+y,1/2+z
-x,1/2-y,1/2+z
-x,1/2+y,1/2+z
x,1/2-y,1/2+z
loop_
_atom_site_type_symbol
_atom_site_label
_atom_site_fract_x
_atom_site_fract_y
_atom_site_fract_z
Si Si1 0.656161 0.815533 0.394080
Si Si2 0.834679 0.313313 0.111154
Si Si3 0.664726 0.688811 0.510583
Si Si4 0.168733 0.500000 0.683169
Si Si5 0.830924 0.000000 0.311398
O O1 0.500000 0.749517 0.373278
O O2 0.716467 0.702952 0.445241
O O3 0.637253 0.000000 0.420615
O O4 0.766699 0.831586 0.341361
O O5 0.810666 0.500000 0.136917
O O6 0.000000 0.280552 0.099347
O O7 0.774402 0.169655 0.153121
O O8 0.755367 0.306534 0.051306
O O9 0.500000 0.741720 0.514171
O O10 0.688915 0.500000 0.530838
O O11 0.223770 0.500000 0.747259
O O12 0.000000 0.500000 0.683262
O O13 0.000000 0.000000 0.317001
#
# Coordination Sequence:
#
# PCOD8178258 Si02
#       5
#     8   8   8   4   4
#     4   8  16  31  48  69  98 133 166 208 260 302
#     4  10  20  34  54  78 105 140 174 211 264 315
#     4  10  19  32  51  76 107 140 173 213 264 316
#     4   9  18  35  53  75 109 137 172 221 260 303
#     4   9  17  31  53  73  95 137 180 213 254 305
#
# _framework density 17.980855999999999
#
# number of rings (size 3 to 8) (size 9 to 14) (size 15 to 20)
#    0.750    2.000    1.250    0.750    0.000    2.500 
#    0.000    3.750    0.000    1.500    0.000    0.000 
#    0.000    0.000    0.000    0.000    0.000    0.000 
#
# Total GULP energy -198210.933310 kJ/mol
# GULP energy per Si atom -12388.183332 kJ/mol
# Density = 1.793993 g / cm^3
# Si number density = 17.980856 Si / 1000 Ang^3
#
#
#
# Elastic Constant Matrix: (Units=GPa)
#
#
# Indices 1 2 3 4 5 6 
#
# 1 57.9140 26.2227 51.8668 0.0000 0.0000 0.0000
# 2 26.2227 89.6556 46.5750 0.0000 0.0000 0.0000
# 3 51.8668 46.5750 133.5586 0.0000 0.0000 0.0000
# 4 0.0000 0.0000 0.0000 28.9642 0.0000 0.0000
# 5 0.0000 0.0000 0.0000 0.0000 17.5474 0.0000
# 6 0.0000 0.0000 0.0000 0.0000 0.0000 16.0425
#
#
#
# Elastic Compliance Matrix: (Units=1/GPa)
#
#
# Indices 1 2 3 4 5 6 
#
# 1 0.027122 -0.003006 -0.009485 0.000000 0.000000 0.000000
# 2 -0.003006 0.013954 -0.003699 0.000000 0.000000 0.000000
# 3 -0.009485 -0.003699 0.012461 0.000000 0.000000 0.000000
# 4 0.000000 0.000000 0.000000 0.034525 0.000000 0.000000
# 5 0.000000 0.000000 0.000000 0.000000 0.056988 0.000000
# 6 0.000000 0.000000 0.000000 0.000000 0.000000 0.062334
#
#
# Mechanical properties :
#
#
# Convention : Reuss Voigt Hill
#
# Bulk Modulus (GPa) = 47.26188 58.93968 53.10078
# Shear Modulus (GPa) = 20.25794 22.94174 21.59984
#
# Velocity S-wave (km/s) = 3.36019 3.57585 3.46969
# Velocity P-wave (km/s) = 6.43398 7.06394 6.75630
#
# Compressibility (1/GPa) = 0.02115870
#
# Stress axis : x y z
#
# Youngs Moduli (GPa) = 36.87022 71.66150 80.25300
#
# Poissons Ratio (x) = 0.21539 0.76117
# Poissons Ratio (y) = 0.11082 0.29686
# Poissons Ratio (z) = 0.34970 0.26508
#
# Static dielectric constant tensor:
#      x y z
#    x 3.107500 0.000000 0.000000 
#    y 0.000000 3.306840 0.000000 
#    z 0.000000 0.000000 3.226460 
# 
# 
# High freq. dielectric constant tensor:
#      x y z
#    x 1.677860 0.000000 0.000000 
#    y 0.000000 1.685150 0.000000 
#    z 0.000000 0.000000 1.681930 
# 
# From -- ./inp_files/21627.got.cif
#   From: 2010.03.12/outbox.cif.g09.slc.cpg/sg38_11_cif.got.tgz:21627.got - 2010.04.14 02:38:36.
