data_PCOD8178526
_publ_section_title
;
Structure prediction by ZEFSAII (Michael W. Deem and Ramdas Pophale) SiO2 
 PCOD8178526
Probable space group: A M M 2
;
_chemical_formula_sum "Si O2"
_cell_formula_units_Z 64
_cell_length_a 12.469710
_cell_length_b 27.656770
_cell_length_c 9.724750
_cell_angle_alpha 90.000000
_cell_angle_beta 90.000000
_cell_angle_gamma 90.000000
_cell_volume 3353.793023
_symmetry_space_group_name_H-M "A M M 2"
_symmetry_group_IT_number 38
_symmetry_cell_setting 'orthorhombic'
loop_
_space_group_symop_operation_xyz
x,y,z
-x,-y,z
-x,y,z
x,-y,z
x,1/2+y,1/2+z
-x,1/2-y,1/2+z
-x,1/2+y,1/2+z
x,1/2-y,1/2+z
loop_
_atom_site_type_symbol
_atom_site_label
_atom_site_fract_x
_atom_site_fract_y
_atom_site_fract_z
Si Si1 0.755154 0.445331 0.936130
Si Si2 0.304626 0.879054 0.936823
Si Si3 0.248878 0.230051 0.321337
Si Si4 0.621574 0.280001 0.543432
Si Si5 0.623531 0.444370 0.668033
Si Si6 0.123638 0.147853 0.466904
Si Si7 0.874161 0.172150 0.780573
Si Si8 0.380373 0.446095 0.201637
O O1 0.801152 0.500000 0.927210
O O2 0.664544 0.436715 0.822107
O O3 0.852370 0.407581 0.924999
O O4 0.700996 0.434473 0.080980
O O5 0.185727 0.864909 0.883900
O O6 0.368854 0.907408 0.820883
O O7 0.373228 0.831727 0.970268
O O8 0.298738 0.913042 0.070568
O O9 0.339254 0.239976 0.435275
O O10 0.303391 0.220839 0.175844
O O11 0.188029 0.181656 0.363103
O O12 0.163861 0.273568 0.311715
O O13 0.500000 0.268003 0.586076
O O14 0.500000 0.426610 0.658608
O O15 0.632162 0.500000 0.622898
O O16 0.155162 0.158720 0.624410
O O17 0.000000 0.158266 0.442479
O O18 0.000000 0.167675 0.810746
O O19 0.500000 0.442615 0.141249
O O20 0.358801 0.500000 0.260763
#
# Coordination Sequence:
#
# PCOD8178526 Si02
#       8
#     8   8   8   8   8   8   8   8
#     4  10  21  38  58  88 123 155 196 244 297 358
#     4  11  21  36  57  86 117 152 196 244 296 348
#     4  11  22  42  62  89 116 154 202 242 293 349
#     4  11  23  38  59  86 124 158 189 237 295 363
#     4  10  20  36  59  86 122 161 194 238 295 355
#     4  11  22  40  64  88 116 156 202 248 300 347
#     4  10  22  41  61  85 116 151 198 252 298 344
#     4  10  19  33  56  84 116 154 199 244 288 349
#
# _framework density 19.08287
#
# number of rings (size 3 to 8) (size 9 to 14) (size 15 to 20)
#    0.000    1.500    2.500    3.375    0.000    2.750 
#    0.000    6.875    0.000    2.250    0.000    0.000 
#    0.000    0.000    0.000    0.000    0.000    0.000 
#
# Total GULP energy -396869.958216 kJ/mol
# GULP energy per Si atom -12402.186194 kJ/mol
# Density = 1.903944 g / cm^3
# Si number density = 19.082870 Si / 1000 Ang^3
#
#
#
# Elastic Constant Matrix: (Units=GPa)
#
#
# Indices 1 2 3 4 5 6 
#
# 1 79.5008 39.2756 28.0279 0.0000 0.0000 0.0000
# 2 39.2756 108.5812 43.3024 0.0000 0.0000 0.0000
# 3 28.0279 43.3024 95.5811 0.0000 0.0000 0.0000
# 4 0.0000 0.0000 0.0000 -206.7782 0.0000 0.0000
# 5 0.0000 0.0000 0.0000 0.0000 24.1114 0.0000
# 6 0.0000 0.0000 0.0000 0.0000 0.0000 22.0209
#
#
#
# Elastic Compliance Matrix: (Units=1/GPa)
#
#
# Indices 1 2 3 4 5 6 
#
# 1 0.015787 -0.004716 -0.002493 0.000000 0.000000 0.000000
# 2 -0.004716 0.012650 -0.004348 0.000000 0.000000 0.000000
# 3 -0.002493 -0.004348 0.013163 0.000000 0.000000 0.000000
# 4 0.000000 0.000000 0.000000 -0.004836 0.000000 0.000000
# 5 0.000000 0.000000 0.000000 0.000000 0.041474 0.000000
# 6 0.000000 0.000000 0.000000 0.000000 0.000000 0.045411
#
#
# Mechanical properties :
#
#
# Convention : Reuss Voigt Hill
#
# Bulk Modulus (GPa) = 54.09461 56.09721 55.09591
# Shear Modulus (GPa) = 32.69573 -20.59202 6.05185
#
# Velocity S-wave (km/s) = 4.14376 -3.28851 1.78276
# Velocity P-wave (km/s) = 7.16262 3.87833 5.75954
#
# Compressibility (1/GPa) = 0.01848613
#
# Stress axis : x y z
#
# Youngs Moduli (GPa) = 63.34182 79.05368 75.97058
#
# Poissons Ratio (x) = 0.37285 0.18937
# Poissons Ratio (y) = 0.29875 0.33030
# Poissons Ratio (z) = 0.15789 0.34371
#
# Static dielectric constant tensor:
#      x y z
#    x 3.318310 0.000000 0.000000 
#    y 0.000000 4.338090 0.000000 
#    z 0.000000 0.000000 3.553080 
# 
# 
# High freq. dielectric constant tensor:
#      x y z
#    x 1.729510 0.000000 0.000000 
#    y 0.000000 1.751470 0.000000 
#    z 0.000000 0.000000 1.751150 
# 
# From -- ./inp_files/4917.got.cif
#   From: 2010.03.12/outbox.cif.g09.slc.cpg/sg38_3_cif.got.tgz:4917.got - 2010.04.14 02:38:36.
