data_PCOD8178346
_publ_section_title
;
Structure prediction by ZEFSAII (Michael W. Deem and Ramdas Pophale) SiO2 
 PCOD8178346
Probable space group: A M M 2
;
_chemical_formula_sum "Si O2"
_cell_formula_units_Z 48
_cell_length_a 15.502995
_cell_length_b 8.879440
_cell_length_c 18.219028
_cell_angle_alpha 90.000000
_cell_angle_beta 90.000000
_cell_angle_gamma 90.000000
_cell_volume 2507.993388
_symmetry_space_group_name_H-M "A M M 2"
_symmetry_group_IT_number 38
_symmetry_cell_setting 'orthorhombic'
loop_
_space_group_symop_operation_xyz
x,y,z
-x,-y,z
-x,y,z
x,-y,z
x,1/2+y,1/2+z
-x,1/2-y,1/2+z
-x,1/2+y,1/2+z
x,1/2-y,1/2+z
loop_
_atom_site_type_symbol
_atom_site_label
_atom_site_fract_x
_atom_site_fract_y
_atom_site_fract_z
Si Si1 0.500000 0.676558 0.274010
Si Si2 0.000000 0.166725 0.440334
Si Si3 0.651265 0.325131 0.687327
Si Si4 0.000000 0.664393 0.766156
Si Si5 0.825738 0.175671 0.931997
Si Si6 0.345989 0.326145 0.517189
Si Si7 0.817302 0.321618 0.777763
Si Si8 0.500000 0.822803 0.432375
O O1 0.500000 0.500000 0.287134
O O2 0.583723 0.722062 0.228744
O O3 0.500000 0.755225 0.351917
O O4 0.000000 0.153345 0.353582
O O5 0.913364 0.253553 0.465052
O O6 0.000000 0.000000 0.475989
O O7 0.628634 0.500000 0.700764
O O8 0.649486 0.283526 0.602303
O O9 0.745196 0.284464 0.718346
O O10 0.909019 0.744156 0.745350
O O11 0.000000 0.500000 0.729007
O O12 0.794893 0.245409 0.854939
O O13 0.841804 0.000000 0.920210
O O14 0.750173 0.208766 0.989841
O O15 0.370215 0.500000 0.504060
O O16 0.414435 0.225651 0.474769
O O17 0.826983 0.500000 0.792096
O O18 0.500000 0.000000 0.424613
#
# Coordination Sequence:
#
# PCOD8178346 Si02
#       8
#     4   4   8   4   8   8   8   4
#     4  12  25  40  59  83 109 139 179 230 283 328
#     4   9  17  31  52  77 107 143 183 229 274 317
#     4  10  21  38  58  81 112 149 185 221 269 331
#     4   7  12  25  46  73 101 129 169 219 262 301
#     4  10  19  32  53  81 111 143 181 226 276 327
#     4  10  22  39  57  81 116 151 181 224 280 329
#     4   9  17  31  53  79 106 141 184 224 265 317
#     4  12  25  40  61  85 107 141 189 232 273 330
#
# _framework density 19.138805000000001
#
# number of rings (size 3 to 8) (size 9 to 14) (size 15 to 20)
#    0.000    2.167    0.000    4.750    0.000    7.333 
#    0.000    0.833    0.000    4.000    0.000    0.000 
#    0.000    0.000    0.000    0.000    0.000    0.000 
#
# Total GULP energy -297543.886896 kJ/mol
# GULP energy per Si atom -12397.661954 kJ/mol
# Density = 1.909524 g / cm^3
# Si number density = 19.138805 Si / 1000 Ang^3
#
#
#
# Elastic Constant Matrix: (Units=GPa)
#
#
# Indices 1 2 3 4 5 6 
#
# 1 163.6527 72.2953 72.7479 0.0000 0.0000 0.0000
# 2 72.2953 110.7759 59.2732 0.0000 0.0000 0.0000
# 3 72.7479 59.2732 117.9226 0.0000 0.0000 0.0000
# 4 0.0000 0.0000 0.0000 24.0397 0.0000 0.0000
# 5 0.0000 0.0000 0.0000 0.0000-2001.4775 0.0000
# 6 0.0000 0.0000 0.0000 0.0000 0.0000 0.7187
#
#
#
# Elastic Compliance Matrix: (Units=1/GPa)
#
#
# Indices 1 2 3 4 5 6 
#
# 1 0.009708 -0.004283 -0.003836 0.000000 0.000000 0.000000
# 2 -0.004283 0.014238 -0.004514 0.000000 0.000000 0.000000
# 3 -0.003836 -0.004514 0.013116 0.000000 0.000000 0.000000
# 4 0.000000 0.000000 0.000000 0.041598 0.000000 0.000000
# 5 0.000000 0.000000 0.000000 0.000000 -0.000500 0.000000
# 6 0.000000 0.000000 0.000000 0.000000 0.000000 1.391354
#
#
# Mechanical properties :
#
#
# Convention : Reuss Voigt Hill
#
# Bulk Modulus (GPa) = 84.78413 88.99824 86.89118
# Shear Modulus (GPa) = 3.33620 -382.80818 -189.73599
#
# Velocity S-wave (km/s) = 1.32172 -14.15807 -9.96755
# Velocity P-wave (km/s) = 6.83557 14.85482 9.32579
#
# Compressibility (1/GPa) = 0.01179466
#
# Stress axis : x y z
#
# Youngs Moduli (GPa) = 103.01026 70.23471 76.24404
#
# Poissons Ratio (x) = 0.30082 0.29247
# Poissons Ratio (y) = 0.44119 0.34420
# Poissons Ratio (z) = 0.39515 0.31707
#
# Static dielectric constant tensor:
#      x y z
#    x 6.971560 0.000000 0.000000 
#    y 0.000000 3.471340 0.000000 
#    z 0.000000 0.000000 3.352040 
# 
# 
# High freq. dielectric constant tensor:
#      x y z
#    x 1.770070 0.000000 0.000000 
#    y 0.000000 1.733890 0.000000 
#    z 0.000000 0.000000 1.723760 
# 
# From -- ./inp_files/18225.got.cif
#   From: 2010.03.12/outbox.cif.g09.slc.cpg/sg38_10_cif.got.tgz:18225.got - 2010.04.14 02:38:36.
