data_PCOD8178854
_publ_section_title
;
Structure prediction by ZEFSAII (Michael W. Deem and Ramdas Pophale) SiO2 
 PCOD8178854
Probable space group: A M M 2
;
_chemical_formula_sum "Si O2"
_cell_formula_units_Z 48
_cell_length_a 8.972567
_cell_length_b 23.112326
_cell_length_c 13.794862
_cell_angle_alpha 90.000000
_cell_angle_beta 90.000000
_cell_angle_gamma 90.000000
_cell_volume 2860.735629
_symmetry_space_group_name_H-M "A M M 2"
_symmetry_group_IT_number 38
_symmetry_cell_setting 'orthorhombic'
loop_
_space_group_symop_operation_xyz
x,y,z
-x,-y,z
-x,y,z
x,-y,z
x,1/2+y,1/2+z
-x,1/2-y,1/2+z
-x,1/2+y,1/2+z
x,1/2-y,1/2+z
loop_
_atom_site_type_symbol
_atom_site_label
_atom_site_fract_x
_atom_site_fract_y
_atom_site_fract_z
Si Si1 0.327724 0.566288 0.051260
Si Si2 0.173592 0.432986 0.851851
Si Si3 0.170125 0.341224 0.167224
Si Si4 0.676107 0.165019 0.241095
Si Si5 0.172277 0.277963 0.567325
Si Si6 0.826778 0.732074 0.348290
O O1 0.500000 0.577255 0.028175
O O2 0.297139 0.500000 0.080041
O O3 0.276613 0.605414 0.141437
O O4 0.234353 0.584646 0.957227
O O5 0.205739 0.500000 0.830320
O O6 0.257791 0.397134 0.769327
O O7 0.000000 0.418090 0.849389
O O8 0.203917 0.288402 0.094701
O O9 0.206082 0.321583 0.277001
O O10 0.000000 0.361847 0.157508
O O11 0.500000 0.162153 0.243805
O O12 0.728816 0.179595 0.132430
O O13 0.731504 0.212540 0.317839
O O14 0.217858 0.287656 0.455914
O O15 0.000000 0.293089 0.586702
O O16 0.000000 0.750338 0.342159
#
# Coordination Sequence:
#
# PCOD8178854 Si02
#       6
#     8   8   8   8   8   8
#     4  10  20  32  47  70  99 128 158 196 242 288
#     4  10  20  34  52  71  93 125 162 198 236 280
#     4   9  17  29  48  73  97 125 160 196 236 282
#     4  11  21  31  48  74 102 128 154 192 241 289
#     4   9  18  33  51  70  95 126 160 196 234 280
#     4   9  18  33  52  72  96 128 164 200 235 275
#
# _framework density 16.7789
#
# number of rings (size 3 to 8) (size 9 to 14) (size 15 to 20)
#    0.000    2.333    0.000    4.500    0.000    6.667 
#    0.000    0.000    0.000    1.000    0.000    2.333 
#    0.000    0.000    0.000    0.000    0.000    0.000 
#
# Total GULP energy -297678.508123 kJ/mol
# GULP energy per Si atom -12403.271172 kJ/mol
# Density = 1.674071 g / cm^3
# Si number density = 16.778900 Si / 1000 Ang^3
#
#
#
# Elastic Constant Matrix: (Units=GPa)
#
#
# Indices 1 2 3 4 5 6 
#
# 1 106.1015 56.4713 58.4966 0.0000 0.0000 0.0000
# 2 56.4713 86.1942 60.5075 0.0000 0.0000 0.0000
# 3 58.4966 60.5075 131.6982 0.0000 0.0000 0.0000
# 4 0.0000 0.0000 0.0000 25.6215 0.0000 0.0000
# 5 0.0000 0.0000 0.0000 0.0000 18.3581 0.0000
# 6 0.0000 0.0000 0.0000 0.0000 0.0000 28.0888
#
#
#
# Elastic Compliance Matrix: (Units=1/GPa)
#
#
# Indices 1 2 3 4 5 6 
#
# 1 0.015356 -0.007783 -0.003245 0.000000 0.000000 0.000000
# 2 -0.007783 0.021069 -0.006223 0.000000 0.000000 0.000000
# 3 -0.003245 -0.006223 0.011894 0.000000 0.000000 0.000000
# 4 0.000000 0.000000 0.000000 0.039030 0.000000 0.000000
# 5 0.000000 0.000000 0.000000 0.000000 0.054472 0.000000
# 6 0.000000 0.000000 0.000000 0.000000 0.000000 0.035601
#
#
# Mechanical properties :
#
#
# Convention : Reuss Voigt Hill
#
# Bulk Modulus (GPa) = 72.37414 74.99386 73.68400
# Shear Modulus (GPa) = 23.09139 24.31489 23.70314
#
# Velocity S-wave (km/s) = 3.71376 3.81088 3.76264
# Velocity P-wave (km/s) = 7.84965 8.00975 7.93011
#
# Compressibility (1/GPa) = 0.01381709
#
# Stress axis : x y z
#
# Youngs Moduli (GPa) = 65.11927 47.46205 84.07822
#
# Poissons Ratio (x) = 0.36940 0.27284
# Poissons Ratio (y) = 0.50682 0.52324
# Poissons Ratio (z) = 0.21132 0.29537
#
# Static dielectric constant tensor:
#      x y z
#    x 3.132330 0.000000 0.000000 
#    y 0.000000 3.010860 0.000000 
#    z 0.000000 0.000000 3.171350 
# 
# 
# High freq. dielectric constant tensor:
#      x y z
#    x 1.651050 0.000000 0.000000 
#    y 0.000000 1.632020 0.000000 
#    z 0.000000 0.000000 1.640050 
# 
# From -- ./inp_files/12236.got.cif
#   From: 2010.03.12/outbox.cif.g09.slc.cpg/sg38_7_cif.got.tgz:12236.got - 2010.04.14 02:38:36.
