data_PCOD8178841
_publ_section_title
;
Structure prediction by ZEFSAII (Michael W. Deem and Ramdas Pophale) SiO2 
 PCOD8178841
Probable space group: A M M 2
;
_chemical_formula_sum "Si O2"
_cell_formula_units_Z 48
_cell_length_a 9.824573
_cell_length_b 9.202365
_cell_length_c 30.890976
_cell_angle_alpha 90.000000
_cell_angle_beta 90.000000
_cell_angle_gamma 90.000000
_cell_volume 2792.831724
_symmetry_space_group_name_H-M "A M M 2"
_symmetry_group_IT_number 38
_symmetry_cell_setting 'orthorhombic'
loop_
_space_group_symop_operation_xyz
x,y,z
-x,-y,z
-x,y,z
x,-y,z
x,1/2+y,1/2+z
-x,1/2-y,1/2+z
-x,1/2+y,1/2+z
x,1/2-y,1/2+z
loop_
_atom_site_type_symbol
_atom_site_label
_atom_site_fract_x
_atom_site_fract_y
_atom_site_fract_z
Si Si1 0.838226 0.337291 0.992400
Si Si2 0.837730 0.338050 0.573612
Si Si3 0.151444 0.326553 0.668718
Si Si4 0.650047 0.327855 0.741379
Si Si5 0.340864 0.331809 0.839153
Si Si6 0.842365 0.329211 0.407121
O O1 0.779700 0.500000 0.988144
O O2 0.790121 0.244534 0.951275
O O3 0.000000 0.338956 0.994857
O O4 0.778460 0.266320 0.036301
O O5 0.779710 0.500000 0.565581
O O6 0.793521 0.279505 0.621152
O O7 0.000000 0.343609 0.571970
O O8 0.147890 0.500000 0.670640
O O9 0.247327 0.259965 0.706105
O O10 0.000000 0.264507 0.676651
O O11 0.500000 0.263273 0.732472
O O12 0.644812 0.500000 0.736519
O O13 0.696764 0.288888 0.789916
O O14 0.500000 0.302905 0.848198
O O15 0.305532 0.500000 0.848291
O O16 0.248655 0.229633 0.868358
O O17 0.820971 0.500000 0.411940
O O18 0.000000 0.290485 0.397959
#
# Coordination Sequence:
#
# PCOD8178841 Si02
#       6
#     8   8   8   8   8   8
#     4   9  16  26  42  64  89 117 149 184 224 271
#     4   8  13  22  37  58  85 115 146 180 217 259
#     4   8  13  21  36  60  86 112 145 182 217 255
#     4   8  14  25  41  62  88 116 146 181 220 262
#     4   9  18  32  49  69  93 122 156 192 231 276
#     4  10  20  32  47  69  95 121 152 192 235 276
#
# _framework density 17.186857
#
# number of rings (size 3 to 8) (size 9 to 14) (size 15 to 20)
#    0.000    3.333    0.000    3.000    0.000    4.000 
#    0.000    1.667    0.000    2.000    0.000    4.667 
#    0.000    0.000    0.000    0.000    0.000    0.000 
#
# Total GULP energy -297456.856482 kJ/mol
# GULP energy per Si atom -12394.035687 kJ/mol
# Density = 1.714774 g / cm^3
# Si number density = 17.186857 Si / 1000 Ang^3
#
#
#
# Elastic Constant Matrix: (Units=GPa)
#
#
# Indices 1 2 3 4 5 6 
#
# 1 52.2801 31.2496 63.3438 0.0000 0.0000 0.0000
# 2 31.2496 73.9416 60.6019 0.0000 0.0000 0.0000
# 3 63.3438 60.6019 167.4578 0.0000 0.0000 0.0000
# 4 0.0000 0.0000 0.0000 24.8666 0.0000 0.0000
# 5 0.0000 0.0000 0.0000 0.0000 3.6844 0.0000
# 6 0.0000 0.0000 0.0000 0.0000 0.0000 15.0581
#
#
#
# Elastic Compliance Matrix: (Units=1/GPa)
#
#
# Indices 1 2 3 4 5 6 
#
# 1 0.037056 -0.005932 -0.011870 0.000000 0.000000 0.000000
# 2 -0.005932 0.020177 -0.005058 0.000000 0.000000 0.000000
# 3 -0.011870 -0.005058 0.012292 0.000000 0.000000 0.000000
# 4 0.000000 0.000000 0.000000 0.040215 0.000000 0.000000
# 5 0.000000 0.000000 0.000000 0.000000 0.271413 0.000000
# 6 0.000000 0.000000 0.000000 0.000000 0.000000 0.066409
#
#
# Mechanical properties :
#
#
# Convention : Reuss Voigt Hill
#
# Bulk Modulus (GPa) = 42.00916 67.11889 54.56402
# Shear Modulus (GPa) = 9.97573 17.95411 13.96492
#
# Velocity S-wave (km/s) = 2.41182 3.23560 2.85359
# Velocity P-wave (km/s) = 5.67904 7.28670 6.53252
#
# Compressibility (1/GPa) = 0.02380433
#
# Stress axis : x y z
#
# Youngs Moduli (GPa) = 26.98642 49.56235 81.35241
#
# Poissons Ratio (x) = 0.29400 0.96567
# Poissons Ratio (y) = 0.16008 0.41148
# Poissons Ratio (z) = 0.32033 0.25068
#
# Static dielectric constant tensor:
#      x y z
#    x 3.041350 0.000000 0.000000 
#    y 0.000000 2.979730 0.000000 
#    z 0.000000 0.000000 3.509720 
# 
# 
# High freq. dielectric constant tensor:
#      x y z
#    x 1.622280 0.000000 0.000000 
#    y 0.000000 1.630140 0.000000 
#    z 0.000000 0.000000 1.679960 
# 
# From -- ./inp_files/23681.got.cif
#   From: 2010.03.12/outbox.cif.g09.slc.cpg/sg38_12_cif.got.tgz:23681.got - 2010.04.14 02:38:36.
