data_PCOD8178638
_publ_section_title
;
Structure prediction by ZEFSAII (Michael W. Deem and Ramdas Pophale) SiO2 
 PCOD8178638
Probable space group: A M M 2
;
_chemical_formula_sum "Si O2"
_cell_formula_units_Z 48
_cell_length_a 8.733680
_cell_length_b 18.410544
_cell_length_c 14.869825
_cell_angle_alpha 90.000000
_cell_angle_beta 90.000000
_cell_angle_gamma 90.000000
_cell_volume 2390.945926
_symmetry_space_group_name_H-M "A M M 2"
_symmetry_group_IT_number 38
_symmetry_cell_setting 'orthorhombic'
loop_
_space_group_symop_operation_xyz
x,y,z
-x,-y,z
-x,y,z
x,-y,z
x,1/2+y,1/2+z
-x,1/2-y,1/2+z
-x,1/2+y,1/2+z
x,1/2-y,1/2+z
loop_
_atom_site_type_symbol
_atom_site_label
_atom_site_fract_x
_atom_site_fract_y
_atom_site_fract_z
Si Si1 0.325296 0.500000 0.834420
Si Si2 0.319245 0.847960 0.569513
Si Si3 0.671408 0.893162 0.180355
Si Si4 0.673473 0.765006 0.744077
Si Si5 0.178721 0.422004 0.501798
Si Si6 0.821485 0.500000 0.019908
Si Si7 0.180564 0.730240 0.433713
O O1 0.500000 0.500000 0.871739
O O2 0.292666 0.571924 0.776772
O O3 0.203797 0.500000 0.913575
O O4 0.500000 0.848382 0.554443
O O5 0.276499 0.825778 0.671832
O O6 0.252561 0.793542 0.494306
O O7 0.253912 0.928409 0.561033
O O8 0.500000 0.915568 0.150094
O O9 0.687404 0.807641 0.186588
O O10 0.789915 0.922836 0.107986
O O11 0.500000 0.777190 0.778684
O O12 0.785475 0.759800 0.828590
O O13 0.240463 0.500000 0.462051
O O14 0.252007 0.349403 0.458385
O O15 0.000000 0.418756 0.484631
O O16 0.000000 0.500000 0.042062
O O17 0.000000 0.732991 0.450133
#
# Coordination Sequence:
#
# PCOD8178638 Si02
#       7
#     4   8   8   8   8   4   8
#     4  10  20  34  58  91 126 159 196 249 306 366
#     4  11  23  43  68  90 123 165 209 261 314 371
#     4  10  19  34  58  88 117 151 197 246 299 358
#     4  10  22  39  62  90 120 161 209 255 309 369
#     4  10  21  37  57  85 124 162 195 241 302 363
#     4  12  26  42  62  91 124 161 206 255 316 374
#     4  11  23  39  63  93 125 163 209 258 312 371
#
# _framework density 20.075735000000002
#
# number of rings (size 3 to 8) (size 9 to 14) (size 15 to 20)
#    0.000    1.500    2.500    2.750    0.000    4.667 
#    1.500    0.000    0.000    0.000    0.000    0.000 
#    0.000    0.000    0.000    0.000    0.000    0.000 
#
# Total GULP energy -297521.423272 kJ/mol
# GULP energy per Si atom -12396.725970 kJ/mol
# Density = 2.003004 g / cm^3
# Si number density = 20.075735 Si / 1000 Ang^3
#
#
#
# Elastic Constant Matrix: (Units=GPa)
#
#
# Indices 1 2 3 4 5 6 
#
# 1 63.6160 39.9003 31.7094 0.0000 0.0000 0.0000
# 2 39.9003 155.8894 41.4570 0.0000 0.0000 0.0000
# 3 31.7094 41.4570 79.7879 0.0000 0.0000 0.0000
# 4 0.0000 0.0000 0.0000 21.1990 0.0000 0.0000
# 5 0.0000 0.0000 0.0000 0.0000 27.6753 0.0000
# 6 0.0000 0.0000 0.0000 0.0000 0.0000 22.3606
#
#
#
# Elastic Compliance Matrix: (Units=1/GPa)
#
#
# Indices 1 2 3 4 5 6 
#
# 1 0.021308 -0.003715 -0.006538 0.000000 0.000000 0.000000
# 2 -0.003715 0.008091 -0.002728 0.000000 0.000000 0.000000
# 3 -0.006538 -0.002728 0.016549 0.000000 0.000000 0.000000
# 4 0.000000 0.000000 0.000000 0.047172 0.000000 0.000000
# 5 0.000000 0.000000 0.000000 0.000000 0.036133 0.000000
# 6 0.000000 0.000000 0.000000 0.000000 0.000000 0.044722
#
#
# Mechanical properties :
#
#
# Convention : Reuss Voigt Hill
#
# Bulk Modulus (GPa) = 50.03329 58.38076 54.20703
# Shear Modulus (GPa) = 24.20149 26.66209 25.43179
#
# Velocity S-wave (km/s) = 3.47581 3.64823 3.56306
# Velocity P-wave (km/s) = 6.40974 6.84759 6.63228
#
# Compressibility (1/GPa) = 0.01998669
#
# Stress axis : x y z
#
# Youngs Moduli (GPa) = 46.92987 123.59280 60.42746
#
# Poissons Ratio (x) = 0.45918 0.39508
# Poissons Ratio (y) = 0.17436 0.16482
# Poissons Ratio (z) = 0.30683 0.33710
#
# Static dielectric constant tensor:
#      x y z
#    x 3.554780 0.000000 0.000000 
#    y 0.000000 4.217650 0.000000 
#    z 0.000000 0.000000 3.445230 
# 
# 
# High freq. dielectric constant tensor:
#      x y z
#    x 1.773120 0.000000 0.000000 
#    y 0.000000 1.806580 0.000000 
#    z 0.000000 0.000000 1.770950 
# 
# From -- ./inp_files/12059.got.cif
#   From: 2010.03.12/outbox.cif.g09.slc.cpg/sg38_7_cif.got.tgz:12059.got - 2010.04.14 02:38:36.
