data_PCOD8178761
_publ_section_title
;
Structure prediction by ZEFSAII (Michael W. Deem and Ramdas Pophale) SiO2 
 PCOD8178761
Probable space group: A M M 2
;
_chemical_formula_sum "Si O2"
_cell_formula_units_Z 56
_cell_length_a 21.221333
_cell_length_b 8.708264
_cell_length_c 15.388299
_cell_angle_alpha 90.000000
_cell_angle_beta 90.000000
_cell_angle_gamma 90.000000
_cell_volume 2843.772585
_symmetry_space_group_name_H-M "A M M 2"
_symmetry_group_IT_number 38
_symmetry_cell_setting 'orthorhombic'
loop_
_space_group_symop_operation_xyz
x,y,z
-x,-y,z
-x,y,z
x,-y,z
x,1/2+y,1/2+z
-x,1/2-y,1/2+z
-x,1/2+y,1/2+z
x,1/2-y,1/2+z
loop_
_atom_site_type_symbol
_atom_site_label
_atom_site_fract_x
_atom_site_fract_y
_atom_site_fract_z
Si Si1 0.871373 0.681014 0.778290
Si Si2 0.865894 0.820881 0.957036
Si Si3 0.000000 0.176406 0.033831
Si Si4 0.573707 0.677820 0.273956
Si Si5 0.000000 0.679519 0.218708
Si Si6 0.212404 0.682065 0.620996
Si Si7 0.644397 0.680831 0.615327
Si Si8 0.427380 0.678622 0.954723
O O1 0.877466 0.500000 0.770657
O O2 0.844614 0.728634 0.871975
O O3 0.939454 0.753094 0.765723
O O4 0.823317 0.746466 0.705872
O O5 0.853675 0.000000 0.941353
O O6 0.823410 0.756633 0.035652
O O7 0.939089 0.787755 0.976277
O O8 0.000000 0.284222 0.117112
O O9 0.000000 0.000000 0.066569
O O10 0.500000 0.710125 0.261078
O O11 0.590205 0.500000 0.259660
O O12 0.610590 0.780501 0.205256
O O13 0.595021 0.727471 0.370248
O O14 0.000000 0.500000 0.234084
O O15 0.209764 0.500000 0.622400
O O16 0.283975 0.740118 0.621260
O O17 0.640052 0.500000 0.597843
O O18 0.612682 0.770278 0.536722
O O19 0.500000 0.714280 0.976136
O O20 0.416446 0.500000 0.936091
#
# Coordination Sequence:
#
# PCOD8178761 Si02
#       8
#     8   8   4   8   4   8   8   8
#     4  11  22  40  62  85 114 151 192 234 287 342
#     4  10  20  38  61  86 115 149 190 234 287 341
#     4  10  19  36  63  84 112 152 183 229 292 343
#     4  10  21  38  60  87 118 153 196 244 292 344
#     4  12  23  36  59  90 118 144 187 239 288 341
#     4   9  21  40  59  81 116 158 194 233 284 341
#     4  11  22  37  59  87 120 157 197 238 289 348
#     4  10  21  38  60  87 118 152 193 242 295 349
#
# _framework density 19.692152
#
# number of rings (size 3 to 8) (size 9 to 14) (size 15 to 20)
#    0.000    1.714    1.429    3.214    0.000    5.714 
#    0.000    7.143    0.000    0.000    0.000    0.000 
#    0.000    0.000    0.000    0.000    0.000    0.000 
#
# Total GULP energy -347335.987496 kJ/mol
# GULP energy per Si atom -12404.856696 kJ/mol
# Density = 1.964733 g / cm^3
# Si number density = 19.692152 Si / 1000 Ang^3
#
#
#
# Elastic Constant Matrix: (Units=GPa)
#
#
# Indices 1 2 3 4 5 6 
#
# 1 112.6398 27.7393 66.2492 0.0000 0.0000 0.0000
# 2 27.7393 57.5940 26.6217 0.0000 0.0000 0.0000
# 3 66.2492 26.6217 149.2515 0.0000 0.0000 0.0000
# 4 0.0000 0.0000 0.0000 40.4091 0.0000 0.0000
# 5 0.0000 0.0000 0.0000 0.0000 253.5591 0.0000
# 6 0.0000 0.0000 0.0000 0.0000 0.0000 16.4923
#
#
#
# Elastic Compliance Matrix: (Units=1/GPa)
#
#
# Indices 1 2 3 4 5 6 
#
# 1 0.012749 -0.003841 -0.004974 0.000000 0.000000 0.000000
# 2 -0.003841 0.020080 -0.001877 0.000000 0.000000 0.000000
# 3 -0.004974 -0.001877 0.009243 0.000000 0.000000 0.000000
# 4 0.000000 0.000000 0.000000 0.024747 0.000000 0.000000
# 5 0.000000 0.000000 0.000000 0.000000 0.003944 0.000000
# 6 0.000000 0.000000 0.000000 0.000000 0.000000 0.060634
#
#
# Mechanical properties :
#
#
# Convention : Reuss Voigt Hill
#
# Bulk Modulus (GPa) = 48.33596 62.30064 55.31830
# Shear Modulus (GPa) = 31.31310 75.35044 53.33177
#
# Velocity S-wave (km/s) = 3.99197 6.19252 5.20976
# Velocity P-wave (km/s) = 6.77103 9.10141 8.02130
#
# Compressibility (1/GPa) = 0.02068853
#
# Stress axis : x y z
#
# Youngs Moduli (GPa) = 78.43579 49.79958 108.19429
#
# Poissons Ratio (x) = 0.19130 0.53815
# Poissons Ratio (y) = 0.30130 0.20304
# Poissons Ratio (z) = 0.39013 0.09345
#
# Static dielectric constant tensor:
#      x y z
#    x 3.377290 0.000000 0.000000 
#    y 0.000000 3.457820 0.000000 
#    z 0.000000 0.000000 3.733740 
# 
# 
# High freq. dielectric constant tensor:
#      x y z
#    x 1.765170 0.000000 0.000000 
#    y 0.000000 1.757880 0.000000 
#    z 0.000000 0.000000 1.783440 
# 
# From -- ./inp_files/15578.got.cif
#   From: 2010.03.12/outbox.cif.g09.slc.cpg/sg38_8_cif.got.tgz:15578.got - 2010.04.14 02:38:36.
