data_PCOD8178969
_publ_section_title
;
Structure prediction by ZEFSAII (Michael W. Deem and Ramdas Pophale) SiO2 
 PCOD8178969
Probable space group: A M M 2
;
_chemical_formula_sum "Si O2"
_cell_formula_units_Z 64
_cell_length_a 8.781438
_cell_length_b 13.483222
_cell_length_c 29.436732
_cell_angle_alpha 90.000000
_cell_angle_beta 90.000000
_cell_angle_gamma 90.000000
_cell_volume 3485.370239
_symmetry_space_group_name_H-M "A M M 2"
_symmetry_group_IT_number 38
_symmetry_cell_setting 'orthorhombic'
loop_
_space_group_symop_operation_xyz
x,y,z
-x,-y,z
-x,y,z
x,-y,z
x,1/2+y,1/2+z
-x,1/2-y,1/2+z
-x,1/2+y,1/2+z
x,1/2-y,1/2+z
loop_
_atom_site_type_symbol
_atom_site_label
_atom_site_fract_x
_atom_site_fract_y
_atom_site_fract_z
Si Si1 0.824174 0.109226 0.875000
Si Si2 0.321960 0.307847 0.868514
Si Si3 0.321820 0.753408 0.205624
Si Si4 0.332965 0.607973 0.284155
Si Si5 0.833636 0.886766 0.451688
Si Si6 0.820728 0.384547 0.776226
Si Si7 0.179291 0.613651 0.132318
Si Si8 0.668119 0.383635 0.038665
O O1 0.721161 0.200979 0.891743
O O2 0.799271 0.107960 0.821081
O O3 0.000000 0.129640 0.886016
O O4 0.775290 0.000000 0.894756
O O5 0.500000 0.323532 0.866255
O O6 0.251972 0.386242 0.903352
O O7 0.256432 0.321760 0.817422
O O8 0.500000 0.773670 0.198016
O O9 0.280755 0.675341 0.243810
O O10 0.242282 0.852655 0.226055
O O11 0.253394 0.703761 0.160652
O O12 0.500000 0.641505 0.304554
O O13 0.350535 0.500000 0.262557
O O14 0.739403 0.835460 0.492760
O O15 0.000000 0.835309 0.447317
O O16 0.857479 0.000000 0.465286
O O17 0.780830 0.500000 0.783089
O O18 0.000000 0.365634 0.778143
O O19 0.235376 0.500000 0.144395
O O20 0.222439 0.639910 0.080781
O O21 0.000000 0.619381 0.138561
O O22 0.500000 0.337173 0.046716
O O23 0.650283 0.500000 0.031757
#
# Coordination Sequence:
#
# PCOD8178969 Si02
#       8
#     8   8   8   8   8   8   8   8
#     4  10  20  33  50  71  97 131 169 209 254 303
#     4  12  23  35  53  77 104 137 177 218 260 309
#     4  11  21  33  51  75 101 134 173 213 256 305
#     4   9  17  29  45  67  96 128 162 201 247 296
#     4  10  20  34  53  77 106 140 177 217 261 310
#     4  11  24  40  55  72  99 135 175 221 267 309
#     4  10  20  33  51  77 110 145 177 211 255 310
#     4   9  17  31  51  76 107 139 172 213 261 311
#
# _framework density 18.362468
#
# number of rings (size 3 to 8) (size 9 to 14) (size 15 to 20)
#    0.000    1.750    1.250    4.125    0.000    7.250 
#    0.000    1.250    0.000    0.000    0.000    0.875 
#    0.000    7.000    0.000    0.000    0.000    0.000 
#
# Total GULP energy -396449.522526 kJ/mol
# GULP energy per Si atom -12389.047579 kJ/mol
# Density = 1.832067 g / cm^3
# Si number density = 18.362468 Si / 1000 Ang^3
#
#
#
# Elastic Constant Matrix: (Units=GPa)
#
#
# Indices 1 2 3 4 5 6 
#
# 1 113.7953 27.4144 33.4343 0.0000 0.0000 0.0000
# 2 27.4144 56.1849 14.1358 0.0000 0.0000 0.0000
# 3 33.4343 14.1358 86.2938 0.0000 0.0000 0.0000
# 4 0.0000 0.0000 0.0000 20.6659 0.0000 0.0000
# 5 0.0000 0.0000 0.0000 0.0000 31.4687 0.0000
# 6 0.0000 0.0000 0.0000 0.0000 0.0000 22.2765
#
#
#
# Elastic Compliance Matrix: (Units=1/GPa)
#
#
# Indices 1 2 3 4 5 6 
#
# 1 0.010881 -0.004431 -0.003490 0.000000 0.000000 0.000000
# 2 -0.004431 0.020368 -0.001620 0.000000 0.000000 0.000000
# 3 -0.003490 -0.001620 0.013206 0.000000 0.000000 0.000000
# 4 0.000000 0.000000 0.000000 0.048389 0.000000 0.000000
# 5 0.000000 0.000000 0.000000 0.000000 0.031778 0.000000
# 6 0.000000 0.000000 0.000000 0.000000 0.000000 0.044890
#
#
# Mechanical properties :
#
#
# Convention : Reuss Voigt Hill
#
# Bulk Modulus (GPa) = 39.41154 45.13811 42.27483
# Shear Modulus (GPa) = 25.37432 26.96819 26.17125
#
# Velocity S-wave (km/s) = 3.72137 3.83647 3.77935
# Velocity P-wave (km/s) = 6.32254 6.65280 6.48977
#
# Compressibility (1/GPa) = 0.02537328
#
# Stress axis : x y z
#
# Youngs Moduli (GPa) = 91.90750 49.09688 75.72453
#
# Poissons Ratio (x) = 0.21755 0.26426
# Poissons Ratio (y) = 0.40724 0.12265
# Poissons Ratio (z) = 0.32074 0.07952
#
# Static dielectric constant tensor:
#      x y z
#    x 3.586010 0.000000 0.000000 
#    y 0.000000 3.517510 0.000000 
#    z 0.000000 0.000000 3.249870 
# 
# 
# High freq. dielectric constant tensor:
#      x y z
#    x 1.727510 0.000000 0.000000 
#    y 0.000000 1.688240 0.000000 
#    z 0.000000 0.000000 1.685400 
# 
# From -- ./inp_files/24768.got.cif
#   From: 2010.03.12/outbox.cif.g09.slc.cpg/sg38_13_cif.got.tgz:24768.got - 2010.04.14 02:38:36.
