data_PCOD8178928
_publ_section_title
;
Structure prediction by ZEFSAII (Michael W. Deem and Ramdas Pophale) SiO2 
 PCOD8178928
Probable space group: A M M 2
;
_chemical_formula_sum "Si O2"
_cell_formula_units_Z 48
_cell_length_a 7.795732
_cell_length_b 9.287494
_cell_length_c 34.631593
_cell_angle_alpha 90.000000
_cell_angle_beta 90.000000
_cell_angle_gamma 90.000000
_cell_volume 2507.424793
_symmetry_space_group_name_H-M "A M M 2"
_symmetry_group_IT_number 38
_symmetry_cell_setting 'orthorhombic'
loop_
_space_group_symop_operation_xyz
x,y,z
-x,-y,z
-x,y,z
x,-y,z
x,1/2+y,1/2+z
-x,1/2-y,1/2+z
-x,1/2+y,1/2+z
x,1/2-y,1/2+z
loop_
_atom_site_type_symbol
_atom_site_label
_atom_site_fract_x
_atom_site_fract_y
_atom_site_fract_z
Si Si1 0.701675 0.841265 0.925290
Si Si2 0.000000 0.831625 0.642669
Si Si3 0.796907 0.334575 0.771840
Si Si4 0.692471 0.671979 0.508859
Si Si5 0.000000 0.328781 0.562528
Si Si6 0.307213 0.664358 0.198113
Si Si7 0.199030 0.661083 0.344467
O O1 0.500000 0.853523 0.923498
O O2 0.767517 0.762187 0.886304
O O3 0.786779 0.000000 0.924376
O O4 0.749238 0.766340 0.966383
O O5 0.829659 0.786400 0.666046
O O6 0.000000 0.740691 0.604067
O O7 0.000000 0.000000 0.632547
O O8 0.741974 0.500000 0.773599
O O9 0.706554 0.263134 0.735417
O O10 0.722803 0.259051 0.810493
O O11 0.000000 0.316323 0.767676
O O12 0.500000 0.725841 0.520112
O O13 0.691514 0.500000 0.505841
O O14 0.829673 0.725702 0.540199
O O15 0.000000 0.500000 0.566602
O O16 0.500000 0.679439 0.181029
O O17 0.267836 0.500000 0.210389
O O18 0.281978 0.500000 0.343210
O O19 0.000000 0.649198 0.336621
#
# Coordination Sequence:
#
# PCOD8178928 Si02
#       7
#     8   4   8   8   4   8   8
#     4   8  14  25  42  66  97 131 168 214 260 296
#     4  10  22  40  58  79 110 135 161 210 263 314
#     4  10  20  34  52  75 108 145 177 215 264 313
#     4   8  15  28  46  73 107 135 166 214 261 299
#     4  10  20  32  54  81 102 133 171 204 253 316
#     4  10  21  38  61  83 102 134 177 217 261 312
#     4   9  17  27  44  71 100 133 176 221 259 299
#
# _framework density 19.143146999999999
#
# number of rings (size 3 to 8) (size 9 to 14) (size 15 to 20)
#    0.000    2.833    0.833    1.500    1.167    3.000 
#    0.000    1.667    0.000    1.000    0.000    2.333 
#    0.000    0.000    0.000    0.000    0.000    0.000 
#
# Total GULP energy -297411.289029 kJ/mol
# GULP energy per Si atom -12392.137043 kJ/mol
# Density = 1.909958 g / cm^3
# Si number density = 19.143147 Si / 1000 Ang^3
#
#
#
# Elastic Constant Matrix: (Units=GPa)
#
#
# Indices 1 2 3 4 5 6 
#
# 1 93.8075 29.7190 71.9342 0.0000 0.0000 0.0000
# 2 29.7190 53.3673 53.9783 0.0000 0.0000 0.0000
# 3 71.9342 53.9783 178.4996 0.0000 0.0000 0.0000
# 4 0.0000 0.0000 0.0000 23.1469 0.0000 0.0000
# 5 0.0000 0.0000 0.0000 0.0000 15.7754 0.0000
# 6 0.0000 0.0000 0.0000 0.0000 0.0000 12.1661
#
#
#
# Elastic Compliance Matrix: (Units=1/GPa)
#
#
# Indices 1 2 3 4 5 6 
#
# 1 0.015846 -0.003408 -0.005356 0.000000 0.000000 0.000000
# 2 -0.003408 0.027727 -0.007012 0.000000 0.000000 0.000000
# 3 -0.005356 -0.007012 0.009881 0.000000 0.000000 0.000000
# 4 0.000000 0.000000 0.000000 0.043202 0.000000 0.000000
# 5 0.000000 0.000000 0.000000 0.000000 0.063390 0.000000
# 6 0.000000 0.000000 0.000000 0.000000 0.000000 0.082195
#
#
# Mechanical properties :
#
#
# Convention : Reuss Voigt Hill
#
# Bulk Modulus (GPa) = 45.65106 70.77081 58.21093
# Shear Modulus (GPa) = 17.78766 21.55387 19.67077
#
# Velocity S-wave (km/s) = 3.05157 3.35913 3.20904
# Velocity P-wave (km/s) = 6.02620 7.21765 6.64867
#
# Compressibility (1/GPa) = 0.02190530
#
# Stress axis : x y z
#
# Youngs Moduli (GPa) = 63.10543 36.06528 101.20631
#
# Poissons Ratio (x) = 0.12290 0.54202
# Poissons Ratio (y) = 0.21504 0.70961
# Poissons Ratio (z) = 0.33797 0.25287
#
# Static dielectric constant tensor:
#      x y z
#    x 3.563120 0.000000 0.000000 
#    y 0.000000 3.181030 0.000000 
#    z 0.000000 0.000000 3.656090 
# 
# 
# High freq. dielectric constant tensor:
#      x y z
#    x 1.746080 0.000000 0.000000 
#    y 0.000000 1.689210 0.000000 
#    z 0.000000 0.000000 1.751370 
# 
# From -- ./inp_files/24418.got.cif
#   From: 2010.03.12/outbox.cif.g09.slc.cpg/sg38_13_cif.got.tgz:24418.got - 2010.04.14 02:38:36.
