data_PCOD8178058
_publ_section_title
;
Structure prediction by ZEFSAII (Michael W. Deem and Ramdas Pophale) SiO2 
 PCOD8178058
Probable space group: A M M 2
;
_chemical_formula_sum "Si O2"
_cell_formula_units_Z 48
_cell_length_a 10.331498
_cell_length_b 25.234025
_cell_length_c 9.427086
_cell_angle_alpha 90.000000
_cell_angle_beta 90.000000
_cell_angle_gamma 90.000000
_cell_volume 2457.691084
_symmetry_space_group_name_H-M "A M M 2"
_symmetry_group_IT_number 38
_symmetry_cell_setting 'orthorhombic'
loop_
_space_group_symop_operation_xyz
x,y,z
-x,-y,z
-x,y,z
x,-y,z
x,1/2+y,1/2+z
-x,1/2-y,1/2+z
-x,1/2+y,1/2+z
x,1/2-y,1/2+z
loop_
_atom_site_type_symbol
_atom_site_label
_atom_site_fract_x
_atom_site_fract_y
_atom_site_fract_z
Si Si1 0.360736 0.723136 0.336480
Si Si2 0.143683 0.355345 0.680345
Si Si3 0.142540 0.129559 0.508166
Si Si4 0.649265 0.560562 0.176793
Si Si5 0.355778 0.890913 0.963108
Si Si6 0.794382 0.241225 0.581859
O O1 0.500000 0.747689 0.374618
O O2 0.357035 0.661530 0.369263
O O3 0.246590 0.752033 0.419463
O O4 0.336841 0.733148 0.171118
O O5 0.182760 0.363012 0.843993
O O6 0.249545 0.387398 0.587678
O O7 0.132876 0.293184 0.639154
O O8 0.000000 0.379056 0.652194
O O9 0.252177 0.095149 0.583770
O O10 0.124549 0.186911 0.585366
O O11 0.000000 0.102488 0.520233
O O12 0.500000 0.578437 0.148381
O O13 0.669536 0.500000 0.130969
O O14 0.679623 0.564583 0.346127
O O15 0.500000 0.900764 0.029148
#
# Coordination Sequence:
#
# PCOD8178058 Si02
#       6
#     8   8   8   8   8   8
#     4  10  19  30  50  79 114 152 189 230 279 333
#     4  10  22  38  55  83 120 159 196 229 273 336
#     4  11  23  38  57  85 120 158 196 238 285 338
#     4  10  22  42  66  89 112 142 187 245 301 350
#     4   9  19  37  58  84 112 144 187 237 286 338
#     4  11  19  35  50  80 118 158 194 231 272 334
#
# _framework density 19.530525999999998
#
# number of rings (size 3 to 8) (size 9 to 14) (size 15 to 20)
#    0.000    1.833    3.333    1.000    0.000    3.000 
#    0.000    0.833    0.000    3.000    0.000    0.000 
#    0.000    0.000    0.000    0.000    0.000    0.000 
#
# Total GULP energy -297357.810964 kJ/mol
# GULP energy per Si atom -12389.908790 kJ/mol
# Density = 1.948607 g / cm^3
# Si number density = 19.530526 Si / 1000 Ang^3
#
#
#
# Elastic Constant Matrix: (Units=GPa)
#
#
# Indices 1 2 3 4 5 6 
#
# 1 133.0343 44.9349 67.1267 0.0000 0.0000 0.0000
# 2 44.9349 65.0305 33.7005 0.0000 0.0000 0.0000
# 3 67.1267 33.7005 108.0613 0.0000 0.0000 0.0000
# 4 0.0000 0.0000 0.0000 22.1992 0.0000 0.0000
# 5 0.0000 0.0000 0.0000 0.0000 32.5523 0.0000
# 6 0.0000 0.0000 0.0000 0.0000 0.0000 13.5803
#
#
#
# Elastic Compliance Matrix: (Units=1/GPa)
#
#
# Indices 1 2 3 4 5 6 
#
# 1 0.012381 -0.005450 -0.005991 0.000000 0.000000 0.000000
# 2 -0.005450 0.020741 -0.003083 0.000000 0.000000 0.000000
# 3 -0.005991 -0.003083 0.013937 0.000000 0.000000 0.000000
# 4 0.000000 0.000000 0.000000 0.045047 0.000000 0.000000
# 5 0.000000 0.000000 0.000000 0.000000 0.030720 0.000000
# 6 0.000000 0.000000 0.000000 0.000000 0.000000 0.073636
#
#
# Mechanical properties :
#
#
# Convention : Reuss Voigt Hill
#
# Bulk Modulus (GPa) = 55.52269 66.40561 60.96415
# Shear Modulus (GPa) = 21.59707 24.35730 22.97718
#
# Velocity S-wave (km/s) = 3.32898 3.53532 3.43370
# Velocity P-wave (km/s) = 6.57773 7.12316 6.85587
#
# Compressibility (1/GPa) = 0.01801065
#
# Stress axis : x y z
#
# Youngs Moduli (GPa) = 80.77058 48.21391 71.75124
#
# Poissons Ratio (x) = 0.26277 0.42987
# Poissons Ratio (y) = 0.44021 0.22119
# Poissons Ratio (z) = 0.48391 0.14863
#
# Static dielectric constant tensor:
#      x y z
#    x 3.581760 0.000000 0.000000 
#    y 0.000000 3.341680 0.000000 
#    z 0.000000 0.000000 3.468820 
# 
# 
# High freq. dielectric constant tensor:
#      x y z
#    x 1.766520 0.000000 0.000000 
#    y 0.000000 1.729380 0.000000 
#    z 0.000000 0.000000 1.760830 
# 
# From -- ./inp_files/4623.got.cif
#   From: 2010.03.12/outbox.cif.g09.slc.cpg/sg38_3_cif.got.tgz:4623.got - 2010.04.14 02:38:36.
