data_PCOD8178968
_publ_section_title
;
Structure prediction by ZEFSAII (Michael W. Deem and Ramdas Pophale) SiO2 
 PCOD8178968
Probable space group: A M M 2
;
_chemical_formula_sum "Si O2"
_cell_formula_units_Z 48
_cell_length_a 9.421196
_cell_length_b 23.450172
_cell_length_c 12.026505
_cell_angle_alpha 90.000000
_cell_angle_beta 90.000000
_cell_angle_gamma 90.000000
_cell_volume 2656.999714
_symmetry_space_group_name_H-M "A M M 2"
_symmetry_group_IT_number 38
_symmetry_cell_setting 'orthorhombic'
loop_
_space_group_symop_operation_xyz
x,y,z
-x,-y,z
-x,y,z
x,-y,z
x,1/2+y,1/2+z
-x,1/2-y,1/2+z
-x,1/2+y,1/2+z
x,1/2-y,1/2+z
loop_
_atom_site_type_symbol
_atom_site_label
_atom_site_fract_x
_atom_site_fract_y
_atom_site_fract_z
Si Si1 0.168310 0.344510 0.730990
Si Si2 0.832179 0.385467 0.142061
Si Si3 0.835063 0.641314 0.477992
Si Si4 0.656794 0.064832 0.829316
Si Si5 0.167992 0.935165 0.405956
Si Si6 0.164574 0.721597 0.279984
O O1 0.213650 0.349003 0.603397
O O2 0.228757 0.398056 0.802335
O O3 0.235525 0.284213 0.772256
O O4 0.000000 0.344537 0.745661
O O5 0.748199 0.430266 0.217263
O O6 0.782724 0.322195 0.183125
O O7 0.000000 0.393535 0.162207
O O8 0.789216 0.399286 0.015736
O O9 0.739595 0.590727 0.433171
O O10 0.805276 0.697323 0.403106
O O11 0.000000 0.623983 0.469901
O O12 0.500000 0.092989 0.814777
O O13 0.637382 0.000000 0.860051
O O14 0.000000 0.940411 0.399030
O O15 0.231691 0.000000 0.405468
O O16 0.000000 0.730649 0.258339
#
# Coordination Sequence:
#
# PCOD8178968 Si02
#       6
#     8   8   8   8   8   8
#     4   9  17  27  44  71 103 132 159 199 245 294
#     4   9  17  30  50  75  99 125 161 206 247 289
#     4   9  18  31  48  73  99 127 163 202 245 291
#     4  10  20  33  50  71  96 128 164 204 249 292
#     4   9  17  27  41  67 102 135 162 195 243 292
#     4   8  15  26  43  69  96 122 159 202 245 284
#
# _framework density 18.065488999999999
#
# number of rings (size 3 to 8) (size 9 to 14) (size 15 to 20)
#    0.000    3.000    0.000    2.000    2.333    2.667 
#    0.000    1.667    0.000    5.000    0.000    2.333 
#    0.000    0.000    0.000    0.000    0.000    0.000 
#
# Total GULP energy -297383.332135 kJ/mol
# GULP energy per Si atom -12390.972172 kJ/mol
# Density = 1.802437 g / cm^3
# Si number density = 18.065489 Si / 1000 Ang^3
#
#
#
# Elastic Constant Matrix: (Units=GPa)
#
#
# Indices 1 2 3 4 5 6 
#
# 1 39.8610 20.4389 27.9062 0.0000 0.0000 0.0000
# 2 20.4389 133.9414 79.7853 0.0000 0.0000 0.0000
# 3 27.9062 79.7853 157.0785 0.0000 0.0000 0.0000
# 4 0.0000 0.0000 0.0000 21.0957 0.0000 0.0000
# 5 0.0000 0.0000 0.0000 0.0000 3.2078 0.0000
# 6 0.0000 0.0000 0.0000 0.0000 0.0000 8.1050
#
#
#
# Elastic Compliance Matrix: (Units=1/GPa)
#
#
# Indices 1 2 3 4 5 6 
#
# 1 0.029000 -0.001945 -0.004164 0.000000 0.000000 0.000000
# 2 -0.001945 0.010835 -0.005158 0.000000 0.000000 0.000000
# 3 -0.004164 -0.005158 0.009726 0.000000 0.000000 0.000000
# 4 0.000000 0.000000 0.000000 0.047403 0.000000 0.000000
# 5 0.000000 0.000000 0.000000 0.000000 0.311741 0.000000
# 6 0.000000 0.000000 0.000000 0.000000 0.000000 0.123381
#
#
# Mechanical properties :
#
#
# Convention : Reuss Voigt Hill
#
# Bulk Modulus (GPa) = 37.00019 65.23795 51.11907
# Shear Modulus (GPa) = 8.87109 19.99840 14.43474
#
# Velocity S-wave (km/s) = 2.21837 3.33076 2.82977
# Velocity P-wave (km/s) = 5.20453 7.14019 6.24778
#
# Compressibility (1/GPa) = 0.02702688
#
# Stress axis : x y z
#
# Youngs Moduli (GPa) = 34.48317 92.29149 102.81706
#
# Poissons Ratio (x) = 0.17948 0.42815
# Poissons Ratio (y) = 0.06706 0.53034
# Poissons Ratio (z) = 0.14360 0.47605
#
# Static dielectric constant tensor:
#      x y z
#    x 2.898640 0.000000 0.000000 
#    y 0.000000 3.610850 0.000000 
#    z 0.000000 0.000000 3.521070 
# 
# 
# High freq. dielectric constant tensor:
#      x y z
#    x 1.637270 0.000000 0.000000 
#    y 0.000000 1.706140 0.000000 
#    z 0.000000 0.000000 1.703010 
# 
# From -- ./inp_files/8110.got.cif
#   From: 2010.03.12/outbox.cif.g09.slc.cpg/sg38_5_cif.got.tgz:8110.got - 2010.04.14 02:38:36.
