data_PCOD8178522
_publ_section_title
;
Structure prediction by ZEFSAII (Michael W. Deem and Ramdas Pophale) SiO2 
 PCOD8178522
Probable space group: A M M 2
;
_chemical_formula_sum "Si O2"
_cell_formula_units_Z 64
_cell_length_a 18.131613
_cell_length_b 8.991625
_cell_length_c 20.493244
_cell_angle_alpha 90.000000
_cell_angle_beta 90.000000
_cell_angle_gamma 90.000000
_cell_volume 3341.068179
_symmetry_space_group_name_H-M "A M M 2"
_symmetry_group_IT_number 38
_symmetry_cell_setting 'orthorhombic'
loop_
_space_group_symop_operation_xyz
x,y,z
-x,-y,z
-x,y,z
x,-y,z
x,1/2+y,1/2+z
-x,1/2-y,1/2+z
-x,1/2+y,1/2+z
x,1/2-y,1/2+z
loop_
_atom_site_type_symbol
_atom_site_label
_atom_site_fract_x
_atom_site_fract_y
_atom_site_fract_z
Si Si1 0.084758 0.171780 0.351470
Si Si2 0.656784 0.672482 0.478177
Si Si3 0.161780 0.664566 0.092162
Si Si4 0.316812 0.174841 0.235909
Si Si5 0.585162 0.169763 0.359390
Si Si6 0.839653 0.824113 0.735852
Si Si7 0.171399 0.172102 0.965421
Si Si8 0.663778 0.333778 0.106979
O O1 0.099972 0.263103 0.285726
O O2 0.134624 0.231243 0.409658
O O3 0.000000 0.194205 0.371003
O O4 0.104180 0.000000 0.339354
O O5 0.643925 0.500000 0.490658
O O6 0.607114 0.724694 0.418585
O O7 0.741981 0.706271 0.462377
O O8 0.629499 0.756587 0.543164
O O9 0.132856 0.500000 0.072950
O O10 0.130283 0.713521 0.162885
O O11 0.248966 0.661316 0.100029
O O12 0.138261 0.779476 0.035791
O O13 0.369163 0.215194 0.295889
O O14 0.238100 0.247387 0.250757
O O15 0.356043 0.240945 0.171579
O O16 0.306084 0.000000 0.225900
O O17 0.500000 0.193668 0.342446
O O18 0.602062 0.000000 0.379533
O O19 0.828850 0.000000 0.744423
O O20 0.153072 0.000000 0.954252
O O21 0.631252 0.500000 0.113190
#
# Coordination Sequence:
#
# PCOD8178522 Si02
#       8
#     8   8   8   8   8   8   8   8
#     4  11  24  39  54  75 106 143 181 220 262 311
#     4  10  20  34  55  83 109 136 175 220 266 316
#     4   8  16  31  52  79 108 136 168 210 260 310
#     4  10  19  33  56  82 108 139 176 221 268 315
#     4  10  22  38  53  73 105 144 182 219 263 315
#     4  10  20  35  57  83 109 138 174 217 265 319
#     4  10  20  34  56  83 108 136 173 217 262 313
#     4   9  17  31  53  80 109 139 173 216 264 315
#
# _framework density 19.155550000000002
#
# number of rings (size 3 to 8) (size 9 to 14) (size 15 to 20)
#    0.000    2.250    0.000    3.750    0.000    9.250 
#    0.000    1.250    0.000    3.000    0.000    0.000 
#    0.000    0.000    0.000    0.000    0.000    0.000 
#
# Total GULP energy -396846.762559 kJ/mol
# GULP energy per Si atom -12401.461330 kJ/mol
# Density = 1.911195 g / cm^3
# Si number density = 19.155550 Si / 1000 Ang^3
#
#
#
# Elastic Constant Matrix: (Units=GPa)
#
#
# Indices 1 2 3 4 5 6 
#
# 1 31.8812 22.2313 16.4762 0.0000 0.0000 0.0000
# 2 22.2313 96.1973 46.1837 0.0000 0.0000 0.0000
# 3 16.4762 46.1837 115.2188 0.0000 0.0000 0.0000
# 4 0.0000 0.0000 0.0000 41.8550 0.0000 0.0000
# 5 0.0000 0.0000 0.0000 0.0000 1.4524 0.0000
# 6 0.0000 0.0000 0.0000 0.0000 0.0000 21.5158
#
#
#
# Elastic Compliance Matrix: (Units=1/GPa)
#
#
# Indices 1 2 3 4 5 6 
#
# 1 0.037905 -0.007625 -0.002364 0.000000 0.000000 0.000000
# 2 -0.007625 0.014406 -0.004684 0.000000 0.000000 0.000000
# 3 -0.002364 -0.004684 0.010895 0.000000 0.000000 0.000000
# 4 0.000000 0.000000 0.000000 0.023892 0.000000 0.000000
# 5 0.000000 0.000000 0.000000 0.000000 0.688529 0.000000
# 6 0.000000 0.000000 0.000000 0.000000 0.000000 0.046477
#
#
# Mechanical properties :
#
#
# Convention : Reuss Voigt Hill
#
# Bulk Modulus (GPa) = 29.53348 45.89776 37.71562
# Shear Modulus (GPa) = 5.79550 23.52504 14.66027
#
# Velocity S-wave (km/s) = 1.74128 3.50824 2.76946
# Velocity P-wave (km/s) = 4.41519 6.35790 5.47343
#
# Compressibility (1/GPa) = 0.03385987
#
# Stress axis : x y z
#
# Youngs Moduli (GPa) = 26.38155 69.41413 91.78701
#
# Poissons Ratio (x) = 0.52928 0.21699
# Poissons Ratio (y) = 0.20116 0.42995
# Poissons Ratio (z) = 0.06237 0.32515
#
# Static dielectric constant tensor:
#      x y z
#    x 3.149590 0.000000 0.000000 
#    y 0.000000 3.651910 0.000000 
#    z 0.000000 0.000000 3.833270 
# 
# 
# High freq. dielectric constant tensor:
#      x y z
#    x 1.705750 0.000000 0.000000 
#    y 0.000000 1.757070 0.000000 
#    z 0.000000 0.000000 1.761870 
# 
# From -- ./inp_files/21457.got.cif
#   From: 2010.03.12/outbox.cif.g09.slc.cpg/sg38_11_cif.got.tgz:21457.got - 2010.04.14 02:38:36.
