data_PCOD8178852
_publ_section_title
;
Structure prediction by ZEFSAII (Michael W. Deem and Ramdas Pophale) SiO2 
 PCOD8178852
Probable space group: A M M 2
;
_chemical_formula_sum "Si O2"
_cell_formula_units_Z 64
_cell_length_a 9.445795
_cell_length_b 15.764556
_cell_length_c 23.489264
_cell_angle_alpha 90.000000
_cell_angle_beta 90.000000
_cell_angle_gamma 90.000000
_cell_volume 3497.757275
_symmetry_space_group_name_H-M "A M M 2"
_symmetry_group_IT_number 38
_symmetry_cell_setting 'orthorhombic'
loop_
_space_group_symop_operation_xyz
x,y,z
-x,-y,z
-x,y,z
x,-y,z
x,1/2+y,1/2+z
-x,1/2-y,1/2+z
-x,1/2+y,1/2+z
x,1/2-y,1/2+z
loop_
_atom_site_type_symbol
_atom_site_label
_atom_site_fract_x
_atom_site_fract_y
_atom_site_fract_z
Si Si1 0.166600 0.240197 0.167020
Si Si2 0.660176 0.594894 0.981705
Si Si3 0.654676 0.098151 0.841502
Si Si4 0.157105 0.677660 0.426989
Si Si5 0.165792 0.402917 0.234602
Si Si6 0.839076 0.639630 0.876375
Si Si7 0.168296 0.904558 0.249935
Si Si8 0.834513 0.733228 0.040933
O O1 0.211410 0.335454 0.186250
O O2 0.233504 0.164227 0.205286
O O3 0.214115 0.228646 0.101513
O O4 0.000000 0.231859 0.172404
O O5 0.500000 0.629841 0.974459
O O6 0.657729 0.500000 0.006005
O O7 0.736976 0.593368 0.920696
O O8 0.744356 0.649763 0.027900
O O9 0.500000 0.143184 0.839360
O O10 0.728328 0.112893 0.902497
O O11 0.754582 0.130202 0.790769
O O12 0.631311 0.000000 0.833602
O O13 0.165561 0.760592 0.387746
O O14 0.195729 0.696946 0.492510
O O15 0.000000 0.637795 0.423571
O O16 0.206841 0.500000 0.216820
O O17 0.000000 0.397700 0.248212
O O18 0.781167 0.620348 0.813294
O O19 0.000000 0.605633 0.884015
O O20 0.000000 0.901316 0.247628
O O21 0.221601 0.000000 0.234821
O O22 0.000000 0.707254 0.040849
#
# Coordination Sequence:
#
# PCOD8178852 Si02
#       8
#     8   8   8   8   8   8   8   8
#     4   9  17  31  49  70  97 126 162 204 238 282
#     4  10  20  32  47  71 102 131 158 193 239 289
#     4  10  20  32  47  70  98 126 158 197 242 294
#     4   9  17  30  48  70  94 122 159 202 245 285
#     4   9  17  30  50  74  99 128 159 195 242 289
#     4   9  17  30  50  75 100 126 158 194 235 291
#     4   9  16  26  45  74 103 128 154 192 244 291
#     4   9  19  34  51  70  93 125 165 204 239 280
#
# _framework density 18.297438
#
# number of rings (size 3 to 8) (size 9 to 14) (size 15 to 20)
#    0.000    2.750    0.000    2.625    0.000    6.750 
#    0.000    2.500    0.000    4.500    0.000    0.000 
#    0.000    0.000    0.000    0.000    0.000    0.000 
#
# Total GULP energy -396629.725769 kJ/mol
# GULP energy per Si atom -12394.678930 kJ/mol
# Density = 1.825579 g / cm^3
# Si number density = 18.297438 Si / 1000 Ang^3
#
#
#
# Elastic Constant Matrix: (Units=GPa)
#
#
# Indices 1 2 3 4 5 6 
#
# 1 60.5151 14.2410 32.3940 0.0000 0.0000 0.0000
# 2 14.2410 61.4511 54.4694 0.0000 0.0000 0.0000
# 3 32.3940 54.4694 139.7448 0.0000 0.0000 0.0000
# 4 0.0000 0.0000 0.0000 18.5633 0.0000 0.0000
# 5 0.0000 0.0000 0.0000 0.0000 3.9262 0.0000
# 6 0.0000 0.0000 0.0000 0.0000 0.0000 16.9275
#
#
#
# Elastic Compliance Matrix: (Units=1/GPa)
#
#
# Indices 1 2 3 4 5 6 
#
# 1 0.018889 -0.000758 -0.004083 0.000000 0.000000 0.000000
# 2 -0.000758 0.024894 -0.009527 0.000000 0.000000 0.000000
# 3 -0.004083 -0.009527 0.011816 0.000000 0.000000 0.000000
# 4 0.000000 0.000000 0.000000 0.053870 0.000000 0.000000
# 5 0.000000 0.000000 0.000000 0.000000 0.254697 0.000000
# 6 0.000000 0.000000 0.000000 0.000000 0.000000 0.059075
#
#
# Mechanical properties :
#
#
# Convention : Reuss Voigt Hill
#
# Bulk Modulus (GPa) = 37.22817 51.54665 44.38741
# Shear Modulus (GPa) = 10.84759 18.59051 14.71905
#
# Velocity S-wave (km/s) = 2.43749 3.19096 2.83933
# Velocity P-wave (km/s) = 5.32091 6.46599 5.92119
#
# Compressibility (1/GPa) = 0.02686138
#
# Stress axis : x y z
#
# Youngs Moduli (GPa) = 52.94105 40.17095 84.63184
#
# Poissons Ratio (x) = 0.03046 0.34556
# Poissons Ratio (y) = 0.04014 0.80631
# Poissons Ratio (z) = 0.21616 0.38272
#
# Static dielectric constant tensor:
#      x y z
#    x 3.351080 0.000000 0.000000 
#    y 0.000000 3.346160 0.000000 
#    z 0.000000 0.000000 3.432890 
# 
# 
# High freq. dielectric constant tensor:
#      x y z
#    x 1.679900 0.000000 0.000000 
#    y 0.000000 1.699250 0.000000 
#    z 0.000000 0.000000 1.703270 
# 
# From -- ./inp_files/20094.got.cif
#   From: 2010.03.12/outbox.cif.g09.slc.cpg/sg38_11_cif.got.tgz:20094.got - 2010.04.14 02:38:36.
