data_PCOD8178116
_publ_section_title
;
Structure prediction by ZEFSAII (Michael W. Deem and Ramdas Pophale) SiO2 
 PCOD8178116
Probable space group: A M M 2
;
_chemical_formula_sum "Si O2"
_cell_formula_units_Z 56
_cell_length_a 23.710275
_cell_length_b 9.390780
_cell_length_c 14.401566
_cell_angle_alpha 90.000000
_cell_angle_beta 90.000000
_cell_angle_gamma 90.000000
_cell_volume 3206.623541
_symmetry_space_group_name_H-M "A M M 2"
_symmetry_group_IT_number 38
_symmetry_cell_setting 'orthorhombic'
loop_
_space_group_symop_operation_xyz
x,y,z
-x,-y,z
-x,y,z
x,-y,z
x,1/2+y,1/2+z
-x,1/2-y,1/2+z
-x,1/2+y,1/2+z
x,1/2-y,1/2+z
loop_
_atom_site_type_symbol
_atom_site_label
_atom_site_fract_x
_atom_site_fract_y
_atom_site_fract_z
Si Si1 0.642181 0.168654 0.743520
Si Si2 0.229770 0.665901 0.223907
Si Si3 0.563927 0.833805 0.377922
Si Si4 0.154388 0.166570 0.088509
Si Si5 0.861064 0.833942 0.876717
Si Si6 0.935564 0.834943 0.241338
Si Si7 0.438919 0.668613 0.087043
O O1 0.706793 0.218129 0.741498
O O2 0.610600 0.241579 0.827662
O O3 0.611733 0.225748 0.650447
O O4 0.637213 0.000000 0.755292
O O5 0.227166 0.500000 0.198485
O O6 0.206126 0.750506 0.135366
O O7 0.195333 0.699279 0.317984
O O8 0.500000 0.802767 0.343188
O O9 0.570737 0.780200 0.482884
O O10 0.577899 0.000000 0.366511
O O11 0.097882 0.201917 0.146726
O O12 0.168846 0.000000 0.090650
O O13 0.146840 0.219544 0.982513
O O14 0.912999 0.752045 0.829691
O O15 0.876124 0.000000 0.875466
O O16 0.000000 0.791863 0.223179
O O17 0.928937 0.000000 0.266501
O O18 0.500000 0.725484 0.123081
O O19 0.440100 0.500000 0.088922
#
# Coordination Sequence:
#
# PCOD8178116 Si02
#       7
#     8   8   8   8   8   8   8
#     4  10  19  31  49  71  94 123 158 195 237 284
#     4   9  19  33  47  69  99 125 156 200 240 277
#     4   9  18  32  48  67  92 120 152 193 238 284
#     4   9  18  33  52  70  92 128 165 193 229 278
#     4   9  18  33  51  70  96 130 162 193 236 285
#     4   9  18  32  49  72  99 122 153 198 236 272
#     4   8  15  29  47  65  88 120 154 186 228 286
#
# _framework density 17.463853
#
# number of rings (size 3 to 8) (size 9 to 14) (size 15 to 20)
#    0.000    3.000    0.000    1.286    0.000    4.000 
#    0.000    2.143    0.000    0.857    0.000    0.000 
#    0.000    0.000    0.000    0.000    0.000    0.000 
#
# Total GULP energy -347125.635719 kJ/mol
# GULP energy per Si atom -12397.344133 kJ/mol
# Density = 1.742410 g / cm^3
# Si number density = 17.463853 Si / 1000 Ang^3
#
#
#
# Elastic Constant Matrix: (Units=GPa)
#
#
# Indices 1 2 3 4 5 6 
#
# 1 147.1013 40.7732 68.4556 0.0000 0.0000 0.0000
# 2 40.7732 33.4755 36.2351 0.0000 0.0000 0.0000
# 3 68.4556 36.2351 132.1238 0.0000 0.0000 0.0000
# 4 0.0000 0.0000 0.0000 26.9221 0.0000 0.0000
# 5 0.0000 0.0000 0.0000 0.0000 20.9786 0.0000
# 6 0.0000 0.0000 0.0000 0.0000 0.0000 25.8156
#
#
#
# Elastic Compliance Matrix: (Units=1/GPa)
#
#
# Indices 1 2 3 4 5 6 
#
# 1 0.010980 -0.010262 -0.002875 0.000000 0.000000 0.000000
# 2 -0.010262 0.052076 -0.008965 0.000000 0.000000 0.000000
# 3 -0.002875 -0.008965 0.011517 0.000000 0.000000 0.000000
# 4 0.000000 0.000000 0.000000 0.037144 0.000000 0.000000
# 5 0.000000 0.000000 0.000000 0.000000 0.047668 0.000000
# 6 0.000000 0.000000 0.000000 0.000000 0.000000 0.038736
#
#
# Mechanical properties :
#
#
# Convention : Reuss Voigt Hill
#
# Bulk Modulus (GPa) = 32.92791 67.06985 49.99888
# Shear Modulus (GPa) = 19.80606 25.89237 22.84922
#
# Velocity S-wave (km/s) = 3.37132 3.85467 3.62107
# Velocity P-wave (km/s) = 5.83526 7.63542 6.79521
#
# Compressibility (1/GPa) = 0.03036937
#
# Stress axis : x y z
#
# Youngs Moduli (GPa) = 91.07228 19.20266 86.83095
#
# Poissons Ratio (x) = 0.19707 0.24960
# Poissons Ratio (y) = 0.93463 0.77842
# Poissons Ratio (z) = 0.26179 0.17215
#
# Static dielectric constant tensor:
#      x y z
#    x 3.251820 0.000000 0.000000 
#    y 0.000000 3.038570 0.000000 
#    z 0.000000 0.000000 3.375760 
# 
# 
# High freq. dielectric constant tensor:
#      x y z
#    x 1.677280 0.000000 0.000000 
#    y 0.000000 1.655210 0.000000 
#    z 0.000000 0.000000 1.678130 
# 
# From -- ./inp_files/10754.got.cif
#   From: 2010.03.12/outbox.cif.g09.slc.cpg/sg38_6_cif.got.tgz:10754.got - 2010.04.14 02:38:36.
