data_PCOD8178112
_publ_section_title
;
Structure prediction by ZEFSAII (Michael W. Deem and Ramdas Pophale) SiO2 
 PCOD8178112
Probable space group: A M M 2
;
_chemical_formula_sum "Si O2"
_cell_formula_units_Z 64
_cell_length_a 20.840067
_cell_length_b 8.973016
_cell_length_c 19.011646
_cell_angle_alpha 90.000000
_cell_angle_beta 90.000000
_cell_angle_gamma 90.000000
_cell_volume 3555.144620
_symmetry_space_group_name_H-M "A M M 2"
_symmetry_group_IT_number 38
_symmetry_cell_setting 'orthorhombic'
loop_
_space_group_symop_operation_xyz
x,y,z
-x,-y,z
-x,y,z
x,-y,z
x,1/2+y,1/2+z
-x,1/2-y,1/2+z
-x,1/2+y,1/2+z
x,1/2-y,1/2+z
loop_
_atom_site_type_symbol
_atom_site_label
_atom_site_fract_x
_atom_site_fract_y
_atom_site_fract_z
Si Si1 0.301877 0.176449 0.955680
Si Si2 0.927894 0.675728 0.612496
Si Si3 0.429596 0.673710 0.959677
Si Si4 0.183218 0.177436 0.212323
Si Si5 0.927494 0.173979 0.469010
Si Si6 0.187971 0.323993 0.870887
Si Si7 0.294921 0.672671 0.616544
Si Si8 0.568006 0.830036 0.104724
O O1 0.370532 0.234917 0.925378
O O2 0.245572 0.243202 0.909587
O O3 0.300796 0.000000 0.949905
O O4 0.292203 0.232782 0.036328
O O5 0.923829 0.500000 0.603637
O O6 0.882382 0.731387 0.675422
O O7 0.903900 0.744310 0.539326
O O8 0.000000 0.728769 0.630375
O O9 0.500000 0.709871 0.925112
O O10 0.414031 0.500000 0.952214
O O11 0.434017 0.715478 0.041234
O O12 0.185244 0.238541 0.291493
O O13 0.242682 0.247994 0.167833
O O14 0.186524 0.000000 0.214496
O O15 0.879891 0.218814 0.406196
O O16 0.000000 0.222962 0.448253
O O17 0.924553 0.000000 0.484718
O O18 0.200187 0.500000 0.873631
O O19 0.277651 0.500000 0.614294
O O20 0.366864 0.701749 0.649000
O O21 0.500000 0.813622 0.147649
O O22 0.573783 0.000000 0.074974
#
# Coordination Sequence:
#
# PCOD8178112 Si02
#       8
#     8   8   8   8   8   8   8   8
#     4  10  19  31  49  70  94 125 159 196 236 281
#     4   9  17  30  50  73  93 117 153 194 233 276
#     4   9  16  26  43  69  98 123 151 192 238 281
#     4   9  17  29  45  66  92 120 152 193 235 272
#     4   9  18  32  49  70  96 124 154 191 238 289
#     4  10  20  32  47  67  93 126 160 196 238 283
#     4   8  14  25  43  65  86 113 149 188 229 270
#     4   8  13  22  38  62  90 117 148 187 231 278
#
# _framework density 18.002081
#
# number of rings (size 3 to 8) (size 9 to 14) (size 15 to 20)
#    0.000    3.000    0.000    2.250    0.000    2.750 
#    0.000    3.125    0.000    4.500    0.000    7.000 
#    0.000    0.000    0.000    0.000    0.000    0.000 
#
# Total GULP energy -396453.906573 kJ/mol
# GULP energy per Si atom -12389.184580 kJ/mol
# Density = 1.796111 g / cm^3
# Si number density = 18.002081 Si / 1000 Ang^3
#
#
#
# Elastic Constant Matrix: (Units=GPa)
#
#
# Indices 1 2 3 4 5 6 
#
# 1 170.5248 37.1537 85.1449 0.0000 0.0000 0.0000
# 2 37.1537 33.7073 26.3791 0.0000 0.0000 0.0000
# 3 85.1449 26.3791 107.6123 0.0000 0.0000 0.0000
# 4 0.0000 0.0000 0.0000 15.9997 0.0000 0.0000
# 5 0.0000 0.0000 0.0000 0.0000 5.0922 0.0000
# 6 0.0000 0.0000 0.0000 0.0000 0.0000 22.5451
#
#
#
# Elastic Compliance Matrix: (Units=1/GPa)
#
#
# Indices 1 2 3 4 5 6 
#
# 1 0.010704 -0.006398 -0.006901 0.000000 0.000000 0.000000
# 2 -0.006398 0.040533 -0.004874 0.000000 0.000000 0.000000
# 3 -0.006901 -0.004874 0.015947 0.000000 0.000000 0.000000
# 4 0.000000 0.000000 0.000000 0.062501 0.000000 0.000000
# 5 0.000000 0.000000 0.000000 0.000000 0.196378 0.000000
# 6 0.000000 0.000000 0.000000 0.000000 0.000000 0.044356
#
#
# Mechanical properties :
#
#
# Convention : Reuss Voigt Hill
#
# Bulk Modulus (GPa) = 32.42586 67.68887 50.05737
# Shear Modulus (GPa) = 11.98914 19.60518 15.79716
#
# Velocity S-wave (km/s) = 2.58347 3.30366 2.96551
# Velocity P-wave (km/s) = 5.19139 7.22734 6.29225
#
# Compressibility (1/GPa) = 0.03083958
#
# Stress axis : x y z
#
# Youngs Moduli (GPa) = 93.42476 24.67105 62.70607
#
# Poissons Ratio (x) = 0.15784 0.43272
# Poissons Ratio (y) = 0.59770 0.30563
# Poissons Ratio (z) = 0.64470 0.12025
#
# Static dielectric constant tensor:
#      x y z
#    x 3.944940 0.000000 0.000000 
#    y 0.000000 3.069720 0.000000 
#    z 0.000000 0.000000 3.143070 
# 
# 
# High freq. dielectric constant tensor:
#      x y z
#    x 1.726770 0.000000 0.000000 
#    y 0.000000 1.669220 0.000000 
#    z 0.000000 0.000000 1.650990 
# 
# From -- ./inp_files/18980.got.cif
#   From: 2010.03.12/outbox.cif.g09.slc.cpg/sg38_10_cif.got.tgz:18980.got - 2010.04.14 02:38:36.
