data_PCOD8178523
_publ_section_title
;
Structure prediction by ZEFSAII (Michael W. Deem and Ramdas Pophale) SiO2 
 PCOD8178523
Probable space group: A M M 2
;
_chemical_formula_sum "Si O2"
_cell_formula_units_Z 64
_cell_length_a 14.306341
_cell_length_b 17.297374
_cell_length_c 13.130125
_cell_angle_alpha 90.000000
_cell_angle_beta 90.000000
_cell_angle_gamma 90.000000
_cell_volume 3249.208711
_symmetry_space_group_name_H-M "A M M 2"
_symmetry_group_IT_number 38
_symmetry_cell_setting 'orthorhombic'
loop_
_space_group_symop_operation_xyz
x,y,z
-x,-y,z
-x,y,z
x,-y,z
x,1/2+y,1/2+z
-x,1/2-y,1/2+z
-x,1/2+y,1/2+z
x,1/2-y,1/2+z
loop_
_atom_site_type_symbol
_atom_site_label
_atom_site_fract_x
_atom_site_fract_y
_atom_site_fract_z
Si Si1 0.767771 0.910105 0.846770
Si Si2 0.603431 0.822938 0.496361
Si Si3 0.895426 0.908196 0.662681
Si Si4 0.766497 0.409835 0.578837
Si Si5 0.394486 0.200646 0.147019
Si Si6 0.894998 0.091808 0.263214
Si Si7 0.395717 0.205255 0.830049
Si Si8 0.789021 0.908529 0.463231
O O1 0.848007 0.882003 0.768752
O O2 0.674143 0.865589 0.816953
O O3 0.745478 0.000000 0.830709
O O4 0.800823 0.893807 0.963042
O O5 0.500000 0.860276 0.479696
O O6 0.618364 0.790616 0.610045
O O7 0.611559 0.738793 0.443117
O O8 0.680922 0.884099 0.463326
O O9 0.840232 0.875415 0.564095
O O10 0.000000 0.873811 0.661017
O O11 0.898552 0.000000 0.655929
O O12 0.743833 0.500000 0.595025
O O13 0.672357 0.363566 0.600173
O O14 0.845902 0.381760 0.658020
O O15 0.500000 0.170516 0.128531
O O16 0.372871 0.216290 0.265671
O O17 0.839704 0.124424 0.361945
O O18 0.000000 0.125822 0.264071
O O19 0.898359 0.000000 0.269202
O O20 0.500000 0.174224 0.805480
O O21 0.792205 0.000000 0.462739
#
# Coordination Sequence:
#
# PCOD8178523 Si02
#       8
#     8   8   8   8   8   8   8   8
#     4  10  20  34  55  84 113 144 184 230 277 323
#     4  10  20  34  52  76 106 141 179 217 268 331
#     4   9  18  33  54  80 108 140 182 230 279 329
#     4  10  20  34  55  84 113 144 184 230 277 323
#     4  10  20  35  54  77 107 146 185 219 268 332
#     4   9  18  33  54  80 108 140 182 230 279 329
#     4  10  20  35  54  77 107 146 185 219 268 332
#     4  10  19  33  56  82 108 142 186 234 276 319
#
# _framework density 19.697104
#
# number of rings (size 3 to 8) (size 9 to 14) (size 15 to 20)
#    0.000    2.250    1.250    1.875    0.000    2.750 
#    0.000    3.750    0.000   17.250    0.000    0.000 
#    0.000    0.000    0.000    0.000    0.000    0.000 
#
# Total GULP energy -396617.549010 kJ/mol
# GULP energy per Si atom -12394.298407 kJ/mol
# Density = 1.965227 g / cm^3
# Si number density = 19.697104 Si / 1000 Ang^3
#
#
#
# Elastic Constant Matrix: (Units=GPa)
#
#
# Indices 1 2 3 4 5 6 
#
# 1 161.0213 33.2456 82.5743 0.0000 0.0000 0.0000
# 2 33.2456 25.4474 28.3312 0.0000 0.0000 0.0000
# 3 82.5743 28.3312 134.0802 0.0000 0.0000 0.0000
# 4 0.0000 0.0000 0.0000 20.4740 0.0000 0.0000
# 5 0.0000 0.0000 0.0000 0.0000 33.2684 0.0000
# 6 0.0000 0.0000 0.0000 0.0000 0.0000 12.8947
#
#
#
# Elastic Compliance Matrix: (Units=1/GPa)
#
#
# Indices 1 2 3 4 5 6 
#
# 1 0.010273 -0.008339 -0.004565 0.000000 0.000000 0.000000
# 2 -0.008339 0.058154 -0.007152 0.000000 0.000000 0.000000
# 3 -0.004565 -0.007152 0.011781 0.000000 0.000000 0.000000
# 4 0.000000 0.000000 0.000000 0.048842 0.000000 0.000000
# 5 0.000000 0.000000 0.000000 0.000000 0.030059 0.000000
# 6 0.000000 0.000000 0.000000 0.000000 0.000000 0.077552
#
#
# Mechanical properties :
#
#
# Convention : Reuss Voigt Hill
#
# Bulk Modulus (GPa) = 24.94032 67.65011 46.29522
# Shear Modulus (GPa) = 17.23321 25.08725 21.16023
#
# Velocity S-wave (km/s) = 2.96110 3.57270 3.28118
# Velocity P-wave (km/s) = 4.93763 7.17207 6.15706
#
# Compressibility (1/GPa) = 0.04009572
#
# Stress axis : x y z
#
# Youngs Moduli (GPa) = 97.34349 17.19568 84.88503
#
# Poissons Ratio (x) = 0.14340 0.38747
# Poissons Ratio (y) = 0.81176 0.60712
# Poissons Ratio (z) = 0.44433 0.12299
#
# Static dielectric constant tensor:
#      x y z
#    x 3.617500 0.000000 0.000000 
#    y 0.000000 3.042970 0.000000 
#    z 0.000000 0.000000 3.983940 
# 
# 
# High freq. dielectric constant tensor:
#      x y z
#    x 1.767400 0.000000 0.000000 
#    y 0.000000 1.721810 0.000000 
#    z 0.000000 0.000000 1.795040 
# 
# From -- ./inp_files/10273.got.cif
#   From: 2010.03.12/outbox.cif.g09.slc.cpg/sg38_6_cif.got.tgz:10273.got - 2010.04.14 02:38:36.
