data_PCOD8178070
_publ_section_title
;
Structure prediction by ZEFSAII (Michael W. Deem and Ramdas Pophale) SiO2 
 PCOD8178070
Probable space group: A M M 2
;
_chemical_formula_sum "Si O2"
_cell_formula_units_Z 64
_cell_length_a 18.405578
_cell_length_b 9.056019
_cell_length_c 26.136164
_cell_angle_alpha 90.000000
_cell_angle_beta 90.000000
_cell_angle_gamma 90.000000
_cell_volume 4356.408854
_symmetry_space_group_name_H-M "A M M 2"
_symmetry_group_IT_number 38
_symmetry_cell_setting 'orthorhombic'
loop_
_space_group_symop_operation_xyz
x,y,z
-x,-y,z
-x,y,z
x,-y,z
x,1/2+y,1/2+z
-x,1/2-y,1/2+z
-x,1/2+y,1/2+z
x,1/2-y,1/2+z
loop_
_atom_site_type_symbol
_atom_site_label
_atom_site_fract_x
_atom_site_fract_y
_atom_site_fract_z
Si Si1 0.584041 0.672124 0.005560
Si Si2 0.649339 0.670933 0.110841
Si Si3 0.081334 0.670548 0.697529
Si Si4 0.208004 0.830010 0.661298
Si Si5 0.417224 0.673376 0.404230
Si Si6 0.334871 0.325124 0.302939
Si Si7 0.213102 0.830142 0.259111
Si Si8 0.414367 0.828847 0.208655
O O1 0.500000 0.711524 0.013642
O O2 0.597096 0.500000 0.997624
O O3 0.626536 0.731338 0.055323
O O4 0.615110 0.752581 0.955313
O O5 0.626283 0.500000 0.117341
O O6 0.737657 0.686739 0.113448
O O7 0.608963 0.762137 0.154320
O O8 0.079256 0.500000 0.681161
O O9 0.126911 0.759311 0.653564
O O10 0.125004 0.688813 0.752140
O O11 0.000000 0.734663 0.703212
O O12 0.247827 0.738925 0.707008
O O13 0.198281 0.000000 0.677408
O O14 0.500000 0.725123 0.395151
O O15 0.412188 0.500000 0.411690
O O16 0.370854 0.726254 0.355814
O O17 0.335030 0.500000 0.296740
O O18 0.251235 0.263087 0.304387
O O19 0.378099 0.254379 0.256162
O O20 0.234865 0.000000 0.265176
O O21 0.500000 0.808025 0.214386
O O22 0.391598 0.000000 0.210328
#
# Coordination Sequence:
#
# PCOD8178070 Si02
#       8
#     8   8   8   8   8   8   8   8
#     4   9  18  32  48  64  81 108 148 189 227 265
#     4  10  19  31  46  62  86 116 144 177 220 266
#     4   8  15  27  41  59  88 123 150 174 207 249
#     4   9  16  26  41  63  87 115 145 173 208 251
#     4   9  19  34  48  62  81 109 146 188 232 270
#     4  11  20  31  46  62  84 114 145 179 222 268
#     4   9  17  28  42  61  87 116 143 173 209 250
#     4  11  22  30  39  60  85 110 143 179 216 260
#
# _framework density 14.690999
#
# number of rings (size 3 to 8) (size 9 to 14) (size 15 to 20)
#    0.750    1.750    1.250    1.875    0.000    4.250 
#    0.000    2.500    0.000    0.000    0.000    0.000 
#    0.000    1.000    0.000    4.500    0.000    3.750 
#
# Total GULP energy -396419.618880 kJ/mol
# GULP energy per Si atom -12388.113090 kJ/mol
# Density = 1.465756 g / cm^3
# Si number density = 14.690999 Si / 1000 Ang^3
#
#
#
# Elastic Constant Matrix: (Units=GPa)
#
#
# Indices 1 2 3 4 5 6 
#
# 1 88.7322 35.6278 50.4098 0.0000 0.0000 0.0000
# 2 35.6278 63.5740 40.6523 0.0000 0.0000 0.0000
# 3 50.4098 40.6523 103.0731 0.0000 0.0000 0.0000
# 4 0.0000 0.0000 0.0000 22.2428 0.0000 0.0000
# 5 0.0000 0.0000 0.0000 0.0000 14.7703 0.0000
# 6 0.0000 0.0000 0.0000 0.0000 0.0000 21.7292
#
#
#
# Elastic Compliance Matrix: (Units=1/GPa)
#
#
# Indices 1 2 3 4 5 6 
#
# 1 0.016989 -0.005627 -0.006089 0.000000 0.000000 0.000000
# 2 -0.005627 0.022898 -0.006279 0.000000 0.000000 0.000000
# 3 -0.006089 -0.006279 0.015157 0.000000 0.000000 0.000000
# 4 0.000000 0.000000 0.000000 0.044958 0.000000 0.000000
# 5 0.000000 0.000000 0.000000 0.000000 0.067703 0.000000
# 6 0.000000 0.000000 0.000000 0.000000 0.000000 0.046021
#
#
# Mechanical properties :
#
#
# Convention : Reuss Voigt Hill
#
# Bulk Modulus (GPa) = 52.48639 56.52879 54.50759
# Shear Modulus (GPa) = 19.52609 20.32778 19.92694
#
# Velocity S-wave (km/s) = 3.64966 3.72383 3.68693
# Velocity P-wave (km/s) = 7.31878 7.55323 7.43693
#
# Compressibility (1/GPa) = 0.01905256
#
# Stress axis : x y z
#
# Youngs Moduli (GPa) = 58.86317 43.67136 65.97826
#
# Poissons Ratio (x) = 0.24573 0.40176
# Poissons Ratio (y) = 0.33121 0.41430
# Poissons Ratio (z) = 0.35844 0.27422
#
# Static dielectric constant tensor:
#      x y z
#    x 2.919970 0.000000 0.000000 
#    y 0.000000 2.914370 0.000000 
#    z 0.000000 0.000000 2.723420 
# 
# 
# High freq. dielectric constant tensor:
#      x y z
#    x 1.549580 0.000000 0.000000 
#    y 0.000000 1.572740 0.000000 
#    z 0.000000 0.000000 1.528520 
# 
# From -- ./inp_files/23124.got.cif
#   From: 2010.03.12/outbox.cif.g09.slc.cpg/sg38_12_cif.got.tgz:23124.got - 2010.04.14 02:38:36.
