data_PCOD8178433
_publ_section_title
;
Structure prediction by ZEFSAII (Michael W. Deem and Ramdas Pophale) SiO2 
 PCOD8178433
Probable space group: A M M 2
;
_chemical_formula_sum "Si O2"
_cell_formula_units_Z 64
_cell_length_a 12.851698
_cell_length_b 18.554981
_cell_length_c 15.118681
_cell_angle_alpha 90.000000
_cell_angle_beta 90.000000
_cell_angle_gamma 90.000000
_cell_volume 3605.246212
_symmetry_space_group_name_H-M "A M M 2"
_symmetry_group_IT_number 38
_symmetry_cell_setting 'orthorhombic'
loop_
_space_group_symop_operation_xyz
x,y,z
-x,-y,z
-x,y,z
x,-y,z
x,1/2+y,1/2+z
-x,1/2-y,1/2+z
-x,1/2+y,1/2+z
x,1/2-y,1/2+z
loop_
_atom_site_type_symbol
_atom_site_label
_atom_site_fract_x
_atom_site_fract_y
_atom_site_fract_z
Si Si1 0.115665 0.146157 0.766470
Si Si2 0.234543 0.786462 0.223418
Si Si3 0.884398 0.169493 0.967102
Si Si4 0.122201 0.083136 0.138843
Si Si5 0.740025 0.420726 0.141494
Si Si6 0.259608 0.203038 0.419468
Si Si7 0.120223 0.417366 0.974986
Si Si8 0.380598 0.289971 0.090203
O O1 0.144281 0.226322 0.731208
O O2 0.119251 0.134650 0.870912
O O3 0.200277 0.088643 0.733709
O O4 0.000000 0.129343 0.731048
O O5 0.183584 0.864786 0.206772
O O6 0.295206 0.782491 0.318403
O O7 0.312895 0.769794 0.142454
O O8 0.808493 0.236904 0.968967
O O9 0.000000 0.198398 0.988749
O O10 0.852537 0.109444 0.039115
O O11 0.000000 0.088240 0.160233
O O12 0.160010 0.000000 0.149257
O O13 0.692622 0.500000 0.132560
O O14 0.642931 0.367098 0.134601
O O15 0.830609 0.404422 0.071013
O O16 0.188934 0.131313 0.409636
O O17 0.358169 0.199638 0.485066
O O18 0.130532 0.500000 0.944111
O O19 0.000000 0.393093 0.975291
O O20 0.500000 0.268743 0.102218
#
# Coordination Sequence:
#
# PCOD8178433 Si02
#       8
#     8   8   8   8   8   8   8   8
#     4   9  17  28  47  75 106 140 177 213 249 299
#     4  10  20  35  53  76 105 137 175 218 263 312
#     4   9  17  30  48  74 104 137 177 213 250 299
#     4  10  20  33  51  77 111 149 180 207 248 305
#     4   9  18  31  47  72 104 137 169 205 258 316
#     4  10  19  33  54  76 100 136 175 216 264 309
#     4   9  17  28  44  72 110 145 173 202 245 307
#     4  10  21  37  56  77  98 127 171 226 276 311
#
# _framework density 17.751909000000001
#
# number of rings (size 3 to 8) (size 9 to 14) (size 15 to 20)
#    0.000    2.500    1.250    1.125    0.000    4.000 
#    0.000    2.500    0.000    0.375    0.000    1.750 
#    0.000    0.000    0.000    0.000    0.000    0.000 
#
# Total GULP energy -396562.531576 kJ/mol
# GULP energy per Si atom -12392.579112 kJ/mol
# Density = 1.771150 g / cm^3
# Si number density = 17.751909 Si / 1000 Ang^3
#
#
#
# Elastic Constant Matrix: (Units=GPa)
#
#
# Indices 1 2 3 4 5 6 
#
# 1 65.7903 21.7235 30.3014 0.0000 0.0000 0.0000
# 2 21.7235 85.8458 25.1854 0.0000 0.0000 0.0000
# 3 30.3014 25.1854 84.6947 0.0000 0.0000 0.0000
# 4 0.0000 0.0000 0.0000 19.5958 0.0000 0.0000
# 5 0.0000 0.0000 0.0000 0.0000 14.8007 0.0000
# 6 0.0000 0.0000 0.0000 0.0000 0.0000 13.6498
#
#
#
# Elastic Compliance Matrix: (Units=1/GPa)
#
#
# Indices 1 2 3 4 5 6 
#
# 1 0.018908 -0.003068 -0.005853 0.000000 0.000000 0.000000
# 2 -0.003068 0.013260 -0.002845 0.000000 0.000000 0.000000
# 3 -0.005853 -0.002845 0.014747 0.000000 0.000000 0.000000
# 4 0.000000 0.000000 0.000000 0.051031 0.000000 0.000000
# 5 0.000000 0.000000 0.000000 0.000000 0.067565 0.000000
# 6 0.000000 0.000000 0.000000 0.000000 0.000000 0.073261
#
#
# Mechanical properties :
#
#
# Convention : Reuss Voigt Hill
#
# Bulk Modulus (GPa) = 42.76491 43.41681 43.09086
# Shear Modulus (GPa) = 18.51175 20.21729 19.36452
#
# Velocity S-wave (km/s) = 3.23275 3.37839 3.30637
# Velocity P-wave (km/s) = 6.17064 6.30307 6.23721
#
# Compressibility (1/GPa) = 0.02338366
#
# Stress axis : x y z
#
# Youngs Moduli (GPa) = 52.88671 75.41537 67.80955
#
# Poissons Ratio (x) = 0.23136 0.39686
# Poissons Ratio (y) = 0.16224 0.19295
# Poissons Ratio (z) = 0.30953 0.21459
#
# Static dielectric constant tensor:
#      x y z
#    x 2.923190 0.000000 0.000000 
#    y 0.000000 3.312220 0.000000 
#    z 0.000000 0.000000 3.327740 
# 
# 
# High freq. dielectric constant tensor:
#      x y z
#    x 1.647510 0.000000 0.000000 
#    y 0.000000 1.681380 0.000000 
#    z 0.000000 0.000000 1.693280 
# 
# From -- ./inp_files/13953.got.cif
#   From: 2010.03.12/outbox.cif.g09.slc.cpg/sg38_7_cif.got.tgz:13953.got - 2010.04.14 02:38:36.
