data_PCOD8178459
_publ_section_title
;
Structure prediction by ZEFSAII (Michael W. Deem and Ramdas Pophale) SiO2 
 PCOD8178459
Probable space group: A M M 2
;
_chemical_formula_sum "Si O2"
_cell_formula_units_Z 64
_cell_length_a 15.453068
_cell_length_b 8.936742
_cell_length_c 24.052020
_cell_angle_alpha 90.000000
_cell_angle_beta 90.000000
_cell_angle_gamma 90.000000
_cell_volume 3321.585930
_symmetry_space_group_name_H-M "A M M 2"
_symmetry_group_IT_number 38
_symmetry_cell_setting 'orthorhombic'
loop_
_space_group_symop_operation_xyz
x,y,z
-x,-y,z
-x,y,z
x,-y,z
x,1/2+y,1/2+z
-x,1/2-y,1/2+z
-x,1/2+y,1/2+z
x,1/2-y,1/2+z
loop_
_atom_site_type_symbol
_atom_site_label
_atom_site_fract_x
_atom_site_fract_y
_atom_site_fract_z
Si Si1 0.248493 0.677470 0.034880
Si Si2 0.346989 0.824202 0.850307
Si Si3 0.403506 0.326665 0.960219
Si Si4 0.096366 0.328724 0.955910
Si Si5 0.901343 0.172618 0.233125
Si Si6 0.147533 0.324114 0.346111
Si Si7 0.404377 0.177773 0.730877
Si Si8 0.243406 0.178585 0.659928
O O1 0.252116 0.500000 0.038379
O O2 0.244790 0.741846 0.097186
O O3 0.334162 0.740268 0.003912
O O4 0.163676 0.732341 0.001675
O O5 0.397576 0.751440 0.900923
O O6 0.247120 0.778433 0.852262
O O7 0.386642 0.761832 0.792923
O O8 0.359929 0.000000 0.854987
O O9 0.500000 0.301430 0.984458
O O10 0.383461 0.500000 0.950571
O O11 0.119038 0.500000 0.939822
O O12 0.098852 0.227154 0.901380
O O13 0.000000 0.317562 0.981515
O O14 0.893901 0.240347 0.294323
O O15 0.840812 0.259460 0.190271
O O16 0.000000 0.190788 0.212593
O O17 0.873512 0.000000 0.235169
O O18 0.135363 0.500000 0.337069
O O19 0.500000 0.231632 0.711448
O O20 0.330904 0.239198 0.689326
O O21 0.399467 0.000000 0.731552
O O22 0.238776 0.000000 0.662282
#
# Coordination Sequence:
#
# PCOD8178459 Si02
#       8
#     8   8   8   8   8   8   8   8
#     4   9  19  35  55  79 110 145 184 231 272 314
#     4  10  19  33  54  80 110 144 181 222 275 331
#     4  10  20  34  54  82 113 146 184 224 271 327
#     4  10  20  35  55  79 109 146 182 218 274 337
#     4  11  24  40  58  82 113 148 181 222 283 342
#     4  11  21  35  58  86 111 140 182 227 273 328
#     4   9  17  31  53  81 111 140 175 223 275 323
#     4  10  20  37  59  83 109 145 193 235 271 318
#
# _framework density 19.267904000000001
#
# number of rings (size 3 to 8) (size 9 to 14) (size 15 to 20)
#    0.000    2.000    2.500    1.500    0.000    5.000 
#    0.000    5.000    0.000    0.375    0.000    0.000 
#    0.000    0.000    0.000    0.000    0.000    0.000 
#
# Total GULP energy -396826.860466 kJ/mol
# GULP energy per Si atom -12400.839390 kJ/mol
# Density = 1.922405 g / cm^3
# Si number density = 19.267904 Si / 1000 Ang^3
#
#
#
# Elastic Constant Matrix: (Units=GPa)
#
#
# Indices 1 2 3 4 5 6 
#
# 1 148.7758 28.6558 71.9457 0.0000 0.0000 0.0000
# 2 28.6558 32.6655 21.7693 0.0000 0.0000 0.0000
# 3 71.9457 21.7693 157.5036 0.0000 0.0000 0.0000
# 4 0.0000 0.0000 0.0000 22.1442 0.0000 0.0000
# 5 0.0000 0.0000 0.0000 0.0000 -8.5934 0.0000
# 6 0.0000 0.0000 0.0000 0.0000 0.0000 21.2081
#
#
#
# Elastic Compliance Matrix: (Units=1/GPa)
#
#
# Indices 1 2 3 4 5 6 
#
# 1 0.009606 -0.006061 -0.003550 0.000000 0.000000 0.000000
# 2 -0.006061 0.037543 -0.002421 0.000000 0.000000 0.000000
# 3 -0.003550 -0.002421 0.008305 0.000000 0.000000 0.000000
# 4 0.000000 0.000000 0.000000 0.045159 0.000000 0.000000
# 5 0.000000 0.000000 0.000000 0.000000 -0.116368 0.000000
# 6 0.000000 0.000000 0.000000 0.000000 0.000000 0.047152
#
#
# Mechanical properties :
#
#
# Convention : Reuss Voigt Hill
#
# Bulk Modulus (GPa) = 31.85581 64.85404 48.35493
# Shear Modulus (GPa) = 75.84656 21.39005 48.61830
#
# Velocity S-wave (km/s) = 6.28090 3.33549 5.02867
# Velocity P-wave (km/s) = 8.31676 6.96894 7.67251
#
# Compressibility (1/GPa) = 0.03139145
#
# Stress axis : x y z
#
# Youngs Moduli (GPa) = 104.10569 26.63601 120.40592
#
# Poissons Ratio (x) = 0.16143 0.42745
# Poissons Ratio (y) = 0.63095 0.29145
# Poissons Ratio (z) = 0.36958 0.06447
#
# Static dielectric constant tensor:
#      x y z
#    x 3.834160 0.000000 0.000000 
#    y 0.000000 3.206040 0.000000 
#    z 0.000000 0.000000 3.600920 
# 
# 
# High freq. dielectric constant tensor:
#      x y z
#    x 1.769090 0.000000 0.000000 
#    y 0.000000 1.715330 0.000000 
#    z 0.000000 0.000000 1.745670 
# 
# From -- ./inp_files/22945.got.cif
#   From: 2010.03.12/outbox.cif.g09.slc.cpg/sg38_12_cif.got.tgz:22945.got - 2010.04.14 02:38:36.
