data_PCOD8178456
_publ_section_title
;
Structure prediction by ZEFSAII (Michael W. Deem and Ramdas Pophale) SiO2 
 PCOD8178456
Probable space group: A M M 2
;
_chemical_formula_sum "Si O2"
_cell_formula_units_Z 48
_cell_length_a 9.151760
_cell_length_b 7.867205
_cell_length_c 33.971676
_cell_angle_alpha 90.000000
_cell_angle_beta 90.000000
_cell_angle_gamma 90.000000
_cell_volume 2445.918956
_symmetry_space_group_name_H-M "A M M 2"
_symmetry_group_IT_number 38
_symmetry_cell_setting 'orthorhombic'
loop_
_space_group_symop_operation_xyz
x,y,z
-x,-y,z
-x,y,z
x,-y,z
x,1/2+y,1/2+z
-x,1/2-y,1/2+z
-x,1/2+y,1/2+z
x,1/2-y,1/2+z
loop_
_atom_site_type_symbol
_atom_site_label
_atom_site_fract_x
_atom_site_fract_y
_atom_site_fract_z
Si Si1 0.673225 0.687114 0.888080
Si Si2 0.670311 0.801920 0.152443
Si Si3 0.828718 0.000000 0.021935
Si Si4 0.832872 0.809426 0.577225
Si Si5 0.662791 0.194351 0.805406
Si Si6 0.325630 0.000000 0.939199
Si Si7 0.832269 0.800469 0.230260
O O1 0.500000 0.705849 0.886889
O O2 0.721337 0.500000 0.903444
O O3 0.729582 0.708064 0.843197
O O4 0.735675 0.832210 0.916946
O O5 0.500000 0.763589 0.156139
O O6 0.733717 0.700058 0.115759
O O7 0.746537 0.734004 0.192017
O O8 0.704184 0.000000 0.146054
O O9 0.782120 0.830542 0.045618
O O10 0.000000 0.000000 0.012230
O O11 0.737099 0.000000 0.982560
O O12 0.000000 0.772508 0.589543
O O13 0.816088 0.000000 0.559355
O O14 0.500000 0.263005 0.794494
O O15 0.769047 0.211680 0.768658
O O16 0.652420 0.000000 0.818335
O O17 0.500000 0.000000 0.941591
O O18 0.000000 0.747839 0.225402
O O19 0.811078 0.000000 0.235325
#
# Coordination Sequence:
#
# PCOD8178456 Si02
#       7
#     8   8   4   8   8   4   8
#     4   9  17  32  56  83 112 146 183 231 286 335
#     4  10  20  35  57  83 112 147 189 237 288 337
#     4  10  22  40  60  84 118 152 184 232 290 342
#     4  10  21  38  61  85 111 150 193 231 280 342
#     4  10  19  33  54  79 108 144 190 239 284 334
#     4  10  20  36  58  86 114 144 190 234 278 344
#     4  10  21  35  52  77 111 151 193 235 281 336
#
# _framework density 19.624524999999998
#
# number of rings (size 3 to 8) (size 9 to 14) (size 15 to 20)
#    0.000    2.167    1.667    1.500    0.000    5.000 
#    0.000    0.833    0.000    1.000    0.000    0.000 
#    0.000    0.000    0.000    0.000    0.000    0.000 
#
# Total GULP energy -297620.673978 kJ/mol
# GULP energy per Si atom -12400.861416 kJ/mol
# Density = 1.957986 g / cm^3
# Si number density = 19.624525 Si / 1000 Ang^3
#
#
#
# Elastic Constant Matrix: (Units=GPa)
#
#
# Indices 1 2 3 4 5 6 
#
# 1 67.3171 33.6872 45.2251 0.0000 0.0000 0.0000
# 2 33.6872 124.9609 68.2391 0.0000 0.0000 0.0000
# 3 45.2251 68.2391 141.6857 0.0000 0.0000 0.0000
# 4 0.0000 0.0000 0.0000 25.9787 0.0000 0.0000
# 5 0.0000 0.0000 0.0000 0.0000 -2.6656 0.0000
# 6 0.0000 0.0000 0.0000 0.0000 0.0000 18.4656
#
#
#
# Elastic Compliance Matrix: (Units=1/GPa)
#
#
# Indices 1 2 3 4 5 6 
#
# 1 0.019477 -0.002518 -0.005004 0.000000 0.000000 0.000000
# 2 -0.002518 0.011184 -0.004583 0.000000 0.000000 0.000000
# 3 -0.005004 -0.004583 0.010862 0.000000 0.000000 0.000000
# 4 0.000000 0.000000 0.000000 0.038493 0.000000 0.000000
# 5 0.000000 0.000000 0.000000 0.000000 -0.375156 0.000000
# 6 0.000000 0.000000 0.000000 0.000000 0.000000 0.054155
#
#
# Mechanical properties :
#
#
# Convention : Reuss Voigt Hill
#
# Bulk Modulus (GPa) = 57.75842 69.80738 63.78290
# Shear Modulus (GPa) = -23.69619 20.80989 -1.44315
#
# Velocity S-wave (km/s) = -3.47865 3.25991 -0.85847
# Velocity P-wave (km/s) = 3.65527 7.05820 5.62046
#
# Compressibility (1/GPa) = 0.01731349
#
# Stress axis : x y z
#
# Youngs Moduli (GPa) = 51.34238 89.41491 92.06127
#
# Poissons Ratio (x) = 0.22514 0.46070
# Poissons Ratio (y) = 0.12928 0.42189
# Poissons Ratio (z) = 0.25693 0.40976
#
# Static dielectric constant tensor:
#      x y z
#    x 3.339440 0.000000 0.000000 
#    y 0.000000 3.713910 0.000000 
#    z 0.000000 0.000000 3.453470 
# 
# 
# High freq. dielectric constant tensor:
#      x y z
#    x 1.740200 0.000000 0.000000 
#    y 0.000000 1.773200 0.000000 
#    z 0.000000 0.000000 1.760230 
# 
# From -- ./inp_files/24335.got.cif
#   From: 2010.03.12/outbox.cif.g09.slc.cpg/sg38_13_cif.got.tgz:24335.got - 2010.04.14 02:38:36.
