data_PCOD8178710
_publ_section_title
;
Structure prediction by ZEFSAII (Michael W. Deem and Ramdas Pophale) SiO2 
 PCOD8178710
Probable space group: A M M 2
;
_chemical_formula_sum "Si O2"
_cell_formula_units_Z 64
_cell_length_a 23.766956
_cell_length_b 8.602463
_cell_length_c 15.303043
_cell_angle_alpha 90.000000
_cell_angle_beta 90.000000
_cell_angle_gamma 90.000000
_cell_volume 3128.773857
_symmetry_space_group_name_H-M "A M M 2"
_symmetry_group_IT_number 38
_symmetry_cell_setting 'orthorhombic'
loop_
_space_group_symop_operation_xyz
x,y,z
-x,-y,z
-x,y,z
x,-y,z
x,1/2+y,1/2+z
-x,1/2-y,1/2+z
-x,1/2+y,1/2+z
x,1/2-y,1/2+z
loop_
_atom_site_type_symbol
_atom_site_label
_atom_site_fract_x
_atom_site_fract_y
_atom_site_fract_z
Si Si1 0.871359 0.677193 0.173150
Si Si2 0.435057 0.683220 0.247481
Si Si3 0.638964 0.316056 0.600745
Si Si4 0.639728 0.817356 0.904448
Si Si5 0.234306 0.680381 0.409619
Si Si6 0.245163 0.679002 0.094075
Si Si7 0.876557 0.678767 0.850613
Si Si8 0.064927 0.680487 0.513058
O O1 0.885838 0.500000 0.195427
O O2 0.804010 0.699575 0.165120
O O3 0.895109 0.782575 0.251693
O O4 0.901014 0.720338 0.083006
O O5 0.500000 0.725308 0.259113
O O6 0.425078 0.500000 0.237208
O O7 0.412987 0.767792 0.160901
O O8 0.402823 0.752190 0.332501
O O9 0.647913 0.500000 0.601878
O O10 0.626539 0.254457 0.502046
O O11 0.695881 0.234113 0.636264
O O12 0.703358 0.774078 0.876510
O O13 0.631543 0.000000 0.906954
O O14 0.220940 0.500000 0.392207
O O15 0.230043 0.711788 0.512636
O O16 0.189601 0.784302 0.358400
O O17 0.249267 0.500000 0.063395
O O18 0.888542 0.500000 0.871171
O O19 0.912507 0.782260 0.916753
O O20 0.074315 0.500000 0.532568
O O21 0.000000 0.727696 0.518438
#
# Coordination Sequence:
#
# PCOD8178710 Si02
#       8
#     8   8   8   8   8   8   8   8
#     4  11  24  41  64  94 127 167 208 255 313 373
#     4  10  21  38  59  83 114 156 205 252 300 363
#     4  10  21  37  58  86 118 156 197 248 306 361
#     4   8  18  36  57  82 113 155 198 238 295 361
#     4  10  19  35  60  88 124 162 204 255 309 371
#     4  10  20  36  60  90 124 161 202 248 309 374
#     4  12  25  40  62  94 129 167 210 257 311 370
#     4  11  25  46  70  94 125 166 211 260 311 369
#
# _framework density 20.455297000000002
#
# number of rings (size 3 to 8) (size 9 to 14) (size 15 to 20)
#    0.000    1.750    1.250    3.750    1.750    3.750 
#    0.000    4.375    0.000    0.000    0.000    0.000 
#    0.000    0.000    0.000    0.000    0.000    0.000 
#
# Total GULP energy -396893.522865 kJ/mol
# GULP energy per Si atom -12402.922590 kJ/mol
# Density = 2.040874 g / cm^3
# Si number density = 20.455297 Si / 1000 Ang^3
#
#
#
# Elastic Constant Matrix: (Units=GPa)
#
#
# Indices 1 2 3 4 5 6 
#
# 1 101.2915 34.1540 36.0902 0.0000 0.0000 0.0000
# 2 34.1540 54.0734 18.2441 0.0000 0.0000 0.0000
# 3 36.0902 18.2441 84.6511 0.0000 0.0000 0.0000
# 4 0.0000 0.0000 0.0000 30.9171 0.0000 0.0000
# 5 0.0000 0.0000 0.0000 0.0000 21.1854 0.0000
# 6 0.0000 0.0000 0.0000 0.0000 0.0000 27.3024
#
#
#
# Elastic Compliance Matrix: (Units=1/GPa)
#
#
# Indices 1 2 3 4 5 6 
#
# 1 0.013883 -0.007303 -0.004345 0.000000 0.000000 0.000000
# 2 -0.007303 0.023785 -0.002013 0.000000 0.000000 0.000000
# 3 -0.004345 -0.002013 0.014099 0.000000 0.000000 0.000000
# 4 0.000000 0.000000 0.000000 0.032345 0.000000 0.000000
# 5 0.000000 0.000000 0.000000 0.000000 0.047202 0.000000
# 6 0.000000 0.000000 0.000000 0.000000 0.000000 0.036627
#
#
# Mechanical properties :
#
#
# Convention : Reuss Voigt Hill
#
# Bulk Modulus (GPa) = 40.90566 46.33251 43.61909
# Shear Modulus (GPa) = 24.58077 25.98284 25.28180
#
# Velocity S-wave (km/s) = 3.47029 3.56789 3.51943
# Velocity P-wave (km/s) = 6.00818 6.29864 6.15512
#
# Compressibility (1/GPa) = 0.02444650
#
# Stress axis : x y z
#
# Youngs Moduli (GPa) = 72.03037 42.04314 70.92493
#
# Poissons Ratio (x) = 0.30704 0.30817
# Poissons Ratio (y) = 0.52603 0.14275
# Poissons Ratio (z) = 0.31297 0.08462
#
# Static dielectric constant tensor:
#      x y z
#    x 3.795600 0.000000 0.000000 
#    y 0.000000 3.565370 0.000000 
#    z 0.000000 0.000000 3.715000 
# 
# 
# High freq. dielectric constant tensor:
#      x y z
#    x 1.796500 0.000000 0.000000 
#    y 0.000000 1.791550 0.000000 
#    z 0.000000 0.000000 1.801510 
# 
# From -- ./inp_files/15837.got.cif
#   From: 2010.03.12/outbox.cif.g09.slc.cpg/sg38_8_cif.got.tgz:15837.got - 2010.04.14 02:38:36.
