data_PCOD8178127
_publ_section_title
;
Structure prediction by ZEFSAII (Michael W. Deem and Ramdas Pophale) SiO2 
 PCOD8178127
Probable space group: A M M 2
;
_chemical_formula_sum "Si O2"
_cell_formula_units_Z 64
_cell_length_a 28.361188
_cell_length_b 9.064955
_cell_length_c 14.185652
_cell_angle_alpha 90.000000
_cell_angle_beta 90.000000
_cell_angle_gamma 90.000000
_cell_volume 3647.030311
_symmetry_space_group_name_H-M "A M M 2"
_symmetry_group_IT_number 38
_symmetry_cell_setting 'orthorhombic'
loop_
_space_group_symop_operation_xyz
x,y,z
-x,-y,z
-x,y,z
x,-y,z
x,1/2+y,1/2+z
-x,1/2-y,1/2+z
-x,1/2+y,1/2+z
x,1/2-y,1/2+z
loop_
_atom_site_type_symbol
_atom_site_label
_atom_site_fract_x
_atom_site_fract_y
_atom_site_fract_z
Si Si1 0.881514 0.673044 0.566480
Si Si2 0.196144 0.672500 0.416488
Si Si3 0.869477 0.826303 0.278298
Si Si4 0.625241 0.676348 0.073175
Si Si5 0.302911 0.326052 0.440049
Si Si6 0.374763 0.827531 0.783840
Si Si7 0.053397 0.826971 0.427537
Si Si8 0.554323 0.174069 0.939962
O O1 0.891138 0.500000 0.566623
O O2 0.834769 0.714500 0.507783
O O3 0.875125 0.733449 0.672247
O O4 0.927131 0.749035 0.521101
O O5 0.194658 0.500000 0.395269
O O6 0.176571 0.753271 0.324024
O O7 0.249040 0.726617 0.435742
O O8 0.916083 0.780043 0.336508
O O9 0.861448 0.000000 0.279134
O O10 0.625214 0.500000 0.067737
O O11 0.625807 0.741247 0.179629
O O12 0.672109 0.737921 0.023823
O O13 0.577830 0.738663 0.026004
O O14 0.307643 0.500000 0.460595
O O15 0.327552 0.284027 0.340957
O O16 0.420576 0.775166 0.842860
O O17 0.377438 0.000000 0.769654
O O18 0.000000 0.774977 0.409352
O O19 0.056519 0.000000 0.445076
O O20 0.500000 0.218973 0.933544
O O21 0.561547 0.000000 0.956839
#
# Coordination Sequence:
#
# PCOD8178127 Si02
#       8
#     8   8   8   8   8   8   8   8
#     4   9  18  32  49  71  97 124 155 192 239 287
#     4   9  18  32  50  71  95 124 159 197 233 275
#     4   9  18  32  49  69  96 126 154 190 236 285
#     4  10  19  31  49  73  97 120 154 200 238 270
#     4   9  18  34  51  67  94 130 161 190 231 284
#     4   8  16  31  49  68  92 124 158 188 226 279
#     4   9  18  32  48  67  92 123 159 195 230 273
#     4   9  18  34  53  70  93 128 162 189 229 288
#
# _framework density 17.548522999999999
#
# number of rings (size 3 to 8) (size 9 to 14) (size 15 to 20)
#    0.000    3.000    0.000    1.125    0.000    3.500 
#    0.000    7.500    0.000    0.000    0.000    0.000 
#    0.000    0.000    0.000    0.000    0.000    0.000 
#
# Total GULP energy -396770.797340 kJ/mol
# GULP energy per Si atom -12399.087417 kJ/mol
# Density = 1.750858 g / cm^3
# Si number density = 17.548523 Si / 1000 Ang^3
#
#
#
# Elastic Constant Matrix: (Units=GPa)
#
#
# Indices 1 2 3 4 5 6 
#
# 1 152.5174 34.4266 68.3079 0.0000 0.0000 0.0000
# 2 34.4266 32.4579 36.1302 0.0000 0.0000 0.0000
# 3 68.3079 36.1302 161.6681 0.0000 0.0000 0.0000
# 4 0.0000 0.0000 0.0000 24.9774 0.0000 0.0000
# 5 0.0000 0.0000 0.0000 0.0000 12.6415 0.0000
# 6 0.0000 0.0000 0.0000 0.0000 0.0000 27.4360
#
#
#
# Elastic Compliance Matrix: (Units=1/GPa)
#
#
# Indices 1 2 3 4 5 6 
#
# 1 0.009208 -0.007236 -0.002274 0.000000 0.000000 0.000000
# 2 -0.007236 0.046698 -0.007379 0.000000 0.000000 0.000000
# 3 -0.002274 -0.007379 0.008795 0.000000 0.000000 0.000000
# 4 0.000000 0.000000 0.000000 0.040036 0.000000 0.000000
# 5 0.000000 0.000000 0.000000 0.000000 0.079105 0.000000
# 6 0.000000 0.000000 0.000000 0.000000 0.000000 0.036448
#
#
# Mechanical properties :
#
#
# Convention : Reuss Voigt Hill
#
# Bulk Modulus (GPa) = 32.33695 69.37475 50.85585
# Shear Modulus (GPa) = 18.91253 26.86290 22.88771
#
# Velocity S-wave (km/s) = 3.28644 3.91676 3.61536
# Velocity P-wave (km/s) = 5.73307 7.75072 6.81695
#
# Compressibility (1/GPa) = 0.03092437
#
# Stress axis : x y z
#
# Youngs Moduli (GPa) = 108.59911 21.41437 113.69867
#
# Poissons Ratio (x) = 0.15495 0.25850
# Poissons Ratio (y) = 0.78581 0.83897
# Poissons Ratio (z) = 0.24690 0.15801
#
# Static dielectric constant tensor:
#      x y z
#    x 3.368630 0.000000 0.000000 
#    y 0.000000 3.058720 0.000000 
#    z 0.000000 0.000000 3.461730 
# 
# 
# High freq. dielectric constant tensor:
#      x y z
#    x 1.681550 0.000000 0.000000 
#    y 0.000000 1.660760 0.000000 
#    z 0.000000 0.000000 1.681420 
# 
# From -- ./inp_files/15913.got.cif
#   From: 2010.03.12/outbox.cif.g09.slc.cpg/sg38_8_cif.got.tgz:15913.got - 2010.04.14 02:38:36.
