data_PCOD8178365
_publ_section_title
;
Structure prediction by ZEFSAII (Michael W. Deem and Ramdas Pophale) SiO2 
 PCOD8178365
Probable space group: A M M 2
;
_chemical_formula_sum "Si O2"
_cell_formula_units_Z 64
_cell_length_a 18.633490
_cell_length_b 8.783362
_cell_length_c 20.756040
_cell_angle_alpha 90.000000
_cell_angle_beta 90.000000
_cell_angle_gamma 90.000000
_cell_volume 3397.030811
_symmetry_space_group_name_H-M "A M M 2"
_symmetry_group_IT_number 38
_symmetry_cell_setting 'orthorhombic'
loop_
_space_group_symop_operation_xyz
x,y,z
-x,-y,z
-x,y,z
x,-y,z
x,1/2+y,1/2+z
-x,1/2-y,1/2+z
-x,1/2+y,1/2+z
x,1/2-y,1/2+z
loop_
_atom_site_type_symbol
_atom_site_label
_atom_site_fract_x
_atom_site_fract_y
_atom_site_fract_z
Si Si1 0.329815 0.818563 0.022300
Si Si2 0.916529 0.824816 0.913081
Si Si3 0.166281 0.677345 0.285026
Si Si4 0.318530 0.817958 0.295939
Si Si5 0.582720 0.177169 0.412517
Si Si6 0.163130 0.831703 0.153818
Si Si7 0.176404 0.179008 0.521523
Si Si8 0.667046 0.333938 0.659690
O O1 0.253470 0.749184 0.002664
O O2 0.355182 0.752090 0.092754
O O3 0.320818 0.000000 0.025869
O O4 0.391779 0.773114 0.973426
O O5 0.891243 0.788874 0.840561
O O6 0.000000 0.787394 0.916708
O O7 0.899925 0.000000 0.930674
O O8 0.877268 0.717190 0.963915
O O9 0.179158 0.500000 0.273528
O O10 0.240700 0.749746 0.309416
O O11 0.135763 0.746742 0.218259
O O12 0.372695 0.765689 0.351135
O O13 0.351458 0.752627 0.227797
O O14 0.311182 0.000000 0.291494
O O15 0.500000 0.212600 0.399111
O O16 0.596391 0.000000 0.426197
O O17 0.143453 0.741498 0.088551
O O18 0.247675 0.848164 0.158404
O O19 0.127842 0.000000 0.150653
O O20 0.185825 0.000000 0.528012
O O21 0.630510 0.500000 0.660201
#
# Coordination Sequence:
#
# PCOD8178365 Si02
#       8
#     8   8   8   8   8   8   8   8
#     4  10  19  33  54  78 104 136 173 213 262 321
#     4  10  22  39  55  74 107 148 184 220 265 316
#     4  10  19  32  54  82 106 133 175 224 269 314
#     4   9  17  32  53  74  99 133 170 211 262 317
#     4  10  21  35  50  72 104 140 178 222 268 311
#     4   9  17  32  54  79 108 139 172 214 264 319
#     4  11  21  34  56  84 110 137 175 223 270 317
#     4   7  13  27  48  73  96 121 161 209 252 299
#
# _framework density 18.839981999999999
#
# number of rings (size 3 to 8) (size 9 to 14) (size 15 to 20)
#    0.000    2.500    0.000    4.500    0.000    4.000 
#    0.000    1.875    0.000    4.500    0.000    0.000 
#    0.000    0.000    0.000    0.000    0.000    0.000 
#
# Total GULP energy -396611.950159 kJ/mol
# GULP energy per Si atom -12394.123442 kJ/mol
# Density = 1.879710 g / cm^3
# Si number density = 18.839982 Si / 1000 Ang^3
#
#
#
# Elastic Constant Matrix: (Units=GPa)
#
#
# Indices 1 2 3 4 5 6 
#
# 1 47.6585 17.4858 20.2895 0.0000 0.0000 0.0000
# 2 17.4858 77.4283 30.6629 0.0000 0.0000 0.0000
# 3 20.2895 30.6629 113.1463 0.0000 0.0000 0.0000
# 4 0.0000 0.0000 0.0000 32.0553 0.0000 0.0000
# 5 0.0000 0.0000 0.0000 0.0000 5.2801 0.0000
# 6 0.0000 0.0000 0.0000 0.0000 0.0000 20.3460
#
#
#
# Elastic Compliance Matrix: (Units=1/GPa)
#
#
# Indices 1 2 3 4 5 6 
#
# 1 0.023843 -0.004135 -0.003155 0.000000 0.000000 0.000000
# 2 -0.004135 0.015185 -0.003374 0.000000 0.000000 0.000000
# 3 -0.003155 -0.003374 0.010318 0.000000 0.000000 0.000000
# 4 0.000000 0.000000 0.000000 0.031196 0.000000 0.000000
# 5 0.000000 0.000000 0.000000 0.000000 0.189391 0.000000
# 6 0.000000 0.000000 0.000000 0.000000 0.000000 0.049150
#
#
# Mechanical properties :
#
#
# Convention : Reuss Voigt Hill
#
# Bulk Modulus (GPa) = 35.69045 41.67885 38.68465
# Shear Modulus (GPa) = 14.29591 22.85592 18.57592
#
# Velocity S-wave (km/s) = 2.75763 3.48682 3.14344
# Velocity P-wave (km/s) = 5.39671 6.19525 5.80972
#
# Compressibility (1/GPa) = 0.02801870
#
# Stress axis : x y z
#
# Youngs Moduli (GPa) = 41.94123 65.85428 96.91688
#
# Poissons Ratio (x) = 0.27231 0.30576
# Poissons Ratio (y) = 0.17343 0.32697
# Poissons Ratio (z) = 0.13232 0.22217
#
# Static dielectric constant tensor:
#      x y z
#    x 3.065020 0.000000 0.000000 
#    y 0.000000 3.388450 0.000000 
#    z 0.000000 0.000000 4.003690 
# 
# 
# High freq. dielectric constant tensor:
#      x y z
#    x 1.690930 0.000000 0.000000 
#    y 0.000000 1.720370 0.000000 
#    z 0.000000 0.000000 1.757960 
# 
# From -- ./inp_files/21358.got.cif
#   From: 2010.03.12/outbox.cif.g09.slc.cpg/sg38_11_cif.got.tgz:21358.got - 2010.04.14 02:38:36.
