data_PCOD8178648
_publ_section_title
;
Structure prediction by ZEFSAII (Michael W. Deem and Ramdas Pophale) SiO2 
 PCOD8178648
Probable space group: A M M 2
;
_chemical_formula_sum "Si O2"
_cell_formula_units_Z 56
_cell_length_a 13.756131
_cell_length_b 15.540673
_cell_length_c 12.026728
_cell_angle_alpha 90.000000
_cell_angle_beta 90.000000
_cell_angle_gamma 90.000000
_cell_volume 2571.068303
_symmetry_space_group_name_H-M "A M M 2"
_symmetry_group_IT_number 38
_symmetry_cell_setting 'orthorhombic'
loop_
_space_group_symop_operation_xyz
x,y,z
-x,-y,z
-x,y,z
x,-y,z
x,1/2+y,1/2+z
-x,1/2-y,1/2+z
-x,1/2+y,1/2+z
x,1/2-y,1/2+z
loop_
_atom_site_type_symbol
_atom_site_label
_atom_site_fract_x
_atom_site_fract_y
_atom_site_fract_z
Si Si1 0.389669 0.843401 0.857490
Si Si2 0.889507 0.743630 0.336142
Si Si3 0.206879 0.593574 0.948418
Si Si4 0.609145 0.359476 0.824068
Si Si5 0.744931 0.169386 0.667891
Si Si6 0.695194 0.154583 0.093147
Si Si7 0.108615 0.598387 0.517383
O O1 0.500000 0.875118 0.842828
O O2 0.379449 0.741399 0.846403
O O3 0.324125 0.880702 0.756270
O O4 0.350425 0.876668 0.976193
O O5 0.856247 0.831491 0.394179
O O6 0.828300 0.725717 0.226701
O O7 0.873001 0.661963 0.414965
O O8 0.000000 0.754226 0.299883
O O9 0.160016 0.500000 0.922351
O O10 0.317539 0.591818 0.904906
O O11 0.208729 0.602145 0.082436
O O12 0.500000 0.391033 0.849458
O O13 0.634147 0.382836 0.696070
O O14 0.687645 0.241378 0.595377
O O15 0.806212 0.118862 0.105793
O O16 0.116811 0.500000 0.475408
O O17 0.000000 0.614398 0.568296
#
# Coordination Sequence:
#
# PCOD8178648 Si02
#       7
#     8   8   8   8   8   8   8
#     4  10  19  34  63  96 125 166 222 273 327 388
#     4  11  23  44  68  92 129 170 215 271 330 395
#     4  12  25  43  66  98 138 179 222 270 332 404
#     4  10  21  37  60  91 127 172 221 270 327 393
#     4  11  20  40  62  95 125 174 214 265 331 395
#     4  11  18  38  64  91 127 165 216 273 327 389
#     4  10  21  38  65  95 121 158 209 266 330 392
#
# _framework density 21.780830000000002
#
# number of rings (size 3 to 8) (size 9 to 14) (size 15 to 20)
#    0.000    1.286    7.143    0.429    0.000    4.000 
#    0.000    0.000    0.000    2.143    0.000    0.000 
#    0.000    0.000    0.000    0.000    0.000    0.000 
#
# Total GULP energy -347133.412126 kJ/mol
# GULP energy per Si atom -12397.621862 kJ/mol
# Density = 2.173126 g / cm^3
# Si number density = 21.780830 Si / 1000 Ang^3
#
#
#
# Elastic Constant Matrix: (Units=GPa)
#
#
# Indices 1 2 3 4 5 6 
#
# 1 116.7753 17.0982 38.8687 0.0000 0.0000 0.0000
# 2 17.0982 92.3871 20.3042 0.0000 0.0000 0.0000
# 3 38.8687 20.3042 111.2150 0.0000 0.0000 0.0000
# 4 0.0000 0.0000 0.0000 4.2574 0.0000 0.0000
# 5 0.0000 0.0000 0.0000 0.0000 11.5259 0.0000
# 6 0.0000 0.0000 0.0000 0.0000 0.0000 14.6002
#
#
#
# Elastic Compliance Matrix: (Units=1/GPa)
#
#
# Indices 1 2 3 4 5 6 
#
# 1 0.009798 -0.001105 -0.003223 0.000000 0.000000 0.000000
# 2 -0.001105 0.011401 -0.001695 0.000000 0.000000 0.000000
# 3 -0.003223 -0.001695 0.010427 0.000000 0.000000 0.000000
# 4 0.000000 0.000000 0.000000 0.234884 0.000000 0.000000
# 5 0.000000 0.000000 0.000000 0.000000 0.086761 0.000000
# 6 0.000000 0.000000 0.000000 0.000000 0.000000 0.068492
#
#
# Mechanical properties :
#
#
# Convention : Reuss Voigt Hill
#
# Bulk Modulus (GPa) = 51.07092 52.54661 51.80877
# Shear Modulus (GPa) = 11.35497 22.35046 16.85272
#
# Velocity S-wave (km/s) = 2.28574 3.20684 2.78464
# Velocity P-wave (km/s) = 5.51948 6.15543 5.84611
#
# Compressibility (1/GPa) = 0.01958061
#
# Stress axis : x y z
#
# Youngs Moduli (GPa) = 102.06292 87.71071 95.90178
#
# Poissons Ratio (x) = 0.09693 0.30905
# Poissons Ratio (y) = 0.11279 0.16258
# Poissons Ratio (z) = 0.32890 0.14869
#
# Static dielectric constant tensor:
#      x y z
#    x 4.155700 0.000000 0.000000 
#    y 0.000000 3.625300 0.000000 
#    z 0.000000 0.000000 3.869990 
# 
# 
# High freq. dielectric constant tensor:
#      x y z
#    x 1.858910 0.000000 0.000000 
#    y 0.000000 1.830950 0.000000 
#    z 0.000000 0.000000 1.853200 
# 
# From -- ./inp_files/10102.got.cif
#   From: 2010.03.12/outbox.cif.g09.slc.cpg/sg38_6_cif.got.tgz:10102.got - 2010.04.14 02:38:36.
