data_PCOD8178822
_publ_section_title
;
Structure prediction by ZEFSAII (Michael W. Deem and Ramdas Pophale) SiO2 
 PCOD8178822
Probable space group: A M M 2
;
_chemical_formula_sum "Si O2"
_cell_formula_units_Z 48
_cell_length_a 9.271583
_cell_length_b 7.660194
_cell_length_c 34.375207
_cell_angle_alpha 90.000000
_cell_angle_beta 90.000000
_cell_angle_gamma 90.000000
_cell_volume 2441.400230
_symmetry_space_group_name_H-M "A M M 2"
_symmetry_group_IT_number 38
_symmetry_cell_setting 'orthorhombic'
loop_
_space_group_symop_operation_xyz
x,y,z
-x,-y,z
-x,y,z
x,-y,z
x,1/2+y,1/2+z
-x,1/2-y,1/2+z
-x,1/2+y,1/2+z
x,1/2-y,1/2+z
loop_
_atom_site_type_symbol
_atom_site_label
_atom_site_fract_x
_atom_site_fract_y
_atom_site_fract_z
Si Si1 0.328932 0.692792 0.630370
Si Si2 0.156643 0.699950 0.971922
Si Si3 0.669809 0.702794 0.815076
Si Si4 0.341609 0.706338 0.902560
Si Si5 0.173400 0.500000 0.268292
Si Si6 0.671820 0.500000 0.186800
Si Si7 0.338609 0.205243 0.044443
O O1 0.500000 0.684059 0.627864
O O2 0.268551 0.500000 0.641421
O O3 0.275166 0.749949 0.587330
O O4 0.279615 0.830079 0.662607
O O5 0.135944 0.500000 0.960653
O O6 0.240824 0.790890 0.935924
O O7 0.000000 0.790734 0.976005
O O8 0.238543 0.707955 0.012539
O O9 0.500000 0.740631 0.808423
O O10 0.702888 0.500000 0.805473
O O11 0.715238 0.749141 0.859298
O O12 0.766764 0.824548 0.788060
O O13 0.500000 0.788929 0.908082
O O14 0.352977 0.500000 0.907587
O O15 0.232572 0.500000 0.224843
O O16 0.000000 0.500000 0.268998
O O17 0.500000 0.500000 0.195804
O O18 0.500000 0.281605 0.039649
O O19 0.340483 0.000000 0.038045
#
# Coordination Sequence:
#
# PCOD8178822 Si02
#       7
#     8   8   8   8   4   4   8
#     4   8  16  32  55  83 108 133 178 238 287 330
#     4  10  20  31  46  74 110 146 182 221 267 327
#     4   9  19  39  66  89 111 147 196 248 295 339
#     4   8  15  31  55  80 104 136 183 234 281 327
#     4  12  26  40  56  88 128 158 188 230 288 364
#     4  10  20  36  60  84 108 144 188 236 290 338
#     4   9  18  33  52  75 103 136 180 230 277 322
#
# _framework density 19.660847
#
# number of rings (size 3 to 8) (size 9 to 14) (size 15 to 20)
#    0.000    2.833    0.000    3.250    1.167    3.000 
#    1.500    4.167    0.000    1.000    0.000    0.000 
#    0.000    0.000    0.000    0.000    0.000    0.000 
#
# Total GULP energy -297446.986173 kJ/mol
# GULP energy per Si atom -12393.624424 kJ/mol
# Density = 1.961610 g / cm^3
# Si number density = 19.660847 Si / 1000 Ang^3
#
#
#
# Elastic Constant Matrix: (Units=GPa)
#
#
# Indices 1 2 3 4 5 6 
#
# 1 107.9486 43.5217 78.2954 0.0000 0.0000 0.0000
# 2 43.5217 80.6636 63.5471 0.0000 0.0000 0.0000
# 3 78.2954 63.5471 170.1800 0.0000 0.0000 0.0000
# 4 0.0000 0.0000 0.0000 64.3166 0.0000 0.0000
# 5 0.0000 0.0000 0.0000 0.0000 1.6317 0.0000
# 6 0.0000 0.0000 0.0000 0.0000 0.0000 13.8206
#
#
#
# Elastic Compliance Matrix: (Units=1/GPa)
#
#
# Indices 1 2 3 4 5 6 
#
# 1 0.014632 -0.003671 -0.005361 0.000000 0.000000 0.000000
# 2 -0.003671 0.018485 -0.005213 0.000000 0.000000 0.000000
# 3 -0.005361 -0.005213 0.010289 0.000000 0.000000 0.000000
# 4 0.000000 0.000000 0.000000 0.015548 0.000000 0.000000
# 5 0.000000 0.000000 0.000000 0.000000 0.612873 0.000000
# 6 0.000000 0.000000 0.000000 0.000000 0.000000 0.072356
#
#
# Mechanical properties :
#
#
# Convention : Reuss Voigt Hill
#
# Bulk Modulus (GPa) = 67.04594 81.05784 74.05189
# Shear Modulus (GPa) = 6.42966 27.51564 16.97265
#
# Velocity S-wave (km/s) = 1.81035 3.74507 2.94134
# Velocity P-wave (km/s) = 6.20847 7.74714 7.02009
#
# Compressibility (1/GPa) = 0.01491515
#
# Stress axis : x y z
#
# Youngs Moduli (GPa) = 68.34262 54.09719 97.18793
#
# Poissons Ratio (x) = 0.19861 0.52102
# Poissons Ratio (y) = 0.25091 0.50669
# Poissons Ratio (z) = 0.36638 0.28204
#
# Static dielectric constant tensor:
#      x y z
#    x 3.614760 0.000000 0.000000 
#    y 0.000000 3.582970 0.000000 
#    z 0.000000 0.000000 3.710180 
# 
# 
# High freq. dielectric constant tensor:
#      x y z
#    x 1.734630 0.000000 0.000000 
#    y 0.000000 1.758830 0.000000 
#    z 0.000000 0.000000 1.771580 
# 
# From -- ./inp_files/24384.got.cif
#   From: 2010.03.12/outbox.cif.g09.slc.cpg/sg38_13_cif.got.tgz:24384.got - 2010.04.14 02:38:36.
