data_PCOD8178057
_publ_section_title
;
Structure prediction by ZEFSAII (Michael W. Deem and Ramdas Pophale) SiO2 
 PCOD8178057
Probable space group: A M M 2
;
_chemical_formula_sum "Si O2"
_cell_formula_units_Z 56
_cell_length_a 9.204043
_cell_length_b 24.441882
_cell_length_c 14.222770
_cell_angle_alpha 90.000000
_cell_angle_beta 90.000000
_cell_angle_gamma 90.000000
_cell_volume 3199.613121
_symmetry_space_group_name_H-M "A M M 2"
_symmetry_group_IT_number 38
_symmetry_cell_setting 'orthorhombic'
loop_
_space_group_symop_operation_xyz
x,y,z
-x,-y,z
-x,y,z
x,-y,z
x,1/2+y,1/2+z
-x,1/2-y,1/2+z
-x,1/2+y,1/2+z
x,1/2-y,1/2+z
loop_
_atom_site_type_symbol
_atom_site_label
_atom_site_fract_x
_atom_site_fract_y
_atom_site_fract_z
Si Si1 0.173044 0.296162 0.886190
Si Si2 0.832888 0.777973 0.595687
Si Si3 0.824785 0.000000 0.232217
Si Si4 0.665381 0.607824 0.423073
Si Si5 0.326249 0.000000 0.029980
Si Si6 0.659863 0.825766 0.104081
Si Si7 0.331720 0.106224 0.280490
Si Si8 0.167834 0.818430 0.792648
O O1 0.261536 0.345431 0.840640
O O2 0.221384 0.238917 0.838381
O O3 0.000000 0.305928 0.875703
O O4 0.227769 0.297086 0.994975
O O5 0.772165 0.720473 0.631681
O O6 0.802396 0.820421 0.680194
O O7 0.000000 0.766382 0.581884
O O8 0.761015 0.000000 0.127112
O O9 0.764564 0.948230 0.291057
O O10 0.000000 0.000000 0.230050
O O11 0.500000 0.599929 0.391802
O O12 0.723377 0.551595 0.467413
O O13 0.685390 0.655883 0.498069
O O14 0.753493 0.627740 0.332321
O O15 0.500000 0.000000 0.051696
O O16 0.500000 0.800215 0.116202
O O17 0.676934 0.878300 0.170599
O O18 0.500000 0.096475 0.310778
O O19 0.000000 0.825019 0.816542
#
# Coordination Sequence:
#
# PCOD8178057 Si02
#       8
#     8   8   4   8   4   8   8   8
#     4  10  20  34  53  78 107 141 181 222 268 324
#     4  10  20  34  51  75 111 147 175 218 271 319
#     4  12  24  36  56  83 110 143 180 219 266 326
#     4  10  20  34  53  76 107 143 178 218 269 322
#     4  10  20  38  56  77 110 145 180 223 274 320
#     4  10  19  30  50  78 107 140 176 216 261 319
#     4  11  22  37  55  78 111 146 179 222 268 317
#     4  10  20  33  52  78 109 143 179 222 270 320
#
# _framework density 17.502116999999998
#
# number of rings (size 3 to 8) (size 9 to 14) (size 15 to 20)
#    0.000    1.714    4.286    1.071    0.000    2.857 
#    0.000    0.000    0.000    0.857    0.000    5.000 
#    0.000    0.000    0.000    0.000    0.000    0.000 
#
# Total GULP energy -347117.106287 kJ/mol
# GULP energy per Si atom -12397.039510 kJ/mol
# Density = 1.746228 g / cm^3
# Si number density = 17.502117 Si / 1000 Ang^3
#
#
#
# Elastic Constant Matrix: (Units=GPa)
#
#
# Indices 1 2 3 4 5 6 
#
# 1 58.3130 41.7114 35.7791 0.0000 0.0000 0.0000
# 2 41.7114 89.1483 27.1812 0.0000 0.0000 0.0000
# 3 35.7791 27.1812 79.3588 0.0000 0.0000 0.0000
# 4 0.0000 0.0000 0.0000 20.1464 0.0000 0.0000
# 5 0.0000 0.0000 0.0000 0.0000 25.6527 0.0000
# 6 0.0000 0.0000 0.0000 0.0000 0.0000 28.1255
#
#
#
# Elastic Compliance Matrix: (Units=1/GPa)
#
#
# Indices 1 2 3 4 5 6 
#
# 1 0.031935 -0.011782 -0.010362 0.000000 0.000000 0.000000
# 2 -0.011782 0.016872 -0.000467 0.000000 0.000000 0.000000
# 3 -0.010362 -0.000467 0.017433 0.000000 0.000000 0.000000
# 4 0.000000 0.000000 0.000000 0.049637 0.000000 0.000000
# 5 0.000000 0.000000 0.000000 0.000000 0.038982 0.000000
# 6 0.000000 0.000000 0.000000 0.000000 0.000000 0.035555
#
#
# Mechanical properties :
#
#
# Convention : Reuss Voigt Hill
#
# Bulk Modulus (GPa) = 47.58080 48.46261 48.02171
# Shear Modulus (GPa) = 20.60644 22.92815 21.76729
#
# Velocity S-wave (km/s) = 3.43500 3.62335 3.53043
# Velocity P-wave (km/s) = 6.55569 6.72715 6.64197
#
# Compressibility (1/GPa) = 0.02101688
#
# Stress axis : x y z
#
# Youngs Moduli (GPa) = 31.31381 59.26807 57.36332
#
# Poissons Ratio (x) = 0.69832 0.59441
# Poissons Ratio (y) = 0.36895 0.02678
# Poissons Ratio (z) = 0.32448 0.02767
#
# Static dielectric constant tensor:
#      x y z
#    x 3.216450 0.000000 0.000000 
#    y 0.000000 3.148210 0.000000 
#    z 0.000000 0.000000 3.335790 
# 
# 
# High freq. dielectric constant tensor:
#      x y z
#    x 1.674710 0.000000 0.000000 
#    y 0.000000 1.661480 0.000000 
#    z 0.000000 0.000000 1.669080 
# 
# From -- ./inp_files/12467.got.cif
#   From: 2010.03.12/outbox.cif.g09.slc.cpg/sg38_7_cif.got.tgz:12467.got - 2010.04.14 02:38:36.
