data_PCOD8178758
_publ_section_title
;
Structure prediction by ZEFSAII (Michael W. Deem and Ramdas Pophale) SiO2 
 PCOD8178758
Probable space group: A M M 2
;
_chemical_formula_sum "Si O2"
_cell_formula_units_Z 48
_cell_length_a 8.690729
_cell_length_b 18.282163
_cell_length_c 15.184906
_cell_angle_alpha 90.000000
_cell_angle_beta 90.000000
_cell_angle_gamma 90.000000
_cell_volume 2412.658712
_symmetry_space_group_name_H-M "A M M 2"
_symmetry_group_IT_number 38
_symmetry_cell_setting 'orthorhombic'
loop_
_space_group_symop_operation_xyz
x,y,z
-x,-y,z
-x,y,z
x,-y,z
x,1/2+y,1/2+z
-x,1/2-y,1/2+z
-x,1/2+y,1/2+z
x,1/2-y,1/2+z
loop_
_atom_site_type_symbol
_atom_site_label
_atom_site_fract_x
_atom_site_fract_y
_atom_site_fract_z
Si Si1 0.179864 0.228488 0.593180
Si Si2 0.682765 0.158009 0.235481
Si Si3 0.681367 0.418893 0.153137
Si Si4 0.316800 0.500000 0.676145
Si Si5 0.674193 0.733903 0.908225
Si Si6 0.673307 0.608398 0.343237
Si Si7 0.683079 0.500000 0.482296
O O1 0.253730 0.284998 0.662651
O O2 0.235769 0.144672 0.599459
O O3 0.218914 0.247691 0.492185
O O4 0.000000 0.232666 0.608605
O O5 0.500000 0.163712 0.226526
O O6 0.742997 0.075080 0.220713
O O7 0.733393 0.174355 0.336817
O O8 0.500000 0.402035 0.152443
O O9 0.715082 0.500000 0.113030
O O10 0.750873 0.416663 0.252113
O O11 0.500000 0.500000 0.677246
O O12 0.243755 0.500000 0.578632
O O13 0.500000 0.716941 0.940492
O O14 0.680213 0.805442 0.848442
O O15 0.500000 0.578502 0.340149
O O16 0.747233 0.570639 0.429291
O O17 0.500000 0.500000 0.495886
#
# Coordination Sequence:
#
# PCOD8178758 Si02
#       7
#     8   8   8   4   8   8   4
#     4  12  25  39  58  85 124 163 200 241 296 369
#     4  10  20  39  65  90 118 152 200 253 300 349
#     4  10  19  36  62  89 117 149 195 248 295 347
#     4   9  18  32  57  92 121 144 184 251 305 343
#     4  10  20  36  60  85 114 154 204 252 292 345
#     4   9  15  27  52  85 114 141 179 235 295 345
#     4   9  14  22  44  82 119 140 166 223 301 359
#
# _framework density 19.895063
#
# number of rings (size 3 to 8) (size 9 to 14) (size 15 to 20)
#    0.000    2.000    2.500    2.500    0.000    3.667 
#    1.500    0.417    0.000    0.000    0.000    0.000 
#    0.000    0.000    0.000    0.000    0.000    0.000 
#
# Total GULP energy -297358.833058 kJ/mol
# GULP energy per Si atom -12389.951377 kJ/mol
# Density = 1.984978 g / cm^3
# Si number density = 19.895063 Si / 1000 Ang^3
#
#
#
# Elastic Constant Matrix: (Units=GPa)
#
#
# Indices 1 2 3 4 5 6 
#
# 1 49.0394 22.3044 21.4214 0.0000 0.0000 0.0000
# 2 22.3044 116.6476 31.1587 0.0000 0.0000 0.0000
# 3 21.4214 31.1587 85.1458 0.0000 0.0000 0.0000
# 4 0.0000 0.0000 0.0000 34.3607 0.0000 0.0000
# 5 0.0000 0.0000 0.0000 0.0000 9.7710 0.0000
# 6 0.0000 0.0000 0.0000 0.0000 0.0000 10.6084
#
#
#
# Elastic Compliance Matrix: (Units=1/GPa)
#
#
# Indices 1 2 3 4 5 6 
#
# 1 0.024003 -0.003299 -0.004831 0.000000 0.000000 0.000000
# 2 -0.003299 0.009955 -0.002813 0.000000 0.000000 0.000000
# 3 -0.004831 -0.002813 0.013989 0.000000 0.000000 0.000000
# 4 0.000000 0.000000 0.000000 0.029103 0.000000 0.000000
# 5 0.000000 0.000000 0.000000 0.000000 0.102343 0.000000
# 6 0.000000 0.000000 0.000000 0.000000 0.000000 0.094264
#
#
# Mechanical properties :
#
#
# Convention : Reuss Voigt Hill
#
# Bulk Modulus (GPa) = 38.37257 44.51129 41.44193
# Shear Modulus (GPa) = 16.43484 22.67793 19.55638
#
# Velocity S-wave (km/s) = 2.87727 3.37987 3.13865
# Velocity P-wave (km/s) = 5.51068 6.13620 5.83183
#
# Compressibility (1/GPa) = 0.02606028
#
# Stress axis : x y z
#
# Youngs Moduli (GPa) = 41.66190 100.45159 71.48229
#
# Poissons Ratio (x) = 0.33139 0.34536
# Poissons Ratio (y) = 0.13744 0.20108
# Poissons Ratio (z) = 0.20129 0.28257
#
# Static dielectric constant tensor:
#      x y z
#    x 3.105900 0.000000 0.000000 
#    y 0.000000 3.890640 0.000000 
#    z 0.000000 0.000000 3.698930 
# 
# 
# High freq. dielectric constant tensor:
#      x y z
#    x 1.715420 0.000000 0.000000 
#    y 0.000000 1.790680 0.000000 
#    z 0.000000 0.000000 1.779230 
# 
# From -- ./inp_files/12114.got.cif
#   From: 2010.03.12/outbox.cif.g09.slc.cpg/sg38_7_cif.got.tgz:12114.got - 2010.04.14 02:38:36.
