data_PCOD8178341
_publ_section_title
;
Structure prediction by ZEFSAII (Michael W. Deem and Ramdas Pophale) SiO2 
 PCOD8178341
Probable space group: A M M 2
;
_chemical_formula_sum "Si O2"
_cell_formula_units_Z 64
_cell_length_a 8.749847
_cell_length_b 33.609008
_cell_length_c 11.651381
_cell_angle_alpha 90.000000
_cell_angle_beta 90.000000
_cell_angle_gamma 90.000000
_cell_volume 3426.364462
_symmetry_space_group_name_H-M "A M M 2"
_symmetry_group_IT_number 38
_symmetry_cell_setting 'orthorhombic'
loop_
_space_group_symop_operation_xyz
x,y,z
-x,-y,z
-x,y,z
x,-y,z
x,1/2+y,1/2+z
-x,1/2-y,1/2+z
-x,1/2+y,1/2+z
x,1/2-y,1/2+z
loop_
_atom_site_type_symbol
_atom_site_label
_atom_site_fract_x
_atom_site_fract_y
_atom_site_fract_z
Si Si1 0.677408 0.668269 0.231160
Si Si2 0.325207 0.115444 0.511078
Si Si3 0.176209 0.822534 0.364066
Si Si4 0.181397 0.371998 0.451151
Si Si5 0.178489 0.767745 0.579432
Si Si6 0.172941 0.455033 0.111404
Si Si7 0.679525 0.813976 0.122991
Si Si8 0.181550 0.456577 0.370222
O O1 0.500000 0.672984 0.262307
O O2 0.706621 0.636059 0.132732
O O3 0.767613 0.654183 0.342857
O O4 0.740770 0.710634 0.187157
O O5 0.500000 0.119568 0.472710
O O6 0.220006 0.134252 0.412564
O O7 0.278544 0.069642 0.524589
O O8 0.212848 0.790178 0.461110
O O9 0.281290 0.812664 0.256624
O O10 0.000000 0.822077 0.326550
O O11 0.254142 0.354088 0.566232
O O12 0.239215 0.418176 0.441944
O O13 0.000000 0.370307 0.459851
O O14 0.245665 0.723987 0.561607
O O15 0.000000 0.765669 0.607126
O O16 0.177657 0.500000 0.067060
O O17 0.240438 0.451839 0.239967
O O18 0.000000 0.438286 0.108233
O O19 0.500000 0.812662 0.104498
O O20 0.239237 0.500000 0.418921
O O21 0.000000 0.457277 0.367500
#
# Coordination Sequence:
#
# PCOD8178341 Si02
#       8
#     8   8   8   8   8   8   8   8
#     4  10  20  34  53  81 115 148 183 224 278 336
#     4  10  19  32  53  80 113 147 180 224 282 338
#     4  10  22  41  62  81 105 142 192 235 275 331
#     4  11  21  35  58  84 115 152 194 237 281 338
#     4  10  22  40  62  84 108 142 187 233 279 332
#     4   9  16  28  49  79 113 148 187 228 274 331
#     4  12  26  41  58  81 115 149 186 234 287 342
#     4   8  15  29  52  82 114 148 188 236 284 330
#
# _framework density 18.67869
#
# number of rings (size 3 to 8) (size 9 to 14) (size 15 to 20)
#    0.000    2.000    1.250    3.750    1.750    2.750 
#    0.000    0.000    0.000    2.250    0.000    1.750 
#    0.000    0.000    0.000    0.000    0.000    0.000 
#
# Total GULP energy -396818.964103 kJ/mol
# GULP energy per Si atom -12400.592628 kJ/mol
# Density = 1.863618 g / cm^3
# Si number density = 18.678690 Si / 1000 Ang^3
#
#
#
# Elastic Constant Matrix: (Units=GPa)
#
#
# Indices 1 2 3 4 5 6 
#
# 1 50.2201 29.7337 30.3101 0.0000 0.0000 0.0000
# 2 29.7337 131.9571 41.0811 0.0000 0.0000 0.0000
# 3 30.3101 41.0811 66.3768 0.0000 0.0000 0.0000
# 4 0.0000 0.0000 0.0000 23.0479 0.0000 0.0000
# 5 0.0000 0.0000 0.0000 0.0000 28.6814 0.0000
# 6 0.0000 0.0000 0.0000 0.0000 0.0000 22.3065
#
#
#
# Elastic Compliance Matrix: (Units=1/GPa)
#
#
# Indices 1 2 3 4 5 6 
#
# 1 0.028370 -0.002923 -0.011146 0.000000 0.000000 0.000000
# 2 -0.002923 0.009688 -0.004661 0.000000 0.000000 0.000000
# 3 -0.011146 -0.004661 0.023040 0.000000 0.000000 0.000000
# 4 0.000000 0.000000 0.000000 0.043388 0.000000 0.000000
# 5 0.000000 0.000000 0.000000 0.000000 0.034866 0.000000
# 6 0.000000 0.000000 0.000000 0.000000 0.000000 0.044830
#
#
# Mechanical properties :
#
#
# Convention : Reuss Voigt Hill
#
# Bulk Modulus (GPa) = 42.30456 50.08931 46.19693
# Shear Modulus (GPa) = 21.78453 24.63575 23.21014
#
# Velocity S-wave (km/s) = 3.41878 3.63564 3.52888
# Velocity P-wave (km/s) = 6.18723 6.67071 6.43351
#
# Compressibility (1/GPa) = 0.02363812
#
# Stress axis : x y z
#
# Youngs Moduli (GPa) = 35.24884 103.22108 43.40261
#
# Poissons Ratio (x) = 0.30167 0.48376
# Poissons Ratio (y) = 0.10302 0.20232
# Poissons Ratio (z) = 0.39288 0.48115
#
# Static dielectric constant tensor:
#      x y z
#    x 3.343600 0.000000 0.000000 
#    y 0.000000 3.700560 0.000000 
#    z 0.000000 0.000000 3.187430 
# 
# 
# High freq. dielectric constant tensor:
#      x y z
#    x 1.723090 0.000000 0.000000 
#    y 0.000000 1.731810 0.000000 
#    z 0.000000 0.000000 1.696700 
# 
# From -- ./inp_files/8633.got.cif
#   From: 2010.03.12/outbox.cif.g09.slc.cpg/sg38_5_cif.got.tgz:8633.got - 2010.04.14 02:38:36.
