data_PCOD8178784
_publ_section_title
;
Structure prediction by ZEFSAII (Michael W. Deem and Ramdas Pophale) SiO2 
 PCOD8178784
Probable space group: A M M 2
;
_chemical_formula_sum "Si O2"
_cell_formula_units_Z 48
_cell_length_a 9.484045
_cell_length_b 7.990670
_cell_length_c 34.229515
_cell_angle_alpha 90.000000
_cell_angle_beta 90.000000
_cell_angle_gamma 90.000000
_cell_volume 2594.045247
_symmetry_space_group_name_H-M "A M M 2"
_symmetry_group_IT_number 38
_symmetry_cell_setting 'orthorhombic'
loop_
_space_group_symop_operation_xyz
x,y,z
-x,-y,z
-x,y,z
x,-y,z
x,1/2+y,1/2+z
-x,1/2-y,1/2+z
-x,1/2+y,1/2+z
x,1/2-y,1/2+z
loop_
_atom_site_type_symbol
_atom_site_label
_atom_site_fract_x
_atom_site_fract_y
_atom_site_fract_z
Si Si1 0.832757 0.685138 0.903500
Si Si2 0.658691 0.694260 0.173253
Si Si3 0.668319 0.000000 0.034686
Si Si4 0.667367 0.814344 0.585977
Si Si5 0.838019 0.190978 0.823074
Si Si6 0.168450 0.000000 0.954186
Si Si7 0.844080 0.808461 0.242685
O O1 0.788080 0.500000 0.919119
O O2 0.770782 0.706984 0.859466
O O3 0.778617 0.832589 0.931805
O O4 0.000000 0.702224 0.900870
O O5 0.500000 0.765178 0.175939
O O6 0.661091 0.500000 0.183775
O O7 0.721375 0.724767 0.129829
O O8 0.753023 0.791052 0.203992
O O9 0.719055 0.167062 0.057474
O O10 0.500000 0.000000 0.028151
O O11 0.751000 0.000000 0.994669
O O12 0.500000 0.819358 0.587518
O O13 0.721961 0.000000 0.572410
O O14 0.767512 0.224580 0.780659
O O15 0.000000 0.245108 0.817757
O O16 0.822120 0.000000 0.835396
O O17 0.000000 0.000000 0.960577
O O18 0.000000 0.729910 0.235060
O O19 0.858752 0.000000 0.253455
#
# Coordination Sequence:
#
# PCOD8178784 Si02
#       7
#     8   8   4   8   8   4   8
#     4   9  16  28  48  72  99 132 167 203 244 295
#     4   9  18  33  52  72  95 127 170 214 254 296
#     4  10  20  34  56  78  98 130 168 204 252 304
#     4   8  16  32  53  76  98 125 168 213 245 291
#     4   9  15  26  45  68  96 131 170 207 243 285
#     4  10  20  34  50  76 106 128 160 208 256 298
#     4  10  20  30  43  71 106 135 166 207 252 298
#
# _framework density 18.503917999999999
#
# number of rings (size 3 to 8) (size 9 to 14) (size 15 to 20)
#    0.000    2.833    0.833    2.000    1.167    4.000 
#    0.000    0.833    0.000    2.000    0.000    0.000 
#    0.000    0.000    0.000    0.000    0.000    0.000 
#
# Total GULP energy -297393.877764 kJ/mol
# GULP energy per Si atom -12391.411573 kJ/mol
# Density = 1.846180 g / cm^3
# Si number density = 18.503918 Si / 1000 Ang^3
#
#
#
# Elastic Constant Matrix: (Units=GPa)
#
#
# Indices 1 2 3 4 5 6 
#
# 1 28.5027 19.4390 30.1700 0.0000 0.0000 0.0000
# 2 19.4390 125.7131 76.0834 0.0000 0.0000 0.0000
# 3 30.1700 76.0834 146.3587 0.0000 0.0000 0.0000
# 4 0.0000 0.0000 0.0000 30.6925 0.0000 0.0000
# 5 0.0000 0.0000 0.0000 0.0000 87.2726 0.0000
# 6 0.0000 0.0000 0.0000 0.0000 0.0000 13.4184
#
#
#
# Elastic Compliance Matrix: (Units=1/GPa)
#
#
# Indices 1 2 3 4 5 6 
#
# 1 0.045208 -0.001970 -0.008295 0.000000 0.000000 0.000000
# 2 -0.001970 0.011692 -0.005672 0.000000 0.000000 0.000000
# 3 -0.008295 -0.005672 0.011491 0.000000 0.000000 0.000000
# 4 0.000000 0.000000 0.000000 0.032581 0.000000 0.000000
# 5 0.000000 0.000000 0.000000 0.000000 0.011458 0.000000
# 6 0.000000 0.000000 0.000000 0.000000 0.000000 0.074524
#
#
# Mechanical properties :
#
#
# Convention : Reuss Voigt Hill
#
# Bulk Modulus (GPa) = 27.38452 61.32883 44.35668
# Shear Modulus (GPa) = 21.64488 37.93550 29.79019
#
# Velocity S-wave (km/s) = 3.42386 4.53275 4.01676
# Velocity P-wave (km/s) = 5.51923 7.78525 6.74804
#
# Compressibility (1/GPa) = 0.03651698
#
# Stress axis : x y z
#
# Youngs Moduli (GPa) = 22.11987 85.52881 87.02577
#
# Poissons Ratio (x) = 0.16853 0.72186
# Poissons Ratio (y) = 0.04359 0.49359
# Poissons Ratio (z) = 0.18348 0.48510
#
# Static dielectric constant tensor:
#      x y z
#    x 2.833760 0.000000 0.000000 
#    y 0.000000 3.696400 0.000000 
#    z 0.000000 0.000000 3.458150 
# 
# 
# High freq. dielectric constant tensor:
#      x y z
#    x 1.645300 0.000000 0.000000 
#    y 0.000000 1.732440 0.000000 
#    z 0.000000 0.000000 1.724850 
# 
# From -- ./inp_files/24379.got.cif
#   From: 2010.03.12/outbox.cif.g09.slc.cpg/sg38_13_cif.got.tgz:24379.got - 2010.04.14 02:38:36.
