data_PCOD8178037
_publ_section_title
;
Structure prediction by ZEFSAII (Michael W. Deem and Ramdas Pophale) SiO2 
 PCOD8178037
Probable space group: A M M 2
;
_chemical_formula_sum "Si O2"
_cell_formula_units_Z 56
_cell_length_a 8.818002
_cell_length_b 18.951724
_cell_length_c 18.148946
_cell_angle_alpha 90.000000
_cell_angle_beta 90.000000
_cell_angle_gamma 90.000000
_cell_volume 3032.985433
_symmetry_space_group_name_H-M "A M M 2"
_symmetry_group_IT_number 38
_symmetry_cell_setting 'orthorhombic'
loop_
_space_group_symop_operation_xyz
x,y,z
-x,-y,z
-x,y,z
x,-y,z
x,1/2+y,1/2+z
-x,1/2-y,1/2+z
-x,1/2+y,1/2+z
x,1/2-y,1/2+z
loop_
_atom_site_type_symbol
_atom_site_label
_atom_site_fract_x
_atom_site_fract_y
_atom_site_fract_z
Si Si1 0.179177 0.080317 0.987250
Si Si2 0.170870 0.077781 0.368959
Si Si3 0.325710 0.833944 0.108704
Si Si4 0.827937 0.291997 0.384525
Si Si5 0.325580 0.077461 0.520452
Si Si6 0.321042 0.305616 0.775118
Si Si7 0.830350 0.213912 0.529780
O O1 0.236133 0.136229 0.924314
O O2 0.000000 0.086211 0.991340
O O3 0.230957 0.000000 0.967967
O O4 0.238793 0.101281 0.068842
O O5 0.292046 0.077575 0.434237
O O6 0.225733 0.131048 0.307923
O O7 0.000000 0.097142 0.397067
O O8 0.168860 0.000000 0.332772
O O9 0.500000 0.855154 0.107638
O O10 0.272673 0.812155 0.190164
O O11 0.296000 0.764379 0.062129
O O12 0.729579 0.269019 0.312934
O O13 0.822603 0.225381 0.441226
O O14 0.000000 0.305781 0.358533
O O15 0.500000 0.098270 0.533406
O O16 0.214720 0.135389 0.556085
O O17 0.290872 0.000000 0.554500
O O18 0.500000 0.314614 0.786547
O O19 0.000000 0.231449 0.558421
#
# Coordination Sequence:
#
# PCOD8178037 Si02
#       7
#     8   8   8   8   8   8   8
#     4   9  19  37  59  82 107 137 176 222 274 330
#     4  10  20  32  47  70 101 136 172 208 247 296
#     4  10  22  36  51  75 106 140 177 218 267 320
#     4   9  18  32  53  78 102 132 172 219 266 313
#     4  10  19  30  48  74 102 132 164 203 252 301
#     4  11  22  34  50  74 106 143 179 217 264 317
#     4  10  19  33  53  76 100 132 174 218 259 307
#
# _framework density 18.463657000000001
#
# number of rings (size 3 to 8) (size 9 to 14) (size 15 to 20)
#    0.000    2.143    1.429    3.000    0.000    7.143 
#    0.000    2.857    0.000    0.857    0.000    4.000 
#    0.000    0.000    0.000    0.000    0.000    0.000 
#
# Total GULP energy -346945.295924 kJ/mol
# GULP energy per Si atom -12390.903426 kJ/mol
# Density = 1.842163 g / cm^3
# Si number density = 18.463657 Si / 1000 Ang^3
#
#
#
# Elastic Constant Matrix: (Units=GPa)
#
#
# Indices 1 2 3 4 5 6 
#
# 1 44.7295 25.0011 14.8988 0.0000 0.0000 0.0000
# 2 25.0011 119.3107 22.8460 0.0000 0.0000 0.0000
# 3 14.8988 22.8460 58.3268 0.0000 0.0000 0.0000
# 4 0.0000 0.0000 0.0000 16.6829 0.0000 0.0000
# 5 0.0000 0.0000 0.0000 0.0000 23.0572 0.0000
# 6 0.0000 0.0000 0.0000 0.0000 0.0000 27.0093
#
#
#
# Elastic Compliance Matrix: (Units=1/GPa)
#
#
# Indices 1 2 3 4 5 6 
#
# 1 0.026599 -0.004619 -0.004985 0.000000 0.000000 0.000000
# 2 -0.004619 0.009863 -0.002683 0.000000 0.000000 0.000000
# 3 -0.004985 -0.002683 0.019469 0.000000 0.000000 0.000000
# 4 0.000000 0.000000 0.000000 0.059942 0.000000 0.000000
# 5 0.000000 0.000000 0.000000 0.000000 0.043370 0.000000
# 6 0.000000 0.000000 0.000000 0.000000 0.000000 0.037024
#
#
# Mechanical properties :
#
#
# Convention : Reuss Voigt Hill
#
# Bulk Modulus (GPa) = 31.89173 38.65097 35.27135
# Shear Modulus (GPa) = 21.61741 23.99127 22.80434
#
# Velocity S-wave (km/s) = 3.42542 3.60860 3.51820
# Velocity P-wave (km/s) = 5.74063 6.19206 5.97062
#
# Compressibility (1/GPa) = 0.03135609
#
# Stress axis : x y z
#
# Youngs Moduli (GPa) = 37.59561 101.38672 51.36317
#
# Poissons Ratio (x) = 0.46832 0.25605
# Poissons Ratio (y) = 0.17366 0.13783
# Poissons Ratio (z) = 0.18742 0.27206
#
# Static dielectric constant tensor:
#      x y z
#    x 3.360530 0.000000 0.000000 
#    y 0.000000 3.710650 0.000000 
#    z 0.000000 0.000000 3.159610 
# 
# 
# High freq. dielectric constant tensor:
#      x y z
#    x 1.720390 0.000000 0.000000 
#    y 0.000000 1.723750 0.000000 
#    z 0.000000 0.000000 1.673930 
# 
# From -- ./inp_files/17092.got.cif
#   From: 2010.03.12/outbox.cif.g09.slc.cpg/sg38_9_cif.got.tgz:17092.got - 2010.04.14 02:38:36.
