data_PCOD8178892
_publ_section_title
;
Structure prediction by ZEFSAII (Michael W. Deem and Ramdas Pophale) SiO2 
 PCOD8178892
Probable space group: A M M 2
;
_chemical_formula_sum "Si O2"
_cell_formula_units_Z 40
_cell_length_a 9.636948
_cell_length_b 9.480297
_cell_length_c 25.156276
_cell_angle_alpha 90.000000
_cell_angle_beta 90.000000
_cell_angle_gamma 90.000000
_cell_volume 2298.305782
_symmetry_space_group_name_H-M "A M M 2"
_symmetry_group_IT_number 38
_symmetry_cell_setting 'orthorhombic'
loop_
_space_group_symop_operation_xyz
x,y,z
-x,-y,z
-x,y,z
x,-y,z
x,1/2+y,1/2+z
-x,1/2-y,1/2+z
-x,1/2+y,1/2+z
x,1/2-y,1/2+z
loop_
_atom_site_type_symbol
_atom_site_label
_atom_site_fract_x
_atom_site_fract_y
_atom_site_fract_z
Si Si1 0.159941 0.337945 0.760740
Si Si2 0.664835 0.656521 0.940745
Si Si3 0.840242 0.660397 0.637708
Si Si4 0.663414 0.663787 0.341833
Si Si5 0.656918 0.333616 0.058287
O O1 0.196206 0.500000 0.774344
O O2 0.188674 0.306758 0.699176
O O3 0.258788 0.234437 0.792887
O O4 0.000000 0.306784 0.774901
O O5 0.500000 0.649559 0.941837
O O6 0.723287 0.500000 0.927348
O O7 0.717712 0.766119 0.896566
O O8 0.714533 0.705600 0.999358
O O9 0.799252 0.500000 0.624609
O O10 0.750054 0.763353 0.602575
O O11 0.000000 0.687619 0.624117
O O12 0.500000 0.688402 0.334104
O O13 0.701604 0.500000 0.344060
O O14 0.500000 0.278352 0.065223
O O15 0.662957 0.500000 0.066337
#
# Coordination Sequence:
#
# PCOD8178892 Si02
#       5
#     8   8   8   8   8
#     4   9  19  36  54  70  93 129 169 204 240 286
#     4   8  15  30  50  70  96 131 165 196 235 284
#     4   9  19  35  52  71  97 129 165 203 242 286
#     4  10  20  32  49  76 104 127 157 200 246 290
#     4   9  18  32  51  76 102 127 160 201 241 285
#
# _framework density 17.404125000000001
#
# number of rings (size 3 to 8) (size 9 to 14) (size 15 to 20)
#    0.000    3.000    0.000    3.000    0.000    4.800 
#    0.000    9.000    0.000    1.200    0.000    0.000 
#    0.000    0.000    0.000    0.000    0.000    0.000 
#
# Total GULP energy -247955.076440 kJ/mol
# GULP energy per Si atom -12397.753822 kJ/mol
# Density = 1.736451 g / cm^3
# Si number density = 17.404125 Si / 1000 Ang^3
#
#
#
# Elastic Constant Matrix: (Units=GPa)
#
#
# Indices 1 2 3 4 5 6 
#
# 1 51.0778 45.3552 52.7521 0.0000 0.0000 0.0000
# 2 45.3552 95.5040 70.5928 0.0000 0.0000 0.0000
# 3 52.7521 70.5928 112.4010 0.0000 0.0000 0.0000
# 4 0.0000 0.0000 0.0000 38.4115 0.0000 0.0000
# 5 0.0000 0.0000 0.0000 0.0000 -30.8429 0.0000
# 6 0.0000 0.0000 0.0000 0.0000 0.0000 30.8507
#
#
#
# Elastic Compliance Matrix: (Units=1/GPa)
#
#
# Indices 1 2 3 4 5 6 
#
# 1 0.042736 -0.010210 -0.013645 0.000000 0.000000 0.000000
# 2 -0.010210 0.021982 -0.009014 0.000000 0.000000 0.000000
# 3 -0.013645 -0.009014 0.020962 0.000000 0.000000 0.000000
# 4 0.000000 0.000000 0.000000 0.026034 0.000000 0.000000
# 5 0.000000 0.000000 0.000000 0.000000 -0.032422 0.000000
# 6 0.000000 0.000000 0.000000 0.000000 0.000000 0.032414
#
#
# Mechanical properties :
#
#
# Convention : Reuss Voigt Hill
#
# Bulk Modulus (GPa) = 50.14381 66.26478 58.20429
# Shear Modulus (GPa) = 27.16057 13.70272 20.43164
#
# Velocity S-wave (km/s) = 3.95471 2.80898 3.43002
# Velocity P-wave (km/s) = 7.05173 6.97691 7.01442
#
# Compressibility (1/GPa) = 0.01994264
#
# Stress axis : x y z
#
# Youngs Moduli (GPa) = 23.39959 45.49093 47.70597
#
# Poissons Ratio (x) = 0.46446 0.65093
# Poissons Ratio (y) = 0.23891 0.43003
# Poissons Ratio (z) = 0.31928 0.41007
#
# Static dielectric constant tensor:
#      x y z
#    x 3.002730 0.000000 0.000000 
#    y 0.000000 3.216030 0.000000 
#    z 0.000000 0.000000 3.362900 
# 
# 
# High freq. dielectric constant tensor:
#      x y z
#    x 1.648390 0.000000 0.000000 
#    y 0.000000 1.671750 0.000000 
#    z 0.000000 0.000000 1.682090 
# 
# From -- ./inp_files/20439.got.cif
#   From: 2010.03.12/outbox.cif.g09.slc.cpg/sg38_11_cif.got.tgz:20439.got - 2010.04.14 02:38:36.
