data_PCOD8178409
_publ_section_title
;
Structure prediction by ZEFSAII (Michael W. Deem and Ramdas Pophale) SiO2 
 PCOD8178409
Probable space group: A M M 2
;
_chemical_formula_sum "Si O2"
_cell_formula_units_Z 46
_cell_length_a 12.649146
_cell_length_b 11.368416
_cell_length_c 18.862069
_cell_angle_alpha 90.000000
_cell_angle_beta 90.000000
_cell_angle_gamma 90.000000
_cell_volume 2712.379740
_symmetry_space_group_name_H-M "A M M 2"
_symmetry_group_IT_number 38
_symmetry_cell_setting 'orthorhombic'
loop_
_space_group_symop_operation_xyz
x,y,z
-x,-y,z
-x,y,z
x,-y,z
x,1/2+y,1/2+z
-x,1/2-y,1/2+z
-x,1/2+y,1/2+z
x,1/2-y,1/2+z
loop_
_atom_site_type_symbol
_atom_site_label
_atom_site_fract_x
_atom_site_fract_y
_atom_site_fract_z
Si Si1 0.703663 0.279387 0.150410
Si Si2 0.500000 0.713728 0.834218
Si Si3 0.381946 0.000000 0.575469
Si Si4 0.883629 0.139371 0.913872
Si Si5 0.702317 0.639174 0.310007
Si Si6 0.500000 0.365536 0.676425
Si Si7 0.122820 0.136412 0.073450
Si Si8 0.500000 0.500000 0.940189
O O1 0.684319 0.387049 0.097916
O O2 0.721697 0.327031 0.229107
O O3 0.603650 0.193880 0.144016
O O4 0.809190 0.212146 0.128040
O O5 0.399433 0.797381 0.841835
O O6 0.500000 0.643861 0.760857
O O7 0.500000 0.618166 0.895456
O O8 0.395529 0.000000 0.490176
O O9 0.500000 0.000000 0.612138
O O10 0.801085 0.186293 0.855961
O O11 0.000000 0.191691 0.896315
O O12 0.890171 0.000000 0.910782
O O13 0.849146 0.176226 0.993229
O O14 0.685906 0.500000 0.317083
O O15 0.500000 0.500000 0.652520
O O16 0.000000 0.160212 0.089459
O O17 0.150340 0.000000 0.084911
#
# Coordination Sequence:
#
# PCOD8178409 Si02
#       8
#     8   4   4   8   8   4   8   2
#     4  11  20  34  55  79 107 148 179 212 274 329
#     4  10  21  33  52  76 103 138 178 212 265 313
#     4  10  22  36  53  73 114 151 175 205 265 334
#     4   8  16  32  52  74 100 132 169 218 270 308
#     4  10  20  33  54  80 108 136 174 223 270 314
#     4  10  19  33  52  77 105 131 176 228 261 313
#     4   9  19  36  56  78 107 141 181 228 276 318
#     4  10  22  38  50  74 106 150 182 210 256 330
#
# _framework density 16.959275999999999
#
# number of rings (size 3 to 8) (size 9 to 14) (size 15 to 20)
#    0.261    2.087    2.174    1.826    2.435    0.696 
#    0.000    0.435    0.000    0.000    0.000    0.000 
#    0.000    0.000    0.000    0.000    0.000    0.000 
#
# Total GULP energy -285171.707623 kJ/mol
# GULP energy per Si atom -12398.769897 kJ/mol
# Density = 1.692068 g / cm^3
# Si number density = 16.959276 Si / 1000 Ang^3
#
#
#
# Elastic Constant Matrix: (Units=GPa)
#
#
# Indices 1 2 3 4 5 6 
#
# 1 112.5525 56.8268 61.7402 0.0000 0.0000 0.0000
# 2 56.8268 105.6888 54.2814 0.0000 0.0000 0.0000
# 3 61.7402 54.2814 99.4715 0.0000 0.0000 0.0000
# 4 0.0000 0.0000 0.0000 8.3293 0.0000 0.0000
# 5 0.0000 0.0000 0.0000 0.0000 31.0998 0.0000
# 6 0.0000 0.0000 0.0000 0.0000 0.0000 17.9221
#
#
#
# Elastic Compliance Matrix: (Units=1/GPa)
#
#
# Indices 1 2 3 4 5 6 
#
# 1 0.014882 -0.004526 -0.006767 0.000000 0.000000 0.000000
# 2 -0.004526 0.014523 -0.005116 0.000000 0.000000 0.000000
# 3 -0.006767 -0.005116 0.017045 0.000000 0.000000 0.000000
# 4 0.000000 0.000000 0.000000 0.120058 0.000000 0.000000
# 5 0.000000 0.000000 0.000000 0.000000 0.032155 0.000000
# 6 0.000000 0.000000 0.000000 0.000000 0.000000 0.055797
#
#
# Mechanical properties :
#
#
# Convention : Reuss Voigt Hill
#
# Bulk Modulus (GPa) = 73.35794 73.71218 73.53506
# Shear Modulus (GPa) = 17.13375 21.12786 19.13080
#
# Velocity S-wave (km/s) = 3.18195 3.53342 3.36228
# Velocity P-wave (km/s) = 7.53983 7.75921 7.65030
#
# Compressibility (1/GPa) = 0.01363179
#
# Stress axis : x y z
#
# Youngs Moduli (GPa) = 67.19510 68.85706 58.66834
#
# Poissons Ratio (x) = 0.31166 0.39701
# Poissons Ratio (y) = 0.30414 0.30013
# Poissons Ratio (z) = 0.45471 0.35225
#
# Static dielectric constant tensor:
#      x y z
#    x 3.340000 0.000000 0.000000 
#    y 0.000000 2.990760 0.000000 
#    z 0.000000 0.000000 3.147570 
# 
# 
# High freq. dielectric constant tensor:
#      x y z
#    x 1.655730 0.000000 0.000000 
#    y 0.000000 1.642610 0.000000 
#    z 0.000000 0.000000 1.652810 
# 
# From -- ./inp_files/17699.got.cif
#   From: 2010.03.12/outbox.cif.g09.slc.cpg/sg38_9_cif.got.tgz:17699.got - 2010.04.14 02:38:36.
