data_PCOD8178711
_publ_section_title
;
Structure prediction by ZEFSAII (Michael W. Deem and Ramdas Pophale) SiO2 
 PCOD8178711
Probable space group: A M M 2
;
_chemical_formula_sum "Si O2"
_cell_formula_units_Z 48
_cell_length_a 17.298828
_cell_length_b 14.701487
_cell_length_c 9.947005
_cell_angle_alpha 90.000000
_cell_angle_beta 90.000000
_cell_angle_gamma 90.000000
_cell_volume 2529.707341
_symmetry_space_group_name_H-M "A M M 2"
_symmetry_group_IT_number 38
_symmetry_cell_setting 'orthorhombic'
loop_
_space_group_symop_operation_xyz
x,y,z
-x,-y,z
-x,y,z
x,-y,z
x,1/2+y,1/2+z
-x,1/2-y,1/2+z
-x,1/2+y,1/2+z
x,1/2-y,1/2+z
loop_
_atom_site_type_symbol
_atom_site_label
_atom_site_fract_x
_atom_site_fract_y
_atom_site_fract_z
Si Si1 0.500000 0.842748 0.762161
Si Si2 0.666406 0.599931 0.266291
Si Si3 0.227242 0.245458 0.676288
Si Si4 0.000000 0.892519 0.322066
Si Si5 0.666553 0.396031 0.572416
Si Si6 0.500000 0.174187 0.070504
Si Si7 0.877612 0.752764 0.426811
Si Si8 0.000000 0.892408 0.001230
O O1 0.424985 0.904235 0.738335
O O2 0.500000 0.765607 0.652293
O O3 0.500000 0.801448 0.912553
O O4 0.700820 0.500000 0.243523
O O5 0.708759 0.666519 0.162632
O O6 0.680740 0.632798 0.418616
O O7 0.272763 0.340061 0.661691
O O8 0.159234 0.228176 0.571242
O O9 0.190835 0.238489 0.822846
O O10 0.925994 0.842018 0.384954
O O11 0.000000 0.880326 0.161711
O O12 0.000000 0.000000 0.360448
O O13 0.687757 0.500000 0.598346
O O14 0.576782 0.381603 0.611493
O O15 0.926277 0.658950 0.437345
O O16 0.000000 0.000000 0.962123
#
# Coordination Sequence:
#
# PCOD8178711 Si02
#       8
#     4   8   8   4   8   4   8   4
#     4  10  19  35  61  82 114 158 211 255 295 344
#     4  10  21  37  59  87 118 161 209 251 296 350
#     4  12  22  38  61  89 127 157 191 243 303 351
#     4  10  22  43  68  91 118 155 195 238 294 354
#     4  10  21  37  60  87 117 162 210 248 294 354
#     4  10  19  35  61  84 114 156 209 259 293 342
#     4  11  24  40  63  95 122 151 193 245 289 355
#     4  10  22  43  70  91 114 159 199 230 288 364
#
# _framework density 18.974526000000001
#
# number of rings (size 3 to 8) (size 9 to 14) (size 15 to 20)
#    0.000    1.500    5.000    0.500    0.000    4.667 
#    0.000    0.833    0.000    1.000    0.000    0.000 
#    0.000    0.000    0.000    0.000    0.000    0.000 
#
# Total GULP energy -297579.192001 kJ/mol
# GULP energy per Si atom -12399.133000 kJ/mol
# Density = 1.893134 g / cm^3
# Si number density = 18.974526 Si / 1000 Ang^3
#
#
#
# Elastic Constant Matrix: (Units=GPa)
#
#
# Indices 1 2 3 4 5 6 
#
# 1 109.8464 56.6406 24.9687 0.0000 0.0000 0.0000
# 2 56.6406 132.8325 36.5937 0.0000 0.0000 0.0000
# 3 24.9687 36.5937 39.1010 0.0000 0.0000 0.0000
# 4 0.0000 0.0000 0.0000 29.0122 0.0000 0.0000
# 5 0.0000 0.0000 0.0000 0.0000 31.8182 0.0000
# 6 0.0000 0.0000 0.0000 0.0000 0.0000 104.9710
#
#
#
# Elastic Compliance Matrix: (Units=1/GPa)
#
#
# Indices 1 2 3 4 5 6 
#
# 1 0.012096 -0.004082 -0.003903 0.000000 0.000000 0.000000
# 2 -0.004082 0.011521 -0.008176 0.000000 0.000000 0.000000
# 3 -0.003903 -0.008176 0.035719 0.000000 0.000000 0.000000
# 4 0.000000 0.000000 0.000000 0.034468 0.000000 0.000000
# 5 0.000000 0.000000 0.000000 0.000000 0.031429 0.000000
# 6 0.000000 0.000000 0.000000 0.000000 0.000000 0.009526
#
#
# Mechanical properties :
#
#
# Convention : Reuss Voigt Hill
#
# Bulk Modulus (GPa) = 37.01916 57.57622 47.29769
# Shear Modulus (GPa) = 28.39512 44.06541 36.23026
#
# Velocity S-wave (km/s) = 3.87264 4.82430 4.37443
# Velocity P-wave (km/s) = 6.28878 7.83847 7.10600
#
# Compressibility (1/GPa) = 0.02701304
#
# Stress axis : x y z
#
# Youngs Moduli (GPa) = 82.67240 86.79542 27.99650
#
# Poissons Ratio (x) = 0.35434 0.10928
# Poissons Ratio (y) = 0.33750 0.22889
# Poissons Ratio (z) = 0.32271 0.70961
#
# Static dielectric constant tensor:
#      x y z
#    x 3.718760 0.000000 0.000000 
#    y 0.000000 3.413480 0.000000 
#    z 0.000000 0.000000 3.357610 
# 
# 
# High freq. dielectric constant tensor:
#      x y z
#    x 1.754610 0.000000 0.000000 
#    y 0.000000 1.735680 0.000000 
#    z 0.000000 0.000000 1.723610 
# 
# From -- ./inp_files/6260.got.cif
#   From: 2010.03.12/outbox.cif.g09.slc.cpg/sg38_4_cif.got.tgz:6260.got - 2010.04.14 02:38:36.
