data_PCOD8178430
_publ_section_title
;
Structure prediction by ZEFSAII (Michael W. Deem and Ramdas Pophale) SiO2 
 PCOD8178430
Probable space group: A M M 2
;
_chemical_formula_sum "Si O2"
_cell_formula_units_Z 48
_cell_length_a 7.759013
_cell_length_b 8.880952
_cell_length_c 34.388532
_cell_angle_alpha 90.000000
_cell_angle_beta 90.000000
_cell_angle_gamma 90.000000
_cell_volume 2369.625087
_symmetry_space_group_name_H-M "A M M 2"
_symmetry_group_IT_number 38
_symmetry_cell_setting 'orthorhombic'
loop_
_space_group_symop_operation_xyz
x,y,z
-x,-y,z
-x,y,z
x,-y,z
x,1/2+y,1/2+z
-x,1/2-y,1/2+z
-x,1/2+y,1/2+z
x,1/2-y,1/2+z
loop_
_atom_site_type_symbol
_atom_site_label
_atom_site_fract_x
_atom_site_fract_y
_atom_site_fract_z
Si Si1 0.803145 0.166929 0.179850
Si Si2 0.299746 0.322473 0.947667
Si Si3 0.000000 0.321006 0.398399
Si Si4 0.689445 0.677742 0.761335
Si Si5 0.295986 0.668073 0.526761
Si Si6 0.297237 0.171850 0.603206
Si Si7 0.000000 0.819941 0.314423
O O1 0.709136 0.240878 0.217317
O O2 0.786483 0.272661 0.142820
O O3 0.000000 0.153222 0.192228
O O4 0.728719 0.000000 0.169962
O O5 0.500000 0.278366 0.939423
O O6 0.273427 0.500000 0.944208
O O7 0.175532 0.241095 0.917300
O O8 0.240921 0.271000 0.990550
O O9 0.000000 0.267395 0.354441
O O10 0.000000 0.500000 0.401358
O O11 0.500000 0.722408 0.777214
O O12 0.713730 0.500000 0.757977
O O13 0.832048 0.738426 0.791106
O O14 0.500000 0.664581 0.529961
O O15 0.221360 0.500000 0.520949
O O16 0.219999 0.736645 0.566588
O O17 0.500000 0.194481 0.606432
O O18 0.245664 0.000000 0.596636
O O19 0.000000 0.000000 0.321228
#
# Coordination Sequence:
#
# PCOD8178430 Si02
#       7
#     8   8   4   8   8   8   4
#     4  10  19  33  53  79 111 147 191 244 293 342
#     4  10  21  40  66  93 122 158 201 250 302 357
#     4  12  26  42  62  91 126 163 198 240 297 362
#     4   9  17  32  58  87 113 145 186 237 295 349
#     4   9  17  32  56  84 115 152 194 243 296 349
#     4  10  20  33  50  76 111 152 198 243 287 341
#     4  10  20  38  60  85 116 147 190 242 289 352
#
# _framework density 20.256368999999999
#
# number of rings (size 3 to 8) (size 9 to 14) (size 15 to 20)
#    0.000    2.167    0.833    2.750    0.000    5.667 
#    1.500    2.500    0.000    1.000    0.000    0.000 
#    0.000    0.000    0.000    0.000    0.000    0.000 
#
# Total GULP energy -297567.037907 kJ/mol
# GULP energy per Si atom -12398.626579 kJ/mol
# Density = 2.021026 g / cm^3
# Si number density = 20.256369 Si / 1000 Ang^3
#
#
#
# Elastic Constant Matrix: (Units=GPa)
#
#
# Indices 1 2 3 4 5 6 
#
# 1 105.9804 42.9393 68.1312 0.0000 0.0000 0.0000
# 2 42.9393 82.5626 43.5782 0.0000 0.0000 0.0000
# 3 68.1312 43.5782 160.8926 0.0000 0.0000 0.0000
# 4 0.0000 0.0000 0.0000 33.6246 0.0000 0.0000
# 5 0.0000 0.0000 0.0000 0.0000 30.9674 0.0000
# 6 0.0000 0.0000 0.0000 0.0000 0.0000 19.1086
#
#
#
# Elastic Compliance Matrix: (Units=1/GPa)
#
#
# Indices 1 2 3 4 5 6 
#
# 1 0.014565 -0.005040 -0.004803 0.000000 0.000000 0.000000
# 2 -0.005040 0.015877 -0.002166 0.000000 0.000000 0.000000
# 3 -0.004803 -0.002166 0.008836 0.000000 0.000000 0.000000
# 4 0.000000 0.000000 0.000000 0.029740 0.000000 0.000000
# 5 0.000000 0.000000 0.000000 0.000000 0.032292 0.000000
# 6 0.000000 0.000000 0.000000 0.000000 0.000000 0.052333
#
#
# Mechanical properties :
#
#
# Convention : Reuss Voigt Hill
#
# Bulk Modulus (GPa) = 65.53062 73.19255 69.36159
# Shear Modulus (GPa) = 27.36034 29.72590 28.54312
#
# Velocity S-wave (km/s) = 3.67918 3.83493 3.75786
# Velocity P-wave (km/s) = 7.10418 7.47131 7.29005
#
# Compressibility (1/GPa) = 0.01526004
#
# Stress axis : x y z
#
# Youngs Moduli (GPa) = 68.65659 62.98602 113.17760
#
# Poissons Ratio (x) = 0.31746 0.54355
# Poissons Ratio (y) = 0.34604 0.24513
# Poissons Ratio (z) = 0.32973 0.13642
#
# Static dielectric constant tensor:
#      x y z
#    x 3.684380 0.000000 0.000000 
#    y 0.000000 3.534780 0.000000 
#    z 0.000000 0.000000 3.703040 
# 
# 
# High freq. dielectric constant tensor:
#      x y z
#    x 1.789080 0.000000 0.000000 
#    y 0.000000 1.770640 0.000000 
#    z 0.000000 0.000000 1.795360 
# 
# From -- ./inp_files/24399.got.cif
#   From: 2010.03.12/outbox.cif.g09.slc.cpg/sg38_13_cif.got.tgz:24399.got - 2010.04.14 02:38:36.
