data_PCOD8178098
_publ_section_title
;
Structure prediction by ZEFSAII (Michael W. Deem and Ramdas Pophale) SiO2 
 PCOD8178098
Probable space group: A M M 2
;
_chemical_formula_sum "Si O2"
_cell_formula_units_Z 56
_cell_length_a 14.408418
_cell_length_b 9.030438
_cell_length_c 24.143030
_cell_angle_alpha 90.000000
_cell_angle_beta 90.000000
_cell_angle_gamma 90.000000
_cell_volume 3141.354062
_symmetry_space_group_name_H-M "A M M 2"
_symmetry_group_IT_number 38
_symmetry_cell_setting 'orthorhombic'
loop_
_space_group_symop_operation_xyz
x,y,z
-x,-y,z
-x,y,z
x,-y,z
x,1/2+y,1/2+z
-x,1/2-y,1/2+z
-x,1/2+y,1/2+z
x,1/2-y,1/2+z
loop_
_atom_site_type_symbol
_atom_site_label
_atom_site_fract_x
_atom_site_fract_y
_atom_site_fract_z
Si Si1 0.816783 0.669921 0.060860
Si Si2 0.106861 0.825755 0.867691
Si Si3 0.605425 0.172516 0.872347
Si Si4 0.199178 0.677211 0.673654
Si Si5 0.254609 0.170638 0.777452
Si Si6 0.000000 0.162099 0.052645
Si Si7 0.248787 0.830688 0.443101
Si Si8 0.000000 0.658835 0.681797
O O1 0.836392 0.500000 0.077450
O O2 0.774149 0.754348 0.114149
O O3 0.909985 0.743649 0.037070
O O4 0.745526 0.681504 0.009779
O O5 0.161997 0.783988 0.811514
O O6 0.156417 0.747794 0.919465
O O7 0.000000 0.772496 0.862386
O O8 0.113205 0.000000 0.878242
O O9 0.500000 0.228586 0.868266
O O10 0.654980 0.205175 0.814010
O O11 0.656748 0.258245 0.921359
O O12 0.611365 0.000000 0.886715
O O13 0.199057 0.500000 0.668175
O O14 0.267570 0.731842 0.721854
O O15 0.097372 0.741169 0.693846
O O16 0.250357 0.000000 0.759766
O O17 0.000000 0.129382 0.116898
O O18 0.000000 0.000000 0.022115
O O19 0.244620 0.000000 0.423617
O O20 0.000000 0.500000 0.712922
#
# Coordination Sequence:
#
# PCOD8178098 Si02
#       8
#     8   8   8   8   8   4   8   4
#     4  10  20  33  48  70 104 142 177 213 257 305
#     4   9  19  34  50  71 101 141 181 215 256 308
#     4   9  19  38  62  82 101 130 169 213 264 324
#     4  10  19  31  48  71 101 138 180 217 253 297
#     4   9  18  32  51  76 104 131 168 213 260 314
#     4   9  17  29  45  66  93 132 181 220 248 284
#     4  10  21  34  51  78 107 135 172 216 263 313
#     4   7  14  27  39  58  89 126 169 208 236 272
#
# _framework density 17.826708
#
# number of rings (size 3 to 8) (size 9 to 14) (size 15 to 20)
#    0.000    2.714    0.000    3.214    2.000    5.143 
#    0.000    0.714    0.000    0.857    0.000    2.000 
#    0.000    0.000    0.000    0.000    0.000    0.000 
#
# Total GULP energy -347023.207250 kJ/mol
# GULP energy per Si atom -12393.685973 kJ/mol
# Density = 1.778613 g / cm^3
# Si number density = 17.826708 Si / 1000 Ang^3
#
#
#
# Elastic Constant Matrix: (Units=GPa)
#
#
# Indices 1 2 3 4 5 6 
#
# 1 113.8104 39.6114 47.0833 0.0000 0.0000 0.0000
# 2 39.6114 90.6634 54.6509 0.0000 0.0000 0.0000
# 3 47.0833 54.6509 110.0891 0.0000 0.0000 0.0000
# 4 0.0000 0.0000 0.0000 29.3434 0.0000 0.0000
# 5 0.0000 0.0000 0.0000 0.0000 14.7703 0.0000
# 6 0.0000 0.0000 0.0000 0.0000 0.0000 19.7062
#
#
#
# Elastic Compliance Matrix: (Units=1/GPa)
#
#
# Indices 1 2 3 4 5 6 
#
# 1 0.011170 -0.002855 -0.003360 0.000000 0.000000 0.000000
# 2 -0.002855 0.016469 -0.006955 0.000000 0.000000 0.000000
# 3 -0.003360 -0.006955 0.013973 0.000000 0.000000 0.000000
# 4 0.000000 0.000000 0.000000 0.034079 0.000000 0.000000
# 5 0.000000 0.000000 0.000000 0.000000 0.067704 0.000000
# 6 0.000000 0.000000 0.000000 0.000000 0.000000 0.050746
#
#
# Mechanical properties :
#
#
# Convention : Reuss Voigt Hill
#
# Bulk Modulus (GPa) = 65.47429 66.36157 65.91793
# Shear Modulus (GPa) = 22.16588 24.31178 23.23883
#
# Velocity S-wave (km/s) = 3.53003 3.69695 3.61445
# Velocity P-wave (km/s) = 7.30908 7.45185 7.38081
#
# Compressibility (1/GPa) = 0.01527317
#
# Stress axis : x y z
#
# Youngs Moduli (GPa) = 89.52336 60.71854 71.56586
#
# Poissons Ratio (x) = 0.17335 0.24047
# Poissons Ratio (y) = 0.25558 0.49773
# Poissons Ratio (z) = 0.30081 0.42229
#
# Static dielectric constant tensor:
#      x y z
#    x 3.323270 0.000000 0.000000 
#    y 0.000000 3.293780 0.000000 
#    z 0.000000 0.000000 3.166090 
# 
# 
# High freq. dielectric constant tensor:
#      x y z
#    x 1.655990 0.000000 0.000000 
#    y 0.000000 1.691610 0.000000 
#    z 0.000000 0.000000 1.686020 
# 
# From -- ./inp_files/21127.got.cif
#   From: 2010.03.12/outbox.cif.g09.slc.cpg/sg38_11_cif.got.tgz:21127.got - 2010.04.14 02:38:36.
