data_PCOD8178565
_publ_section_title
;
Structure prediction by ZEFSAII (Michael W. Deem and Ramdas Pophale) SiO2 
 PCOD8178565
Probable space group: A M M 2
;
_chemical_formula_sum "Si O2"
_cell_formula_units_Z 64
_cell_length_a 9.168729
_cell_length_b 28.066249
_cell_length_c 12.747480
_cell_angle_alpha 90.000000
_cell_angle_beta 90.000000
_cell_angle_gamma 90.000000
_cell_volume 3280.332371
_symmetry_space_group_name_H-M "A M M 2"
_symmetry_group_IT_number 38
_symmetry_cell_setting 'orthorhombic'
loop_
_space_group_symop_operation_xyz
x,y,z
-x,-y,z
-x,y,z
x,-y,z
x,1/2+y,1/2+z
-x,1/2-y,1/2+z
-x,1/2+y,1/2+z
x,1/2-y,1/2+z
loop_
_atom_site_type_symbol
_atom_site_label
_atom_site_fract_x
_atom_site_fract_y
_atom_site_fract_z
Si Si1 0.829932 0.706323 0.021220
Si Si2 0.170136 0.599225 0.956415
Si Si3 0.826301 0.616066 0.541466
Si Si4 0.173130 0.054227 0.238354
Si Si5 0.837503 0.052486 0.850453
Si Si6 0.327776 0.202489 0.952061
Si Si7 0.338879 0.183981 0.716515
Si Si8 0.338769 0.424431 0.153046
O O1 0.778526 0.709763 0.142389
O O2 0.000000 0.718762 0.016575
O O3 0.795931 0.655417 0.967896
O O4 0.736871 0.744720 0.958121
O O5 0.226408 0.580273 0.844398
O O6 0.000000 0.589376 0.971392
O O7 0.252022 0.568469 0.044802
O O8 0.769502 0.586307 0.641763
O O9 0.774289 0.587710 0.438105
O O10 0.748327 0.667536 0.536925
O O11 0.000000 0.623054 0.545641
O O12 0.000000 0.052236 0.234719
O O13 0.235117 0.000000 0.232140
O O14 0.740376 0.048880 0.747228
O O15 0.000000 0.069252 0.817827
O O16 0.842483 0.000000 0.901727
O O17 0.500000 0.202938 0.972712
O O18 0.285884 0.185154 0.835853
O O19 0.500000 0.207810 0.705044
O O20 0.347949 0.130297 0.680868
O O21 0.500000 0.446277 0.139492
#
# Coordination Sequence:
#
# PCOD8178565 Si02
#       8
#     8   8   8   8   8   8   8   8
#     4  10  21  35  54  83 114 149 194 244 293 342
#     4   9  19  36  57  82 114 150 191 237 288 342
#     4  10  20  35  57  84 113 148 194 241 287 341
#     4   9  18  35  60  87 117 154 194 240 294 352
#     4  10  20  33  52  80 112 144 182 230 284 341
#     4  11  22  37  57  82 114 152 195 237 293 357
#     4   9  19  36  55  75 106 147 185 228 283 342
#     4  10  19  34  55  79 108 143 184 229 281 339
#
# _framework density 19.510217000000001
#
# number of rings (size 3 to 8) (size 9 to 14) (size 15 to 20)
#    0.000    2.250    1.250    1.500    0.000    5.250 
#    0.000    3.125    0.000    1.875    0.000    0.000 
#    0.000    0.000    0.000    0.000    0.000    0.000 
#
# Total GULP energy -396756.154948 kJ/mol
# GULP energy per Si atom -12398.629842 kJ/mol
# Density = 1.946581 g / cm^3
# Si number density = 19.510217 Si / 1000 Ang^3
#
#
#
# Elastic Constant Matrix: (Units=GPa)
#
#
# Indices 1 2 3 4 5 6 
#
# 1 71.2218 35.6338 45.3425 0.0000 0.0000 0.0000
# 2 35.6338 74.6426 46.2397 0.0000 0.0000 0.0000
# 3 45.3425 46.2397 132.7340 0.0000 0.0000 0.0000
# 4 0.0000 0.0000 0.0000 24.0654 0.0000 0.0000
# 5 0.0000 0.0000 0.0000 0.0000 22.8829 0.0000
# 6 0.0000 0.0000 0.0000 0.0000 0.0000 16.1131
#
#
#
# Elastic Compliance Matrix: (Units=1/GPa)
#
#
# Indices 1 2 3 4 5 6 
#
# 1 0.020404 -0.006915 -0.004561 0.000000 0.000000 0.000000
# 2 -0.006915 0.019428 -0.004406 0.000000 0.000000 0.000000
# 3 -0.004561 -0.004406 0.010627 0.000000 0.000000 0.000000
# 4 0.000000 0.000000 0.000000 0.041553 0.000000 0.000000
# 5 0.000000 0.000000 0.000000 0.000000 0.043701 0.000000
# 6 0.000000 0.000000 0.000000 0.000000 0.000000 0.062061
#
#
# Mechanical properties :
#
#
# Convention : Reuss Voigt Hill
#
# Bulk Modulus (GPa) = 53.49139 59.22559 56.35849
# Shear Modulus (GPa) = 21.20714 22.70446 21.95580
#
# Velocity S-wave (km/s) = 3.30051 3.41504 3.35826
# Velocity P-wave (km/s) = 6.48083 6.78027 6.63224
#
# Compressibility (1/GPa) = 0.01869460
#
# Stress axis : x y z
#
# Youngs Moduli (GPa) = 49.00924 51.47292 94.10235
#
# Poissons Ratio (x) = 0.35595 0.42921
# Poissons Ratio (y) = 0.33891 0.41458
# Poissons Ratio (z) = 0.22354 0.22677
#
# Static dielectric constant tensor:
#      x y z
#    x 3.538890 0.000000 0.000000 
#    y 0.000000 3.507690 0.000000 
#    z 0.000000 0.000000 3.643510 
# 
# 
# High freq. dielectric constant tensor:
#      x y z
#    x 1.744160 0.000000 0.000000 
#    y 0.000000 1.759190 0.000000 
#    z 0.000000 0.000000 1.759580 
# 
# From -- ./inp_files/8602.got.cif
#   From: 2010.03.12/outbox.cif.g09.slc.cpg/sg38_5_cif.got.tgz:8602.got - 2010.04.14 02:38:36.
