data_PCOD8178847
_publ_section_title
;
Structure prediction by ZEFSAII (Michael W. Deem and Ramdas Pophale) SiO2 
 PCOD8178847
Probable space group: A M M 2
;
_chemical_formula_sum "Si O2"
_cell_formula_units_Z 64
_cell_length_a 14.082175
_cell_length_b 8.953800
_cell_length_c 30.852492
_cell_angle_alpha 90.000000
_cell_angle_beta 90.000000
_cell_angle_gamma 90.000000
_cell_volume 3890.159201
_symmetry_space_group_name_H-M "A M M 2"
_symmetry_group_IT_number 38
_symmetry_cell_setting 'orthorhombic'
loop_
_space_group_symop_operation_xyz
x,y,z
-x,-y,z
-x,y,z
x,-y,z
x,1/2+y,1/2+z
-x,1/2-y,1/2+z
-x,1/2+y,1/2+z
x,1/2-y,1/2+z
loop_
_atom_site_type_symbol
_atom_site_label
_atom_site_fract_x
_atom_site_fract_y
_atom_site_fract_z
Si Si1 0.201228 0.673466 0.759080
Si Si2 0.392269 0.326246 0.128214
Si Si3 0.889054 0.173017 0.839215
Si Si4 0.605682 0.829624 0.217549
Si Si5 0.110264 0.173970 0.520344
Si Si6 0.215959 0.324058 0.597336
Si Si7 0.887578 0.835276 0.424139
Si Si8 0.888762 0.673109 0.177261
O O1 0.175339 0.500000 0.755446
O O2 0.172746 0.732462 0.805969
O O3 0.314505 0.700936 0.753802
O O4 0.141745 0.760258 0.723093
O O5 0.500000 0.289965 0.114597
O O6 0.368933 0.500000 0.124026
O O7 0.373230 0.278917 0.177647
O O8 0.324221 0.234066 0.096326
O O9 0.855253 0.218126 0.887571
O O10 0.000000 0.210041 0.832419
O O11 0.867928 0.000000 0.832106
O O12 0.500000 0.799106 0.236894
O O13 0.613315 0.000000 0.200595
O O14 0.167777 0.277126 0.552802
O O15 0.148013 0.213079 0.471929
O O16 0.000000 0.213799 0.525571
O O17 0.127522 0.000000 0.530953
O O18 0.213715 0.500000 0.602078
O O19 0.163184 0.255079 0.638368
O O20 0.000000 0.844311 0.426819
O O21 0.847665 0.000000 0.412331
O O22 0.860776 0.500000 0.176186
O O23 0.000000 0.696924 0.171089
#
# Coordination Sequence:
#
# PCOD8178847 Si02
#       8
#     8   8   8   8   8   8   8   8
#     4  11  21  32  49  72  96 128 164 200 244 293
#     4  10  20  34  53  73  93 123 163 206 249 292
#     4  10  20  32  47  69  99 133 165 200 242 287
#     4   9  18  33  51  71  95 122 156 202 252 295
#     4   9  18  33  52  73  99 131 165 203 246 290
#     4  12  23  33  48  72 100 132 165 200 243 291
#     4   8  15  30  51  72  94 123 161 204 246 286
#     4  11  23  36  48  64  94 134 170 204 240 281
#
# _framework density 16.451768999999999
#
# number of rings (size 3 to 8) (size 9 to 14) (size 15 to 20)
#    0.000    2.000    1.250    4.125    0.000    6.750 
#    0.000    1.250    0.000    0.000    0.000    0.875 
#    0.000    3.000    0.000    0.000    0.000    0.000 
#
# Total GULP energy -396799.547993 kJ/mol
# GULP energy per Si atom -12399.985875 kJ/mol
# Density = 1.641432 g / cm^3
# Si number density = 16.451769 Si / 1000 Ang^3
#
#
#
# Elastic Constant Matrix: (Units=GPa)
#
#
# Indices 1 2 3 4 5 6 
#
# 1 81.4513 56.1347 44.0174 0.0000 0.0000 0.0000
# 2 56.1347 107.5062 50.4304 0.0000 0.0000 0.0000
# 3 44.0174 50.4304 95.1383 0.0000 0.0000 0.0000
# 4 0.0000 0.0000 0.0000 30.2967 0.0000 0.0000
# 5 0.0000 0.0000 0.0000 0.0000 7.4049 0.0000
# 6 0.0000 0.0000 0.0000 0.0000 0.0000 22.8158
#
#
#
# Elastic Compliance Matrix: (Units=1/GPa)
#
#
# Indices 1 2 3 4 5 6 
#
# 1 0.020936 -0.008502 -0.005180 0.000000 0.000000 0.000000
# 2 -0.008502 0.015833 -0.004459 0.000000 0.000000 0.000000
# 3 -0.005180 -0.004459 0.015271 0.000000 0.000000 0.000000
# 4 0.000000 0.000000 0.000000 0.033007 0.000000 0.000000
# 5 0.000000 0.000000 0.000000 0.000000 0.135045 0.000000
# 6 0.000000 0.000000 0.000000 0.000000 0.000000 0.043829
#
#
# Mechanical properties :
#
#
# Convention : Reuss Voigt Hill
#
# Bulk Modulus (GPa) = 63.45785 65.02896 64.24340
# Shear Modulus (GPa) = 16.36900 21.00436 18.68668
#
# Velocity S-wave (km/s) = 3.15774 3.57700 3.37389
# Velocity P-wave (km/s) = 7.20769 7.52813 7.36965
#
# Compressibility (1/GPa) = 0.01575849
#
# Stress axis : x y z
#
# Youngs Moduli (GPa) = 47.76502 63.16008 65.48338
#
# Poissons Ratio (x) = 0.53699 0.33918
# Poissons Ratio (y) = 0.40610 0.29199
# Poissons Ratio (z) = 0.24741 0.28163
#
# Static dielectric constant tensor:
#      x y z
#    x 3.163350 0.000000 0.000000 
#    y 0.000000 3.214880 0.000000 
#    z 0.000000 0.000000 3.102000 
# 
# 
# High freq. dielectric constant tensor:
#      x y z
#    x 1.616730 0.000000 0.000000 
#    y 0.000000 1.645260 0.000000 
#    z 0.000000 0.000000 1.619580 
# 
# From -- ./inp_files/25120.got.cif
#   From: 2010.03.12/outbox.cif.g09.slc.cpg/sg38_13_cif.got.tgz:25120.got - 2010.04.14 02:38:36.
