data_PCOD8178492
_publ_section_title
;
Structure prediction by ZEFSAII (Michael W. Deem and Ramdas Pophale) SiO2 
 PCOD8178492
Probable space group: A M M 2
;
_chemical_formula_sum "Si O2"
_cell_formula_units_Z 48
_cell_length_a 8.494626
_cell_length_b 16.537544
_cell_length_c 18.457350
_cell_angle_alpha 90.000000
_cell_angle_beta 90.000000
_cell_angle_gamma 90.000000
_cell_volume 2592.893165
_symmetry_space_group_name_H-M "A M M 2"
_symmetry_group_IT_number 38
_symmetry_cell_setting 'orthorhombic'
loop_
_space_group_symop_operation_xyz
x,y,z
-x,-y,z
-x,y,z
x,-y,z
x,1/2+y,1/2+z
-x,1/2-y,1/2+z
-x,1/2+y,1/2+z
x,1/2-y,1/2+z
loop_
_atom_site_type_symbol
_atom_site_label
_atom_site_fract_x
_atom_site_fract_y
_atom_site_fract_z
Si Si1 0.686301 0.910698 0.082810
Si Si2 0.816945 0.500000 0.951925
Si Si3 0.683699 0.000000 0.608885
Si Si4 0.183219 0.167957 0.627830
Si Si5 0.316626 0.804968 0.215323
Si Si6 0.684375 0.260057 0.493916
Si Si7 0.181825 0.662631 0.868361
O O1 0.500000 0.917362 0.081719
O O2 0.740715 0.875577 0.160593
O O3 0.761529 0.000000 0.071410
O O4 0.740578 0.849704 0.018936
O O5 0.711479 0.500000 0.022985
O O6 0.773251 0.421587 0.905579
O O7 0.000000 0.500000 0.974825
O O8 0.763755 0.077381 0.646343
O O9 0.500000 0.000000 0.625827
O O10 0.221206 0.223277 0.697312
O O11 0.280019 0.197131 0.557878
O O12 0.000000 0.170871 0.608519
O O13 0.500000 0.786985 0.203545
O O14 0.285398 0.831937 0.296646
O O15 0.500000 0.257605 0.476870
O O16 0.778340 0.236780 0.421687
O O17 0.000000 0.666433 0.846728
#
# Coordination Sequence:
#
# PCOD8178492 Si02
#       7
#     8   4   4   8   8   8   8
#     4   8  16  32  54  80 107 136 173 224 275 321
#     4  10  22  36  52  80 116 151 182 221 276 334
#     4  12  22  34  58  86 112 141 186 231 272 326
#     4  11  21  36  56  80 112 147 183 225 281 331
#     4  10  21  36  56  81 111 144 186 226 274 335
#     4  10  19  33  55  81 108 142 187 230 272 328
#     4  11  22  36  54  78 114 150 184 224 277 334
#
# _framework density 18.512139999999999
#
# number of rings (size 3 to 8) (size 9 to 14) (size 15 to 20)
#    0.000    1.833    1.667    4.750    1.167    0.667 
#    0.000    0.000    1.833   10.000    0.000    0.000 
#    0.000    0.000    0.000    0.000    0.000    0.000 
#
# Total GULP energy -297653.428771 kJ/mol
# GULP energy per Si atom -12402.226199 kJ/mol
# Density = 1.847001 g / cm^3
# Si number density = 18.512140 Si / 1000 Ang^3
#
#
#
# Elastic Constant Matrix: (Units=GPa)
#
#
# Indices 1 2 3 4 5 6 
#
# 1 51.0534 26.0750 11.2167 0.0000 0.0000 0.0000
# 2 26.0750 158.1442 45.8411 0.0000 0.0000 0.0000
# 3 11.2167 45.8411 77.5941 0.0000 0.0000 0.0000
# 4 0.0000 0.0000 0.0000 19.7082 0.0000 0.0000
# 5 0.0000 0.0000 0.0000 0.0000 26.5526 0.0000
# 6 0.0000 0.0000 0.0000 0.0000 0.0000 23.1017
#
#
#
# Elastic Compliance Matrix: (Units=1/GPa)
#
#
# Indices 1 2 3 4 5 6 
#
# 1 0.021484 -0.003188 -0.001222 0.000000 0.000000 0.000000
# 2 -0.003188 0.008103 -0.004326 0.000000 0.000000 0.000000
# 3 -0.001222 -0.004326 0.015620 0.000000 0.000000 0.000000
# 4 0.000000 0.000000 0.000000 0.050740 0.000000 0.000000
# 5 0.000000 0.000000 0.000000 0.000000 0.037661 0.000000
# 6 0.000000 0.000000 0.000000 0.000000 0.000000 0.043287
#
#
# Mechanical properties :
#
#
# Convention : Reuss Voigt Hill
#
# Bulk Modulus (GPa) = 36.05651 50.33967 43.19809
# Shear Modulus (GPa) = 24.55635 27.44976 26.00305
#
# Velocity S-wave (km/s) = 3.64607 3.85489 3.75193
# Velocity P-wave (km/s) = 6.10283 6.86042 6.49269
#
# Compressibility (1/GPa) = 0.02773425
#
# Stress axis : x y z
#
# Youngs Moduli (GPa) = 46.54598 123.41040 64.01993
#
# Poissons Ratio (x) = 0.39344 0.07825
# Poissons Ratio (y) = 0.14839 0.27697
# Poissons Ratio (z) = 0.05689 0.53391
#
# Static dielectric constant tensor:
#      x y z
#    x 3.287110 0.000000 0.000000 
#    y 0.000000 3.855640 0.000000 
#    z 0.000000 0.000000 3.201870 
# 
# 
# High freq. dielectric constant tensor:
#      x y z
#    x 1.715060 0.000000 0.000000 
#    y 0.000000 1.725270 0.000000 
#    z 0.000000 0.000000 1.696530 
# 
# From -- ./inp_files/16685.got.cif
#   From: 2010.03.12/outbox.cif.g09.slc.cpg/sg38_9_cif.got.tgz:16685.got - 2010.04.14 02:38:36.
