data_PCOD8178690
_publ_section_title
;
Structure prediction by ZEFSAII (Michael W. Deem and Ramdas Pophale) SiO2 
 PCOD8178690
Probable space group: A M M 2
;
_chemical_formula_sum "Si O2"
_cell_formula_units_Z 56
_cell_length_a 15.587095
_cell_length_b 8.629491
_cell_length_c 20.612164
_cell_angle_alpha 90.000000
_cell_angle_beta 90.000000
_cell_angle_gamma 90.000000
_cell_volume 2772.515302
_symmetry_space_group_name_H-M "A M M 2"
_symmetry_group_IT_number 38
_symmetry_cell_setting 'orthorhombic'
loop_
_space_group_symop_operation_xyz
x,y,z
-x,-y,z
-x,y,z
x,-y,z
x,1/2+y,1/2+z
-x,1/2-y,1/2+z
-x,1/2+y,1/2+z
x,1/2-y,1/2+z
loop_
_atom_site_type_symbol
_atom_site_label
_atom_site_fract_x
_atom_site_fract_y
_atom_site_fract_z
Si Si1 0.407658 0.822616 0.147090
Si Si2 0.360664 0.819470 0.776216
Si Si3 0.404414 0.819685 0.408037
Si Si4 0.770845 0.683866 0.454700
Si Si5 0.770378 0.317964 0.595522
Si Si6 0.184386 0.816762 0.235062
Si Si7 0.096243 0.180291 0.848078
O O1 0.500000 0.804389 0.111327
O O2 0.410502 0.715019 0.210160
O O3 0.330264 0.770846 0.100736
O O4 0.392114 0.000000 0.169511
O O5 0.406376 0.724818 0.832721
O O6 0.262622 0.766504 0.770831
O O7 0.364214 0.000000 0.793255
O O8 0.500000 0.780252 0.436350
O O9 0.328201 0.727873 0.443569
O O10 0.384570 0.000000 0.415857
O O11 0.776910 0.500000 0.454055
O O12 0.801148 0.749118 0.525883
O O13 0.836349 0.750634 0.400610
O O14 0.781762 0.500000 0.592977
O O15 0.821863 0.257359 0.659573
O O16 0.103107 0.767361 0.278352
O O17 0.198032 0.000000 0.235651
O O18 0.000000 0.208355 0.874373
O O19 0.114116 0.000000 0.836333
#
# Coordination Sequence:
#
# PCOD8178690 Si02
#       7
#     8   8   8   8   8   8   8
#     4   9  17  30  48  71 103 144 189 237 285 330
#     4  11  20  31  50  77 108 143 185 236 286 331
#     4  11  23  36  51  76 113 154 192 235 285 331
#     4  10  20  37  59  82 112 151 192 234 279 334
#     4   8  17  33  54  80 109 145 187 231 280 329
#     4  10  19  35  59  84 111 143 183 232 282 334
#     4  10  21  37  59  88 118 147 183 233 291 342
#
# _framework density 20.198264999999999
#
# number of rings (size 3 to 8) (size 9 to 14) (size 15 to 20)
#    0.000    2.143    1.429    3.429    0.000    4.000 
#    0.000    5.714    0.000    2.571    0.000    0.000 
#    0.000    0.000    0.000    0.000    0.000    0.000 
#
# Total GULP energy -346940.497925 kJ/mol
# GULP energy per Si atom -12390.732069 kJ/mol
# Density = 2.015229 g / cm^3
# Si number density = 20.198265 Si / 1000 Ang^3
#
#
#
# Elastic Constant Matrix: (Units=GPa)
#
#
# Indices 1 2 3 4 5 6 
#
# 1 91.2405 13.1602 54.1368 0.0000 0.0000 0.0000
# 2 13.1602 18.8808 15.6713 0.0000 0.0000 0.0000
# 3 54.1368 15.6713 143.8268 0.0000 0.0000 0.0000
# 4 0.0000 0.0000 0.0000 19.8931 0.0000 0.0000
# 5 0.0000 0.0000 0.0000 0.0000 11.9604 0.0000
# 6 0.0000 0.0000 0.0000 0.0000 0.0000 22.3678
#
#
#
# Elastic Compliance Matrix: (Units=1/GPa)
#
#
# Indices 1 2 3 4 5 6 
#
# 1 0.014751 -0.006237 -0.004873 0.000000 0.000000 0.000000
# 2 -0.006237 0.060867 -0.004284 0.000000 0.000000 0.000000
# 3 -0.004873 -0.004284 0.009254 0.000000 0.000000 0.000000
# 4 0.000000 0.000000 0.000000 0.050269 0.000000 0.000000
# 5 0.000000 0.000000 0.000000 0.000000 0.083609 0.000000
# 6 0.000000 0.000000 0.000000 0.000000 0.000000 0.044707
#
#
# Mechanical properties :
#
#
# Convention : Reuss Voigt Hill
#
# Bulk Modulus (GPa) = 18.48993 46.65387 32.57190
# Shear Modulus (GPa) = 16.01161 22.24290 19.12725
#
# Velocity S-wave (km/s) = 2.81859 3.32208 3.08063
# Velocity P-wave (km/s) = 4.44597 6.15329 5.36795
#
# Compressibility (1/GPa) = 0.05408349
#
# Stress axis : x y z
#
# Youngs Moduli (GPa) = 67.79284 16.42915 108.06471
#
# Poissons Ratio (x) = 0.10247 0.52656
# Poissons Ratio (y) = 0.42283 0.46299
# Poissons Ratio (z) = 0.33033 0.07039
#
# Static dielectric constant tensor:
#      x y z
#    x 3.625050 0.000000 0.000000 
#    y 0.000000 3.400460 0.000000 
#    z 0.000000 0.000000 4.023720 
# 
# 
# High freq. dielectric constant tensor:
#      x y z
#    x 1.773660 0.000000 0.000000 
#    y 0.000000 1.764040 0.000000 
#    z 0.000000 0.000000 1.787290 
# 
# From -- ./inp_files/21098.got.cif
#   From: 2010.03.12/outbox.cif.g09.slc.cpg/sg38_11_cif.got.tgz:21098.got - 2010.04.14 02:38:36.
