data_PCOD8178844
_publ_section_title
;
Structure prediction by ZEFSAII (Michael W. Deem and Ramdas Pophale) SiO2 
 PCOD8178844
Probable space group: A M M 2
;
_chemical_formula_sum "Si O2"
_cell_formula_units_Z 64
_cell_length_a 17.585412
_cell_length_b 9.496619
_cell_length_c 22.097940
_cell_angle_alpha 90.000000
_cell_angle_beta 90.000000
_cell_angle_gamma 90.000000
_cell_volume 3690.399242
_symmetry_space_group_name_H-M "A M M 2"
_symmetry_group_IT_number 38
_symmetry_cell_setting 'orthorhombic'
loop_
_space_group_symop_operation_xyz
x,y,z
-x,-y,z
-x,y,z
x,-y,z
x,1/2+y,1/2+z
-x,1/2-y,1/2+z
-x,1/2+y,1/2+z
x,1/2-y,1/2+z
loop_
_atom_site_type_symbol
_atom_site_label
_atom_site_fract_x
_atom_site_fract_y
_atom_site_fract_z
Si Si1 0.417670 0.661341 0.234560
Si Si2 0.676185 0.258856 0.627313
Si Si3 0.795775 0.155670 0.219227
Si Si4 0.587703 0.842109 0.012721
Si Si5 0.914010 0.664499 0.620639
Si Si6 0.701848 0.334053 0.937684
Si Si7 0.194874 0.345431 0.047848
Si Si8 0.718367 0.330978 0.315587
O O1 0.500000 0.738990 0.238827
O O2 0.430085 0.500000 0.248915
O O3 0.384124 0.673522 0.167254
O O4 0.361205 0.719832 0.285927
O O5 0.725790 0.357093 0.671717
O O6 0.629700 0.346502 0.577533
O O7 0.734305 0.153355 0.594344
O O8 0.872279 0.200388 0.183718
O O9 0.784208 0.272892 0.271028
O O10 0.805057 0.000000 0.248332
O O11 0.500000 0.797628 0.021349
O O12 0.593799 0.000000 0.985416
O O13 0.625488 0.731421 0.966669
O O14 0.911296 0.500000 0.607095
O O15 0.871074 0.736410 0.564457
O O16 0.000000 0.720797 0.624916
O O17 0.688106 0.500000 0.924642
O O18 0.724915 0.247289 0.878759
O O19 0.773426 0.309542 0.981560
O O20 0.158256 0.500000 0.049167
O O21 0.726231 0.500000 0.321848
#
# Coordination Sequence:
#
# PCOD8178844 Si02
#       8
#     8   8   8   8   8   8   8   8
#     4   9  17  28  43  65  93 124 157 198 248 293
#     4   9  16  28  47  69  95 126 162 199 241 291
#     4   9  17  30  50  73  99 129 160 194 232 280
#     4  10  20  32  47  69  97 128 163 205 252 298
#     4   9  18  32  52  80 110 135 156 183 228 286
#     4  10  21  36  52  69  92 125 168 211 248 289
#     4   9  18  31  49  74  99 125 161 202 241 285
#     4  10  20  33  50  70  93 124 165 208 246 286
#
# _framework density 17.342298
#
# number of rings (size 3 to 8) (size 9 to 14) (size 15 to 20)
#    0.000    2.625    0.000    1.875    0.000    8.000 
#    0.000    1.250    0.000    7.875    0.000    1.750 
#    0.000    0.000    0.000    0.000    0.000    0.000 
#
# Total GULP energy -396614.919731 kJ/mol
# GULP energy per Si atom -12394.216242 kJ/mol
# Density = 1.730283 g / cm^3
# Si number density = 17.342298 Si / 1000 Ang^3
#
#
#
# Elastic Constant Matrix: (Units=GPa)
#
#
# Indices 1 2 3 4 5 6 
#
# 1 116.5782 45.4222 48.1280 0.0000 0.0000 0.0000
# 2 45.4222 90.5580 55.4008 0.0000 0.0000 0.0000
# 3 48.1280 55.4008 108.9323 0.0000 0.0000 0.0000
# 4 0.0000 0.0000 0.0000 28.3216 0.0000 0.0000
# 5 0.0000 0.0000 0.0000 0.0000 11.8456 0.0000
# 6 0.0000 0.0000 0.0000 0.0000 0.0000 22.2868
#
#
#
# Elastic Compliance Matrix: (Units=1/GPa)
#
#
# Indices 1 2 3 4 5 6 
#
# 1 0.011327 -0.003803 -0.003070 0.000000 0.000000 0.000000
# 2 -0.003803 0.017307 -0.007122 0.000000 0.000000 0.000000
# 3 -0.003070 -0.007122 0.014159 0.000000 0.000000 0.000000
# 4 0.000000 0.000000 0.000000 0.035309 0.000000 0.000000
# 5 0.000000 0.000000 0.000000 0.000000 0.084420 0.000000
# 6 0.000000 0.000000 0.000000 0.000000 0.000000 0.044870
#
#
# Mechanical properties :
#
#
# Convention : Reuss Voigt Hill
#
# Bulk Modulus (GPa) = 67.55680 68.21896 67.88788
# Shear Modulus (GPa) = 20.80594 23.63196 22.21895
#
# Velocity S-wave (km/s) = 3.46746 3.69545 3.58327
# Velocity P-wave (km/s) = 7.42095 7.59148 7.50670
#
# Compressibility (1/GPa) = 0.01480236
#
# Stress axis : x y z
#
# Youngs Moduli (GPa) = 88.28193 57.77957 70.62887
#
# Poissons Ratio (x) = 0.21975 0.21686
# Poissons Ratio (y) = 0.33576 0.50300
# Poissons Ratio (z) = 0.27106 0.41149
#
# Static dielectric constant tensor:
#      x y z
#    x 3.371020 0.000000 0.000000 
#    y 0.000000 3.156290 0.000000 
#    z 0.000000 0.000000 3.157100 
# 
# 
# High freq. dielectric constant tensor:
#      x y z
#    x 1.654490 0.000000 0.000000 
#    y 0.000000 1.667100 0.000000 
#    z 0.000000 0.000000 1.660180 
# 
# From -- ./inp_files/21335.got.cif
#   From: 2010.03.12/outbox.cif.g09.slc.cpg/sg38_11_cif.got.tgz:21335.got - 2010.04.14 02:38:36.
