data_PCOD8178495
_publ_section_title
;
Structure prediction by ZEFSAII (Michael W. Deem and Ramdas Pophale) SiO2 
 PCOD8178495
Probable space group: A M M 2
;
_chemical_formula_sum "Si O2"
_cell_formula_units_Z 56
_cell_length_a 8.787165
_cell_length_b 24.779863
_cell_length_c 14.218298
_cell_angle_alpha 90.000000
_cell_angle_beta 90.000000
_cell_angle_gamma 90.000000
_cell_volume 3095.959670
_symmetry_space_group_name_H-M "A M M 2"
_symmetry_group_IT_number 38
_symmetry_cell_setting 'orthorhombic'
loop_
_space_group_symop_operation_xyz
x,y,z
-x,-y,z
-x,y,z
x,-y,z
x,1/2+y,1/2+z
-x,1/2-y,1/2+z
-x,1/2+y,1/2+z
x,1/2-y,1/2+z
loop_
_atom_site_type_symbol
_atom_site_label
_atom_site_fract_x
_atom_site_fract_y
_atom_site_fract_z
Si Si1 0.826890 0.398222 0.061520
Si Si2 0.679319 0.000000 0.655092
Si Si3 0.820507 0.500000 0.363382
Si Si4 0.321966 0.107152 0.907869
Si Si5 0.326086 0.273154 0.736814
Si Si6 0.321223 0.707202 0.526612
Si Si7 0.324893 0.182395 0.433545
Si Si8 0.828614 0.163105 0.746645
O O1 0.726752 0.448516 0.093680
O O2 0.815696 0.350481 0.137359
O O3 0.000000 0.417712 0.046474
O O4 0.764247 0.370999 0.966353
O O5 0.756623 0.000000 0.757243
O O6 0.500000 0.000000 0.670973
O O7 0.764996 0.448916 0.424404
O O8 0.000000 0.500000 0.354150
O O9 0.500000 0.097470 0.922832
O O10 0.254138 0.153866 0.975968
O O11 0.288272 0.124570 0.800982
O O12 0.500000 0.251732 0.732212
O O13 0.278848 0.298202 0.636555
O O14 0.307877 0.316548 0.820208
O O15 0.215526 0.224625 0.762516
O O16 0.500000 0.706739 0.508180
O O17 0.256947 0.762468 0.480317
O O18 0.500000 0.176276 0.464177
O O19 0.000000 0.153296 0.783934
#
# Coordination Sequence:
#
# PCOD8178495 Si02
#       8
#     8   4   4   8   8   8   8   8
#     4  11  23  37  53  79 116 149 178 225 276 327
#     4  12  24  38  60  83 106 145 186 225 268 330
#     4  12  24  38  54  81 114 145 178 225 278 328
#     4  11  21  36  56  80 108 147 187 224 269 327
#     4  10  19  34  54  78 112 148 185 230 272 321
#     4   9  18  32  54  82 109 140 183 231 274 314
#     4  10  19  33  55  81 108 146 188 227 270 325
#     4  11  21  31  49  79 114 147 179 222 271 328
#
# _framework density 18.088092
#
# number of rings (size 3 to 8) (size 9 to 14) (size 15 to 20)
#    0.000    1.429    4.286    2.571    0.000    1.714 
#    0.000    1.429    0.000    0.857    0.000    3.000 
#    0.000    0.000    0.000    0.000    0.000    0.000 
#
# Total GULP energy -347199.207278 kJ/mol
# GULP energy per Si atom -12399.971688 kJ/mol
# Density = 1.804692 g / cm^3
# Si number density = 18.088092 Si / 1000 Ang^3
#
#
#
# Elastic Constant Matrix: (Units=GPa)
#
#
# Indices 1 2 3 4 5 6 
#
# 1 82.1121 35.3540 22.1020 0.0000 0.0000 0.0000
# 2 35.3540 98.9412 27.8866 0.0000 0.0000 0.0000
# 3 22.1020 27.8866 85.4514 0.0000 0.0000 0.0000
# 4 0.0000 0.0000 0.0000 29.4521 0.0000 0.0000
# 5 0.0000 0.0000 0.0000 0.0000 17.1049 0.0000
# 6 0.0000 0.0000 0.0000 0.0000 0.0000 20.0261
#
#
#
# Elastic Compliance Matrix: (Units=1/GPa)
#
#
# Indices 1 2 3 4 5 6 
#
# 1 0.014797 -0.004635 -0.002315 0.000000 0.000000 0.000000
# 2 -0.004635 0.012583 -0.002907 0.000000 0.000000 0.000000
# 3 -0.002315 -0.002907 0.013250 0.000000 0.000000 0.000000
# 4 0.000000 0.000000 0.000000 0.033953 0.000000 0.000000
# 5 0.000000 0.000000 0.000000 0.000000 0.058463 0.000000
# 6 0.000000 0.000000 0.000000 0.000000 0.000000 0.049935
#
#
# Mechanical properties :
#
#
# Convention : Reuss Voigt Hill
#
# Bulk Modulus (GPa) = 47.81103 48.57667 48.19385
# Shear Modulus (GPa) = 23.84733 25.39409 24.62071
#
# Velocity S-wave (km/s) = 3.63492 3.75095 3.69339
# Velocity P-wave (km/s) = 6.64127 6.75821 6.70000
#
# Compressibility (1/GPa) = 0.02091568
#
# Stress axis : x y z
#
# Youngs Moduli (GPa) = 67.58068 79.47446 75.47126
#
# Poissons Ratio (x) = 0.36836 0.17469
# Poissons Ratio (y) = 0.31323 0.21943
# Poissons Ratio (z) = 0.15643 0.23107
#
# Static dielectric constant tensor:
#      x y z
#    x 3.263980 0.000000 0.000000 
#    y 0.000000 3.412240 0.000000 
#    z 0.000000 0.000000 3.316010 
# 
# 
# High freq. dielectric constant tensor:
#      x y z
#    x 1.693320 0.000000 0.000000 
#    y 0.000000 1.690330 0.000000 
#    z 0.000000 0.000000 1.685230 
# 
# From -- ./inp_files/12529.got.cif
#   From: 2010.03.12/outbox.cif.g09.slc.cpg/sg38_7_cif.got.tgz:12529.got - 2010.04.14 02:38:36.
