data_PCOD8178602
_publ_section_title
;
Structure prediction by ZEFSAII (Michael W. Deem and Ramdas Pophale) SiO2 
 PCOD8178602
Probable space group: A M M 2
;
_chemical_formula_sum "Si O2"
_cell_formula_units_Z 64
_cell_length_a 8.901590
_cell_length_b 24.779544
_cell_length_c 15.156035
_cell_angle_alpha 90.000000
_cell_angle_beta 90.000000
_cell_angle_gamma 90.000000
_cell_volume 3343.077902
_symmetry_space_group_name_H-M "A M M 2"
_symmetry_group_IT_number 38
_symmetry_cell_setting 'orthorhombic'
loop_
_space_group_symop_operation_xyz
x,y,z
-x,-y,z
-x,y,z
x,-y,z
x,1/2+y,1/2+z
-x,1/2-y,1/2+z
-x,1/2+y,1/2+z
x,1/2-y,1/2+z
loop_
_atom_site_type_symbol
_atom_site_label
_atom_site_fract_x
_atom_site_fract_y
_atom_site_fract_z
Si Si1 0.677886 0.109133 0.396020
Si Si2 0.825788 0.243658 0.161680
Si Si3 0.172773 0.062325 0.565244
Si Si4 0.327152 0.853034 0.073896
Si Si5 0.671049 0.326196 0.384434
Si Si6 0.323664 0.854663 0.691053
Si Si7 0.826876 0.782081 0.361312
Si Si8 0.678554 0.560194 0.711795
O O1 0.500000 0.107802 0.401298
O O2 0.742194 0.073097 0.474162
O O3 0.733038 0.170369 0.406527
O O4 0.737768 0.084898 0.303628
O O5 0.767130 0.200789 0.091398
O O6 0.734819 0.298919 0.149359
O O7 0.796252 0.217817 0.257102
O O8 0.000000 0.256295 0.145489
O O9 0.242811 0.095364 0.645752
O O10 0.000000 0.078846 0.553377
O O11 0.191255 0.000000 0.590105
O O12 0.500000 0.842186 0.100439
O O13 0.263303 0.903383 0.130076
O O14 0.311752 0.865646 0.969160
O O15 0.500000 0.305611 0.374477
O O16 0.717540 0.357533 0.295291
O O17 0.774965 0.274549 0.401510
O O18 0.500000 0.858952 0.673378
O O19 0.000000 0.790965 0.384612
O O20 0.500000 0.558013 0.712475
O O21 0.744933 0.500000 0.700021
#
# Coordination Sequence:
#
# PCOD8178602 Si02
#       8
#     8   8   8   8   8   8   8   8
#     4  11  21  35  58  85 115 152 192 237 284 341
#     4  10  20  34  54  82 116 152 190 232 284 342
#     4  11  25  43  61  83 113 150 193 242 295 350
#     4  10  19  34  56  83 116 151 190 236 285 338
#     4   9  20  36  56  83 116 151 190 236 288 342
#     4  10  21  39  61  84 112 148 194 243 290 340
#     4  10  20  34  53  80 116 154 191 231 281 340
#     4   9  18  33  55  83 114 149 189 232 281 336
#
# _framework density 19.144034999999999
#
# number of rings (size 3 to 8) (size 9 to 14) (size 15 to 20)
#    0.000    2.000    1.250    2.250    1.750    3.500 
#    0.000    0.625    0.000    3.375    0.000    0.000 
#    0.000    0.000    0.000    0.000    0.000    0.000 
#
# Total GULP energy -396876.887656 kJ/mol
# GULP energy per Si atom -12402.402739 kJ/mol
# Density = 1.910046 g / cm^3
# Si number density = 19.144035 Si / 1000 Ang^3
#
#
#
# Elastic Constant Matrix: (Units=GPa)
#
#
# Indices 1 2 3 4 5 6 
#
# 1 81.9265 46.1794 35.5628 0.0000 0.0000 0.0000
# 2 46.1794 115.5584 67.4857 0.0000 0.0000 0.0000
# 3 35.5628 67.4857 122.7928 0.0000 0.0000 0.0000
# 4 0.0000 0.0000 0.0000 30.6690 0.0000 0.0000
# 5 0.0000 0.0000 0.0000 0.0000 23.1978 0.0000
# 6 0.0000 0.0000 0.0000 0.0000 0.0000 26.2690
#
#
#
# Elastic Compliance Matrix: (Units=1/GPa)
#
#
# Indices 1 2 3 4 5 6 
#
# 1 0.015978 -0.005423 -0.001647 0.000000 0.000000 0.000000
# 2 -0.005423 0.014585 -0.006445 0.000000 0.000000 0.000000
# 3 -0.001647 -0.006445 0.012163 0.000000 0.000000 0.000000
# 4 0.000000 0.000000 0.000000 0.032606 0.000000 0.000000
# 5 0.000000 0.000000 0.000000 0.000000 0.043107 0.000000
# 6 0.000000 0.000000 0.000000 0.000000 0.000000 0.038068
#
#
# Mechanical properties :
#
#
# Convention : Reuss Voigt Hill
#
# Bulk Modulus (GPa) = 63.71366 68.74817 66.23091
# Shear Modulus (GPa) = 26.48741 27.43047 26.95894
#
# Velocity S-wave (km/s) = 3.72369 3.78940 3.75669
# Velocity P-wave (km/s) = 7.20009 7.42530 7.31356
#
# Compressibility (1/GPa) = 0.01569522
#
# Stress axis : x y z
#
# Youngs Moduli (GPa) = 62.58645 68.56486 82.21770
#
# Poissons Ratio (x) = 0.37185 0.13540
# Poissons Ratio (y) = 0.33943 0.52989
# Poissons Ratio (z) = 0.10307 0.44190
#
# Static dielectric constant tensor:
#      x y z
#    x 3.428560 0.000000 0.000000 
#    y 0.000000 3.425700 0.000000 
#    z 0.000000 0.000000 3.612250 
# 
# 
# High freq. dielectric constant tensor:
#      x y z
#    x 1.738720 0.000000 0.000000 
#    y 0.000000 1.731220 0.000000 
#    z 0.000000 0.000000 1.750800 
# 
# From -- ./inp_files/12820.got.cif
#   From: 2010.03.12/outbox.cif.g09.slc.cpg/sg38_7_cif.got.tgz:12820.got - 2010.04.14 02:38:36.
