data_PCOD8178318
_publ_section_title
;
Structure prediction by ZEFSAII (Michael W. Deem and Ramdas Pophale) SiO2 
 PCOD8178318
Probable space group: A M M 2
;
_chemical_formula_sum "Si O2"
_cell_formula_units_Z 56
_cell_length_a 9.074164
_cell_length_b 14.225989
_cell_length_c 22.835067
_cell_angle_alpha 90.000000
_cell_angle_beta 90.000000
_cell_angle_gamma 90.000000
_cell_volume 2947.754988
_symmetry_space_group_name_H-M "A M M 2"
_symmetry_group_IT_number 38
_symmetry_cell_setting 'orthorhombic'
loop_
_space_group_symop_operation_xyz
x,y,z
-x,-y,z
-x,y,z
x,-y,z
x,1/2+y,1/2+z
-x,1/2-y,1/2+z
-x,1/2+y,1/2+z
x,1/2-y,1/2+z
loop_
_atom_site_type_symbol
_atom_site_label
_atom_site_fract_x
_atom_site_fract_y
_atom_site_fract_z
Si Si1 0.168100 0.608436 0.763470
Si Si2 0.331360 0.391287 0.325963
Si Si3 0.825800 0.779766 0.924656
Si Si4 0.672476 0.894199 0.691543
Si Si5 0.326674 0.892984 0.382509
Si Si6 0.175355 0.394007 0.537297
Si Si7 0.825864 0.780677 0.149176
O O1 0.180430 0.500000 0.745705
O O2 0.272932 0.633565 0.817460
O O3 0.224554 0.666706 0.707969
O O4 0.000000 0.634151 0.780460
O O5 0.500000 0.359656 0.336703
O O6 0.312086 0.500000 0.342581
O O7 0.222307 0.330413 0.365130
O O8 0.285049 0.374332 0.258900
O O9 0.752583 0.676323 0.928405
O O10 0.000000 0.768016 0.925436
O O11 0.768576 0.840307 0.979529
O O12 0.500000 0.880309 0.682311
O O13 0.758122 0.823538 0.648861
O O14 0.719252 0.000000 0.674385
O O15 0.500000 0.877895 0.385541
O O16 0.282235 0.000000 0.398160
O O17 0.239423 0.500000 0.537158
O O18 0.236007 0.338678 0.593864
O O19 0.000000 0.397767 0.538512
O O20 0.000000 0.772088 0.145113
#
# Coordination Sequence:
#
# PCOD8178318 Si02
#       7
#     8   8   8   8   8   8   8
#     4   9  17  30  51  80 109 134 164 205 253 305
#     4   9  18  33  53  77 107 141 172 206 254 309
#     4  11  21  33  53  78 103 135 174 215 257 300
#     4   9  19  35  52  72 102 138 170 204 253 306
#     4  10  21  36  53  74 103 138 172 209 257 310
#     4   9  19  36  55  76 104 135 166 203 250 303
#     4  10  19  32  53  78 102 133 171 209 250 296
#
# _framework density 18.997509000000001
#
# number of rings (size 3 to 8) (size 9 to 14) (size 15 to 20)
#    0.000    2.429    0.000    3.429    0.000    7.143 
#    0.000    3.571    0.000    7.286    0.000    0.000 
#    0.000    0.000    0.000    0.000    0.000    0.000 
#
# Total GULP energy -347248.139323 kJ/mol
# GULP energy per Si atom -12401.719262 kJ/mol
# Density = 1.895427 g / cm^3
# Si number density = 18.997509 Si / 1000 Ang^3
#
#
#
# Elastic Constant Matrix: (Units=GPa)
#
#
# Indices 1 2 3 4 5 6 
#
# 1 50.9916 45.1004 33.9941 0.0000 0.0000 0.0000
# 2 45.1004 153.6200 82.6239 0.0000 0.0000 0.0000
# 3 33.9941 82.6239 85.2368 0.0000 0.0000 0.0000
# 4 0.0000 0.0000 0.0000 36.0630 0.0000 0.0000
# 5 0.0000 0.0000 0.0000 0.0000 11.1939 0.0000
# 6 0.0000 0.0000 0.0000 0.0000 0.0000 33.8161
#
#
#
# Elastic Compliance Matrix: (Units=1/GPa)
#
#
# Indices 1 2 3 4 5 6 
#
# 1 0.028227 -0.004664 -0.006737 0.000000 0.000000 0.000000
# 2 -0.004664 0.014371 -0.012070 0.000000 0.000000 0.000000
# 3 -0.006737 -0.012070 0.026119 0.000000 0.000000 0.000000
# 4 0.000000 0.000000 0.000000 0.027729 0.000000 0.000000
# 5 0.000000 0.000000 0.000000 0.000000 0.089334 0.000000
# 6 0.000000 0.000000 0.000000 0.000000 0.000000 0.029572
#
#
# Mechanical properties :
#
#
# Convention : Reuss Voigt Hill
#
# Bulk Modulus (GPa) = 45.92336 68.14280 57.03308
# Shear Modulus (GPa) = 18.54934 24.75660 21.65297
#
# Velocity S-wave (km/s) = 3.12814 3.61383 3.37972
# Velocity P-wave (km/s) = 6.10515 7.30481 6.73176
#
# Compressibility (1/GPa) = 0.02177541
#
# Stress axis : x y z
#
# Youngs Moduli (GPa) = 35.42698 69.58634 38.28640
#
# Poissons Ratio (x) = 0.32453 0.25793
# Poissons Ratio (y) = 0.16522 0.46212
# Poissons Ratio (z) = 0.23866 0.83992
#
# Static dielectric constant tensor:
#      x y z
#    x 3.206000 0.000000 0.000000 
#    y 0.000000 3.729960 0.000000 
#    z 0.000000 0.000000 3.382860 
# 
# 
# High freq. dielectric constant tensor:
#      x y z
#    x 1.718240 0.000000 0.000000 
#    y 0.000000 1.756600 0.000000 
#    z 0.000000 0.000000 1.719110 
# 
# From -- ./inp_files/19784.got.cif
#   From: 2010.03.12/outbox.cif.g09.slc.cpg/sg38_10_cif.got.tgz:19784.got - 2010.04.14 02:38:36.
