data_PCOD8178083
_publ_section_title
;
Structure prediction by ZEFSAII (Michael W. Deem and Ramdas Pophale) SiO2 
 PCOD8178083
Probable space group: A M M 2
;
_chemical_formula_sum "Si O2"
_cell_formula_units_Z 64
_cell_length_a 14.149955
_cell_length_b 9.088809
_cell_length_c 30.818354
_cell_angle_alpha 90.000000
_cell_angle_beta 90.000000
_cell_angle_gamma 90.000000
_cell_volume 3963.432580
_symmetry_space_group_name_H-M "A M M 2"
_symmetry_group_IT_number 38
_symmetry_cell_setting 'orthorhombic'
loop_
_space_group_symop_operation_xyz
x,y,z
-x,-y,z
-x,y,z
x,-y,z
x,1/2+y,1/2+z
-x,1/2-y,1/2+z
-x,1/2+y,1/2+z
x,1/2-y,1/2+z
loop_
_atom_site_type_symbol
_atom_site_label
_atom_site_fract_x
_atom_site_fract_y
_atom_site_fract_z
Si Si1 0.395558 0.170693 0.988800
Si Si2 0.112283 0.165986 0.783622
Si Si3 0.890072 0.827423 0.197572
Si Si4 0.604732 0.330176 0.076713
Si Si5 0.890615 0.327848 0.869199
Si Si6 0.795892 0.328403 0.117600
Si Si7 0.793861 0.330102 0.447358
Si Si8 0.889012 0.831576 0.038410
O O1 0.500000 0.222090 0.972895
O O2 0.318054 0.204737 0.951943
O O3 0.394813 0.000000 0.999964
O O4 0.365633 0.247244 0.033232
O O5 0.148653 0.251689 0.741255
O O6 0.150001 0.246799 0.826625
O O7 0.000000 0.168066 0.783958
O O8 0.151845 0.000000 0.782699
O O9 0.830958 0.765350 0.157872
O O10 0.000000 0.791121 0.189590
O O11 0.872892 0.000000 0.201792
O O12 0.500000 0.281025 0.093186
O O13 0.604699 0.500000 0.064137
O O14 0.683243 0.298425 0.113356
O O15 0.875991 0.500000 0.862314
O O16 0.832338 0.275158 0.910399
O O17 0.000000 0.287904 0.876849
O O18 0.817925 0.500000 0.125302
O O19 0.848425 0.277812 0.074212
O O20 0.812288 0.500000 0.434704
O O21 0.845168 0.290622 0.492136
O O22 0.000000 0.806943 0.035189
O O23 0.864536 0.000000 0.051090
#
# Coordination Sequence:
#
# PCOD8178083 Si02
#       8
#     8   8   8   8   8   8   8   8
#     4   9  17  30  49  70  90 116 154 200 243 281
#     4   9  17  31  51  72  94 121 155 195 236 276
#     4  10  20  33  49  69  96 128 159 192 231 276
#     4   9  18  32  48  66  90 120 154 196 243 284
#     4  10  20  32  47  69  97 127 160 196 232 274
#     4  11  21  31  46  68  93 123 160 197 233 278
#     4  10  19  31  47  67  93 125 160 195 234 282
#     4  10  20  32  44  61  91 129 163 193 229 274
#
# _framework density 16.147618999999999
#
# number of rings (size 3 to 8) (size 9 to 14) (size 15 to 20)
#    0.000    2.250    1.250    2.250    0.000    6.750 
#    0.000    0.000    0.000    0.000    0.000    0.875 
#    0.000    7.000    0.000    0.000    0.000    0.000 
#
# Total GULP energy -396790.756051 kJ/mol
# GULP energy per Si atom -12399.711127 kJ/mol
# Density = 1.611087 g / cm^3
# Si number density = 16.147619 Si / 1000 Ang^3
#
#
#
# Elastic Constant Matrix: (Units=GPa)
#
#
# Indices 1 2 3 4 5 6 
#
# 1 74.2104 37.4621 46.3430 0.0000 0.0000 0.0000
# 2 37.4621 78.9546 53.8520 0.0000 0.0000 0.0000
# 3 46.3430 53.8520 109.9458 0.0000 0.0000 0.0000
# 4 0.0000 0.0000 0.0000 34.5167 0.0000 0.0000
# 5 0.0000 0.0000 0.0000 0.0000 2.5818 0.0000
# 6 0.0000 0.0000 0.0000 0.0000 0.0000 19.3421
#
#
#
# Elastic Compliance Matrix: (Units=1/GPa)
#
#
# Indices 1 2 3 4 5 6 
#
# 1 0.019790 -0.005557 -0.005620 0.000000 0.000000 0.000000
# 2 -0.005557 0.020580 -0.007738 0.000000 0.000000 0.000000
# 3 -0.005620 -0.007738 0.015254 0.000000 0.000000 0.000000
# 4 0.000000 0.000000 0.000000 0.028972 0.000000 0.000000
# 5 0.000000 0.000000 0.000000 0.000000 0.387333 0.000000
# 6 0.000000 0.000000 0.000000 0.000000 0.000000 0.051701
#
#
# Mechanical properties :
#
#
# Convention : Reuss Voigt Hill
#
# Bulk Modulus (GPa) = 56.19578 59.82501 58.01040
# Shear Modulus (GPa) = 8.81229 19.65169 14.23199
#
# Velocity S-wave (km/s) = 2.33863 3.49234 2.97200
# Velocity P-wave (km/s) = 6.49377 7.30693 6.91232
#
# Compressibility (1/GPa) = 0.01779493
#
# Stress axis : x y z
#
# Youngs Moduli (GPa) = 50.53122 48.59146 65.55562
#
# Poissons Ratio (x) = 0.27001 0.36841
# Poissons Ratio (y) = 0.28079 0.50726
# Poissons Ratio (z) = 0.28398 0.37599
#
# Static dielectric constant tensor:
#      x y z
#    x 3.227900 0.000000 0.000000 
#    y 0.000000 3.153260 0.000000 
#    z 0.000000 0.000000 3.008080 
# 
# 
# High freq. dielectric constant tensor:
#      x y z
#    x 1.604530 0.000000 0.000000 
#    y 0.000000 1.631480 0.000000 
#    z 0.000000 0.000000 1.607000 
# 
# From -- ./inp_files/25049.got.cif
#   From: 2010.03.12/outbox.cif.g09.slc.cpg/sg38_13_cif.got.tgz:25049.got - 2010.04.14 02:38:36.
