data_PCOD8178104
_publ_section_title
;
Structure prediction by ZEFSAII (Michael W. Deem and Ramdas Pophale) SiO2 
 PCOD8178104
Probable space group: A M M 2
;
_chemical_formula_sum "Si O2"
_cell_formula_units_Z 64
_cell_length_a 8.875165
_cell_length_b 18.642172
_cell_length_c 21.238024
_cell_angle_alpha 90.000000
_cell_angle_beta 90.000000
_cell_angle_gamma 90.000000
_cell_volume 3513.881032
_symmetry_space_group_name_H-M "A M M 2"
_symmetry_group_IT_number 38
_symmetry_cell_setting 'orthorhombic'
loop_
_space_group_symop_operation_xyz
x,y,z
-x,-y,z
-x,y,z
x,-y,z
x,1/2+y,1/2+z
-x,1/2-y,1/2+z
-x,1/2+y,1/2+z
x,1/2-y,1/2+z
loop_
_atom_site_type_symbol
_atom_site_label
_atom_site_fract_x
_atom_site_fract_y
_atom_site_fract_z
Si Si1 0.826797 0.080971 0.893000
Si Si2 0.323567 0.217773 0.846937
Si Si3 0.324697 0.076476 0.493487
Si Si4 0.679349 0.267847 0.985113
Si Si5 0.834425 0.078637 0.367357
Si Si6 0.676956 0.580853 0.655668
Si Si7 0.823446 0.180132 0.256258
Si Si8 0.824869 0.128909 0.031891
O O1 0.721761 0.134540 0.853770
O O2 0.000000 0.100787 0.879134
O O3 0.789522 0.000000 0.871655
O O4 0.794220 0.087518 0.967123
O O5 0.500000 0.224014 0.837325
O O6 0.272062 0.260451 0.910977
O O7 0.245949 0.245420 0.782178
O O8 0.500000 0.071786 0.506092
O O9 0.268094 0.155046 0.516165
O O10 0.293944 0.079246 0.419547
O O11 0.252856 0.000000 0.520500
O O12 0.500000 0.257314 0.990215
O O13 0.764095 0.210041 0.027251
O O14 0.777889 0.126654 0.311202
O O15 0.000000 0.103272 0.393576
O O16 0.849894 0.000000 0.338248
O O17 0.500000 0.593271 0.657547
O O18 0.717184 0.500000 0.680257
O O19 0.751974 0.646472 0.693756
O O20 0.734602 0.585953 0.584493
O O21 0.000000 0.189797 0.244696
O O22 0.000000 0.130924 0.049719
#
# Coordination Sequence:
#
# PCOD8178104 Si02
#       8
#     8   8   8   8   8   8   8   8
#     4   9  18  33  53  77 104 134 168 210 262 314
#     4  10  19  31  48  73 103 134 170 210 256 309
#     4   9  16  26  42  65  95 130 165 201 243 292
#     4   9  17  30  47  70 101 134 170 211 257 307
#     4   9  17  27  40  61  90 125 163 201 239 280
#     4  11  24  39  54  74 102 137 176 216 257 303
#     4  11  21  33  50  70  99 136 174 212 250 297
#     4  10  20  34  54  76 100 133 174 217 260 306
#
# _framework density 18.213479
#
# number of rings (size 3 to 8) (size 9 to 14) (size 15 to 20)
#    0.000    2.250    1.250    2.250    0.000    4.250 
#    0.000    1.250    0.000    0.000    0.000    0.875 
#    0.000    5.000    0.000    0.000    0.000    0.000 
#
# Total GULP energy -396425.380860 kJ/mol
# GULP energy per Si atom -12388.293152 kJ/mol
# Density = 1.817202 g / cm^3
# Si number density = 18.213479 Si / 1000 Ang^3
#
#
#
# Elastic Constant Matrix: (Units=GPa)
#
#
# Indices 1 2 3 4 5 6 
#
# 1 64.6309 36.3515 27.6007 0.0000 0.0000 0.0000
# 2 36.3515 112.0178 22.2167 0.0000 0.0000 0.0000
# 3 27.6007 22.2167 48.4982 0.0000 0.0000 0.0000
# 4 0.0000 0.0000 0.0000 21.2216 0.0000 0.0000
# 5 0.0000 0.0000 0.0000 0.0000 26.0321 0.0000
# 6 0.0000 0.0000 0.0000 0.0000 0.0000 26.6843
#
#
#
# Elastic Compliance Matrix: (Units=1/GPa)
#
#
# Indices 1 2 3 4 5 6 
#
# 1 0.023039 -0.005363 -0.010655 0.000000 0.000000 0.000000
# 2 -0.005363 0.011068 -0.002018 0.000000 0.000000 0.000000
# 3 -0.010655 -0.002018 0.027607 0.000000 0.000000 0.000000
# 4 0.000000 0.000000 0.000000 0.047122 0.000000 0.000000
# 5 0.000000 0.000000 0.000000 0.000000 0.038414 0.000000
# 6 0.000000 0.000000 0.000000 0.000000 0.000000 0.037475
#
#
# Mechanical properties :
#
#
# Convention : Reuss Voigt Hill
#
# Bulk Modulus (GPa) = 38.99782 44.16496 41.58139
# Shear Modulus (GPa) = 21.80119 24.05280 22.92699
#
# Velocity S-wave (km/s) = 3.46349 3.63795 3.55180
# Velocity P-wave (km/s) = 6.11984 6.47668 6.30079
#
# Compressibility (1/GPa) = 0.02564246
#
# Stress axis : x y z
#
# Youngs Moduli (GPa) = 43.40412 90.35179 36.22216
#
# Poissons Ratio (x) = 0.48459 0.38594
# Poissons Ratio (y) = 0.23279 0.07309
# Poissons Ratio (z) = 0.46247 0.18231
#
# Static dielectric constant tensor:
#      x y z
#    x 3.326760 0.000000 0.000000 
#    y 0.000000 3.810020 0.000000 
#    z 0.000000 0.000000 2.963060 
# 
# 
# High freq. dielectric constant tensor:
#      x y z
#    x 1.707120 0.000000 0.000000 
#    y 0.000000 1.720760 0.000000 
#    z 0.000000 0.000000 1.648410 
# 
# From -- ./inp_files/20038.got.cif
#   From: 2010.03.12/outbox.cif.g09.slc.cpg/sg38_11_cif.got.tgz:20038.got - 2010.04.14 02:38:36.
