data_PCOD8178593
_publ_section_title
;
Structure prediction by ZEFSAII (Michael W. Deem and Ramdas Pophale) SiO2 
 PCOD8178593
Probable space group: A M M 2
;
_chemical_formula_sum "Si O2"
_cell_formula_units_Z 64
_cell_length_a 9.555010
_cell_length_b 17.600747
_cell_length_c 19.547279
_cell_angle_alpha 90.000000
_cell_angle_beta 90.000000
_cell_angle_gamma 90.000000
_cell_volume 3287.369776
_symmetry_space_group_name_H-M "A M M 2"
_symmetry_group_IT_number 38
_symmetry_cell_setting 'orthorhombic'
loop_
_space_group_symop_operation_xyz
x,y,z
-x,-y,z
-x,y,z
x,-y,z
x,1/2+y,1/2+z
-x,1/2-y,1/2+z
-x,1/2+y,1/2+z
x,1/2-y,1/2+z
loop_
_atom_site_type_symbol
_atom_site_label
_atom_site_fract_x
_atom_site_fract_y
_atom_site_fract_z
Si Si1 0.847185 0.086839 0.220440
Si Si2 0.165125 0.312543 0.512618
Si Si3 0.165953 0.086729 0.732711
Si Si4 0.655717 0.590091 0.603865
Si Si5 0.158704 0.816918 0.857291
Si Si6 0.158297 0.648996 0.860366
Si Si7 0.163808 0.844960 0.588443
Si Si8 0.340255 0.586610 0.977251
O O1 0.728424 0.123420 0.172724
O O2 0.804128 0.091311 0.299705
O O3 0.000000 0.126738 0.209127
O O4 0.861344 0.000000 0.199155
O O5 0.248902 0.384194 0.541180
O O6 0.220591 0.310314 0.434241
O O7 0.203224 0.238117 0.558058
O O8 0.000000 0.327483 0.516565
O O9 0.230305 0.125093 0.802503
O O10 0.205224 0.140706 0.667937
O O11 0.000000 0.084323 0.738860
O O12 0.223741 0.000000 0.725011
O O13 0.500000 0.625051 0.599373
O O14 0.646794 0.500000 0.603618
O O15 0.170825 0.732303 0.826733
O O16 0.000000 0.843867 0.865056
O O17 0.266820 0.639354 0.921217
O O18 0.000000 0.636202 0.889094
O O19 0.256111 0.906157 0.547783
O O20 0.000000 0.861697 0.576641
O O21 0.500000 0.613760 0.986871
O O22 0.333811 0.500000 0.952383
#
# Coordination Sequence:
#
# PCOD8178593 Si02
#       8
#     8   8   8   8   8   8   8   8
#     4   9  18  32  53  81 109 141 182 227 277 330
#     4  10  20  35  57  85 112 143 188 241 292 340
#     4   9  18  32  54  85 116 146 184 234 288 339
#     4  10  22  38  55  78 111 150 188 228 280 344
#     4   9  18  33  53  81 113 143 181 230 284 334
#     4  10  19  34  56  81 110 147 189 236 283 334
#     4  10  20  36  59  86 113 146 190 238 289 344
#     4  11  23  36  53  80 116 155 189 228 282 345
#
# _framework density 19.468451999999999
#
# number of rings (size 3 to 8) (size 9 to 14) (size 15 to 20)
#    0.000    2.250    1.250    1.500    1.750    4.250 
#    0.000    2.500    0.000    0.750    0.000    1.750 
#    0.000    0.000    0.000    0.000    0.000    0.000 
#
# Total GULP energy -396523.907605 kJ/mol
# GULP energy per Si atom -12391.372113 kJ/mol
# Density = 1.942414 g / cm^3
# Si number density = 19.468452 Si / 1000 Ang^3
#
#
#
# Elastic Constant Matrix: (Units=GPa)
#
#
# Indices 1 2 3 4 5 6 
#
# 1 73.2251 27.3599 46.9134 0.0000 0.0000 0.0000
# 2 27.3599 57.1377 52.0184 0.0000 0.0000 0.0000
# 3 46.9134 52.0184 142.7300 0.0000 0.0000 0.0000
# 4 0.0000 0.0000 0.0000 36.4782 0.0000 0.0000
# 5 0.0000 0.0000 0.0000 0.0000 8.4843 0.0000
# 6 0.0000 0.0000 0.0000 0.0000 0.0000 17.3576
#
#
#
# Elastic Compliance Matrix: (Units=1/GPa)
#
#
# Indices 1 2 3 4 5 6 
#
# 1 0.018166 -0.004883 -0.004191 0.000000 0.000000 0.000000
# 2 -0.004883 0.027505 -0.008419 0.000000 0.000000 0.000000
# 3 -0.004191 -0.008419 0.011452 0.000000 0.000000 0.000000
# 4 0.000000 0.000000 0.000000 0.027414 0.000000 0.000000
# 5 0.000000 0.000000 0.000000 0.000000 0.117865 0.000000
# 6 0.000000 0.000000 0.000000 0.000000 0.000000 0.057612
#
#
# Mechanical properties :
#
#
# Convention : Reuss Voigt Hill
#
# Bulk Modulus (GPa) = 45.17495 58.40846 51.79170
# Shear Modulus (GPa) = 16.53553 22.25077 19.39315
#
# Velocity S-wave (km/s) = 2.91752 3.38437 3.15958
# Velocity P-wave (km/s) = 5.88250 6.73340 6.32228
#
# Compressibility (1/GPa) = 0.02213616
#
# Stress axis : x y z
#
# Youngs Moduli (GPa) = 55.04704 36.35763 87.31869
#
# Poissons Ratio (x) = 0.17753 0.36599
# Poissons Ratio (y) = 0.26879 0.73515
# Poissons Ratio (z) = 0.23073 0.30610
#
# Static dielectric constant tensor:
#      x y z
#    x 3.393470 0.000000 0.000000 
#    y 0.000000 3.503730 0.000000 
#    z 0.000000 0.000000 3.728060 
# 
# 
# High freq. dielectric constant tensor:
#      x y z
#    x 1.720080 0.000000 0.000000 
#    y 0.000000 1.749630 0.000000 
#    z 0.000000 0.000000 1.765450 
# 
# From -- ./inp_files/20114.got.cif
#   From: 2010.03.12/outbox.cif.g09.slc.cpg/sg38_11_cif.got.tgz:20114.got - 2010.04.14 02:38:36.
