data_PCOD8178486
_publ_section_title
;
Structure prediction by ZEFSAII (Michael W. Deem and Ramdas Pophale) SiO2 
 PCOD8178486
Probable space group: A M M 2
;
_chemical_formula_sum "Si O2"
_cell_formula_units_Z 64
_cell_length_a 9.060270
_cell_length_b 32.916124
_cell_length_c 11.610507
_cell_angle_alpha 90.000000
_cell_angle_beta 90.000000
_cell_angle_gamma 90.000000
_cell_volume 3462.589553
_symmetry_space_group_name_H-M "A M M 2"
_symmetry_group_IT_number 38
_symmetry_cell_setting 'orthorhombic'
loop_
_space_group_symop_operation_xyz
x,y,z
-x,-y,z
-x,y,z
x,-y,z
x,1/2+y,1/2+z
-x,1/2-y,1/2+z
-x,1/2+y,1/2+z
x,1/2-y,1/2+z
loop_
_atom_site_type_symbol
_atom_site_label
_atom_site_fract_x
_atom_site_fract_y
_atom_site_fract_z
Si Si1 0.326764 0.453930 0.889990
Si Si2 0.831326 0.954671 0.617549
Si Si3 0.170539 0.888660 0.795819
Si Si4 0.326857 0.144511 0.001085
Si Si5 0.826055 0.307997 0.921211
Si Si6 0.673114 0.873915 0.261892
Si Si7 0.334165 0.822224 0.653674
Si Si8 0.335297 0.772859 0.876449
O O1 0.500000 0.455730 0.905535
O O2 0.267846 0.500000 0.860169
O O3 0.284404 0.420905 0.791479
O O4 0.261202 0.437037 0.010235
O O5 0.809026 0.932695 0.739558
O O6 0.000000 0.952000 0.577309
O O7 0.777933 0.000000 0.642083
O O8 0.234953 0.887854 0.925043
O O9 0.270410 0.860925 0.716452
O O10 0.000000 0.874622 0.796316
O O11 0.500000 0.136838 0.981065
O O12 0.284915 0.190217 0.960412
O O13 0.279133 0.136569 0.131944
O O14 0.756871 0.343312 0.844817
O O15 0.779892 0.263472 0.880076
O O16 0.000000 0.312382 0.914269
O O17 0.774071 0.311509 0.051369
O O18 0.500000 0.866616 0.278963
O O19 0.500000 0.831345 0.608766
O O20 0.337827 0.785388 0.743387
O O21 0.500000 0.758423 0.913972
#
# Coordination Sequence:
#
# PCOD8178486 Si02
#       8
#     8   8   8   8   8   8   8   8
#     4   9  18  33  55  83 112 142 181 233 283 322
#     4   9  18  32  51  77 110 145 178 217 271 334
#     4  10  19  33  55  80 107 138 176 226 275 318
#     4   9  20  38  58  78 105 147 189 222 267 333
#     4  12  25  36  53  83 114 139 175 230 281 322
#     4  10  21  38  58  80 109 149 192 228 271 335
#     4  10  21  38  58  77 102 140 180 216 262 326
#     4   9  20  38  57  76 101 141 186 224 266 325
#
# _framework density 18.483277000000001
#
# number of rings (size 3 to 8) (size 9 to 14) (size 15 to 20)
#    0.000    2.250    0.000    3.375    1.750    6.500 
#    0.000    0.625    0.000    0.750    0.000    0.000 
#    0.000    0.000    0.000    0.000    0.000    0.000 
#
# Total GULP energy -396716.548278 kJ/mol
# GULP energy per Si atom -12397.392134 kJ/mol
# Density = 1.844121 g / cm^3
# Si number density = 18.483277 Si / 1000 Ang^3
#
#
#
# Elastic Constant Matrix: (Units=GPa)
#
#
# Indices 1 2 3 4 5 6 
#
# 1 56.9264 41.8868 51.3973 0.0000 0.0000 0.0000
# 2 41.8868 94.6308 68.6952 0.0000 0.0000 0.0000
# 3 51.3973 68.6952 105.0645 0.0000 0.0000 0.0000
# 4 0.0000 0.0000 0.0000 4.7070 0.0000 0.0000
# 5 0.0000 0.0000 0.0000 0.0000 22.7108 0.0000
# 6 0.0000 0.0000 0.0000 0.0000 0.0000 23.3298
#
#
#
# Elastic Compliance Matrix: (Units=1/GPa)
#
#
# Indices 1 2 3 4 5 6 
#
# 1 0.032891 -0.005479 -0.012508 0.000000 0.000000 0.000000
# 2 -0.005479 0.021027 -0.011068 0.000000 0.000000 0.000000
# 3 -0.012508 -0.011068 0.022874 0.000000 0.000000 0.000000
# 4 0.000000 0.000000 0.000000 0.212451 0.000000 0.000000
# 5 0.000000 0.000000 0.000000 0.000000 0.044032 0.000000
# 6 0.000000 0.000000 0.000000 0.000000 0.000000 0.042864
#
#
# Mechanical properties :
#
#
# Convention : Reuss Voigt Hill
#
# Bulk Modulus (GPa) = 53.52756 64.50891 59.01824
# Shear Modulus (GPa) = 11.35138 16.45901 13.90519
#
# Velocity S-wave (km/s) = 2.48088 2.98733 2.74581
# Velocity P-wave (km/s) = 6.10157 6.84659 6.48479
#
# Compressibility (1/GPa) = 0.01868197
#
# Stress axis : x y z
#
# Youngs Moduli (GPa) = 30.40354 47.55742 43.71851
#
# Poissons Ratio (x) = 0.26056 0.54683
# Poissons Ratio (y) = 0.16657 0.48389
# Poissons Ratio (z) = 0.38028 0.52638
#
# Static dielectric constant tensor:
#      x y z
#    x 3.456700 0.000000 0.000000 
#    y 0.000000 3.548520 0.000000 
#    z 0.000000 0.000000 4.386250 
# 
# 
# High freq. dielectric constant tensor:
#      x y z
#    x 1.716800 0.000000 0.000000 
#    y 0.000000 1.714760 0.000000 
#    z 0.000000 0.000000 1.714980 
# 
# From -- ./inp_files/8675.got.cif
#   From: 2010.03.12/outbox.cif.g09.slc.cpg/sg38_5_cif.got.tgz:8675.got - 2010.04.14 02:38:36.
