data_PCOD8178383
_publ_section_title
;
Structure prediction by ZEFSAII (Michael W. Deem and Ramdas Pophale) SiO2 
 PCOD8178383
Probable space group: A M M 2
;
_chemical_formula_sum "Si O2"
_cell_formula_units_Z 64
_cell_length_a 23.706636
_cell_length_b 9.003786
_cell_length_c 15.558693
_cell_angle_alpha 90.000000
_cell_angle_beta 90.000000
_cell_angle_gamma 90.000000
_cell_volume 3320.994889
_symmetry_space_group_name_H-M "A M M 2"
_symmetry_group_IT_number 38
_symmetry_cell_setting 'orthorhombic'
loop_
_space_group_symop_operation_xyz
x,y,z
-x,-y,z
-x,y,z
x,-y,z
x,1/2+y,1/2+z
-x,1/2-y,1/2+z
-x,1/2+y,1/2+z
x,1/2-y,1/2+z
loop_
_atom_site_type_symbol
_atom_site_label
_atom_site_fract_x
_atom_site_fract_y
_atom_site_fract_z
Si Si1 0.861503 0.329240 0.808060
Si Si2 0.236881 0.674295 0.057137
Si Si3 0.131995 0.829432 0.117549
Si Si4 0.366500 0.172543 0.876575
Si Si5 0.237621 0.172405 0.880340
Si Si6 0.935978 0.175414 0.468243
Si Si7 0.634797 0.174687 0.554251
Si Si8 0.436170 0.823037 0.714977
O O1 0.843860 0.500000 0.823543
O O2 0.891257 0.312500 0.714936
O O3 0.805421 0.226534 0.807238
O O4 0.904389 0.273002 0.881502
O O5 0.225704 0.500000 0.065394
O O6 0.195041 0.761623 0.119694
O O7 0.301199 0.716485 0.079852
O O8 0.222229 0.726053 0.961354
O O9 0.134970 0.000000 0.088862
O O10 0.091443 0.744541 0.052787
O O11 0.301630 0.201073 0.850240
O O12 0.404719 0.237935 0.799774
O O13 0.378603 0.000000 0.890703
O O14 0.383404 0.252368 0.964723
O O15 0.228395 0.000000 0.902757
O O16 0.000000 0.232067 0.461372
O O17 0.932987 0.000000 0.478482
O O18 0.594740 0.237017 0.629519
O O19 0.628263 0.000000 0.542265
O O20 0.500000 0.763345 0.715163
O O21 0.433787 0.000000 0.714963
#
# Coordination Sequence:
#
# PCOD8178383 Si02
#       8
#     8   8   8   8   8   8   8   8
#     4  10  22  38  57  84 117 151 185 224 278 336
#     4  10  19  33  55  80 114 150 185 229 285 341
#     4  11  23  37  57  88 118 148 189 233 279 331
#     4   9  19  34  53  79 110 143 181 228 280 331
#     4  10  19  32  55  83 114 145 184 232 280 335
#     4  10  22  42  64  83 111 154 195 231 275 331
#     4   9  19  34  54  79 107 143 186 230 277 332
#     4   9  18  34  55  78 107 147 191 228 271 335
#
# _framework density 19.271334
#
# number of rings (size 3 to 8) (size 9 to 14) (size 15 to 20)
#    0.000    2.250    1.250    1.125    1.750    3.250 
#    0.000    1.875    0.000    0.750    0.000    0.000 
#    0.000    0.000    0.000    0.000    0.000    0.000 
#
# Total GULP energy -396812.131569 kJ/mol
# GULP energy per Si atom -12400.379112 kJ/mol
# Density = 1.922747 g / cm^3
# Si number density = 19.271334 Si / 1000 Ang^3
#
#
#
# Elastic Constant Matrix: (Units=GPa)
#
#
# Indices 1 2 3 4 5 6 
#
# 1 131.5926 32.8790 81.3753 0.0000 0.0000 0.0000
# 2 32.8790 29.2843 29.2352 0.0000 0.0000 0.0000
# 3 81.3753 29.2352 143.4326 0.0000 0.0000 0.0000
# 4 0.0000 0.0000 0.0000 27.6330 0.0000 0.0000
# 5 0.0000 0.0000 0.0000 0.0000 26.3235 0.0000
# 6 0.0000 0.0000 0.0000 0.0000 0.0000 20.1417
#
#
#
# Elastic Compliance Matrix: (Units=1/GPa)
#
#
# Indices 1 2 3 4 5 6 
#
# 1 0.013505 -0.009433 -0.005739 0.000000 0.000000 0.000000
# 2 -0.009433 0.049461 -0.004729 0.000000 0.000000 0.000000
# 3 -0.005739 -0.004729 0.011192 0.000000 0.000000 0.000000
# 4 0.000000 0.000000 0.000000 0.036189 0.000000 0.000000
# 5 0.000000 0.000000 0.000000 0.000000 0.037989 0.000000
# 6 0.000000 0.000000 0.000000 0.000000 0.000000 0.049648
#
#
# Mechanical properties :
#
#
# Convention : Reuss Voigt Hill
#
# Bulk Modulus (GPa) = 29.10874 65.69873 47.40374
# Shear Modulus (GPa) = 20.06099 25.54096 22.80097
#
# Velocity S-wave (km/s) = 3.22992 3.64446 3.44343
# Velocity P-wave (km/s) = 5.38955 7.20243 6.36090
#
# Compressibility (1/GPa) = 0.03435394
#
# Stress axis : x y z
#
# Youngs Moduli (GPa) = 74.04461 20.21795 89.34887
#
# Poissons Ratio (x) = 0.19073 0.51281
# Poissons Ratio (y) = 0.69850 0.42257
# Poissons Ratio (z) = 0.42497 0.09562
#
# Static dielectric constant tensor:
#      x y z
#    x 3.637450 0.000000 0.000000 
#    y 0.000000 3.342970 0.000000 
#    z 0.000000 0.000000 3.548900 
# 
# 
# High freq. dielectric constant tensor:
#      x y z
#    x 1.746360 0.000000 0.000000 
#    y 0.000000 1.733420 0.000000 
#    z 0.000000 0.000000 1.754660 
# 
# From -- ./inp_files/15738.got.cif
#   From: 2010.03.12/outbox.cif.g09.slc.cpg/sg38_8_cif.got.tgz:15738.got - 2010.04.14 02:38:36.
