data_PCOD8178241
_publ_section_title
;
Structure prediction by ZEFSAII (Michael W. Deem and Ramdas Pophale) SiO2 
 PCOD8178241
Probable space group: A M M 2
;
_chemical_formula_sum "Si O2"
_cell_formula_units_Z 48
_cell_length_a 15.640638
_cell_length_b 9.025483
_cell_length_c 18.227217
_cell_angle_alpha 90.000000
_cell_angle_beta 90.000000
_cell_angle_gamma 90.000000
_cell_volume 2573.032554
_symmetry_space_group_name_H-M "A M M 2"
_symmetry_group_IT_number 38
_symmetry_cell_setting 'orthorhombic'
loop_
_space_group_symop_operation_xyz
x,y,z
-x,-y,z
-x,y,z
x,-y,z
x,1/2+y,1/2+z
-x,1/2-y,1/2+z
-x,1/2+y,1/2+z
x,1/2-y,1/2+z
loop_
_atom_site_type_symbol
_atom_site_label
_atom_site_fract_x
_atom_site_fract_y
_atom_site_fract_z
Si Si1 0.500000 0.175090 0.354440
Si Si2 0.831583 0.167863 0.112400
Si Si3 0.000000 0.666664 0.938225
Si Si4 0.335391 0.172086 0.438450
Si Si5 0.000000 0.831920 0.613361
Si Si6 0.500000 0.175907 0.185810
Si Si7 0.833773 0.333812 0.437778
Si Si8 0.659788 0.826923 0.610235
O O1 0.415838 0.238746 0.394371
O O2 0.500000 0.223663 0.270440
O O3 0.500000 0.000000 0.364460
O O4 0.916145 0.247943 0.143750
O O5 0.748698 0.258380 0.139183
O O6 0.827386 0.000000 0.142659
O O7 0.835227 0.167691 0.025145
O O8 0.083827 0.747892 0.906933
O O9 0.000000 0.500000 0.908227
O O10 0.000000 0.668915 0.025796
O O11 0.251828 0.255783 0.408943
O O12 0.351492 0.200156 0.523994
O O13 0.320901 0.000000 0.421978
O O14 0.000000 0.000000 0.642902
O O15 0.583671 0.243007 0.149643
O O16 0.500000 0.000000 0.175577
O O17 0.836383 0.500000 0.407001
O O18 0.657632 0.000000 0.629770
#
# Coordination Sequence:
#
# PCOD8178241 Si02
#       8
#     4   8   4   8   4   4   8   8
#     4   9  19  35  53  71  92 123 162 200 238 285
#     4   9  16  26  41  64  95 128 160 195 237 283
#     4   9  15  23  37  59  90 129 164 191 226 277
#     4   9  17  32  52  71  93 125 164 200 235 281
#     4   9  15  23  37  61  94 129 162 195 234 279
#     4  11  22  35  51  71  96 125 158 198 244 293
#     4   9  16  25  39  64  96 125 154 194 241 281
#     4  10  19  32  51  73  97 126 161 201 242 285
#
# _framework density 18.65503
#
# number of rings (size 3 to 8) (size 9 to 14) (size 15 to 20)
#    0.000    2.667    0.000    2.750    0.000    8.000 
#    0.000    2.083    0.000    0.000    0.000    1.167 
#    0.000    2.667    0.000    0.000    0.000    0.000 
#
# Total GULP energy -297599.039310 kJ/mol
# GULP energy per Si atom -12399.959971 kJ/mol
# Density = 1.861257 g / cm^3
# Si number density = 18.655030 Si / 1000 Ang^3
#
#
#
# Elastic Constant Matrix: (Units=GPa)
#
#
# Indices 1 2 3 4 5 6 
#
# 1 218.6287 98.9813 45.1327 0.0000 0.0000 0.0000
# 2 98.9813 145.4691 35.2459 0.0000 0.0000 0.0000
# 3 45.1327 35.2459 31.5443 0.0000 0.0000 0.0000
# 4 0.0000 0.0000 0.0000 11.6117 0.0000 0.0000
# 5 0.0000 0.0000 0.0000 0.0000 -3.9216 0.0000
# 6 0.0000 0.0000 0.0000 0.0000 0.0000 40.0503
#
#
#
# Elastic Compliance Matrix: (Units=1/GPa)
#
#
# Indices 1 2 3 4 5 6 
#
# 1 0.007585 -0.003472 -0.006974 0.000000 0.000000 0.000000
# 2 -0.003472 0.011015 -0.007341 0.000000 0.000000 0.000000
# 3 -0.006974 -0.007341 0.049882 0.000000 0.000000 0.000000
# 4 0.000000 0.000000 0.000000 0.086120 0.000000 0.000000
# 5 0.000000 0.000000 0.000000 0.000000 -0.254996 0.000000
# 6 0.000000 0.000000 0.000000 0.000000 0.000000 0.024969
#
#
# Mechanical properties :
#
#
# Convention : Reuss Voigt Hill
#
# Bulk Modulus (GPa) = 30.38613 83.81797 57.10205
# Shear Modulus (GPa) = -173.11100 23.96688 -74.57206
#
# Velocity S-wave (km/s) = -9.64351 3.58822 -6.32938
# Velocity P-wave (km/s) = 10.37654 7.88639 4.76852
#
# Compressibility (1/GPa) = 0.03290975
#
# Stress axis : x y z
#
# Youngs Moduli (GPa) = 131.83333 90.78522 20.04747
#
# Poissons Ratio (x) = 0.31517 0.13981
# Poissons Ratio (y) = 0.45767 0.14716
# Poissons Ratio (z) = 0.91940 0.66642
#
# Static dielectric constant tensor:
#      x y z
#    x 3.755710 0.000000 0.000000 
#    y 0.000000 3.537410 0.000000 
#    z 0.000000 0.000000 2.846980 
# 
# 
# High freq. dielectric constant tensor:
#      x y z
#    x 1.747050 0.000000 0.000000 
#    y 0.000000 1.730520 0.000000 
#    z 0.000000 0.000000 1.655980 
# 
# From -- ./inp_files/18270.got.cif
#   From: 2010.03.12/outbox.cif.g09.slc.cpg/sg38_10_cif.got.tgz:18270.got - 2010.04.14 02:38:36.
