data_PCOD8178700
_publ_section_title
;
Structure prediction by ZEFSAII (Michael W. Deem and Ramdas Pophale) SiO2 
 PCOD8178700
Probable space group: A M M 2
;
_chemical_formula_sum "Si O2"
_cell_formula_units_Z 64
_cell_length_a 9.031550
_cell_length_b 30.541728
_cell_length_c 11.927615
_cell_angle_alpha 90.000000
_cell_angle_beta 90.000000
_cell_angle_gamma 90.000000
_cell_volume 3290.103106
_symmetry_space_group_name_H-M "A M M 2"
_symmetry_group_IT_number 38
_symmetry_cell_setting 'orthorhombic'
loop_
_space_group_symop_operation_xyz
x,y,z
-x,-y,z
-x,y,z
x,-y,z
x,1/2+y,1/2+z
-x,1/2-y,1/2+z
-x,1/2+y,1/2+z
x,1/2-y,1/2+z
loop_
_atom_site_type_symbol
_atom_site_label
_atom_site_fract_x
_atom_site_fract_y
_atom_site_fract_z
Si Si1 0.330998 0.325940 0.504770
Si Si2 0.171358 0.195483 0.778194
Si Si3 0.675811 0.451041 0.269100
Si Si4 0.323734 0.371276 0.118753
Si Si5 0.168804 0.548374 0.729235
Si Si6 0.331591 0.427181 0.513299
Si Si7 0.830446 0.294253 0.715785
Si Si8 0.825837 0.372752 0.880374
O O1 0.500000 0.312927 0.476715
O O2 0.229211 0.318623 0.398328
O O3 0.318267 0.376151 0.539829
O O4 0.273239 0.297152 0.607546
O O5 0.261899 0.171155 0.681618
O O6 0.195552 0.247174 0.769499
O O7 0.000000 0.182631 0.766496
O O8 0.500000 0.448154 0.272986
O O9 0.728640 0.500000 0.234825
O O10 0.734856 0.415645 0.179417
O O11 0.738778 0.438880 0.392209
O O12 0.500000 0.368905 0.119793
O O13 0.265917 0.370471 0.993353
O O14 0.184688 0.500000 0.783640
O O15 0.248348 0.547082 0.610036
O O16 0.233198 0.584280 0.814746
O O17 0.000000 0.560922 0.704789
O O18 0.500000 0.443294 0.515152
O O19 0.786181 0.330057 0.808174
O O20 0.000000 0.301167 0.677542
O O21 0.000000 0.375422 0.907801
#
# Coordination Sequence:
#
# PCOD8178700 Si02
#       8
#     8   8   8   8   8   8   8   8
#     4  11  22  38  63  94 123 150 191 246 299 345
#     4  11  24  41  63  88 119 159 201 238 287 356
#     4   9  18  35  58  83 115 153 190 235 292 352
#     4  11  23  40  60  87 119 153 198 249 298 346
#     4  10  21  37  59  87 118 153 195 243 292 345
#     4  10  19  35  59  87 120 153 189 235 292 353
#     4  10  23  42  63  86 115 158 202 237 286 356
#     4  10  22  41  60  82 116 157 197 242 294 351
#
# _framework density 19.452276000000001
#
# number of rings (size 3 to 8) (size 9 to 14) (size 15 to 20)
#    0.000    1.750    2.500    1.500    1.750    3.750 
#    0.000    0.000    0.000    1.875    0.000    0.000 
#    0.000    0.000    0.000    0.000    0.000    0.000 
#
# Total GULP energy -396883.169679 kJ/mol
# GULP energy per Si atom -12402.599052 kJ/mol
# Density = 1.940800 g / cm^3
# Si number density = 19.452276 Si / 1000 Ang^3
#
#
#
# Elastic Constant Matrix: (Units=GPa)
#
#
# Indices 1 2 3 4 5 6 
#
# 1 64.1131 39.6801 47.9511 0.0000 0.0000 0.0000
# 2 39.6801 116.3175 52.6337 0.0000 0.0000 0.0000
# 3 47.9511 52.6337 132.9977 0.0000 0.0000 0.0000
# 4 0.0000 0.0000 0.0000 5.9267 0.0000 0.0000
# 5 0.0000 0.0000 0.0000 0.0000 37.5139 0.0000
# 6 0.0000 0.0000 0.0000 0.0000 0.0000 14.7247
#
#
#
# Elastic Compliance Matrix: (Units=1/GPa)
#
#
# Indices 1 2 3 4 5 6 
#
# 1 0.023621 -0.005121 -0.006489 0.000000 0.000000 0.000000
# 2 -0.005121 0.011583 -0.002737 0.000000 0.000000 0.000000
# 3 -0.006489 -0.002737 0.010942 0.000000 0.000000 0.000000
# 4 0.000000 0.000000 0.000000 0.168728 0.000000 0.000000
# 5 0.000000 0.000000 0.000000 0.000000 0.026657 0.000000
# 6 0.000000 0.000000 0.000000 0.000000 0.000000 0.067913
#
#
# Mechanical properties :
#
#
# Convention : Reuss Voigt Hill
#
# Bulk Modulus (GPa) = 57.30984 65.99535 61.65259
# Shear Modulus (GPa) = 14.53674 23.17728 18.85701
#
# Velocity S-wave (km/s) = 2.73665 3.45555 3.11689
# Velocity P-wave (km/s) = 6.28581 7.06552 6.68704
#
# Compressibility (1/GPa) = 0.01744901
#
# Stress axis : x y z
#
# Youngs Moduli (GPa) = 42.33588 86.33381 91.39115
#
# Poissons Ratio (x) = 0.44215 0.59308
# Poissons Ratio (y) = 0.21682 0.25018
# Poissons Ratio (z) = 0.27474 0.23634
#
# Static dielectric constant tensor:
#      x y z
#    x 3.444800 0.000000 0.000000 
#    y 0.000000 3.871050 0.000000 
#    z 0.000000 0.000000 3.524400 
# 
# 
# High freq. dielectric constant tensor:
#      x y z
#    x 1.743220 0.000000 0.000000 
#    y 0.000000 1.772460 0.000000 
#    z 0.000000 0.000000 1.758660 
# 
# From -- ./inp_files/8552.got.cif
#   From: 2010.03.12/outbox.cif.g09.slc.cpg/sg38_5_cif.got.tgz:8552.got - 2010.04.14 02:38:36.
