data_PCOD8178772
_publ_section_title
;
Structure prediction by ZEFSAII (Michael W. Deem and Ramdas Pophale) SiO2 
 PCOD8178772
Probable space group: A M M 2
;
_chemical_formula_sum "Si O2"
_cell_formula_units_Z 48
_cell_length_a 18.953027
_cell_length_b 8.554865
_cell_length_c 14.804138
_cell_angle_alpha 90.000000
_cell_angle_beta 90.000000
_cell_angle_gamma 90.000000
_cell_volume 2400.351630
_symmetry_space_group_name_H-M "A M M 2"
_symmetry_group_IT_number 38
_symmetry_cell_setting 'orthorhombic'
loop_
_space_group_symop_operation_xyz
x,y,z
-x,-y,z
-x,y,z
x,-y,z
x,1/2+y,1/2+z
-x,1/2-y,1/2+z
-x,1/2+y,1/2+z
x,1/2-y,1/2+z
loop_
_atom_site_type_symbol
_atom_site_label
_atom_site_fract_x
_atom_site_fract_y
_atom_site_fract_z
Si Si1 0.743920 0.181288 0.343100
Si Si2 0.000000 0.815516 0.693437
Si Si3 0.352200 0.822643 0.698095
Si Si4 0.500000 0.182412 0.243343
Si Si5 0.361966 0.677405 0.996327
Si Si6 0.000000 0.184466 0.488540
Si Si7 0.103773 0.817546 0.846580
Si Si8 0.500000 0.679347 0.434810
O O1 0.699478 0.210526 0.252824
O O2 0.696739 0.238444 0.426923
O O3 0.814042 0.282614 0.341916
O O4 0.764023 0.000000 0.350357
O O5 0.931931 0.760266 0.752278
O O6 0.000000 0.743885 0.591440
O O7 0.000000 0.000000 0.682672
O O8 0.432126 0.764548 0.701582
O O9 0.327173 0.814475 0.594768
O O10 0.347813 0.000000 0.735394
O O11 0.500000 0.204451 0.350459
O O12 0.500000 0.000000 0.219157
O O13 0.384229 0.500000 0.971732
O O14 0.430595 0.787215 0.993584
O O15 0.930265 0.236778 0.434482
O O16 0.000000 0.000000 0.495091
O O17 0.090311 0.000000 0.858327
O O18 0.500000 0.500000 0.402939
#
# Coordination Sequence:
#
# PCOD8178772 Si02
#       8
#     8   4   8   4   8   4   8   4
#     4  11  23  40  60  85 119 160 196 240 293 349
#     4   8  18  37  62  87 116 155 191 228 286 344
#     4  11  23  40  61  86 113 153 200 246 298 358
#     4  12  23  38  59  84 116 152 191 247 306 355
#     4  10  23  41  60  82 117 156 194 243 306 359
#     4  10  19  37  64  91 116 149 195 236 278 346
#     4  10  21  39  60  87 122 157 192 237 286 342
#     4  12  23  36  61  88 112 148 201 251 296 351
#
# _framework density 19.997071999999999
#
# number of rings (size 3 to 8) (size 9 to 14) (size 15 to 20)
#    0.000    1.500    1.667    4.250    0.000    5.333 
#    0.000   11.667    0.000    0.000    0.000    0.000 
#    0.000    0.000    0.000    0.000    0.000    0.000 
#
# Total GULP energy -297661.418033 kJ/mol
# GULP energy per Si atom -12402.559085 kJ/mol
# Density = 1.995156 g / cm^3
# Si number density = 19.997072 Si / 1000 Ang^3
#
#
#
# Elastic Constant Matrix: (Units=GPa)
#
#
# Indices 1 2 3 4 5 6 
#
# 1 133.5959 17.9152 54.0476 0.0000 0.0000 0.0000
# 2 17.9152 58.3161 24.1855 0.0000 0.0000 0.0000
# 3 54.0476 24.1855 144.9359 0.0000 0.0000 0.0000
# 4 0.0000 0.0000 0.0000 27.8100 0.0000 0.0000
# 5 0.0000 0.0000 0.0000 0.0000 -16.1709 0.0000
# 6 0.0000 0.0000 0.0000 0.0000 0.0000 34.3161
#
#
#
# Elastic Compliance Matrix: (Units=1/GPa)
#
#
# Indices 1 2 3 4 5 6 
#
# 1 0.008930 -0.001464 -0.003086 0.000000 0.000000 0.000000
# 2 -0.001464 0.018663 -0.002568 0.000000 0.000000 0.000000
# 3 -0.003086 -0.002568 0.008479 0.000000 0.000000 0.000000
# 4 0.000000 0.000000 0.000000 0.035958 0.000000 0.000000
# 5 0.000000 0.000000 0.000000 0.000000 -0.061840 0.000000
# 6 0.000000 0.000000 0.000000 0.000000 0.000000 0.029141
#
#
# Mechanical properties :
#
#
# Convention : Reuss Voigt Hill
#
# Bulk Modulus (GPa) = 45.79613 58.79382 52.29498
# Shear Modulus (GPa) = 82.17540 25.23769 53.70655
#
# Velocity S-wave (km/s) = 6.41739 3.55642 5.18802
# Velocity P-wave (km/s) = 8.82393 6.80655 7.88007
#
# Compressibility (1/GPa) = 0.02183590
#
# Stress axis : x y z
#
# Youngs Moduli (GPa) = 111.98314 53.58258 117.93951
#
# Poissons Ratio (x) = 0.07842 0.36394
# Poissons Ratio (y) = 0.16389 0.30293
# Poissons Ratio (z) = 0.34556 0.13763
#
# Static dielectric constant tensor:
#      x y z
#    x 3.541440 0.000000 0.000000 
#    y 0.000000 3.558520 0.000000 
#    z 0.000000 0.000000 3.816610 
# 
# 
# High freq. dielectric constant tensor:
#      x y z
#    x 1.774100 0.000000 0.000000 
#    y 0.000000 1.778140 0.000000 
#    z 0.000000 0.000000 1.789930 
# 
# From -- ./inp_files/15106.got.cif
#   From: 2010.03.12/outbox.cif.g09.slc.cpg/sg38_8_cif.got.tgz:15106.got - 2010.04.14 02:38:36.
