data_PCOD8178947
_publ_section_title
;
Structure prediction by ZEFSAII (Michael W. Deem and Ramdas Pophale) SiO2 
 PCOD8178947
Probable space group: A M M 2
;
_chemical_formula_sum "Si O2"
_cell_formula_units_Z 40
_cell_length_a 7.881573
_cell_length_b 9.540468
_cell_length_c 29.294056
_cell_angle_alpha 90.000000
_cell_angle_beta 90.000000
_cell_angle_gamma 90.000000
_cell_volume 2202.734171
_symmetry_space_group_name_H-M "A M M 2"
_symmetry_group_IT_number 38
_symmetry_cell_setting 'orthorhombic'
loop_
_space_group_symop_operation_xyz
x,y,z
-x,-y,z
-x,y,z
x,-y,z
x,1/2+y,1/2+z
-x,1/2-y,1/2+z
-x,1/2+y,1/2+z
x,1/2-y,1/2+z
loop_
_atom_site_type_symbol
_atom_site_label
_atom_site_fract_x
_atom_site_fract_y
_atom_site_fract_z
Si Si1 0.500000 0.666330 0.664810
Si Si2 0.311965 0.333511 0.409340
Si Si3 0.299174 0.661190 0.309112
Si Si4 0.185000 0.166624 0.004320
Si Si5 0.500000 0.167675 0.062333
Si Si6 0.809931 0.162040 0.225965
O O1 0.500000 0.500000 0.662238
O O2 0.500000 0.728015 0.613669
O O3 0.669984 0.720328 0.690335
O O4 0.500000 0.270929 0.415588
O O5 0.322944 0.500000 0.409940
O O6 0.238203 0.289489 0.359775
O O7 0.202023 0.278248 0.452067
O O8 0.500000 0.682732 0.304297
O O9 0.249927 0.500000 0.300242
O O10 0.200582 0.755507 0.273190
O O11 0.332730 0.227044 0.036779
O O12 0.000000 0.214964 0.022610
O O13 0.198735 0.000000 0.004336
O O14 0.500000 0.000000 0.062164
O O15 0.000000 0.181570 0.205527
O O16 0.772314 0.000000 0.236518
#
# Coordination Sequence:
#
# PCOD8178947 Si02
#       6
#     4   8   8   8   4   8
#     4   9  18  32  46  59  83 119 155 195 238 273
#     4   8  13  23  38  58  88 120 147 178 219 267
#     4   9  17  29  48  72  96 125 159 192 228 273
#     4   9  15  22  35  56  82 113 146 177 216 269
#     4   9  16  26  39  55  79 111 147 187 226 265
#     4  10  20  33  49  68  92 125 161 193 232 281
#
# _framework density 18.15925
#
# number of rings (size 3 to 8) (size 9 to 14) (size 15 to 20)
#    0.000    3.000    2.000    1.200    0.000    2.000 
#    0.000    6.000    0.000    0.000    0.000    0.000 
#    0.000    3.200    0.000    2.000    0.000    2.000 
#
# Total GULP energy -247827.920528 kJ/mol
# GULP energy per Si atom -12391.396026 kJ/mol
# Density = 1.811792 g / cm^3
# Si number density = 18.159250 Si / 1000 Ang^3
#
#
#
# Elastic Constant Matrix: (Units=GPa)
#
#
# Indices 1 2 3 4 5 6 
#
# 1 139.2513 16.9026 78.8999 0.0000 0.0000 0.0000
# 2 16.9026 18.6731 20.1518 0.0000 0.0000 0.0000
# 3 78.8999 20.1518 151.3576 0.0000 0.0000 0.0000
# 4 0.0000 0.0000 0.0000 15.6130 0.0000 0.0000
# 5 0.0000 0.0000 0.0000 0.0000 15.0450 0.0000
# 6 0.0000 0.0000 0.0000 0.0000 0.0000 11.4825
#
#
#
# Elastic Compliance Matrix: (Units=1/GPa)
#
#
# Indices 1 2 3 4 5 6 
#
# 1 0.010464 -0.004187 -0.004897 0.000000 0.000000 0.000000
# 2 -0.004187 0.064214 -0.006367 0.000000 0.000000 0.000000
# 3 -0.004897 -0.006367 0.010008 0.000000 0.000000 0.000000
# 4 0.000000 0.000000 0.000000 0.064049 0.000000 0.000000
# 5 0.000000 0.000000 0.000000 0.000000 0.066467 0.000000
# 6 0.000000 0.000000 0.000000 0.000000 0.000000 0.087089
#
#
# Mechanical properties :
#
#
# Convention : Reuss Voigt Hill
#
# Bulk Modulus (GPa) = 18.59308 60.13227 39.36268
# Shear Modulus (GPa) = 14.24006 21.31660 17.77833
#
# Velocity S-wave (km/s) = 2.80335 3.42990 3.13233
# Velocity P-wave (km/s) = 4.55407 6.99080 5.89961
#
# Compressibility (1/GPa) = 0.05378344
#
# Stress axis : x y z
#
# Youngs Moduli (GPa) = 95.56238 15.57289 99.92506
#
# Poissons Ratio (x) = 0.06520 0.48938
# Poissons Ratio (y) = 0.40011 0.63622
# Poissons Ratio (z) = 0.46801 0.09915
#
# Static dielectric constant tensor:
#      x y z
#    x 3.517010 0.000000 0.000000 
#    y 0.000000 2.653480 0.000000 
#    z 0.000000 0.000000 3.607540 
# 
# 
# High freq. dielectric constant tensor:
#      x y z
#    x 1.712120 0.000000 0.000000 
#    y 0.000000 1.617790 0.000000 
#    z 0.000000 0.000000 1.707840 
# 
# From -- ./inp_files/23211.got.cif
#   From: 2010.03.12/outbox.cif.g09.slc.cpg/sg38_12_cif.got.tgz:23211.got - 2010.04.14 02:38:36.
