data_PCOD8178158
_publ_section_title
;
Structure prediction by ZEFSAII (Michael W. Deem and Ramdas Pophale) SiO2 
 PCOD8178158
Probable space group: A M M 2
;
_chemical_formula_sum "Si O2"
_cell_formula_units_Z 64
_cell_length_a 28.361111
_cell_length_b 9.062099
_cell_length_c 14.192523
_cell_angle_alpha 90.000000
_cell_angle_beta 90.000000
_cell_angle_gamma 90.000000
_cell_volume 3647.637305
_symmetry_space_group_name_H-M "A M M 2"
_symmetry_group_IT_number 38
_symmetry_cell_setting 'orthorhombic'
loop_
_space_group_symop_operation_xyz
x,y,z
-x,-y,z
-x,y,z
x,-y,z
x,1/2+y,1/2+z
-x,1/2-y,1/2+z
-x,1/2+y,1/2+z
x,1/2-y,1/2+z
loop_
_atom_site_type_symbol
_atom_site_label
_atom_site_fract_x
_atom_site_fract_y
_atom_site_fract_z
Si Si1 0.381378 0.326486 0.194480
Si Si2 0.695722 0.327439 0.344426
Si Si3 0.054261 0.326092 0.330643
Si Si4 0.803187 0.174124 0.830710
Si Si5 0.125593 0.172797 0.674649
Si Si6 0.369560 0.326296 0.982809
Si Si7 0.446559 0.172972 0.333196
Si Si8 0.874822 0.676399 0.963999
O O1 0.390102 0.500000 0.194428
O O2 0.334813 0.282297 0.253153
O O3 0.427302 0.252298 0.239947
O O4 0.375316 0.266044 0.088678
O O5 0.692319 0.500000 0.364002
O O6 0.748998 0.277029 0.325226
O O7 0.676620 0.246250 0.437144
O O8 0.061106 0.500000 0.348591
O O9 0.079358 0.277592 0.233181
O O10 0.077838 0.238044 0.416236
O O11 0.000000 0.280300 0.323848
O O12 0.827552 0.220177 0.732035
O O13 0.809270 0.000000 0.849128
O O14 0.827896 0.261563 0.915156
O O15 0.125503 0.241256 0.570414
O O16 0.124893 0.000000 0.660909
O O17 0.361461 0.500000 0.982534
O O18 0.416081 0.280376 0.924305
O O19 0.500000 0.224054 0.351726
O O20 0.443144 0.000000 0.315072
O O21 0.874742 0.500000 0.958726
#
# Coordination Sequence:
#
# PCOD8178158 Si02
#       8
#     8   8   8   8   8   8   8   8
#     4   9  18  32  50  72  95 123 161 199 233 274
#     4   9  18  32  50  71  95 124 159 197 233 275
#     4   9  18  34  53  70  93 128 162 189 229 288
#     4   9  18  34  51  67  94 130 161 190 231 284
#     4   8  16  31  50  70  93 124 159 192 229 277
#     4   9  18  32  50  71  96 124 154 194 240 283
#     4   9  18  32  48  68  96 127 156 190 237 287
#     4  10  19  31  50  75  98 121 156 202 240 271
#
# _framework density 17.545604000000001
#
# number of rings (size 3 to 8) (size 9 to 14) (size 15 to 20)
#    0.000    3.000    0.000    1.125    0.000    3.500 
#    0.000   10.000    0.000    0.000    0.000    0.000 
#    0.000    0.000    0.000    0.000    0.000    0.000 
#
# Total GULP energy -396765.938408 kJ/mol
# GULP energy per Si atom -12398.935575 kJ/mol
# Density = 1.750567 g / cm^3
# Si number density = 17.545604 Si / 1000 Ang^3
#
#
#
# Elastic Constant Matrix: (Units=GPa)
#
#
# Indices 1 2 3 4 5 6 
#
# 1 152.4058 34.5131 70.0249 0.0000 0.0000 0.0000
# 2 34.5131 31.9368 36.1098 0.0000 0.0000 0.0000
# 3 70.0249 36.1098 164.7788 0.0000 0.0000 0.0000
# 4 0.0000 0.0000 0.0000 25.7136 0.0000 0.0000
# 5 0.0000 0.0000 0.0000 0.0000 12.3633 0.0000
# 6 0.0000 0.0000 0.0000 0.0000 0.0000 27.6180
#
#
#
# Elastic Compliance Matrix: (Units=1/GPa)
#
#
# Indices 1 2 3 4 5 6 
#
# 1 0.009315 -0.007432 -0.002330 0.000000 0.000000 0.000000
# 2 -0.007432 0.047556 -0.007263 0.000000 0.000000 0.000000
# 3 -0.002330 -0.007263 0.008650 0.000000 0.000000 0.000000
# 4 0.000000 0.000000 0.000000 0.038890 0.000000 0.000000
# 5 0.000000 0.000000 0.000000 0.000000 0.080885 0.000000
# 6 0.000000 0.000000 0.000000 0.000000 0.000000 0.036208
#
#
# Mechanical properties :
#
#
# Convention : Reuss Voigt Hill
#
# Bulk Modulus (GPa) = 31.77521 70.04633 50.91077
# Shear Modulus (GPa) = 18.79388 27.03721 22.91555
#
# Velocity S-wave (km/s) = 3.27639 3.92978 3.61786
# Velocity P-wave (km/s) = 5.69757 7.78460 6.82137
#
# Compressibility (1/GPa) = 0.03147107
#
# Stress axis : x y z
#
# Youngs Moduli (GPa) = 107.35438 21.02803 115.60090
#
# Poissons Ratio (x) = 0.15628 0.26933
# Poissons Ratio (y) = 0.79787 0.83961
# Poissons Ratio (z) = 0.25012 0.15273
#
# Static dielectric constant tensor:
#      x y z
#    x 3.376470 0.000000 0.000000 
#    y 0.000000 3.060330 0.000000 
#    z 0.000000 0.000000 3.465700 
# 
# 
# High freq. dielectric constant tensor:
#      x y z
#    x 1.681410 0.000000 0.000000 
#    y 0.000000 1.660550 0.000000 
#    z 0.000000 0.000000 1.681230 
# 
# From -- ./inp_files/15920.got.cif
#   From: 2010.03.12/outbox.cif.g09.slc.cpg/sg38_8_cif.got.tgz:15920.got - 2010.04.14 02:38:36.
