data_PCOD8178874
_publ_section_title
;
Structure prediction by ZEFSAII (Michael W. Deem and Ramdas Pophale) SiO2 
 PCOD8178874
Probable space group: A M M 2
;
_chemical_formula_sum "Si O2"
_cell_formula_units_Z 64
_cell_length_a 12.714224
_cell_length_b 20.536263
_cell_length_c 13.119654
_cell_angle_alpha 90.000000
_cell_angle_beta 90.000000
_cell_angle_gamma 90.000000
_cell_volume 3425.576399
_symmetry_space_group_name_H-M "A M M 2"
_symmetry_group_IT_number 38
_symmetry_cell_setting 'orthorhombic'
loop_
_space_group_symop_operation_xyz
x,y,z
-x,-y,z
-x,y,z
x,-y,z
x,1/2+y,1/2+z
-x,1/2-y,1/2+z
-x,1/2+y,1/2+z
x,1/2-y,1/2+z
loop_
_atom_site_type_symbol
_atom_site_label
_atom_site_fract_x
_atom_site_fract_y
_atom_site_fract_z
Si Si1 0.379970 0.191746 0.542950
Si Si2 0.880867 0.673970 0.485244
Si Si3 0.730359 0.572565 0.129186
Si Si4 0.879726 0.424562 0.314408
Si Si5 0.381344 0.428011 0.763677
Si Si6 0.193516 0.930628 0.409707
Si Si7 0.715676 0.692457 0.659830
Si Si8 0.798801 0.294508 0.875126
O O1 0.500000 0.190378 0.505178
O O2 0.358434 0.127222 0.611479
O O3 0.363976 0.255767 0.611883
O O4 0.304281 0.195552 0.445474
O O5 0.842938 0.614804 0.413992
O O6 0.810865 0.676272 0.584944
O O7 0.874627 0.740183 0.419822
O O8 0.000000 0.663973 0.521518
O O9 0.681494 0.500000 0.149011
O O10 0.804237 0.595075 0.221794
O O11 0.805729 0.568866 0.031318
O O12 0.869202 0.500000 0.341734
O O13 0.000000 0.406379 0.285249
O O14 0.500000 0.412476 0.797659
O O15 0.373168 0.500000 0.712935
O O16 0.312791 0.425955 0.866560
O O17 0.343861 0.375094 0.681389
O O18 0.136957 0.864205 0.371680
O O19 0.141792 0.000000 0.372413
O O20 0.762801 0.724629 0.762147
#
# Coordination Sequence:
#
# PCOD8178874 Si02
#       8
#     8   8   8   8   8   8   8   8
#     4  10  20  32  48  73 103 135 170 205 245 297
#     4  10  21  36  54  75  97 126 168 213 256 303
#     4   9  17  30  49  74 102 130 164 205 245 288
#     4   9  18  34  55  76  99 130 167 206 250 301
#     4   9  17  30  51  78 105 136 172 205 241 291
#     4   8  15  28  46  70 100 129 160 199 238 282
#     4  10  20  34  52  75 102 132 165 208 256 297
#     4   9  19  34  50  71 100 132 165 203 252 301
#
# _framework density 18.682987000000001
#
# number of rings (size 3 to 8) (size 9 to 14) (size 15 to 20)
#    0.000    2.750    0.000    1.125    0.000    6.250 
#    0.000   10.625    0.000    2.625    0.000    5.250 
#    0.000    0.000    0.000    0.000    0.000    0.000 
#
# Total GULP energy -396558.302976 kJ/mol
# GULP energy per Si atom -12392.446968 kJ/mol
# Density = 1.864046 g / cm^3
# Si number density = 18.682987 Si / 1000 Ang^3
#
#
#
# Elastic Constant Matrix: (Units=GPa)
#
#
# Indices 1 2 3 4 5 6 
#
# 1 56.1288 22.2239 35.1046 0.0000 0.0000 0.0000
# 2 22.2239 95.5678 35.7111 0.0000 0.0000 0.0000
# 3 35.1046 35.7111 96.4807 0.0000 0.0000 0.0000
# 4 0.0000 0.0000 0.0000 29.9578 0.0000 0.0000
# 5 0.0000 0.0000 0.0000 0.0000 17.6800 0.0000
# 6 0.0000 0.0000 0.0000 0.0000 0.0000 22.7892
#
#
#
# Elastic Compliance Matrix: (Units=1/GPa)
#
#
# Indices 1 2 3 4 5 6 
#
# 1 0.023629 -0.002648 -0.007617 0.000000 0.000000 0.000000
# 2 -0.002648 0.012440 -0.003641 0.000000 0.000000 0.000000
# 3 -0.007617 -0.003641 0.014484 0.000000 0.000000 0.000000
# 4 0.000000 0.000000 0.000000 0.033380 0.000000 0.000000
# 5 0.000000 0.000000 0.000000 0.000000 0.056561 0.000000
# 6 0.000000 0.000000 0.000000 0.000000 0.000000 0.043880
#
#
# Mechanical properties :
#
#
# Convention : Reuss Voigt Hill
#
# Bulk Modulus (GPa) = 43.97556 48.25072 46.11314
# Shear Modulus (GPa) = 22.75134 24.42793 23.58964
#
# Velocity S-wave (km/s) = 3.49342 3.61985 3.55720
# Velocity P-wave (km/s) = 6.31355 6.58432 6.45035
#
# Compressibility (1/GPa) = 0.02273990
#
# Stress axis : x y z
#
# Youngs Moduli (GPa) = 42.32141 80.38471 69.04235
#
# Poissons Ratio (x) = 0.21290 0.52590
# Poissons Ratio (y) = 0.11209 0.25138
# Poissons Ratio (z) = 0.32236 0.29267
#
# Static dielectric constant tensor:
#      x y z
#    x 3.084360 0.000000 0.000000 
#    y 0.000000 3.986790 0.000000 
#    z 0.000000 0.000000 3.269090 
# 
# 
# High freq. dielectric constant tensor:
#      x y z
#    x 1.691670 0.000000 0.000000 
#    y 0.000000 1.752590 0.000000 
#    z 0.000000 0.000000 1.713880 
# 
# From -- ./inp_files/9551.got.cif
#   From: 2010.03.12/outbox.cif.g09.slc.cpg/sg38_5_cif.got.tgz:9551.got - 2010.04.14 02:38:36.
