data_PCOD8178143
_publ_section_title
;
Structure prediction by ZEFSAII (Michael W. Deem and Ramdas Pophale) SiO2 
 PCOD8178143
Probable space group: A M M 2
;
_chemical_formula_sum "Si O2"
_cell_formula_units_Z 64
_cell_length_a 19.042590
_cell_length_b 9.426598
_cell_length_c 19.841613
_cell_angle_alpha 90.000000
_cell_angle_beta 90.000000
_cell_angle_gamma 90.000000
_cell_volume 3561.705266
_symmetry_space_group_name_H-M "A M M 2"
_symmetry_group_IT_number 38
_symmetry_cell_setting 'orthorhombic'
loop_
_space_group_symop_operation_xyz
x,y,z
-x,-y,z
-x,y,z
x,-y,z
x,1/2+y,1/2+z
-x,1/2-y,1/2+z
-x,1/2+y,1/2+z
x,1/2-y,1/2+z
loop_
_atom_site_type_symbol
_atom_site_label
_atom_site_fract_x
_atom_site_fract_y
_atom_site_fract_z
Si Si1 0.802438 0.170063 0.536550
Si Si2 0.078860 0.831762 0.789031
Si Si3 0.656368 0.838451 0.860186
Si Si4 0.078590 0.168417 0.639059
Si Si5 0.341901 0.161684 0.598412
Si Si6 0.579928 0.169565 0.727040
Si Si7 0.578381 0.161568 0.465692
Si Si8 0.188440 0.664001 0.397476
O O1 0.866403 0.223139 0.583567
O O2 0.730926 0.228923 0.571403
O O3 0.811209 0.241334 0.464091
O O4 0.800506 0.000000 0.526824
O O5 0.099454 0.775776 0.714038
O O6 0.129808 0.772074 0.847033
O O7 0.000000 0.782445 0.806623
O O8 0.084676 0.000000 0.788693
O O9 0.618163 0.775677 0.794424
O O10 0.633404 0.753426 0.925361
O O11 0.739870 0.823771 0.854887
O O12 0.632853 0.000000 0.870388
O O13 0.000000 0.222068 0.620233
O O14 0.079430 0.000000 0.640184
O O15 0.373810 0.234096 0.665582
O O16 0.403443 0.174547 0.543954
O O17 0.323858 0.000000 0.615676
O O18 0.500000 0.227836 0.725108
O O19 0.579072 0.000000 0.722798
O O20 0.500000 0.219628 0.454319
O O21 0.584927 0.000000 0.441294
O O22 0.174170 0.500000 0.417523
#
# Coordination Sequence:
#
# PCOD8178143 Si02
#       8
#     8   8   8   8   8   8   8   8
#     4  10  19  31  50  73  98 127 159 197 241 286
#     4   8  15  29  49  73 100 128 161 202 243 283
#     4  10  20  32  48  72 100 126 156 199 245 289
#     4   8  15  28  48  75 101 124 157 202 245 283
#     4   9  17  29  46  70  95 120 155 198 239 279
#     4   9  17  29  46  69  94 118 152 201 247 281
#     4  10  19  32  51  71  94 127 163 196 234 286
#     4  10  20  32  48  72 101 131 163 196 236 289
#
# _framework density 17.968921999999999
#
# number of rings (size 3 to 8) (size 9 to 14) (size 15 to 20)
#    0.000    2.750    1.250    1.500    1.750    2.750 
#    0.000    0.000    0.000    2.250    0.000    1.750 
#    0.000    0.000    0.000    0.000    0.000    0.000 
#
# Total GULP energy -396642.296176 kJ/mol
# GULP energy per Si atom -12395.071755 kJ/mol
# Density = 1.792802 g / cm^3
# Si number density = 17.968922 Si / 1000 Ang^3
#
#
#
# Elastic Constant Matrix: (Units=GPa)
#
#
# Indices 1 2 3 4 5 6 
#
# 1 124.0721 20.2382 68.6358 0.0000 0.0000 0.0000
# 2 20.2382 22.1053 24.1807 0.0000 0.0000 0.0000
# 3 68.6358 24.1807 123.5883 0.0000 0.0000 0.0000
# 4 0.0000 0.0000 0.0000 20.9955 0.0000 0.0000
# 5 0.0000 0.0000 0.0000 0.0000 40.0531 0.0000
# 6 0.0000 0.0000 0.0000 0.0000 0.0000 14.4989
#
#
#
# Elastic Compliance Matrix: (Units=1/GPa)
#
#
# Indices 1 2 3 4 5 6 
#
# 1 0.012007 -0.004706 -0.005747 0.000000 0.000000 0.000000
# 2 -0.004706 0.059401 -0.009009 0.000000 0.000000 0.000000
# 3 -0.005747 -0.009009 0.013046 0.000000 0.000000 0.000000
# 4 0.000000 0.000000 0.000000 0.047629 0.000000 0.000000
# 5 0.000000 0.000000 0.000000 0.000000 0.024967 0.000000
# 6 0.000000 0.000000 0.000000 0.000000 0.000000 0.068971
#
#
# Mechanical properties :
#
#
# Convention : Reuss Voigt Hill
#
# Bulk Modulus (GPa) = 21.96360 55.09724 38.53042
# Shear Modulus (GPa) = 17.84945 25.55689 21.70317
#
# Velocity S-wave (km/s) = 3.15517 3.77541 3.47914
# Velocity P-wave (km/s) = 5.05204 7.05224 6.13421
#
# Compressibility (1/GPa) = 0.04552987
#
# Stress axis : x y z
#
# Youngs Moduli (GPa) = 83.28601 16.83478 76.65260
#
# Poissons Ratio (x) = 0.07922 0.44055
# Poissons Ratio (y) = 0.39191 0.69055
# Poissons Ratio (z) = 0.47868 0.15166
#
# Static dielectric constant tensor:
#      x y z
#    x 3.629770 0.000000 0.000000 
#    y 0.000000 2.775270 0.000000 
#    z 0.000000 0.000000 3.459560 
# 
# 
# High freq. dielectric constant tensor:
#      x y z
#    x 1.711760 0.000000 0.000000 
#    y 0.000000 1.629430 0.000000 
#    z 0.000000 0.000000 1.704420 
# 
# From -- ./inp_files/18752.got.cif
#   From: 2010.03.12/outbox.cif.g09.slc.cpg/sg38_10_cif.got.tgz:18752.got - 2010.04.14 02:38:36.
