data_PCOD8178558
_publ_section_title
;
Structure prediction by ZEFSAII (Michael W. Deem and Ramdas Pophale) SiO2 
 PCOD8178558
Probable space group: A M M 2
;
_chemical_formula_sum "Si O2"
_cell_formula_units_Z 48
_cell_length_a 10.320796
_cell_length_b 9.022276
_cell_length_c 27.902361
_cell_angle_alpha 90.000000
_cell_angle_beta 90.000000
_cell_angle_gamma 90.000000
_cell_volume 2598.186104
_symmetry_space_group_name_H-M "A M M 2"
_symmetry_group_IT_number 38
_symmetry_cell_setting 'orthorhombic'
loop_
_space_group_symop_operation_xyz
x,y,z
-x,-y,z
-x,y,z
x,-y,z
x,1/2+y,1/2+z
-x,1/2-y,1/2+z
-x,1/2+y,1/2+z
x,1/2-y,1/2+z
loop_
_atom_site_type_symbol
_atom_site_label
_atom_site_fract_x
_atom_site_fract_y
_atom_site_fract_z
Si Si1 0.500000 0.829644 0.017780
Si Si2 0.241676 0.673198 0.459868
Si Si3 0.251160 0.824130 0.674659
Si Si4 0.352658 0.327422 0.763316
Si Si5 0.500000 0.324668 0.117869
Si Si6 0.000000 0.176060 0.619392
Si Si7 0.000000 0.676702 0.010035
Si Si8 0.649692 0.828104 0.372210
O O1 0.500000 0.728606 0.063951
O O2 0.500000 0.000000 0.033661
O O3 0.626107 0.789875 0.987281
O O4 0.208226 0.500000 0.459911
O O5 0.126980 0.762264 0.484531
O O6 0.258538 0.728336 0.405415
O O7 0.256286 0.760507 0.728368
O O8 0.374022 0.763828 0.645108
O O9 0.125163 0.762698 0.647329
O O10 0.249329 0.000000 0.677942
O O11 0.500000 0.271054 0.755980
O O12 0.343991 0.500000 0.751444
O O13 0.307966 0.296588 0.817623
O O14 0.500000 0.500000 0.117124
O O15 0.000000 0.234061 0.564888
O O16 0.000000 0.000000 0.619072
O O17 0.000000 0.500000 0.007106
O O18 0.500000 0.783157 0.379385
O O19 0.669585 0.000000 0.385180
#
# Coordination Sequence:
#
# PCOD8178558 Si02
#       8
#     4   8   8   8   4   4   4   8
#     4  10  22  36  53  80 113 145 180 229 289 342
#     4  11  22  38  57  84 117 148 185 234 289 344
#     4  10  19  34  54  79 107 140 183 230 275 325
#     4   9  18  33  54  82 114 144 179 226 276 327
#     4  10  20  32  51  78 105 137 186 237 275 326
#     4   9  20  37  56  77 108 145 184 227 274 325
#     4  11  23  41  62  81 108 155 198 235 282 335
#     4   9  18  34  57  84 112 146 188 230 276 336
#
# _framework density 18.474426999999999
#
# number of rings (size 3 to 8) (size 9 to 14) (size 15 to 20)
#    0.000    2.167    1.667    2.750    0.000    4.000 
#    0.000    4.583    0.000    4.000    0.000    0.000 
#    0.000    0.000    0.000    0.000    0.000    0.000 
#
# Total GULP energy -297653.549810 kJ/mol
# GULP energy per Si atom -12402.231242 kJ/mol
# Density = 1.843238 g / cm^3
# Si number density = 18.474427 Si / 1000 Ang^3
#
#
#
# Elastic Constant Matrix: (Units=GPa)
#
#
# Indices 1 2 3 4 5 6 
#
# 1 132.6763 41.4178 68.6303 0.0000 0.0000 0.0000
# 2 41.4178 52.4596 47.2156 0.0000 0.0000 0.0000
# 3 68.6303 47.2156 143.4372 0.0000 0.0000 0.0000
# 4 0.0000 0.0000 0.0000 37.1179 0.0000 0.0000
# 5 0.0000 0.0000 0.0000 0.0000 36.8246 0.0000
# 6 0.0000 0.0000 0.0000 0.0000 0.0000 23.0582
#
#
#
# Elastic Compliance Matrix: (Units=1/GPa)
#
#
# Indices 1 2 3 4 5 6 
#
# 1 0.011082 -0.005651 -0.003442 0.000000 0.000000 0.000000
# 2 -0.005651 0.029969 -0.007161 0.000000 0.000000 0.000000
# 3 -0.003442 -0.007161 0.010976 0.000000 0.000000 0.000000
# 4 0.000000 0.000000 0.000000 0.026941 0.000000 0.000000
# 5 0.000000 0.000000 0.000000 0.000000 0.027156 0.000000
# 6 0.000000 0.000000 0.000000 0.000000 0.000000 0.043368
#
#
# Mechanical properties :
#
#
# Convention : Reuss Voigt Hill
#
# Bulk Modulus (GPa) = 51.23457 71.45561 61.34509
# Shear Modulus (GPa) = 26.52416 30.82077 28.67247
#
# Velocity S-wave (km/s) = 3.79320 4.08891 3.94383
# Velocity P-wave (km/s) = 6.85401 7.81372 7.34955
#
# Compressibility (1/GPa) = 0.01951807
#
# Stress axis : x y z
#
# Youngs Moduli (GPa) = 90.23789 33.36742 91.10908
#
# Poissons Ratio (x) = 0.18857 0.31360
# Poissons Ratio (y) = 0.50996 0.65244
# Poissons Ratio (z) = 0.31060 0.23895
#
# Static dielectric constant tensor:
#      x y z
#    x 3.367650 0.000000 0.000000 
#    y 0.000000 3.204680 0.000000 
#    z 0.000000 0.000000 3.477160 
# 
# 
# High freq. dielectric constant tensor:
#      x y z
#    x 1.706560 0.000000 0.000000 
#    y 0.000000 1.703940 0.000000 
#    z 0.000000 0.000000 1.729770 
# 
# From -- ./inp_files/24490.got.cif
#   From: 2010.03.12/outbox.cif.g09.slc.cpg/sg38_13_cif.got.tgz:24490.got - 2010.04.14 02:38:36.
