data_PCOD8178431
_publ_section_title
;
Structure prediction by ZEFSAII (Michael W. Deem and Ramdas Pophale) SiO2 
 PCOD8178431
Probable space group: A M M 2
;
_chemical_formula_sum "Si O2"
_cell_formula_units_Z 40
_cell_length_a 8.520323
_cell_length_b 28.425964
_cell_length_c 9.351195
_cell_angle_alpha 90.000000
_cell_angle_beta 90.000000
_cell_angle_gamma 90.000000
_cell_volume 2264.844419
_symmetry_space_group_name_H-M "A M M 2"
_symmetry_group_IT_number 38
_symmetry_cell_setting 'orthorhombic'
loop_
_space_group_symop_operation_xyz
x,y,z
-x,-y,z
-x,y,z
x,-y,z
x,1/2+y,1/2+z
-x,1/2-y,1/2+z
-x,1/2+y,1/2+z
x,1/2-y,1/2+z
loop_
_atom_site_type_symbol
_atom_site_label
_atom_site_fract_x
_atom_site_fract_y
_atom_site_fract_z
Si Si1 0.181705 0.212599 0.243120
Si Si2 0.318436 0.292526 0.050180
Si Si3 0.180111 0.860488 0.760398
Si Si4 0.683430 0.137255 0.053025
Si Si5 0.180309 0.052371 0.924672
O O1 0.284794 0.251400 0.162655
O O2 0.214309 0.214806 0.410815
O O3 0.228384 0.160960 0.186005
O O4 0.000000 0.222811 0.215228
O O5 0.500000 0.292771 0.007213
O O6 0.274466 0.342526 0.122905
O O7 0.193642 0.917707 0.775612
O O8 0.000000 0.843869 0.749102
O O9 0.255044 0.838215 0.905761
O O10 0.500000 0.145166 0.070199
O O11 0.725248 0.081250 0.047529
O O12 0.000000 0.049561 0.973137
O O13 0.251004 0.000000 0.904268
#
# Coordination Sequence:
#
# PCOD8178431 Si02
#       5
#     8   8   8   8   8
#     4  12  24  39  56  76 106 147 186 223 269 331
#     4  12  24  38  55  79 109 142 181 230 276 322
#     4   9  18  34  54  79 109 143 181 220 265 324
#     4  10  19  33  53  81 111 140 178 227 272 316
#     4   8  16  32  56  83 111 144 184 226 269 323
#
# _framework density 17.661256000000002
#
# number of rings (size 3 to 8) (size 9 to 14) (size 15 to 20)
#    1.200    0.600    0.000    6.600    0.000    0.400 
#    0.000    0.000    0.000    1.200    0.000    2.800 
#    0.000    0.000    0.000    0.000    0.000    0.000 
#
# Total GULP energy -247862.965691 kJ/mol
# GULP energy per Si atom -12393.148285 kJ/mol
# Density = 1.762106 g / cm^3
# Si number density = 17.661256 Si / 1000 Ang^3
#
#
#
# Elastic Constant Matrix: (Units=GPa)
#
#
# Indices 1 2 3 4 5 6 
#
# 1 89.6760 18.6634 9.6276 0.0000 0.0000 0.0000
# 2 18.6634 108.7604 34.5638 0.0000 0.0000 0.0000
# 3 9.6276 34.5638 80.2052 0.0000 0.0000 0.0000
# 4 0.0000 0.0000 0.0000 23.3414 0.0000 0.0000
# 5 0.0000 0.0000 0.0000 0.0000 27.7993 0.0000
# 6 0.0000 0.0000 0.0000 0.0000 0.0000 23.7469
#
#
#
# Elastic Compliance Matrix: (Units=1/GPa)
#
#
# Indices 1 2 3 4 5 6 
#
# 1 0.011591 -0.001792 -0.000619 0.000000 0.000000 0.000000
# 2 -0.001792 0.010931 -0.004495 0.000000 0.000000 0.000000
# 3 -0.000619 -0.004495 0.014480 0.000000 0.000000 0.000000
# 4 0.000000 0.000000 0.000000 0.042842 0.000000 0.000000
# 5 0.000000 0.000000 0.000000 0.000000 0.035972 0.000000
# 6 0.000000 0.000000 0.000000 0.000000 0.000000 0.042111
#
#
# Mechanical properties :
#
#
# Convention : Reuss Voigt Hill
#
# Bulk Modulus (GPa) = 43.12614 44.92792 44.02703
# Shear Modulus (GPa) = 27.86000 29.36328 28.61164
#
# Velocity S-wave (km/s) = 3.97604 4.08190 4.02932
# Velocity P-wave (km/s) = 6.74908 6.90723 6.82861
#
# Compressibility (1/GPa) = 0.02318779
#
# Stress axis : x y z
#
# Youngs Moduli (GPa) = 86.27590 91.48543 69.06287
#
# Poissons Ratio (x) = 0.16397 0.04275
# Poissons Ratio (y) = 0.15463 0.31046
# Poissons Ratio (z) = 0.05340 0.41126
#
# Static dielectric constant tensor:
#      x y z
#    x 3.267780 0.000000 0.000000 
#    y 0.000000 3.332250 0.000000 
#    z 0.000000 0.000000 3.060620 
# 
# 
# High freq. dielectric constant tensor:
#      x y z
#    x 1.695870 0.000000 0.000000 
#    y 0.000000 1.672200 0.000000 
#    z 0.000000 0.000000 1.654860 
# 
# From -- ./inp_files/3579.got.cif
#   From: 2010.03.12/outbox.cif.g09.slc.cpg/sg38_2_cif.got.tgz:3579.got - 2010.04.14 02:38:36.
