data_PCOD8178634
_publ_section_title
;
Structure prediction by ZEFSAII (Michael W. Deem and Ramdas Pophale) SiO2 
 PCOD8178634
Probable space group: A M M 2
;
_chemical_formula_sum "Si O2"
_cell_formula_units_Z 64
_cell_length_a 8.933799
_cell_length_b 15.435519
_cell_length_c 23.832985
_cell_angle_alpha 90.000000
_cell_angle_beta 90.000000
_cell_angle_gamma 90.000000
_cell_volume 3286.516776
_symmetry_space_group_name_H-M "A M M 2"
_symmetry_group_IT_number 38
_symmetry_cell_setting 'orthorhombic'
loop_
_space_group_symop_operation_xyz
x,y,z
-x,-y,z
-x,y,z
x,-y,z
x,1/2+y,1/2+z
-x,1/2-y,1/2+z
-x,1/2+y,1/2+z
x,1/2-y,1/2+z
loop_
_atom_site_type_symbol
_atom_site_label
_atom_site_fract_x
_atom_site_fract_y
_atom_site_fract_z
Si Si1 0.171084 0.903584 0.480180
Si Si2 0.170634 0.096917 0.977865
Si Si3 0.827511 0.098516 0.202613
Si Si4 0.677811 0.758528 0.278861
Si Si5 0.176075 0.246987 0.398564
Si Si6 0.322115 0.595440 0.209646
Si Si7 0.323565 0.351436 0.589224
Si Si8 0.676369 0.346950 0.089583
O O1 0.231978 0.833812 0.435908
O O2 0.259328 0.900369 0.538081
O O3 0.000000 0.881558 0.493887
O O4 0.189519 0.000000 0.454513
O O5 0.220458 0.164220 0.929963
O O6 0.000000 0.116834 0.996263
O O7 0.185746 0.000000 0.952833
O O8 0.276083 0.102876 0.031819
O O9 0.741703 0.159532 0.245926
O O10 0.758128 0.103355 0.140842
O O11 0.000000 0.127071 0.199957
O O12 0.811898 0.000000 0.224282
O O13 0.500000 0.763892 0.275853
O O14 0.730840 0.759133 0.342254
O O15 0.738833 0.669354 0.251274
O O16 0.000000 0.241900 0.385161
O O17 0.500000 0.599463 0.208380
O O18 0.267139 0.500000 0.229482
O O19 0.260034 0.613226 0.147222
O O20 0.500000 0.361364 0.598056
O O21 0.272347 0.252186 0.585958
O O22 0.500000 0.355541 0.087204
#
# Coordination Sequence:
#
# PCOD8178634 Si02
#       8
#     8   8   8   8   8   8   8   8
#     4  10  21  37  58  84 113 147 189 235 284 339
#     4  10  21  38  60  85 116 157 199 236 284 347
#     4  11  24  41  62  87 117 156 196 235 290 357
#     4  11  23  40  61  87 116 150 196 248 293 340
#     4  10  22  40  58  80 113 155 197 242 289 338
#     4   9  18  35  58  84 116 152 185 224 283 348
#     4  11  21  35  59  91 122 151 189 240 293 345
#     4  10  19  34  58  86 117 151 185 226 282 346
#
# _framework density 19.473503999999998
#
# number of rings (size 3 to 8) (size 9 to 14) (size 15 to 20)
#    0.000    1.750    2.500    1.875    0.000    6.000 
#    0.000    1.250    0.000    1.875    0.000    0.000 
#    0.000    0.000    0.000    0.000    0.000    0.000 
#
# Total GULP energy -396875.493975 kJ/mol
# GULP energy per Si atom -12402.359187 kJ/mol
# Density = 1.942918 g / cm^3
# Si number density = 19.473504 Si / 1000 Ang^3
#
#
#
# Elastic Constant Matrix: (Units=GPa)
#
#
# Indices 1 2 3 4 5 6 
#
# 1 58.7080 37.8625 38.7516 0.0000 0.0000 0.0000
# 2 37.8625 139.9387 58.2403 0.0000 0.0000 0.0000
# 3 38.7516 58.2403 127.4995 0.0000 0.0000 0.0000
# 4 0.0000 0.0000 0.0000 12.6906 0.0000 0.0000
# 5 0.0000 0.0000 0.0000 0.0000 19.3894 0.0000
# 6 0.0000 0.0000 0.0000 0.0000 0.0000 23.4269
#
#
#
# Elastic Compliance Matrix: (Units=1/GPa)
#
#
# Indices 1 2 3 4 5 6 
#
# 1 0.023071 -0.004104 -0.005137 0.000000 0.000000 0.000000
# 2 -0.004104 0.009553 -0.003117 0.000000 0.000000 0.000000
# 3 -0.005137 -0.003117 0.010828 0.000000 0.000000 0.000000
# 4 0.000000 0.000000 0.000000 0.078798 0.000000 0.000000
# 5 0.000000 0.000000 0.000000 0.000000 0.051575 0.000000
# 6 0.000000 0.000000 0.000000 0.000000 0.000000 0.042686
#
#
# Mechanical properties :
#
#
# Convention : Reuss Voigt Hill
#
# Bulk Modulus (GPa) = 53.37090 66.20609 59.78850
# Shear Modulus (GPa) = 20.20415 23.85418 22.02916
#
# Velocity S-wave (km/s) = 3.22455 3.50373 3.36704
# Velocity P-wave (km/s) = 6.42885 7.10212 6.77385
#
# Compressibility (1/GPa) = 0.01873680
#
# Stress axis : x y z
#
# Youngs Moduli (GPa) = 43.34357 104.67390 92.35133
#
# Poissons Ratio (x) = 0.42960 0.47445
# Poissons Ratio (y) = 0.17789 0.28781
# Poissons Ratio (z) = 0.22268 0.32622
#
# Static dielectric constant tensor:
#      x y z
#    x 3.395890 0.000000 0.000000 
#    y 0.000000 3.878990 0.000000 
#    z 0.000000 0.000000 3.466840 
# 
# 
# High freq. dielectric constant tensor:
#      x y z
#    x 1.743400 0.000000 0.000000 
#    y 0.000000 1.778550 0.000000 
#    z 0.000000 0.000000 1.751530 
# 
# From -- ./inp_files/22182.got.cif
#   From: 2010.03.12/outbox.cif.g09.slc.cpg/sg38_12_cif.got.tgz:22182.got - 2010.04.14 02:38:36.
