data_PCOD8178201
_publ_section_title
;
Structure prediction by ZEFSAII (Michael W. Deem and Ramdas Pophale) SiO2 
 PCOD8178201
Probable space group: A M M 2
;
_chemical_formula_sum "Si O2"
_cell_formula_units_Z 64
_cell_length_a 8.859083
_cell_length_b 15.503348
_cell_length_c 22.989229
_cell_angle_alpha 90.000000
_cell_angle_beta 90.000000
_cell_angle_gamma 90.000000
_cell_volume 3157.465927
_symmetry_space_group_name_H-M "A M M 2"
_symmetry_group_IT_number 38
_symmetry_cell_setting 'orthorhombic'
loop_
_space_group_symop_operation_xyz
x,y,z
-x,-y,z
-x,y,z
x,-y,z
x,1/2+y,1/2+z
-x,1/2-y,1/2+z
-x,1/2+y,1/2+z
x,1/2-y,1/2+z
loop_
_atom_site_type_symbol
_atom_site_label
_atom_site_fract_x
_atom_site_fract_y
_atom_site_fract_z
Si Si1 0.178384 0.732785 0.315380
Si Si2 0.164552 0.098036 0.157387
Si Si3 0.671216 0.592888 0.991102
Si Si4 0.171988 0.681403 0.545602
Si Si5 0.827081 0.362548 0.104014
Si Si6 0.323954 0.100128 0.270326
Si Si7 0.322731 0.900978 0.725680
Si Si8 0.676387 0.734042 0.433717
O O1 0.237839 0.831520 0.310840
O O2 0.240849 0.666610 0.267779
O O3 0.231041 0.699476 0.378644
O O4 0.000000 0.733253 0.310684
O O5 0.218897 0.105878 0.090422
O O6 0.285549 0.131310 0.204395
O O7 0.000000 0.145575 0.164838
O O8 0.139041 0.000000 0.172166
O O9 0.500000 0.615191 0.009847
O O10 0.679787 0.500000 0.958580
O O11 0.727835 0.667378 0.947559
O O12 0.770746 0.583207 0.048842
O O13 0.195603 0.763742 0.586727
O O14 0.281234 0.677092 0.490150
O O15 0.000000 0.674304 0.523016
O O16 0.728825 0.384930 0.159951
O O17 0.000000 0.386399 0.117246
O O18 0.500000 0.111614 0.281162
O O19 0.276421 0.000000 0.282988
O O20 0.500000 0.883823 0.729931
O O21 0.284253 0.000000 0.743526
O O22 0.500000 0.725417 0.420287
#
# Coordination Sequence:
#
# PCOD8178201 Si02
#       8
#     8   8   8   8   8   8   8   8
#     4  12  25  41  61  83 112 151 194 241 289 339
#     4   9  17  31  53  81 112 144 181 228 280 333
#     4   9  18  33  53  78 109 144 180 221 272 329
#     4   9  18  33  52  77 109 144 181 224 277 333
#     4  10  19  31  52  83 116 147 180 222 275 335
#     4  10  21  37  59  88 121 155 191 232 280 338
#     4  11  24  41  61  85 114 149 191 239 289 342
#     4  10  21  37  56  77 103 140 187 234 278 329
#
# _framework density 20.26942
#
# number of rings (size 3 to 8) (size 9 to 14) (size 15 to 20)
#    0.000    2.000    0.000    3.750    0.000    6.500 
#    0.000    1.875    0.000    2.250    0.000    0.000 
#    0.000    0.000    0.000    0.000    0.000    0.000 
#
# Total GULP energy -396615.984590 kJ/mol
# GULP energy per Si atom -12394.249518 kJ/mol
# Density = 2.022329 g / cm^3
# Si number density = 20.269420 Si / 1000 Ang^3
#
#
#
# Elastic Constant Matrix: (Units=GPa)
#
#
# Indices 1 2 3 4 5 6 
#
# 1 102.8838 33.7229 39.8820 0.0000 0.0000 0.0000
# 2 33.7229 47.9192 23.6801 0.0000 0.0000 0.0000
# 3 39.8820 23.6801 88.8525 0.0000 0.0000 0.0000
# 4 0.0000 0.0000 0.0000 15.2092 0.0000 0.0000
# 5 0.0000 0.0000 0.0000 0.0000 36.5973 0.0000
# 6 0.0000 0.0000 0.0000 0.0000 0.0000 24.7857
#
#
#
# Elastic Compliance Matrix: (Units=1/GPa)
#
#
# Indices 1 2 3 4 5 6 
#
# 1 0.013857 -0.007691 -0.004170 0.000000 0.000000 0.000000
# 2 -0.007691 0.028303 -0.004091 0.000000 0.000000 0.000000
# 3 -0.004170 -0.004091 0.014217 0.000000 0.000000 0.000000
# 4 0.000000 0.000000 0.000000 0.065750 0.000000 0.000000
# 5 0.000000 0.000000 0.000000 0.000000 0.027324 0.000000
# 6 0.000000 0.000000 0.000000 0.000000 0.000000 0.040346
#
#
# Mechanical properties :
#
#
# Convention : Reuss Voigt Hill
#
# Bulk Modulus (GPa) = 40.86238 48.24730 44.55484
# Shear Modulus (GPa) = 21.75256 24.80980 23.28118
#
# Velocity S-wave (km/s) = 3.27948 3.50237 3.39276
# Velocity P-wave (km/s) = 5.87736 6.34115 6.11365
#
# Compressibility (1/GPa) = 0.02447239
#
# Stress axis : x y z
#
# Youngs Moduli (GPa) = 72.16453 35.33242 70.34026
#
# Poissons Ratio (x) = 0.27175 0.29333
# Poissons Ratio (y) = 0.55503 0.28774
# Poissons Ratio (z) = 0.30093 0.14453
#
# Static dielectric constant tensor:
#      x y z
#    x 3.837040 0.000000 0.000000 
#    y 0.000000 3.758600 0.000000 
#    z 0.000000 0.000000 3.623750 
# 
# 
# High freq. dielectric constant tensor:
#      x y z
#    x 1.792300 0.000000 0.000000 
#    y 0.000000 1.782570 0.000000 
#    z 0.000000 0.000000 1.786870 
# 
# From -- ./inp_files/22204.got.cif
#   From: 2010.03.12/outbox.cif.g09.slc.cpg/sg38_12_cif.got.tgz:22204.got - 2010.04.14 02:38:36.
