data_PCOD8178960
_publ_section_title
;
Structure prediction by ZEFSAII (Michael W. Deem and Ramdas Pophale) SiO2 
 PCOD8178960
Probable space group: A M M 2
;
_chemical_formula_sum "Si O2"
_cell_formula_units_Z 64
_cell_length_a 8.684015
_cell_length_b 14.377819
_cell_length_c 28.188810
_cell_angle_alpha 90.000000
_cell_angle_beta 90.000000
_cell_angle_gamma 90.000000
_cell_volume 3519.575771
_symmetry_space_group_name_H-M "A M M 2"
_symmetry_group_IT_number 38
_symmetry_cell_setting 'orthorhombic'
loop_
_space_group_symop_operation_xyz
x,y,z
-x,-y,z
-x,y,z
x,-y,z
x,1/2+y,1/2+z
-x,1/2-y,1/2+z
-x,1/2+y,1/2+z
x,1/2-y,1/2+z
loop_
_atom_site_type_symbol
_atom_site_label
_atom_site_fract_x
_atom_site_fract_y
_atom_site_fract_z
Si Si1 0.179757 0.607559 0.351010
Si Si2 0.679027 0.773775 0.769572
Si Si3 0.179368 0.605366 0.725115
Si Si4 0.823083 0.391530 0.187843
Si Si5 0.817648 0.102785 0.957943
Si Si6 0.677643 0.108184 0.124893
Si Si7 0.818887 0.273296 0.543101
Si Si8 0.679329 0.605390 0.087899
O O1 0.219810 0.500000 0.340361
O O2 0.276919 0.674432 0.317718
O O3 0.227098 0.633522 0.404790
O O4 0.000000 0.625065 0.341757
O O5 0.500000 0.752155 0.769920
O O6 0.768339 0.675272 0.766648
O O7 0.719322 0.837375 0.724874
O O8 0.218621 0.500000 0.740906
O O9 0.271795 0.633677 0.677958
O O10 0.000000 0.616748 0.714311
O O11 0.799370 0.500000 0.197679
O O12 0.770741 0.365666 0.135065
O O13 0.000000 0.361651 0.194405
O O14 0.000000 0.096872 0.962364
O O15 0.749030 0.000000 0.968732
O O16 0.752415 0.176075 0.996065
O O17 0.500000 0.136442 0.118273
O O18 0.782086 0.164847 0.088743
O O19 0.705746 0.000000 0.114817
O O20 0.735295 0.173378 0.546113
O O21 0.000000 0.257055 0.539485
O O22 0.500000 0.618174 0.098168
O O23 0.718069 0.500000 0.072574
#
# Coordination Sequence:
#
# PCOD8178960 Si02
#       8
#     8   8   8   8   8   8   8   8
#     4   9  18  35  57  78 102 132 167 207 248 293
#     4  12  23  33  50  76 106 136 165 202 251 307
#     4  10  21  37  55  73  96 131 175 217 251 288
#     4  10  20  34  52  74 101 134 173 213 249 291
#     4   8  16  32  54  79 104 130 162 203 250 295
#     4  10  20  33  49  73 107 141 170 203 246 297
#     4  11  20  31  52  78 103 132 169 211 251 297
#     4  10  21  36  51  69  99 137 173 211 254 298
#
# _framework density 18.184010000000001
#
# number of rings (size 3 to 8) (size 9 to 14) (size 15 to 20)
#    0.000    2.000    0.000    5.250    0.000    5.250 
#    0.000    1.250    0.000    2.250    0.000    1.750 
#    0.000    0.000    0.000    0.000    0.000    0.000 
#
# Total GULP energy -396875.825900 kJ/mol
# GULP energy per Si atom -12402.369559 kJ/mol
# Density = 1.814262 g / cm^3
# Si number density = 18.184010 Si / 1000 Ang^3
#
#
#
# Elastic Constant Matrix: (Units=GPa)
#
#
# Indices 1 2 3 4 5 6 
#
# 1 55.1855 29.9585 18.9974 0.0000 0.0000 0.0000
# 2 29.9585 104.0480 71.3575 0.0000 0.0000 0.0000
# 3 18.9974 71.3575 84.3106 0.0000 0.0000 0.0000
# 4 0.0000 0.0000 0.0000 29.8524 0.0000 0.0000
# 5 0.0000 0.0000 0.0000 0.0000 8.9918 0.0000
# 6 0.0000 0.0000 0.0000 0.0000 0.0000 27.8318
#
#
#
# Elastic Compliance Matrix: (Units=1/GPa)
#
#
# Indices 1 2 3 4 5 6 
#
# 1 0.021509 -0.006839 0.000942 0.000000 0.000000 0.000000
# 2 -0.006839 0.025082 -0.019688 0.000000 0.000000 0.000000
# 3 0.000942 -0.019688 0.028312 0.000000 0.000000 0.000000
# 4 0.000000 0.000000 0.000000 0.033498 0.000000 0.000000
# 5 0.000000 0.000000 0.000000 0.000000 0.111213 0.000000
# 6 0.000000 0.000000 0.000000 0.000000 0.000000 0.035930
#
#
# Mechanical properties :
#
#
# Convention : Reuss Voigt Hill
#
# Bulk Modulus (GPa) = 42.13521 53.79676 47.96599
# Shear Modulus (GPa) = 15.89196 21.55057 18.72126
#
# Velocity S-wave (km/s) = 2.95948 3.44632 3.21213
# Velocity P-wave (km/s) = 5.90761 6.74426 6.33975
#
# Compressibility (1/GPa) = 0.02373312
#
# Stress axis : x y z
#
# Youngs Moduli (GPa) = 46.49180 39.86912 35.32121
#
# Poissons Ratio (x) = 0.27266 -0.03326
# Poissons Ratio (y) = 0.31795 0.69539
# Poissons Ratio (z) = -0.04378 0.78493
#
# Static dielectric constant tensor:
#      x y z
#    x 3.273350 0.000000 0.000000 
#    y 0.000000 3.579780 0.000000 
#    z 0.000000 0.000000 3.324440 
# 
# 
# High freq. dielectric constant tensor:
#      x y z
#    x 1.703110 0.000000 0.000000 
#    y 0.000000 1.710660 0.000000 
#    z 0.000000 0.000000 1.683050 
# 
# From -- ./inp_files/24797.got.cif
#   From: 2010.03.12/outbox.cif.g09.slc.cpg/sg38_13_cif.got.tgz:24797.got - 2010.04.14 02:38:36.
