data_PCOD8178196
_publ_section_title
;
Structure prediction by ZEFSAII (Michael W. Deem and Ramdas Pophale) SiO2 
 PCOD8178196
Probable space group: A M M 2
;
_chemical_formula_sum "Si O2"
_cell_formula_units_Z 48
_cell_length_a 8.889647
_cell_length_b 7.604070
_cell_length_c 35.033900
_cell_angle_alpha 90.000000
_cell_angle_beta 90.000000
_cell_angle_gamma 90.000000
_cell_volume 2368.203987
_symmetry_space_group_name_H-M "A M M 2"
_symmetry_group_IT_number 38
_symmetry_cell_setting 'orthorhombic'
loop_
_space_group_symop_operation_xyz
x,y,z
-x,-y,z
-x,y,z
x,-y,z
x,1/2+y,1/2+z
-x,1/2-y,1/2+z
-x,1/2+y,1/2+z
x,1/2-y,1/2+z
loop_
_atom_site_type_symbol
_atom_site_label
_atom_site_fract_x
_atom_site_fract_y
_atom_site_fract_z
Si Si1 0.828754 0.291682 0.185250
Si Si2 0.679398 0.000000 0.479643
Si Si3 0.678557 0.304800 0.341938
Si Si4 0.330869 0.710190 0.260635
Si Si5 0.822367 0.000000 0.562174
Si Si6 0.321119 0.198797 0.924364
Si Si7 0.327550 0.698761 0.609840
O O1 0.810504 0.500000 0.181900
O O2 0.775580 0.222788 0.226657
O O3 0.725761 0.202257 0.153504
O O4 0.000000 0.232554 0.179053
O O5 0.749424 0.000000 0.520973
O O6 0.739170 0.827300 0.457327
O O7 0.500000 0.000000 0.483033
O O8 0.500000 0.312043 0.339352
O O9 0.745724 0.500000 0.343663
O O10 0.730968 0.214264 0.301834
O O11 0.727819 0.219679 0.382632
O O12 0.500000 0.777594 0.252435
O O13 0.329893 0.500000 0.263115
O O14 0.773747 0.825396 0.584354
O O15 0.000000 0.000000 0.558587
O O16 0.500000 0.192927 0.925741
O O17 0.258615 0.000000 0.930781
O O18 0.500000 0.762110 0.607695
O O19 0.311439 0.500000 0.594239
#
# Coordination Sequence:
#
# PCOD8178196 Si02
#       7
#     8   4   8   8   4   8   8
#     4  10  19  31  51  81 116 154 192 232 284 344
#     4  10  20  34  56  84 110 140 184 236 288 342
#     4   7  10  19  38  66  99 137 182 229 281 330
#     4   8  13  22  41  69 101 143 191 236 279 328
#     4  12  26  44  64  88 120 156 190 232 292 360
#     4   8  14  26  47  76 108 140 178 230 286 335
#     4  11  24  42  66  91 114 146 191 243 294 345
#
# _framework density 20.268526000000001
#
# number of rings (size 3 to 8) (size 9 to 14) (size 15 to 20)
#    0.000    2.833    0.833    3.750    0.000    2.667 
#    0.000    1.667    1.833    1.000    0.000    2.333 
#    0.000    0.000    0.000    0.000    0.000    0.000 
#
# Total GULP energy -297318.225636 kJ/mol
# GULP energy per Si atom -12388.259401 kJ/mol
# Density = 2.022239 g / cm^3
# Si number density = 20.268526 Si / 1000 Ang^3
#
#
#
# Elastic Constant Matrix: (Units=GPa)
#
#
# Indices 1 2 3 4 5 6 
#
# 1 42.1756 17.0272 20.1142 0.0000 0.0000 0.0000
# 2 17.0272 75.4701 45.2590 0.0000 0.0000 0.0000
# 3 20.1142 45.2590 163.4883 0.0000 0.0000 0.0000
# 4 0.0000 0.0000 0.0000 -19.4221 0.0000 0.0000
# 5 0.0000 0.0000 0.0000 0.0000 2.2968 0.0000
# 6 0.0000 0.0000 0.0000 0.0000 0.0000 8.9207
#
#
#
# Elastic Compliance Matrix: (Units=1/GPa)
#
#
# Indices 1 2 3 4 5 6 
#
# 1 0.026585 -0.004840 -0.001931 0.000000 0.000000 0.000000
# 2 -0.004840 0.016769 -0.004047 0.000000 0.000000 0.000000
# 3 -0.001931 -0.004047 0.007474 0.000000 0.000000 0.000000
# 4 0.000000 0.000000 0.000000 -0.051488 0.000000 0.000000
# 5 0.000000 0.000000 0.000000 0.000000 0.435395 0.000000
# 6 0.000000 0.000000 0.000000 0.000000 0.000000 0.112099
#
#
# Mechanical properties :
#
#
# Convention : Reuss Voigt Hill
#
# Bulk Modulus (GPa) = 34.25439 49.54831 41.90135
# Shear Modulus (GPa) = 8.64750 11.60799 10.12774
#
# Velocity S-wave (km/s) = 2.06778 2.39573 2.23777
# Velocity P-wave (km/s) = 4.75794 5.67025 5.23401
#
# Compressibility (1/GPa) = 0.02919333
#
# Stress axis : x y z
#
# Youngs Moduli (GPa) = 37.61477 59.63354 133.78851
#
# Poissons Ratio (x) = 0.28863 0.25834
# Poissons Ratio (y) = 0.18206 0.54141
# Poissons Ratio (z) = 0.07263 0.24132
#
# Static dielectric constant tensor:
#      x y z
#    x 3.273640 0.000000 0.000000 
#    y 0.000000 3.594240 0.000000 
#    z 0.000000 0.000000 4.074720 
# 
# 
# High freq. dielectric constant tensor:
#      x y z
#    x 1.742360 0.000000 0.000000 
#    y 0.000000 1.770830 0.000000 
#    z 0.000000 0.000000 1.808400 
# 
# From -- ./inp_files/24415.got.cif
#   From: 2010.03.12/outbox.cif.g09.slc.cpg/sg38_13_cif.got.tgz:24415.got - 2010.04.14 02:38:36.
