data_PCOD8178404
_publ_section_title
;
Structure prediction by ZEFSAII (Michael W. Deem and Ramdas Pophale) SiO2 
 PCOD8178404
Probable space group: A M M 2
;
_chemical_formula_sum "Si O2"
_cell_formula_units_Z 56
_cell_length_a 17.984730
_cell_length_b 8.939726
_cell_length_c 18.793645
_cell_angle_alpha 90.000000
_cell_angle_beta 90.000000
_cell_angle_gamma 90.000000
_cell_volume 3021.615150
_symmetry_space_group_name_H-M "A M M 2"
_symmetry_group_IT_number 38
_symmetry_cell_setting 'orthorhombic'
loop_
_space_group_symop_operation_xyz
x,y,z
-x,-y,z
-x,y,z
x,-y,z
x,1/2+y,1/2+z
-x,1/2-y,1/2+z
-x,1/2+y,1/2+z
x,1/2-y,1/2+z
loop_
_atom_site_type_symbol
_atom_site_label
_atom_site_fract_x
_atom_site_fract_y
_atom_site_fract_z
Si Si1 0.196030 0.834192 0.450290
Si Si2 0.918136 0.322270 0.213555
Si Si3 0.585701 0.176036 0.437318
Si Si4 0.245412 0.823108 0.681517
Si Si5 0.916107 0.336596 0.372642
Si Si6 0.303067 0.332865 0.819241
Si Si7 0.307312 0.323711 0.546159
O O1 0.114731 0.773790 0.432859
O O2 0.237407 0.837061 0.375625
O O3 0.232922 0.720491 0.504846
O O4 0.192455 0.000000 0.484600
O O5 0.921271 0.500000 0.214960
O O6 0.842206 0.270431 0.172895
O O7 0.909041 0.264117 0.294249
O O8 0.000000 0.264996 0.183299
O O9 0.500000 0.221237 0.433150
O O10 0.623650 0.223979 0.362369
O O11 0.621174 0.257408 0.505563
O O12 0.598652 0.000000 0.448944
O O13 0.280209 0.781352 0.757778
O O14 0.298714 0.743158 0.624849
O O15 0.250810 0.000000 0.671879
O O16 0.875821 0.500000 0.374245
O O17 0.000000 0.359659 0.394531
O O18 0.316059 0.500000 0.787763
O O19 0.316382 0.500000 0.551103
#
# Coordination Sequence:
#
# PCOD8178404 Si02
#       7
#     8   8   8   8   8   8   8
#     4  10  19  33  52  75 104 138 181 226 269 322
#     4   8  15  28  48  75 105 139 181 228 277 323
#     4   9  19  39  64  87 112 141 175 219 271 327
#     4  11  20  33  55  80 109 146 189 230 272 323
#     4   9  16  28  48  75 105 137 178 228 280 327
#     4   9  18  32  53  81 109 136 170 217 270 320
#     4  11  23  37  55  78 110 147 184 223 272 328
#
# _framework density 18.533135000000001
#
# number of rings (size 3 to 8) (size 9 to 14) (size 15 to 20)
#    0.000    2.429    1.429    3.857    0.000    2.857 
#    0.000    1.429    0.000    6.857    0.000    0.000 
#    0.000    0.000    0.000    0.000    0.000    0.000 
#
# Total GULP energy -346938.404634 kJ/mol
# GULP energy per Si atom -12390.657308 kJ/mol
# Density = 1.849095 g / cm^3
# Si number density = 18.533135 Si / 1000 Ang^3
#
#
#
# Elastic Constant Matrix: (Units=GPa)
#
#
# Indices 1 2 3 4 5 6 
#
# 1 105.4639 39.1399 38.0564 0.0000 0.0000 0.0000
# 2 39.1399 79.0512 33.7008 0.0000 0.0000 0.0000
# 3 38.0564 33.7008 70.5869 0.0000 0.0000 0.0000
# 4 0.0000 0.0000 0.0000 26.9955 0.0000 0.0000
# 5 0.0000 0.0000 0.0000 0.0000 20.8878 0.0000
# 6 0.0000 0.0000 0.0000 0.0000 0.0000 23.9347
#
#
#
# Elastic Compliance Matrix: (Units=1/GPa)
#
#
# Indices 1 2 3 4 5 6 
#
# 1 0.012827 -0.004272 -0.004876 0.000000 0.000000 0.000000
# 2 -0.004272 0.017306 -0.005959 0.000000 0.000000 0.000000
# 3 -0.004876 -0.005959 0.019641 0.000000 0.000000 0.000000
# 4 0.000000 0.000000 0.000000 0.037043 0.000000 0.000000
# 5 0.000000 0.000000 0.000000 0.000000 0.047875 0.000000
# 6 0.000000 0.000000 0.000000 0.000000 0.000000 0.041780
#
#
# Mechanical properties :
#
#
# Convention : Reuss Voigt Hill
#
# Bulk Modulus (GPa) = 51.12682 52.98848 52.05765
# Shear Modulus (GPa) = 23.45156 23.97727 23.71442
#
# Velocity S-wave (km/s) = 3.56108 3.60078 3.58099
# Velocity P-wave (km/s) = 6.67496 6.77796 6.72666
#
# Compressibility (1/GPa) = 0.01955920
#
# Stress axis : x y z
#
# Youngs Moduli (GPa) = 77.96154 57.78429 50.91457
#
# Poissons Ratio (x) = 0.24687 0.24825
# Poissons Ratio (y) = 0.33307 0.30340
# Poissons Ratio (z) = 0.38012 0.34434
#
# Static dielectric constant tensor:
#      x y z
#    x 3.560850 0.000000 0.000000 
#    y 0.000000 3.425710 0.000000 
#    z 0.000000 0.000000 3.291340 
# 
# 
# High freq. dielectric constant tensor:
#      x y z
#    x 1.714170 0.000000 0.000000 
#    y 0.000000 1.705990 0.000000 
#    z 0.000000 0.000000 1.699140 
# 
# From -- ./inp_files/21307.got.cif
#   From: 2010.03.12/outbox.cif.g09.slc.cpg/sg38_11_cif.got.tgz:21307.got - 2010.04.14 02:38:36.
