data_PCOD8178030
_publ_section_title
;
Structure prediction by ZEFSAII (Michael W. Deem and Ramdas Pophale) SiO2 
 PCOD8178030
Probable space group: A M M 2
;
_chemical_formula_sum "Si O2"
_cell_formula_units_Z 64
_cell_length_a 17.570609
_cell_length_b 9.655425
_cell_length_c 22.371386
_cell_angle_alpha 90.000000
_cell_angle_beta 90.000000
_cell_angle_gamma 90.000000
_cell_volume 3795.343608
_symmetry_space_group_name_H-M "A M M 2"
_symmetry_group_IT_number 38
_symmetry_cell_setting 'orthorhombic'
loop_
_space_group_symop_operation_xyz
x,y,z
-x,-y,z
-x,y,z
x,-y,z
x,1/2+y,1/2+z
-x,1/2-y,1/2+z
-x,1/2+y,1/2+z
x,1/2-y,1/2+z
loop_
_atom_site_type_symbol
_atom_site_label
_atom_site_fract_x
_atom_site_fract_y
_atom_site_fract_z
Si Si1 0.823663 0.747122 0.338770
Si Si2 0.776962 0.164201 0.519533
Si Si3 0.588462 0.340369 0.848604
Si Si4 0.778205 0.336977 0.157697
Si Si5 0.696603 0.158301 0.924582
Si Si6 0.703498 0.152899 0.249386
Si Si7 0.916986 0.156635 0.731316
Si Si8 0.917193 0.842439 0.446492
O O1 0.767865 0.652744 0.378864
O O2 0.772264 0.845890 0.297523
O O3 0.878539 0.657171 0.296685
O O4 0.878148 0.834958 0.381682
O O5 0.768555 0.200485 0.588820
O O6 0.715040 0.254193 0.484181
O O7 0.860458 0.215182 0.497553
O O8 0.765038 0.000000 0.506770
O O9 0.500000 0.306910 0.843613
O O10 0.603580 0.500000 0.868302
O O11 0.624230 0.235039 0.896202
O O12 0.625027 0.313299 0.783485
O O13 0.770834 0.500000 0.169769
O O14 0.712305 0.262839 0.195931
O O15 0.859813 0.279277 0.181638
O O16 0.675454 0.000000 0.941098
O O17 0.701235 0.000000 0.220922
O O18 0.000000 0.233110 0.730921
O O19 0.931414 0.000000 0.712975
O O20 0.000000 0.765138 0.448004
O O21 0.932706 0.000000 0.461516
#
# Coordination Sequence:
#
# PCOD8178030 Si02
#       8
#     8   8   8   8   8   8   8   8
#     4   9  16  27  41  61  92 123 150 184 235 290
#     4   9  18  32  47  63  88 124 163 201 241 281
#     4   9  18  33  53  77 104 128 145 169 217 278
#     4   9  18  31  46  64  88 121 161 201 236 271
#     4  10  19  30  48  73  97 122 156 194 227 267
#     4   9  17  29  48  71  93 119 151 184 220 270
#     4   9  16  25  39  60  85 115 153 196 239 281
#     4   9  16  25  40  62  85 113 155 204 245 282
#
# _framework density 16.862769
#
# number of rings (size 3 to 8) (size 9 to 14) (size 15 to 20)
#    0.000    2.875    0.000    1.500    0.000    7.250 
#    0.000    2.500    0.000    7.500    0.000   10.500 
#    0.000    0.000    0.000    0.000    0.000    0.000 
#
# Total GULP energy -396539.099482 kJ/mol
# GULP energy per Si atom -12391.846859 kJ/mol
# Density = 1.682439 g / cm^3
# Si number density = 16.862769 Si / 1000 Ang^3
#
#
#
# Elastic Constant Matrix: (Units=GPa)
#
#
# Indices 1 2 3 4 5 6 
#
# 1 116.5893 44.4392 55.3831 0.0000 0.0000 0.0000
# 2 44.4392 68.7833 48.0243 0.0000 0.0000 0.0000
# 3 55.3831 48.0243 123.2101 0.0000 0.0000 0.0000
# 4 0.0000 0.0000 0.0000 25.7352 0.0000 0.0000
# 5 0.0000 0.0000 0.0000 0.0000 10.1458 0.0000
# 6 0.0000 0.0000 0.0000 0.0000 0.0000 17.1203
#
#
#
# Elastic Compliance Matrix: (Units=1/GPa)
#
#
# Indices 1 2 3 4 5 6 
#
# 1 0.012306 -0.005617 -0.003342 0.000000 0.000000 0.000000
# 2 -0.005617 0.022538 -0.006260 0.000000 0.000000 0.000000
# 3 -0.003342 -0.006260 0.012058 0.000000 0.000000 0.000000
# 4 0.000000 0.000000 0.000000 0.038857 0.000000 0.000000
# 5 0.000000 0.000000 0.000000 0.000000 0.098563 0.000000
# 6 0.000000 0.000000 0.000000 0.000000 0.000000 0.058410
#
#
# Mechanical properties :
#
#
# Convention : Reuss Voigt Hill
#
# Bulk Modulus (GPa) = 60.73775 67.14176 63.93975
# Shear Modulus (GPa) = 17.94308 21.31600 19.62954
#
# Velocity S-wave (km/s) = 3.26554 3.55926 3.41556
# Velocity P-wave (km/s) = 7.09333 7.53619 7.31811
#
# Compressibility (1/GPa) = 0.01646423
#
# Stress axis : x y z
#
# Youngs Moduli (GPa) = 81.26360 44.36935 82.92933
#
# Poissons Ratio (x) = 0.24922 0.27715
# Poissons Ratio (y) = 0.45645 0.51914
# Poissons Ratio (z) = 0.27159 0.27775
#
# Static dielectric constant tensor:
#      x y z
#    x 3.289550 0.000000 0.000000 
#    y 0.000000 2.940870 0.000000 
#    z 0.000000 0.000000 3.068050 
# 
# 
# High freq. dielectric constant tensor:
#      x y z
#    x 1.640780 0.000000 0.000000 
#    y 0.000000 1.628700 0.000000 
#    z 0.000000 0.000000 1.638780 
# 
# From -- ./inp_files/23104.got.cif
#   From: 2010.03.12/outbox.cif.g09.slc.cpg/sg38_12_cif.got.tgz:23104.got - 2010.04.14 02:38:36.
