data_PCOD8178938
_publ_section_title
;
Structure prediction by ZEFSAII (Michael W. Deem and Ramdas Pophale) SiO2 
 PCOD8178938
Probable space group: A M M 2
;
_chemical_formula_sum "Si O2"
_cell_formula_units_Z 64
_cell_length_a 9.130124
_cell_length_b 28.504046
_cell_length_c 14.168607
_cell_angle_alpha 90.000000
_cell_angle_beta 90.000000
_cell_angle_gamma 90.000000
_cell_volume 3687.315851
_symmetry_space_group_name_H-M "A M M 2"
_symmetry_group_IT_number 38
_symmetry_cell_setting 'orthorhombic'
loop_
_space_group_symop_operation_xyz
x,y,z
-x,-y,z
-x,y,z
x,-y,z
x,1/2+y,1/2+z
-x,1/2-y,1/2+z
-x,1/2+y,1/2+z
x,1/2-y,1/2+z
loop_
_atom_site_type_symbol
_atom_site_label
_atom_site_fract_x
_atom_site_fract_y
_atom_site_fract_z
Si Si1 0.670908 0.446625 0.031180
Si Si2 0.174609 0.626814 0.684242
Si Si3 0.327835 0.129006 0.684767
Si Si4 0.171972 0.880630 0.395480
Si Si5 0.172103 0.375078 0.381754
Si Si6 0.826874 0.448103 0.538509
Si Si7 0.173522 0.800744 0.033688
Si Si8 0.827584 0.304447 0.048118
O O1 0.500000 0.443146 0.009408
O O2 0.721199 0.500000 0.048425
O O3 0.712634 0.417083 0.124105
O O4 0.754093 0.426382 0.940346
O O5 0.236249 0.627115 0.790518
O O6 0.231191 0.580235 0.630008
O O7 0.232707 0.672463 0.627168
O O8 0.000000 0.627752 0.685309
O O9 0.500000 0.137533 0.689542
O O10 0.265701 0.121411 0.788048
O O11 0.253562 0.174600 0.638831
O O12 0.210918 0.834310 0.455157
O O13 0.000000 0.890123 0.393171
O O14 0.214142 0.420660 0.443136
O O15 0.220386 0.328490 0.439202
O O16 0.000000 0.373920 0.357555
O O17 0.755327 0.500000 0.536741
O O18 0.000000 0.451971 0.545820
O O19 0.234470 0.747871 0.031106
O O20 0.000000 0.799973 0.037764
O O21 0.000000 0.304717 0.069291
#
# Coordination Sequence:
#
# PCOD8178938 Si02
#       8
#     8   8   8   8   8   8   8   8
#     4   9  19  35  50  63  86 122 156 184 222 275
#     4   8  14  25  42  67  97 122 147 183 227 272
#     4  10  20  33  48  67  92 121 153 189 229 271
#     4   9  17  28  45  71  95 114 145 191 232 265
#     4   9  17  30  48  70  94 120 153 190 226 266
#     4   8  14  25  42  66  95 123 150 183 225 271
#     4   8  15  28  47  70  94 122 154 187 223 267
#     4   9  17  30  48  69  93 121 154 190 226 265
#
# _framework density 17.356798000000001
#
# number of rings (size 3 to 8) (size 9 to 14) (size 15 to 20)
#    0.000    3.250    0.000    1.875    0.000    2.750 
#    0.000    5.625    0.000    6.750    0.000    0.000 
#    0.000    0.000    0.000    0.000    0.000    0.000 
#
# Total GULP energy -396686.064097 kJ/mol
# GULP energy per Si atom -12396.439503 kJ/mol
# Density = 1.731729 g / cm^3
# Si number density = 17.356798 Si / 1000 Ang^3
#
#
#
# Elastic Constant Matrix: (Units=GPa)
#
#
# Indices 1 2 3 4 5 6 
#
# 1 25.9209 27.2837 31.8119 0.0000 0.0000 0.0000
# 2 27.2837 160.9497 70.4478 0.0000 0.0000 0.0000
# 3 31.8119 70.4478 148.0226 0.0000 0.0000 0.0000
# 4 0.0000 0.0000 0.0000 15.1694 0.0000 0.0000
# 5 0.0000 0.0000 0.0000 0.0000 11.4595 0.0000
# 6 0.0000 0.0000 0.0000 0.0000 0.0000 13.8237
#
#
#
# Elastic Compliance Matrix: (Units=1/GPa)
#
#
# Indices 1 2 3 4 5 6 
#
# 1 0.055782 -0.005316 -0.009458 0.000000 0.000000 0.000000
# 2 -0.005316 0.008355 -0.002834 0.000000 0.000000 0.000000
# 3 -0.009458 -0.002834 0.010137 0.000000 0.000000 0.000000
# 4 0.000000 0.000000 0.000000 0.065922 0.000000 0.000000
# 5 0.000000 0.000000 0.000000 0.000000 0.087264 0.000000
# 6 0.000000 0.000000 0.000000 0.000000 0.000000 0.072340
#
#
# Mechanical properties :
#
#
# Convention : Reuss Voigt Hill
#
# Bulk Modulus (GPa) = 25.60308 65.99777 45.80043
# Shear Modulus (GPa) = 14.36639 21.78051 18.07345
#
# Velocity S-wave (km/s) = 2.88012 3.54626 3.23040
# Velocity P-wave (km/s) = 5.08362 7.40774 6.35286
#
# Compressibility (1/GPa) = 0.03905779
#
# Stress axis : x y z
#
# Youngs Moduli (GPa) = 17.92687 119.69460 98.64837
#
# Poissons Ratio (x) = 0.63632 0.93303
# Poissons Ratio (y) = 0.09530 0.27954
# Poissons Ratio (z) = 0.16956 0.33917
#
# Static dielectric constant tensor:
#      x y z
#    x 2.809530 0.000000 0.000000 
#    y 0.000000 3.718100 0.000000 
#    z 0.000000 0.000000 3.327450 
# 
# 
# High freq. dielectric constant tensor:
#      x y z
#    x 1.626160 0.000000 0.000000 
#    y 0.000000 1.677060 0.000000 
#    z 0.000000 0.000000 1.674560 
# 
# From -- ./inp_files/13092.got.cif
#   From: 2010.03.12/outbox.cif.g09.slc.cpg/sg38_7_cif.got.tgz:13092.got - 2010.04.14 02:38:36.
