data_PCOD8178374
_publ_section_title
;
Structure prediction by ZEFSAII (Michael W. Deem and Ramdas Pophale) SiO2 
 PCOD8178374
Probable space group: A M M 2
;
_chemical_formula_sum "Si O2"
_cell_formula_units_Z 40
_cell_length_a 9.213519
_cell_length_b 7.624600
_cell_length_c 29.130909
_cell_angle_alpha 90.000000
_cell_angle_beta 90.000000
_cell_angle_gamma 90.000000
_cell_volume 2046.428790
_symmetry_space_group_name_H-M "A M M 2"
_symmetry_group_IT_number 38
_symmetry_cell_setting 'orthorhombic'
loop_
_space_group_symop_operation_xyz
x,y,z
-x,-y,z
-x,y,z
x,-y,z
x,1/2+y,1/2+z
-x,1/2-y,1/2+z
-x,1/2+y,1/2+z
x,1/2-y,1/2+z
loop_
_atom_site_type_symbol
_atom_site_label
_atom_site_fract_x
_atom_site_fract_y
_atom_site_fract_z
Si Si1 0.336675 0.208157 0.319070
Si Si2 0.329539 0.000000 0.563438
Si Si3 0.831133 0.798781 0.229084
Si Si4 0.334974 0.803890 0.996483
Si Si5 0.166943 0.707249 0.907557
Si Si6 0.168686 0.000000 0.658841
O O1 0.500000 0.283493 0.319841
O O2 0.257940 0.270489 0.272811
O O3 0.249888 0.281491 0.362927
O O4 0.337045 0.000000 0.320823
O O5 0.278533 0.828445 0.535436
O O6 0.255066 0.000000 0.612154
O O7 0.500000 0.000000 0.571903
O O8 0.788659 0.675298 0.186642
O O9 0.000000 0.780736 0.241639
O O10 0.791788 0.000000 0.216388
O O11 0.500000 0.754433 0.982332
O O12 0.326656 0.000000 0.016916
O O13 0.234748 0.795592 0.952076
O O14 0.185171 0.500000 0.911833
O O15 0.000000 0.763219 0.903547
O O16 0.000000 0.000000 0.646925
#
# Coordination Sequence:
#
# PCOD8178374 Si02
#       6
#     8   4   8   8   8   4
#     4   9  17  30  52  81 112 149 189 227 273 330
#     4  10  22  40  60  82 112 146 182 234 289 336
#     4   9  18  35  56  78 109 145 182 228 278 327
#     4  10  21  38  59  82 110 146 188 233 283 336
#     4  10  19  32  54  83 115 152 190 229 277 333
#     4  10  22  38  58  84 110 142 186 232 281 336
#
# _framework density 19.546246
#
# number of rings (size 3 to 8) (size 9 to 14) (size 15 to 20)
#    0.000    2.400    1.000    1.200    0.000    6.000 
#    1.800    0.000    0.000    0.000    0.000    0.000 
#    0.000    0.000    0.000    0.000    0.000    0.000 
#
# Total GULP energy -248037.478818 kJ/mol
# GULP energy per Si atom -12401.873941 kJ/mol
# Density = 1.950176 g / cm^3
# Si number density = 19.546246 Si / 1000 Ang^3
#
#
#
# Elastic Constant Matrix: (Units=GPa)
#
#
# Indices 1 2 3 4 5 6 
#
# 1 101.4718 40.2982 77.4350 0.0000 0.0000 0.0000
# 2 40.2982 97.4535 65.5479 0.0000 0.0000 0.0000
# 3 77.4350 65.5479 174.7346 0.0000 0.0000 0.0000
# 4 0.0000 0.0000 0.0000 -1.8380 0.0000 0.0000
# 5 0.0000 0.0000 0.0000 0.0000 43.8309 0.0000
# 6 0.0000 0.0000 0.0000 0.0000 0.0000 15.5011
#
#
#
# Elastic Compliance Matrix: (Units=1/GPa)
#
#
# Indices 1 2 3 4 5 6 
#
# 1 0.015286 -0.002360 -0.005889 0.000000 0.000000 0.000000
# 2 -0.002360 0.014088 -0.004239 0.000000 0.000000 0.000000
# 3 -0.005889 -0.004239 0.009923 0.000000 0.000000 0.000000
# 4 0.000000 0.000000 0.000000 -0.544078 0.000000 0.000000
# 5 0.000000 0.000000 0.000000 0.000000 0.022815 0.000000
# 6 0.000000 0.000000 0.000000 0.000000 0.000000 0.064512
#
#
# Mechanical properties :
#
#
# Convention : Reuss Voigt Hill
#
# Bulk Modulus (GPa) = 69.82565 82.24690 76.03627
# Shear Modulus (GPa) = -12.89642 24.19072 5.64715
#
# Velocity S-wave (km/s) = -2.57142 3.52179 1.70159
# Velocity P-wave (km/s) = 5.19467 7.66204 6.54566
#
# Compressibility (1/GPa) = 0.01432139
#
# Stress axis : x y z
#
# Youngs Moduli (GPa) = 65.41882 70.97993 100.77766
#
# Poissons Ratio (x) = 0.16752 0.59346
# Poissons Ratio (y) = 0.15440 0.42720
# Poissons Ratio (z) = 0.38524 0.30089
#
# Static dielectric constant tensor:
#      x y z
#    x 3.614170 0.000000 0.000000 
#    y 0.000000 3.661990 0.000000 
#    z 0.000000 0.000000 3.434800 
# 
# 
# High freq. dielectric constant tensor:
#      x y z
#    x 1.760800 0.000000 0.000000 
#    y 0.000000 1.759720 0.000000 
#    z 0.000000 0.000000 1.753080 
# 
# From -- ./inp_files/23195.got.cif
#   From: 2010.03.12/outbox.cif.g09.slc.cpg/sg38_12_cif.got.tgz:23195.got - 2010.04.14 02:38:36.
