data_PCOD8178731
_publ_section_title
;
Structure prediction by ZEFSAII (Michael W. Deem and Ramdas Pophale) SiO2 
 PCOD8178731
Probable space group: A M M 2
;
_chemical_formula_sum "Si O2"
_cell_formula_units_Z 48
_cell_length_a 8.976513
_cell_length_b 16.454456
_cell_length_c 18.307449
_cell_angle_alpha 90.000000
_cell_angle_beta 90.000000
_cell_angle_gamma 90.000000
_cell_volume 2704.076823
_symmetry_space_group_name_H-M "A M M 2"
_symmetry_group_IT_number 38
_symmetry_cell_setting 'orthorhombic'
loop_
_space_group_symop_operation_xyz
x,y,z
-x,-y,z
-x,y,z
x,-y,z
x,1/2+y,1/2+z
-x,1/2-y,1/2+z
-x,1/2+y,1/2+z
x,1/2-y,1/2+z
loop_
_atom_site_type_symbol
_atom_site_label
_atom_site_fract_x
_atom_site_fract_y
_atom_site_fract_z
Si Si1 0.323979 0.500000 0.552210
Si Si2 0.172792 0.229204 0.448036
Si Si3 0.675231 0.091360 0.528013
Si Si4 0.674767 0.197385 0.665419
Si Si5 0.828402 0.836681 0.813163
Si Si6 0.175214 0.163375 0.085373
Si Si7 0.170137 0.000000 0.900026
O O1 0.500000 0.500000 0.560150
O O2 0.257350 0.577941 0.592894
O O3 0.280773 0.500000 0.467561
O O4 0.259670 0.145401 0.462091
O O5 0.213032 0.263448 0.368263
O O6 0.217537 0.297343 0.507340
O O7 0.000000 0.209132 0.455338
O O8 0.500000 0.089966 0.518310
O O9 0.720722 0.129281 0.606108
O O10 0.740523 0.000000 0.523695
O O11 0.500000 0.215612 0.662358
O O12 0.719714 0.165614 0.744584
O O13 0.764905 0.279735 0.650087
O O14 0.000000 0.829729 0.788170
O O15 0.798135 0.921725 0.851758
O O16 0.000000 0.150403 0.094192
O O17 0.000000 0.000000 0.929857
#
# Coordination Sequence:
#
# PCOD8178731 Si02
#       7
#     4   8   8   8   8   8   4
#     4  12  22  32  54  86 114 137 176 225 272 322
#     4   9  18  33  55  78 102 135 180 224 260 309
#     4   9  19  35  53  75 106 139 172 214 266 319
#     4  10  21  35  53  79 111 142 177 219 269 325
#     4  10  20  35  54  78 109 143 179 217 264 320
#     4  10  19  36  57  77 106 145 183 220 267 317
#     4  10  20  36  54  78 112 147 182 219 262 322
#
# _framework density 17.750975
#
# number of rings (size 3 to 8) (size 9 to 14) (size 15 to 20)
#    0.000    2.167    1.667    1.750    1.167    3.000 
#    0.000    0.000    1.833    0.000    0.000    0.000 
#    0.000    0.000    0.000    0.000    0.000    0.000 
#
# Total GULP energy -297670.350387 kJ/mol
# GULP energy per Si atom -12402.931266 kJ/mol
# Density = 1.771057 g / cm^3
# Si number density = 17.750975 Si / 1000 Ang^3
#
#
#
# Elastic Constant Matrix: (Units=GPa)
#
#
# Indices 1 2 3 4 5 6 
#
# 1 69.2905 52.0758 22.4907 0.0000 0.0000 0.0000
# 2 52.0758 152.0876 40.2538 0.0000 0.0000 0.0000
# 3 22.4907 40.2538 62.0754 0.0000 0.0000 0.0000
# 4 0.0000 0.0000 0.0000 10.8405 0.0000 0.0000
# 5 0.0000 0.0000 0.0000 0.0000 31.3846 0.0000
# 6 0.0000 0.0000 0.0000 0.0000 0.0000 30.9017
#
#
#
# Elastic Compliance Matrix: (Units=1/GPa)
#
#
# Indices 1 2 3 4 5 6 
#
# 1 0.020006 -0.005954 -0.003388 0.000000 0.000000 0.000000
# 2 -0.005954 0.009709 -0.004139 0.000000 0.000000 0.000000
# 3 -0.003388 -0.004139 0.020021 0.000000 0.000000 0.000000
# 4 0.000000 0.000000 0.000000 0.092247 0.000000 0.000000
# 5 0.000000 0.000000 0.000000 0.000000 0.031863 0.000000
# 6 0.000000 0.000000 0.000000 0.000000 0.000000 0.032361
#
#
# Mechanical properties :
#
#
# Convention : Reuss Voigt Hill
#
# Bulk Modulus (GPa) = 43.90696 57.01047 50.45872
# Shear Modulus (GPa) = 20.76767 25.86757 23.31762
#
# Velocity S-wave (km/s) = 3.42416 3.82153 3.62829
# Velocity P-wave (km/s) = 6.35781 7.18740 6.78530
#
# Compressibility (1/GPa) = 0.02277543
#
# Stress axis : x y z
#
# Youngs Moduli (GPa) = 49.98489 102.99513 49.94777
#
# Poissons Ratio (x) = 0.61319 0.16921
# Poissons Ratio (y) = 0.29759 0.20674
# Poissons Ratio (z) = 0.16934 0.42630
#
# Static dielectric constant tensor:
#      x y z
#    x 3.241100 0.000000 0.000000 
#    y 0.000000 3.492750 0.000000 
#    z 0.000000 0.000000 3.110720 
# 
# 
# High freq. dielectric constant tensor:
#      x y z
#    x 1.687100 0.000000 0.000000 
#    y 0.000000 1.693050 0.000000 
#    z 0.000000 0.000000 1.667220 
# 
# From -- ./inp_files/16669.got.cif
#   From: 2010.03.12/outbox.cif.g09.slc.cpg/sg38_9_cif.got.tgz:16669.got - 2010.04.14 02:38:36.
