data_PCOD8178109
_publ_section_title
;
Structure prediction by ZEFSAII (Michael W. Deem and Ramdas Pophale) SiO2 
 PCOD8178109
Probable space group: A M M 2
;
_chemical_formula_sum "Si O2"
_cell_formula_units_Z 64
_cell_length_a 20.590500
_cell_length_b 9.059145
_cell_length_c 18.668747
_cell_angle_alpha 90.000000
_cell_angle_beta 90.000000
_cell_angle_gamma 90.000000
_cell_volume 3482.324785
_symmetry_space_group_name_H-M "A M M 2"
_symmetry_group_IT_number 38
_symmetry_cell_setting 'orthorhombic'
loop_
_space_group_symop_operation_xyz
x,y,z
-x,-y,z
-x,y,z
x,-y,z
x,1/2+y,1/2+z
-x,1/2-y,1/2+z
-x,1/2+y,1/2+z
x,1/2-y,1/2+z
loop_
_atom_site_type_symbol
_atom_site_label
_atom_site_fract_x
_atom_site_fract_y
_atom_site_fract_z
Si Si1 0.810409 0.824507 0.193540
Si Si2 0.571518 0.824238 0.192364
Si Si3 0.808390 0.175399 0.845996
Si Si4 0.689335 0.675454 0.599597
Si Si5 0.071980 0.824791 0.099303
Si Si6 0.927721 0.324645 0.439180
Si Si7 0.425053 0.829273 0.353725
Si Si8 0.685263 0.674754 0.438436
O O1 0.802683 0.749778 0.269615
O O2 0.751610 0.770658 0.143661
O O3 0.876131 0.764361 0.156252
O O4 0.810747 0.000000 0.203391
O O5 0.500000 0.765849 0.169665
O O6 0.624724 0.759728 0.137688
O O7 0.588014 0.772223 0.272964
O O8 0.571331 0.000000 0.191663
O O9 0.873665 0.235983 0.884540
O O10 0.746843 0.227688 0.892432
O O11 0.810094 0.000000 0.837250
O O12 0.686734 0.500000 0.599109
O O13 0.693743 0.736599 0.518982
O O14 0.000000 0.773387 0.123484
O O15 0.076219 0.000000 0.096913
O O16 0.087079 0.764613 0.019314
O O17 0.924430 0.500000 0.440903
O O18 0.000000 0.272969 0.414755
O O19 0.500000 0.804240 0.374635
O O20 0.381473 0.735963 0.407298
O O21 0.405848 0.000000 0.360712
O O22 0.680613 0.500000 0.439114
#
# Coordination Sequence:
#
# PCOD8178109 Si02
#       8
#     8   8   8   8   8   8   8   8
#     4  10  19  31  49  70  92 122 159 197 238 283
#     4   8  14  26  45  67  89 114 146 184 222 261
#     4  10  20  32  46  69 100 127 156 197 241 286
#     4   9  17  29  46  68  91 117 154 195 229 266
#     4   8  14  26  46  71  94 117 153 200 241 277
#     4   8  14  27  48  70  93 126 164 198 236 284
#     4   9  18  33  52  73  98 127 156 187 228 283
#     4  10  20  32  48  71  97 124 156 199 243 277
#
# _framework density 18.378527999999999
#
# number of rings (size 3 to 8) (size 9 to 14) (size 15 to 20)
#    0.000    3.000    0.000    3.000    0.000    5.750 
#    0.000    1.875    0.000    3.000    0.000    1.750 
#    0.000    0.000    0.000    0.000    0.000    0.000 
#
# Total GULP energy -396679.165224 kJ/mol
# GULP energy per Si atom -12396.223913 kJ/mol
# Density = 1.833670 g / cm^3
# Si number density = 18.378528 Si / 1000 Ang^3
#
#
#
# Elastic Constant Matrix: (Units=GPa)
#
#
# Indices 1 2 3 4 5 6 
#
# 1 158.1937 20.9082 104.4737 0.0000 0.0000 0.0000
# 2 20.9082 10.6707 22.8626 0.0000 0.0000 0.0000
# 3 104.4737 22.8626 167.5711 0.0000 0.0000 0.0000
# 4 0.0000 0.0000 0.0000 22.9518 0.0000 0.0000
# 5 0.0000 0.0000 0.0000 0.0000 41.7545 0.0000
# 6 0.0000 0.0000 0.0000 0.0000 0.0000 13.8768
#
#
#
# Elastic Compliance Matrix: (Units=1/GPa)
#
#
# Indices 1 2 3 4 5 6 
#
# 1 0.011469 -0.010106 -0.005771 0.000000 0.000000 0.000000
# 2 -0.010106 0.141330 -0.012982 0.000000 0.000000 0.000000
# 3 -0.005771 -0.012982 0.011337 0.000000 0.000000 0.000000
# 4 0.000000 0.000000 0.000000 0.043570 0.000000 0.000000
# 5 0.000000 0.000000 0.000000 0.000000 0.023949 0.000000
# 6 0.000000 0.000000 0.000000 0.000000 0.000000 0.072063
#
#
# Mechanical properties :
#
#
# Convention : Reuss Voigt Hill
#
# Bulk Modulus (GPa) = 9.39694 70.32496 39.86095
# Shear Modulus (GPa) = 12.59736 28.26268 20.43002
#
# Velocity S-wave (km/s) = 2.62093 3.92575 3.33772
# Velocity P-wave (km/s) = 3.77930 7.67440 6.04895
#
# Compressibility (1/GPa) = 0.10641761
#
# Stress axis : x y z
#
# Youngs Moduli (GPa) = 87.19488 7.07562 88.20677
#
# Poissons Ratio (x) = 0.07151 0.50907
# Poissons Ratio (y) = 0.88119 1.14508
# Poissons Ratio (z) = 0.50323 0.09185
#
# Static dielectric constant tensor:
#      x y z
#    x 3.776000 0.000000 0.000000 
#    y 0.000000 2.770970 0.000000 
#    z 0.000000 0.000000 3.518260 
# 
# 
# High freq. dielectric constant tensor:
#      x y z
#    x 1.731850 0.000000 0.000000 
#    y 0.000000 1.648160 0.000000 
#    z 0.000000 0.000000 1.718210 
# 
# From -- ./inp_files/15810.got.cif
#   From: 2010.03.12/outbox.cif.g09.slc.cpg/sg38_8_cif.got.tgz:15810.got - 2010.04.14 02:38:36.
