data_PCOD8178432
_publ_section_title
;
Structure prediction by ZEFSAII (Michael W. Deem and Ramdas Pophale) SiO2 
 PCOD8178432
Probable space group: A M M 2
;
_chemical_formula_sum "Si O2"
_cell_formula_units_Z 64
_cell_length_a 9.117486
_cell_length_b 24.768063
_cell_length_c 15.107503
_cell_angle_alpha 90.000000
_cell_angle_beta 90.000000
_cell_angle_gamma 90.000000
_cell_volume 3411.613607
_symmetry_space_group_name_H-M "A M M 2"
_symmetry_group_IT_number 38
_symmetry_cell_setting 'orthorhombic'
loop_
_space_group_symop_operation_xyz
x,y,z
-x,-y,z
-x,y,z
x,-y,z
x,1/2+y,1/2+z
-x,1/2-y,1/2+z
-x,1/2+y,1/2+z
x,1/2-y,1/2+z
loop_
_atom_site_type_symbol
_atom_site_label
_atom_site_fract_x
_atom_site_fract_y
_atom_site_fract_z
Si Si1 0.325455 0.439148 0.295780
Si Si2 0.329726 0.240824 0.833596
Si Si3 0.326206 0.388585 0.110936
Si Si4 0.170766 0.214824 0.655651
Si Si5 0.668739 0.361015 0.447760
Si Si6 0.171498 0.652586 0.815718
Si Si7 0.832646 0.561311 0.951878
Si Si8 0.167879 0.835983 0.117199
O O1 0.500000 0.438428 0.296255
O O2 0.264788 0.500000 0.305433
O O3 0.271321 0.414277 0.203087
O O4 0.263600 0.403139 0.376680
O O5 0.500000 0.247982 0.809052
O O6 0.247693 0.214844 0.750606
O O7 0.308805 0.200215 0.915108
O O8 0.260045 0.298191 0.860387
O O9 0.500000 0.380869 0.107883
O O10 0.247609 0.330959 0.096239
O O11 0.276226 0.427943 0.032764
O O12 0.193219 0.271870 0.607048
O O13 0.000000 0.201662 0.668405
O O14 0.500000 0.374933 0.461686
O O15 0.744689 0.368315 0.542459
O O16 0.208791 0.598368 0.868291
O O17 0.222638 0.644971 0.714097
O O18 0.000000 0.668004 0.818079
O O19 0.811773 0.500000 0.920203
O O20 0.000000 0.572514 0.982029
O O21 0.000000 0.851553 0.104064
#
# Coordination Sequence:
#
# PCOD8178432 Si02
#       8
#     8   8   8   8   8   8   8   8
#     4   9  18  35  56  77 108 148 183 217 266 329
#     4  10  19  33  53  82 113 142 182 230 279 331
#     4  11  21  35  56  84 116 149 185 229 280 339
#     4  10  20  35  54  80 113 151 187 222 273 336
#     4  10  20  34  53  81 112 144 184 226 272 327
#     4   9  20  39  58  78 108 148 190 230 284 343
#     4  10  22  40  60  82 110 146 192 242 287 338
#     4   9  20  36  54  78 109 145 185 227 275 331
#
# _framework density 18.759450999999999
#
# number of rings (size 3 to 8) (size 9 to 14) (size 15 to 20)
#    0.000    2.250    1.250    2.250    1.750    4.750 
#    0.000    0.625    0.000    2.625    0.000    0.000 
#    0.000    0.000    0.000    0.000    0.000    0.000 
#
# Total GULP energy -396852.521515 kJ/mol
# GULP energy per Si atom -12401.641297 kJ/mol
# Density = 1.871675 g / cm^3
# Si number density = 18.759451 Si / 1000 Ang^3
#
#
#
# Elastic Constant Matrix: (Units=GPa)
#
#
# Indices 1 2 3 4 5 6 
#
# 1 71.0129 41.5174 42.7053 0.0000 0.0000 0.0000
# 2 41.5174 119.7690 62.6104 0.0000 0.0000 0.0000
# 3 42.7053 62.6104 116.1796 0.0000 0.0000 0.0000
# 4 0.0000 0.0000 0.0000 29.3312 0.0000 0.0000
# 5 0.0000 0.0000 0.0000 0.0000 32.4434 0.0000
# 6 0.0000 0.0000 0.0000 0.0000 0.0000 21.9180
#
#
#
# Elastic Compliance Matrix: (Units=1/GPa)
#
#
# Indices 1 2 3 4 5 6 
#
# 1 0.019480 -0.004190 -0.004902 0.000000 0.000000 0.000000
# 2 -0.004190 0.012525 -0.005210 0.000000 0.000000 0.000000
# 3 -0.004902 -0.005210 0.013217 0.000000 0.000000 0.000000
# 4 0.000000 0.000000 0.000000 0.034093 0.000000 0.000000
# 5 0.000000 0.000000 0.000000 0.000000 0.030823 0.000000
# 6 0.000000 0.000000 0.000000 0.000000 0.000000 0.045625
#
#
# Mechanical properties :
#
#
# Convention : Reuss Voigt Hill
#
# Bulk Modulus (GPa) = 60.17642 66.73641 63.45642
# Shear Modulus (GPa) = 26.32874 27.41374 26.87124
#
# Velocity S-wave (km/s) = 3.75039 3.82688 3.78883
# Velocity P-wave (km/s) = 7.13452 7.42824 7.28286
#
# Compressibility (1/GPa) = 0.01661780
#
# Stress axis : x y z
#
# Youngs Moduli (GPa) = 51.33560 79.83831 75.65962
#
# Poissons Ratio (x) = 0.33450 0.37092
# Poissons Ratio (y) = 0.21508 0.39418
# Poissons Ratio (z) = 0.25167 0.41595
#
# Static dielectric constant tensor:
#      x y z
#    x 3.330580 0.000000 0.000000 
#    y 0.000000 3.493600 0.000000 
#    z 0.000000 0.000000 3.359660 
# 
# 
# High freq. dielectric constant tensor:
#      x y z
#    x 1.716870 0.000000 0.000000 
#    y 0.000000 1.722540 0.000000 
#    z 0.000000 0.000000 1.724530 
# 
# From -- ./inp_files/12748.got.cif
#   From: 2010.03.12/outbox.cif.g09.slc.cpg/sg38_7_cif.got.tgz:12748.got - 2010.04.14 02:38:36.
