data_PCOD8178247
_publ_section_title
;
Structure prediction by ZEFSAII (Michael W. Deem and Ramdas Pophale) SiO2 
 PCOD8178247
Probable space group: A M M 2
;
_chemical_formula_sum "Si O2"
_cell_formula_units_Z 48
_cell_length_a 12.007067
_cell_length_b 12.861632
_cell_length_c 16.942054
_cell_angle_alpha 90.000000
_cell_angle_beta 90.000000
_cell_angle_gamma 90.000000
_cell_volume 2616.369483
_symmetry_space_group_name_H-M "A M M 2"
_symmetry_group_IT_number 38
_symmetry_cell_setting 'orthorhombic'
loop_
_space_group_symop_operation_xyz
x,y,z
-x,-y,z
-x,y,z
x,-y,z
x,1/2+y,1/2+z
-x,1/2-y,1/2+z
-x,1/2+y,1/2+z
x,1/2-y,1/2+z
loop_
_atom_site_type_symbol
_atom_site_label
_atom_site_fract_x
_atom_site_fract_y
_atom_site_fract_z
Si Si1 0.713891 0.301897 0.173700
Si Si2 0.681997 0.383219 0.781531
Si Si3 0.870553 0.380636 0.052445
Si Si4 0.874115 0.824684 0.381614
Si Si5 0.500000 0.880300 0.583604
Si Si6 0.500000 0.123104 0.405544
Si Si7 0.874552 0.884293 0.804157
O O1 0.673438 0.189337 0.204286
O O2 0.807034 0.296522 0.105747
O O3 0.606945 0.356081 0.136360
O O4 0.773875 0.367376 0.242793
O O5 0.647128 0.500000 0.756465
O O6 0.808745 0.381012 0.811262
O O7 0.606578 0.340076 0.853913
O O8 0.846170 0.500000 0.078693
O O9 0.000000 0.353901 0.056934
O O10 0.824811 0.363370 0.964394
O O11 0.863456 0.699338 0.374497
O O12 0.000000 0.863166 0.372968
O O13 0.500000 0.827452 0.494871
O O14 0.500000 0.000000 0.564423
O O15 0.500000 0.000000 0.411951
O O16 0.000000 0.873141 0.765562
O O17 0.861060 0.000000 0.839728
#
# Coordination Sequence:
#
# PCOD8178247 Si02
#       7
#     8   8   8   8   4   4   8
#     4  11  21  32  49  76 103 129 162 203 251 300
#     4  10  20  35  53  72  98 132 169 206 244 292
#     4  10  19  32  51  74 101 131 163 204 252 297
#     4   9  18  31  50  76 101 129 169 210 247 289
#     4  11  21  32  51  79 105 125 154 205 258 295
#     4   9  19  36  56  73  91 123 163 199 241 291
#     4   9  17  31  50  71 100 138 172 201 239 293
#
# _framework density 18.346032000000001
#
# number of rings (size 3 to 8) (size 9 to 14) (size 15 to 20)
#    0.000    2.167    0.000    4.000    0.000    4.333 
#    0.000    0.833    0.000    1.000    0.000    7.000 
#    0.000    0.000    0.000    0.000    0.000    0.000 
#
# Total GULP energy -297409.536569 kJ/mol
# GULP energy per Si atom -12392.064024 kJ/mol
# Density = 1.830428 g / cm^3
# Si number density = 18.346032 Si / 1000 Ang^3
#
#
#
# Elastic Constant Matrix: (Units=GPa)
#
#
# Indices 1 2 3 4 5 6 
#
# 1 80.2899 30.4239 41.2471 0.0000 0.0000 0.0000
# 2 30.4239 78.7815 33.1844 0.0000 0.0000 0.0000
# 3 41.2471 33.1844 86.2168 0.0000 0.0000 0.0000
# 4 0.0000 0.0000 0.0000 29.4377 0.0000 0.0000
# 5 0.0000 0.0000 0.0000 0.0000 24.1673 0.0000
# 6 0.0000 0.0000 0.0000 0.0000 0.0000 21.6495
#
#
#
# Elastic Compliance Matrix: (Units=1/GPa)
#
#
# Indices 1 2 3 4 5 6 
#
# 1 0.017437 -0.003843 -0.006863 0.000000 0.000000 0.000000
# 2 -0.003843 0.015996 -0.004318 0.000000 0.000000 0.000000
# 3 -0.006863 -0.004318 0.016544 0.000000 0.000000 0.000000
# 4 0.000000 0.000000 0.000000 0.033970 0.000000 0.000000
# 5 0.000000 0.000000 0.000000 0.000000 0.041378 0.000000
# 6 0.000000 0.000000 0.000000 0.000000 0.000000 0.046190
#
#
# Mechanical properties :
#
#
# Convention : Reuss Voigt Hill
#
# Bulk Modulus (GPa) = 50.17860 50.55545 50.36703
# Shear Modulus (GPa) = 24.01456 24.41309 24.21383
#
# Velocity S-wave (km/s) = 3.62191 3.65184 3.63690
# Velocity P-wave (km/s) = 6.70086 6.73778 6.71934
#
# Compressibility (1/GPa) = 0.01992881
#
# Stress axis : x y z
#
# Youngs Moduli (GPa) = 57.35047 62.51399 60.44476
#
# Poissons Ratio (x) = 0.24024 0.41482
# Poissons Ratio (y) = 0.22040 0.26103
# Poissons Ratio (z) = 0.39358 0.26996
#
# Static dielectric constant tensor:
#      x y z
#    x 3.635190 0.000000 0.000000 
#    y 0.000000 3.327990 0.000000 
#    z 0.000000 0.000000 3.417660 
# 
# 
# High freq. dielectric constant tensor:
#      x y z
#    x 1.726470 0.000000 0.000000 
#    y 0.000000 1.687970 0.000000 
#    z 0.000000 0.000000 1.697140 
# 
# From -- ./inp_files/13725.got.cif
#   From: 2010.03.12/outbox.cif.g09.slc.cpg/sg38_7_cif.got.tgz:13725.got - 2010.04.14 02:38:36.
