data_PCOD8178211
_publ_section_title
;
Structure prediction by ZEFSAII (Michael W. Deem and Ramdas Pophale) SiO2 
 PCOD8178211
Probable space group: A M M 2
;
_chemical_formula_sum "Si O2"
_cell_formula_units_Z 64
_cell_length_a 19.273287
_cell_length_b 9.717606
_cell_length_c 20.487475
_cell_angle_alpha 90.000000
_cell_angle_beta 90.000000
_cell_angle_gamma 90.000000
_cell_volume 3837.103483
_symmetry_space_group_name_H-M "A M M 2"
_symmetry_group_IT_number 38
_symmetry_cell_setting 'orthorhombic'
loop_
_space_group_symop_operation_xyz
x,y,z
-x,-y,z
-x,y,z
x,-y,z
x,1/2+y,1/2+z
-x,1/2-y,1/2+z
-x,1/2+y,1/2+z
x,1/2-y,1/2+z
loop_
_atom_site_type_symbol
_atom_site_label
_atom_site_fract_x
_atom_site_fract_y
_atom_site_fract_z
Si Si1 0.581657 0.662320 0.243210
Si Si2 0.346906 0.837234 0.875917
Si Si3 0.076614 0.654448 0.925913
Si Si4 0.652284 0.339493 0.631562
Si Si5 0.200999 0.660190 0.427043
Si Si6 0.800370 0.342439 0.578362
Si Si7 0.076478 0.154486 0.580956
Si Si8 0.422842 0.663733 0.501603
O O1 0.500000 0.697581 0.245409
O O2 0.593278 0.500000 0.232179
O O3 0.618038 0.715170 0.309527
O O4 0.619864 0.746232 0.187261
O O5 0.266428 0.793693 0.882884
O O6 0.388505 0.772539 0.936779
O O7 0.353048 0.000000 0.879749
O O8 0.094078 0.500000 0.902247
O O9 0.134849 0.757715 0.898868
O O10 0.000000 0.698033 0.900171
O O11 0.076474 0.660707 0.003435
O O12 0.635769 0.500000 0.645385
O O13 0.734471 0.314525 0.624574
O O14 0.618798 0.287377 0.564555
O O15 0.184699 0.500000 0.418591
O O16 0.217059 0.695107 0.502985
O O17 0.823627 0.500000 0.582180
O O18 0.863740 0.254189 0.607983
O O19 0.000000 0.200404 0.606408
O O20 0.092634 0.000000 0.605022
O O21 0.500000 0.722959 0.507085
O O22 0.422346 0.500000 0.497601
#
# Coordination Sequence:
#
# PCOD8178211 Si02
#       8
#     8   8   8   8   8   8   8   8
#     4  10  21  35  50  69  94 124 158 196 238 285
#     4   9  16  29  47  68  93 120 153 195 237 275
#     4   8  14  24  37  57  90 127 155 179 216 272
#     4  10  19  32  49  71  96 123 156 194 237 283
#     4   9  15  25  43  66  91 116 149 195 234 266
#     4   9  16  26  42  66  94 120 151 193 234 273
#     4   8  14  24  38  59  90 126 158 185 220 272
#     4   9  15  25  46  71  90 114 152 193 232 276
#
# _framework density 16.679248999999999
#
# number of rings (size 3 to 8) (size 9 to 14) (size 15 to 20)
#    0.000    3.000    1.250    1.500    0.000    3.250 
#    0.000    3.125    0.000    0.750    0.000    0.875 
#    0.000    1.000    0.000    0.000    0.000    0.000 
#
# Total GULP energy -396613.435587 kJ/mol
# GULP energy per Si atom -12394.169862 kJ/mol
# Density = 1.664129 g / cm^3
# Si number density = 16.679249 Si / 1000 Ang^3
#
#
#
# Elastic Constant Matrix: (Units=GPa)
#
#
# Indices 1 2 3 4 5 6 
#
# 1 154.6938 65.6356 56.5354 0.0000 0.0000 0.0000
# 2 65.6356 57.9269 36.6974 0.0000 0.0000 0.0000
# 3 56.5354 36.6974 84.3350 0.0000 0.0000 0.0000
# 4 0.0000 0.0000 0.0000 17.6174 0.0000 0.0000
# 5 0.0000 0.0000 0.0000 0.0000 18.9995 0.0000
# 6 0.0000 0.0000 0.0000 0.0000 0.0000 26.7266
#
#
#
# Elastic Compliance Matrix: (Units=1/GPa)
#
#
# Indices 1 2 3 4 5 6 
#
# 1 0.013044 -0.012757 -0.003193 0.000000 0.000000 0.000000
# 2 -0.012757 0.036309 -0.007248 0.000000 0.000000 0.000000
# 3 -0.003193 -0.007248 0.017152 0.000000 0.000000 0.000000
# 4 0.000000 0.000000 0.000000 0.056762 0.000000 0.000000
# 5 0.000000 0.000000 0.000000 0.000000 0.052633 0.000000
# 6 0.000000 0.000000 0.000000 0.000000 0.000000 0.037416
#
#
# Mechanical properties :
#
#
# Convention : Reuss Voigt Hill
#
# Bulk Modulus (GPa) = 49.72810 68.29919 59.01364
# Shear Modulus (GPa) = 18.76768 21.87452 20.32110
#
# Velocity S-wave (km/s) = 3.35806 3.62537 3.49427
# Velocity P-wave (km/s) = 6.70183 7.65257 7.19293
#
# Compressibility (1/GPa) = 0.02010935
#
# Stress axis : x y z
#
# Youngs Moduli (GPa) = 76.66264 27.54108 58.30259
#
# Poissons Ratio (x) = 0.35134 0.18618
# Poissons Ratio (y) = 0.97799 0.42256
# Poissons Ratio (z) = 0.24481 0.19961
#
# Static dielectric constant tensor:
#      x y z
#    x 3.492310 0.000000 0.000000 
#    y 0.000000 2.943250 0.000000 
#    z 0.000000 0.000000 2.890320 
# 
# 
# High freq. dielectric constant tensor:
#      x y z
#    x 1.660760 0.000000 0.000000 
#    y 0.000000 1.614000 0.000000 
#    z 0.000000 0.000000 1.600820 
# 
# From -- ./inp_files/21501.got.cif
#   From: 2010.03.12/outbox.cif.g09.slc.cpg/sg38_11_cif.got.tgz:21501.got - 2010.04.14 02:38:36.
