data_PCOD8178024
_publ_section_title
;
Structure prediction by ZEFSAII (Michael W. Deem and Ramdas Pophale) SiO2 
 PCOD8178024
Probable space group: A M M 2
;
_chemical_formula_sum "Si O2"
_cell_formula_units_Z 64
_cell_length_a 14.628426
_cell_length_b 9.070577
_cell_length_c 25.056269
_cell_angle_alpha 90.000000
_cell_angle_beta 90.000000
_cell_angle_gamma 90.000000
_cell_volume 3324.672846
_symmetry_space_group_name_H-M "A M M 2"
_symmetry_group_IT_number 38
_symmetry_cell_setting 'orthorhombic'
loop_
_space_group_symop_operation_xyz
x,y,z
-x,-y,z
-x,y,z
x,-y,z
x,1/2+y,1/2+z
-x,1/2-y,1/2+z
-x,1/2+y,1/2+z
x,1/2-y,1/2+z
loop_
_atom_site_type_symbol
_atom_site_label
_atom_site_fract_x
_atom_site_fract_y
_atom_site_fract_z
Si Si1 0.839845 0.667041 0.069280
Si Si2 0.363200 0.166285 0.532483
Si Si3 0.400828 0.669150 0.637966
Si Si4 0.793829 0.674334 0.675309
Si Si5 0.106589 0.175020 0.773450
Si Si6 0.399155 0.829283 0.923203
Si Si7 0.899653 0.835289 0.973873
Si Si8 0.785930 0.825829 0.876191
O O1 0.867861 0.500000 0.084475
O O2 0.744658 0.673120 0.038572
O O3 0.840910 0.766793 0.121761
O O4 0.908966 0.736308 0.026781
O O5 0.408792 0.242146 0.583282
O O6 0.392586 0.244072 0.478415
O O7 0.399470 0.000000 0.530132
O O8 0.500000 0.689428 0.667565
O O9 0.384020 0.500000 0.622292
O O10 0.314733 0.719778 0.674677
O O11 0.807332 0.500000 0.679684
O O12 0.845461 0.751614 0.723225
O O13 0.163501 0.238301 0.824091
O O14 0.000000 0.221824 0.777666
O O15 0.115346 0.000000 0.767983
O O16 0.500000 0.801562 0.897977
O O17 0.321537 0.779810 0.880127
O O18 0.383929 0.000000 0.936989
O O19 0.833603 0.763062 0.929591
O O20 0.000000 0.843615 0.947850
O O21 0.865198 0.000000 0.989433
O O22 0.799626 0.000000 0.874574
#
# Coordination Sequence:
#
# PCOD8178024 Si02
#       8
#     8   8   8   8   8   8   8   8
#     4  10  20  34  52  77 112 149 179 216 269 325
#     4  10  19  30  47  75 111 148 183 219 261 312
#     4   9  18  33  53  77 107 145 185 220 261 320
#     4  10  21  37  58  82 109 141 181 229 275 323
#     4  10  21  39  62  83 104 138 184 232 282 332
#     4  10  19  31  51  78 108 145 184 218 260 318
#     4  10  19  32  54  81 106 138 179 220 268 326
#     4   9  18  35  57  79 107 140 179 225 267 318
#
# _framework density 19.250015000000001
#
# number of rings (size 3 to 8) (size 9 to 14) (size 15 to 20)
#    0.000    2.250    1.250    1.875    0.000    6.000 
#    0.000    1.875    0.000    2.250    0.000    0.000 
#    0.000    0.000    0.000    0.000    0.000    0.000 
#
# Total GULP energy -396605.875024 kJ/mol
# GULP energy per Si atom -12393.933595 kJ/mol
# Density = 1.920620 g / cm^3
# Si number density = 19.250015 Si / 1000 Ang^3
#
#
#
# Elastic Constant Matrix: (Units=GPa)
#
#
# Indices 1 2 3 4 5 6 
#
# 1 143.5679 39.5766 76.0364 0.0000 0.0000 0.0000
# 2 39.5766 53.6038 30.4713 0.0000 0.0000 0.0000
# 3 76.0364 30.4713 116.6892 0.0000 0.0000 0.0000
# 4 0.0000 0.0000 0.0000 24.6334 0.0000 0.0000
# 5 0.0000 0.0000 0.0000 0.0000 21.1644 0.0000
# 6 0.0000 0.0000 0.0000 0.0000 0.0000 18.7119
#
#
#
# Elastic Compliance Matrix: (Units=1/GPa)
#
#
# Indices 1 2 3 4 5 6 
#
# 1 0.011696 -0.005053 -0.006302 0.000000 0.000000 0.000000
# 2 -0.005053 0.024090 -0.002998 0.000000 0.000000 0.000000
# 3 -0.006302 -0.002998 0.013459 0.000000 0.000000 0.000000
# 4 0.000000 0.000000 0.000000 0.040595 0.000000 0.000000
# 5 0.000000 0.000000 0.000000 0.000000 0.047249 0.000000
# 6 0.000000 0.000000 0.000000 0.000000 0.000000 0.053442
#
#
# Mechanical properties :
#
#
# Convention : Reuss Voigt Hill
#
# Bulk Modulus (GPa) = 48.68663 67.33662 58.01162
# Shear Modulus (GPa) = 22.11571 24.08704 23.10137
#
# Velocity S-wave (km/s) = 3.39317 3.54117 3.46796
# Velocity P-wave (km/s) = 6.37951 7.19554 6.79978
#
# Compressibility (1/GPa) = 0.02053952
#
# Stress axis : x y z
#
# Youngs Moduli (GPa) = 85.50126 41.51024 74.30019
#
# Poissons Ratio (x) = 0.20975 0.46821
# Poissons Ratio (y) = 0.43204 0.22277
# Poissons Ratio (z) = 0.53880 0.12446
#
# Static dielectric constant tensor:
#      x y z
#    x 3.891130 0.000000 0.000000 
#    y 0.000000 3.416090 0.000000 
#    z 0.000000 0.000000 3.332020 
# 
# 
# High freq. dielectric constant tensor:
#      x y z
#    x 1.767620 0.000000 0.000000 
#    y 0.000000 1.732600 0.000000 
#    z 0.000000 0.000000 1.721470 
# 
# From -- ./inp_files/22922.got.cif
#   From: 2010.03.12/outbox.cif.g09.slc.cpg/sg38_12_cif.got.tgz:22922.got - 2010.04.14 02:38:36.
