data_PCOD8178424
_publ_section_title
;
Structure prediction by ZEFSAII (Michael W. Deem and Ramdas Pophale) SiO2 
 PCOD8178424
Probable space group: A M M 2
;
_chemical_formula_sum "Si O2"
_cell_formula_units_Z 48
_cell_length_a 7.858317
_cell_length_b 9.170752
_cell_length_c 34.024845
_cell_angle_alpha 90.000000
_cell_angle_beta 90.000000
_cell_angle_gamma 90.000000
_cell_volume 2452.057492
_symmetry_space_group_name_H-M "A M M 2"
_symmetry_group_IT_number 38
_symmetry_cell_setting 'orthorhombic'
loop_
_space_group_symop_operation_xyz
x,y,z
-x,-y,z
-x,y,z
x,-y,z
x,1/2+y,1/2+z
-x,1/2-y,1/2+z
-x,1/2+y,1/2+z
x,1/2-y,1/2+z
loop_
_atom_site_type_symbol
_atom_site_label
_atom_site_fract_x
_atom_site_fract_y
_atom_site_fract_z
Si Si1 0.306885 0.835173 0.768860
Si Si2 0.500000 0.673225 0.643424
Si Si3 0.189685 0.673188 0.503262
Si Si4 0.298957 0.667292 0.417841
Si Si5 0.189586 0.831913 0.195915
Si Si6 0.500000 0.325577 0.555176
Si Si7 0.195208 0.664964 0.842240
O O1 0.500000 0.832524 0.753758
O O2 0.193000 0.754127 0.736766
O O3 0.300981 0.757036 0.810855
O O4 0.239914 0.000000 0.773758
O O5 0.500000 0.500000 0.641475
O O6 0.670410 0.729497 0.665403
O O7 0.500000 0.737111 0.599410
O O8 0.199491 0.500000 0.503752
O O9 0.232487 0.727743 0.459485
O O10 0.330468 0.735005 0.533552
O O11 0.000000 0.726832 0.515435
O O12 0.500000 0.682661 0.416087
O O13 0.242581 0.500000 0.411414
O O14 0.213437 0.765917 0.384997
O O15 0.000000 0.813980 0.177646
O O16 0.229328 0.000000 0.205610
O O17 0.500000 0.500000 0.554859
O O18 0.265406 0.500000 0.843173
O O19 0.000000 0.667743 0.829218
#
# Coordination Sequence:
#
# PCOD8178424 Si02
#       7
#     8   4   8   8   8   4   8
#     4  11  23  38  57  81 107 140 183 227 272 322
#     4   9  18  32  51  76 111 146 177 224 273 319
#     4   9  16  27  46  73 107 145 181 222 270 316
#     4  10  19  33  53  77 106 141 184 229 270 317
#     4  10  20  35  56  81 110 147 185 220 270 329
#     4   9  16  28  46  74 109 142 177 218 269 327
#     4  11  24  38  52  76 109 144 183 225 270 322
#
# _framework density 19.575398
#
# number of rings (size 3 to 8) (size 9 to 14) (size 15 to 20)
#    0.000    2.000    1.667    2.500    0.000    8.333 
#    0.000    3.333    0.000    0.000    0.000    2.333 
#    0.000    0.000    0.000    0.000    0.000    0.000 
#
# Total GULP energy -297624.921640 kJ/mol
# GULP energy per Si atom -12401.038402 kJ/mol
# Density = 1.953084 g / cm^3
# Si number density = 19.575398 Si / 1000 Ang^3
#
#
#
# Elastic Constant Matrix: (Units=GPa)
#
#
# Indices 1 2 3 4 5 6 
#
# 1 115.4581 28.1973 55.2893 0.0000 0.0000 0.0000
# 2 28.1973 73.9950 41.4693 0.0000 0.0000 0.0000
# 3 55.2893 41.4693 147.0071 0.0000 0.0000 0.0000
# 4 0.0000 0.0000 0.0000 17.3188 0.0000 0.0000
# 5 0.0000 0.0000 0.0000 0.0000 25.0800 0.0000
# 6 0.0000 0.0000 0.0000 0.0000 0.0000 15.8951
#
#
#
# Elastic Compliance Matrix: (Units=1/GPa)
#
#
# Indices 1 2 3 4 5 6 
#
# 1 0.010856 -0.002196 -0.003464 0.000000 0.000000 0.000000
# 2 -0.002196 0.016496 -0.003828 0.000000 0.000000 0.000000
# 3 -0.003464 -0.003828 0.009185 0.000000 0.000000 0.000000
# 4 0.000000 0.000000 0.000000 0.057741 0.000000 0.000000
# 5 0.000000 0.000000 0.000000 0.000000 0.039872 0.000000
# 6 0.000000 0.000000 0.000000 0.000000 0.000000 0.062913
#
#
# Mechanical properties :
#
#
# Convention : Reuss Voigt Hill
#
# Bulk Modulus (GPa) = 56.93734 65.15243 61.04489
# Shear Modulus (GPa) = 22.53357 25.75905 24.14631
#
# Velocity S-wave (km/s) = 3.39649 3.63145 3.51594
# Velocity P-wave (km/s) = 6.67314 7.13711 6.90902
#
# Compressibility (1/GPa) = 0.01756317
#
# Stress axis : x y z
#
# Youngs Moduli (GPa) = 92.11515 60.61964 108.87619
#
# Poissons Ratio (x) = 0.13311 0.37709
# Poissons Ratio (y) = 0.20227 0.41673
# Poissons Ratio (z) = 0.31904 0.23203
#
# Static dielectric constant tensor:
#      x y z
#    x 3.726390 0.000000 0.000000 
#    y 0.000000 3.227970 0.000000 
#    z 0.000000 0.000000 3.582130 
# 
# 
# High freq. dielectric constant tensor:
#      x y z
#    x 1.778750 0.000000 0.000000 
#    y 0.000000 1.717540 0.000000 
#    z 0.000000 0.000000 1.759310 
# 
# From -- ./inp_files/24430.got.cif
#   From: 2010.03.12/outbox.cif.g09.slc.cpg/sg38_13_cif.got.tgz:24430.got - 2010.04.14 02:38:36.
