data_PCOD8178163
_publ_section_title
;
Structure prediction by ZEFSAII (Michael W. Deem and Ramdas Pophale) SiO2 
 PCOD8178163
Probable space group: A M M 2
;
_chemical_formula_sum "Si O2"
_cell_formula_units_Z 48
_cell_length_a 15.445974
_cell_length_b 8.716724
_cell_length_c 19.674990
_cell_angle_alpha 90.000000
_cell_angle_beta 90.000000
_cell_angle_gamma 90.000000
_cell_volume 2649.007054
_symmetry_space_group_name_H-M "A M M 2"
_symmetry_group_IT_number 38
_symmetry_cell_setting 'orthorhombic'
loop_
_space_group_symop_operation_xyz
x,y,z
-x,-y,z
-x,y,z
x,-y,z
x,1/2+y,1/2+z
-x,1/2-y,1/2+z
-x,1/2+y,1/2+z
x,1/2-y,1/2+z
loop_
_atom_site_type_symbol
_atom_site_label
_atom_site_fract_x
_atom_site_fract_y
_atom_site_fract_z
Si Si1 0.600675 0.322696 0.784980
Si Si2 0.733028 0.820587 0.885577
Si Si3 0.906749 0.677690 0.527148
Si Si4 0.401164 0.322165 0.143773
Si Si5 0.737502 0.819330 0.534021
Si Si6 0.094236 0.320394 0.880699
O O1 0.500000 0.287525 0.797521
O O2 0.622957 0.500000 0.796242
O O3 0.653197 0.222028 0.838246
O O4 0.627054 0.276159 0.708843
O O5 0.823435 0.768718 0.848770
O O6 0.734845 0.000000 0.897886
O O7 0.720795 0.739173 0.958026
O O8 0.891980 0.500000 0.508603
O O9 0.823898 0.742291 0.568134
O O10 0.909177 0.777786 0.459436
O O11 0.000000 0.698342 0.565503
O O12 0.500000 0.288208 0.123169
O O13 0.387180 0.500000 0.161905
O O14 0.343344 0.270266 0.080186
O O15 0.749946 0.000000 0.532613
O O16 0.111129 0.500000 0.872399
O O17 0.000000 0.276198 0.847751
#
# Coordination Sequence:
#
# PCOD8178163 Si02
#       6
#     8   8   8   8   8   8
#     4  10  21  37  56  75  97 129 168 208 251 302
#     4  11  21  32  50  76 106 136 167 207 250 293
#     4   9  16  26  42  66  97 131 165 202 245 291
#     4   9  19  36  55  74  98 129 164 202 248 302
#     4  10  19  31  50  76 104 133 166 205 248 292
#     4   9  16  27  45  69  98 131 166 204 246 293
#
# _framework density 18.119997000000001
#
# number of rings (size 3 to 8) (size 9 to 14) (size 15 to 20)
#    0.000    2.333    0.000    5.500    0.000    5.000 
#    0.000    1.667    0.000    1.000    0.000    4.667 
#    0.000    0.000    0.000    0.000    0.000    0.000 
#
# Total GULP energy -297430.705134 kJ/mol
# GULP energy per Si atom -12392.946047 kJ/mol
# Density = 1.807876 g / cm^3
# Si number density = 18.119997 Si / 1000 Ang^3
#
#
#
# Elastic Constant Matrix: (Units=GPa)
#
#
# Indices 1 2 3 4 5 6 
#
# 1 132.4663 43.7756 58.4320 0.0000 0.0000 0.0000
# 2 43.7756 58.0529 23.5753 0.0000 0.0000 0.0000
# 3 58.4320 23.5753 57.4559 0.0000 0.0000 0.0000
# 4 0.0000 0.0000 0.0000 23.2586 0.0000 0.0000
# 5 0.0000 0.0000 0.0000 0.0000 2.1322 0.0000
# 6 0.0000 0.0000 0.0000 0.0000 0.0000 30.4746
#
#
#
# Elastic Compliance Matrix: (Units=1/GPa)
#
#
# Indices 1 2 3 4 5 6 
#
# 1 0.015399 -0.006302 -0.013075 0.000000 0.000000 0.000000
# 2 -0.006302 0.023249 -0.003130 0.000000 0.000000 0.000000
# 3 -0.013075 -0.003130 0.031986 0.000000 0.000000 0.000000
# 4 0.000000 0.000000 0.000000 0.042995 0.000000 0.000000
# 5 0.000000 0.000000 0.000000 0.000000 0.469008 0.000000
# 6 0.000000 0.000000 0.000000 0.000000 0.000000 0.032814
#
#
# Mechanical properties :
#
#
# Convention : Reuss Voigt Hill
#
# Bulk Modulus (GPa) = 39.03254 55.50452 47.26853
# Shear Modulus (GPa) = 7.47377 19.31923 13.39650
#
# Velocity S-wave (km/s) = 2.03311 3.26879 2.72200
# Velocity P-wave (km/s) = 5.20570 6.70409 6.00184
#
# Compressibility (1/GPa) = 0.02561965
#
# Stress axis : x y z
#
# Youngs Moduli (GPa) = 64.93836 43.01225 31.26364
#
# Poissons Ratio (x) = 0.27108 0.40877
# Poissons Ratio (y) = 0.40926 0.09786
# Poissons Ratio (z) = 0.84906 0.13464
#
# Static dielectric constant tensor:
#      x y z
#    x 4.141400 0.000000 0.000000 
#    y 0.000000 3.420950 0.000000 
#    z 0.000000 0.000000 2.906420 
# 
# 
# High freq. dielectric constant tensor:
#      x y z
#    x 1.726330 0.000000 0.000000 
#    y 0.000000 1.715820 0.000000 
#    z 0.000000 0.000000 1.645150 
# 
# From -- ./inp_files/20876.got.cif
#   From: 2010.03.12/outbox.cif.g09.slc.cpg/sg38_11_cif.got.tgz:20876.got - 2010.04.14 02:38:36.
