data_PCOD8178799
_publ_section_title
;
Structure prediction by ZEFSAII (Michael W. Deem and Ramdas Pophale) SiO2 
 PCOD8178799
Probable space group: A M M 2
;
_chemical_formula_sum "Si O2"
_cell_formula_units_Z 56
_cell_length_a 9.811113
_cell_length_b 18.122585
_cell_length_c 20.442301
_cell_angle_alpha 90.000000
_cell_angle_beta 90.000000
_cell_angle_gamma 90.000000
_cell_volume 3634.696911
_symmetry_space_group_name_H-M "A M M 2"
_symmetry_group_IT_number 38
_symmetry_cell_setting 'orthorhombic'
loop_
_space_group_symop_operation_xyz
x,y,z
-x,-y,z
-x,y,z
x,-y,z
x,1/2+y,1/2+z
-x,1/2-y,1/2+z
-x,1/2+y,1/2+z
x,1/2-y,1/2+z
loop_
_atom_site_type_symbol
_atom_site_label
_atom_site_fract_x
_atom_site_fract_y
_atom_site_fract_z
Si Si1 0.840271 0.346195 0.962150
Si Si2 0.837858 0.918040 0.595656
Si Si3 0.657695 0.084327 0.080727
Si Si4 0.847483 0.721609 0.167065
Si Si5 0.849916 0.698360 0.528519
Si Si6 0.342435 0.085706 0.352051
Si Si7 0.656083 0.838622 0.216199
O O1 0.753413 0.368797 0.899860
O O2 0.000000 0.361659 0.949373
O O3 0.785516 0.392969 0.024246
O O4 0.813506 0.259154 0.973773
O O5 0.790990 0.861513 0.653041
O O6 0.000000 0.916106 0.593387
O O7 0.781705 0.000000 0.611379
O O8 0.500000 0.094566 0.063674
O O9 0.741439 0.132080 0.027835
O O10 0.690079 0.110268 0.154191
O O11 0.703956 0.000000 0.074271
O O12 0.850357 0.761426 0.097739
O O13 0.747888 0.764602 0.216411
O O14 0.000000 0.720022 0.197416
O O15 0.000000 0.665162 0.514800
O O16 0.500000 0.099598 0.370328
O O17 0.310373 0.112763 0.279105
O O18 0.305037 0.000000 0.356400
O O19 0.500000 0.812326 0.214959
#
# Coordination Sequence:
#
# PCOD8178799 Si02
#       7
#     8   8   8   8   8   8   8
#     4   9  17  29  44  61  83 112 143 170 198 240
#     4   8  13  23  41  63  85 108 132 162 204 247
#     4   9  16  26  42  63  84 108 139 171 203 244
#     4   8  14  25  41  60  80 103 135 171 202 239
#     4   8  15  27  41  59  83 108 134 168 210 248
#     4  10  20  31  42  59  84 113 143 172 201 235
#     4   9  17  29  42  56  81 115 142 166 201 242
#
# _framework density 15.407062
#
# number of rings (size 3 to 8) (size 9 to 14) (size 15 to 20)
#    0.000    3.286    0.000    2.571    0.000    4.000 
#    0.000    2.143    0.000    3.857    0.000    1.000 
#    0.000    3.429    0.000    0.000    0.000    0.000 
#
# Total GULP energy -347058.149757 kJ/mol
# GULP energy per Si atom -12394.933920 kJ/mol
# Density = 1.537199 g / cm^3
# Si number density = 15.407062 Si / 1000 Ang^3
#
#
#
# Elastic Constant Matrix: (Units=GPa)
#
#
# Indices 1 2 3 4 5 6 
#
# 1 69.3571 61.6080 39.4458 0.0000 0.0000 0.0000
# 2 61.6080 123.4767 39.7520 0.0000 0.0000 0.0000
# 3 39.4458 39.7520 50.0876 0.0000 0.0000 0.0000
# 4 0.0000 0.0000 0.0000 24.7502 0.0000 0.0000
# 5 0.0000 0.0000 0.0000 0.0000 23.4575 0.0000
# 6 0.0000 0.0000 0.0000 0.0000 0.0000 25.3312
#
#
#
# Elastic Compliance Matrix: (Units=1/GPa)
#
#
# Indices 1 2 3 4 5 6 
#
# 1 0.035331 -0.011646 -0.018582 0.000000 0.000000 0.000000
# 2 -0.011646 0.014717 -0.002508 0.000000 0.000000 0.000000
# 3 -0.018582 -0.002508 0.036590 0.000000 0.000000 0.000000
# 4 0.000000 0.000000 0.000000 0.040404 0.000000 0.000000
# 5 0.000000 0.000000 0.000000 0.000000 0.042630 0.000000
# 6 0.000000 0.000000 0.000000 0.000000 0.000000 0.039477
#
#
# Mechanical properties :
#
#
# Convention : Reuss Voigt Hill
#
# Bulk Modulus (GPa) = 47.24697 58.28144 52.76421
# Shear Modulus (GPa) = 17.75091 21.51547 19.63319
#
# Velocity S-wave (km/s) = 3.39798 3.74099 3.57360
# Velocity P-wave (km/s) = 6.79172 7.52129 7.16580
#
# Compressibility (1/GPa) = 0.02116538
#
# Stress axis : x y z
#
# Youngs Moduli (GPa) = 28.30379 67.94863 27.33023
#
# Poissons Ratio (x) = 0.79133 0.50784
# Poissons Ratio (y) = 0.32963 0.06856
# Poissons Ratio (z) = 0.52593 0.17045
#
# Static dielectric constant tensor:
#      x y z
#    x 2.954640 0.000000 0.000000 
#    y 0.000000 3.237190 0.000000 
#    z 0.000000 0.000000 2.658680 
# 
# 
# High freq. dielectric constant tensor:
#      x y z
#    x 1.580400 0.000000 0.000000 
#    y 0.000000 1.592870 0.000000 
#    z 0.000000 0.000000 1.552130 
# 
# From -- ./inp_files/17892.got.cif
#   From: 2010.03.12/outbox.cif.g09.slc.cpg/sg38_9_cif.got.tgz:17892.got - 2010.04.14 02:38:36.
