data_PCOD8178879
_publ_section_title
;
Structure prediction by ZEFSAII (Michael W. Deem and Ramdas Pophale) SiO2 
 PCOD8178879
Probable space group: A M M 2
;
_chemical_formula_sum "Si O2"
_cell_formula_units_Z 56
_cell_length_a 9.168385
_cell_length_b 23.572890
_cell_length_c 13.857900
_cell_angle_alpha 90.000000
_cell_angle_beta 90.000000
_cell_angle_gamma 90.000000
_cell_volume 2995.043226
_symmetry_space_group_name_H-M "A M M 2"
_symmetry_group_IT_number 38
_symmetry_cell_setting 'orthorhombic'
loop_
_space_group_symop_operation_xyz
x,y,z
-x,-y,z
-x,y,z
x,-y,z
x,1/2+y,1/2+z
-x,1/2-y,1/2+z
-x,1/2+y,1/2+z
x,1/2-y,1/2+z
loop_
_atom_site_type_symbol
_atom_site_label
_atom_site_fract_x
_atom_site_fract_y
_atom_site_fract_z
Si Si1 0.329444 0.839279 0.917400
Si Si2 0.671838 0.614405 0.917514
Si Si3 0.167782 0.435399 0.743975
Si Si4 0.669316 0.840348 0.137650
Si Si5 0.670969 0.771923 0.318266
Si Si6 0.332768 0.934332 0.619222
Si Si7 0.828750 0.065336 0.811718
O O1 0.500000 0.850021 0.898395
O O2 0.262343 0.788325 0.851829
O O3 0.243988 0.896944 0.894698
O O4 0.300976 0.821995 0.028342
O O5 0.500000 0.604772 0.902576
O O6 0.754476 0.571278 0.847179
O O7 0.720319 0.678325 0.891241
O O8 0.717418 0.602326 0.027377
O O9 0.183509 0.500000 0.709240
O O10 0.241074 0.396755 0.662099
O O11 0.000000 0.417565 0.755120
O O12 0.500000 0.854388 0.156504
O O13 0.717410 0.788721 0.209007
O O14 0.500000 0.763975 0.326921
O O15 0.500000 0.921480 0.646860
O O16 0.233411 0.915430 0.708326
O O17 0.310395 0.000000 0.593135
O O18 0.000000 0.075272 0.811770
O O19 0.788090 0.000000 0.832719
#
# Coordination Sequence:
#
# PCOD8178879 Si02
#       7
#     8   8   8   8   8   8   8
#     4  10  20  35  57  80 101 131 170 211 255 303
#     4   9  17  31  53  79 106 137 172 211 255 302
#     4  10  20  32  48  73 106 143 178 213 256 303
#     4   9  19  35  54  77 104 134 170 212 256 302
#     4   8  16  32  53  78 106 132 163 207 255 303
#     4   9  17  30  51  79 107 136 172 212 253 299
#     4  10  22  38  53  72 102 137 171 211 258 306
#
# _framework density 18.697559999999999
#
# number of rings (size 3 to 8) (size 9 to 14) (size 15 to 20)
#    0.000    2.714    0.000    2.143    0.000    5.429 
#    0.000   11.429    0.000    1.714    0.000    0.000 
#    0.000    0.000    0.000    0.000    0.000    0.000 
#
# Total GULP energy -347177.852666 kJ/mol
# GULP energy per Si atom -12399.209024 kJ/mol
# Density = 1.865500 g / cm^3
# Si number density = 18.697560 Si / 1000 Ang^3
#
#
#
# Elastic Constant Matrix: (Units=GPa)
#
#
# Indices 1 2 3 4 5 6 
#
# 1 62.7454 40.7624 41.0332 0.0000 0.0000 0.0000
# 2 40.7624 101.5406 61.5256 0.0000 0.0000 0.0000
# 3 41.0332 61.5256 121.5741 0.0000 0.0000 0.0000
# 4 0.0000 0.0000 0.0000 26.5438 0.0000 0.0000
# 5 0.0000 0.0000 0.0000 0.0000 16.1160 0.0000
# 6 0.0000 0.0000 0.0000 0.0000 0.0000 17.5056
#
#
#
# Elastic Compliance Matrix: (Units=1/GPa)
#
#
# Indices 1 2 3 4 5 6 
#
# 1 0.023139 -0.006572 -0.004484 0.000000 0.000000 0.000000
# 2 -0.006572 0.016070 -0.005915 0.000000 0.000000 0.000000
# 3 -0.004484 -0.005915 0.012732 0.000000 0.000000 0.000000
# 4 0.000000 0.000000 0.000000 0.037674 0.000000 0.000000
# 5 0.000000 0.000000 0.000000 0.000000 0.062050 0.000000
# 6 0.000000 0.000000 0.000000 0.000000 0.000000 0.057125
#
#
# Mechanical properties :
#
#
# Convention : Reuss Voigt Hill
#
# Bulk Modulus (GPa) = 55.55416 63.61138 59.58277
# Shear Modulus (GPa) = 20.10200 21.53567 20.81884
#
# Velocity S-wave (km/s) = 3.28245 3.39749 3.34046
# Velocity P-wave (km/s) = 6.64398 7.03460 6.84208
#
# Compressibility (1/GPa) = 0.01800045
#
# Stress axis : x y z
#
# Youngs Moduli (GPa) = 43.21652 62.22626 78.54193
#
# Poissons Ratio (x) = 0.40896 0.35217
# Poissons Ratio (y) = 0.28403 0.46454
# Poissons Ratio (z) = 0.19378 0.36804
#
# Static dielectric constant tensor:
#      x y z
#    x 3.249970 0.000000 0.000000 
#    y 0.000000 3.472820 0.000000 
#    z 0.000000 0.000000 3.475410 
# 
# 
# High freq. dielectric constant tensor:
#      x y z
#    x 1.703680 0.000000 0.000000 
#    y 0.000000 1.722350 0.000000 
#    z 0.000000 0.000000 1.726790 
# 
# From -- ./inp_files/12441.got.cif
#   From: 2010.03.12/outbox.cif.g09.slc.cpg/sg38_7_cif.got.tgz:12441.got - 2010.04.14 02:38:36.
