data_PCOD8178553
_publ_section_title
;
Structure prediction by ZEFSAII (Michael W. Deem and Ramdas Pophale) SiO2 
 PCOD8178553
Probable space group: A M M 2
;
_chemical_formula_sum "Si O2"
_cell_formula_units_Z 40
_cell_length_a 8.532783
_cell_length_b 26.088633
_cell_length_c 9.027269
_cell_angle_alpha 90.000000
_cell_angle_beta 90.000000
_cell_angle_gamma 90.000000
_cell_volume 2009.548113
_symmetry_space_group_name_H-M "A M M 2"
_symmetry_group_IT_number 38
_symmetry_cell_setting 'orthorhombic'
loop_
_space_group_symop_operation_xyz
x,y,z
-x,-y,z
-x,y,z
x,-y,z
x,1/2+y,1/2+z
-x,1/2-y,1/2+z
-x,1/2+y,1/2+z
x,1/2-y,1/2+z
loop_
_atom_site_type_symbol
_atom_site_label
_atom_site_fract_x
_atom_site_fract_y
_atom_site_fract_z
Si Si1 0.813679 0.401482 0.551960
Si Si2 0.316494 0.000000 0.889697
Si Si3 0.186733 0.800396 0.887455
Si Si4 0.185822 0.000000 0.564681
Si Si5 0.812978 0.800315 0.552796
Si Si6 0.186056 0.900356 0.385747
O O1 0.755263 0.450228 0.464086
O O2 0.749797 0.350457 0.471972
O O3 0.747159 0.402427 0.719093
O O4 0.000000 0.402156 0.552293
O O5 0.275995 0.000000 0.717874
O O6 0.500000 0.000000 0.913745
O O7 0.251606 0.800779 0.720166
O O8 0.000000 0.799945 0.887223
O O9 0.251422 0.750130 0.970530
O O10 0.241323 0.049462 0.473204
O O11 0.000000 0.000000 0.593730
O O12 0.747082 0.850178 0.468083
O O13 0.000000 0.800628 0.552859
O O14 0.000000 0.897868 0.380591
#
# Coordination Sequence:
#
# PCOD8178553 Si02
#       6
#     8   4   8   4   8   8
#     4  10  19  34  55  78 102 134 172 212 255 304
#     4  12  25  38  52  74 102 134 169 212 260 310
#     4   9  16  25  43  71 106 140 169 204 250 297
#     4  10  19  34  54  76 102 136 173 212 254 302
#     4   9  15  24  39  70 110 140 166 205 252 296
#     4   9  17  29  50  78 107 135 170 213 256 299
#
# _framework density 19.904972999999998
#
# number of rings (size 3 to 8) (size 9 to 14) (size 15 to 20)
#    0.000    2.400    0.000    3.900    0.000    9.600 
#    0.000    2.000    0.000    0.000    0.000   12.600 
#    0.000    0.000    0.000    0.000    0.000    0.000 
#
# Total GULP energy -248016.118705 kJ/mol
# GULP energy per Si atom -12400.805935 kJ/mol
# Density = 1.985967 g / cm^3
# Si number density = 19.904973 Si / 1000 Ang^3
#
#
#
# Elastic Constant Matrix: (Units=GPa)
#
#
# Indices 1 2 3 4 5 6 
#
# 1 4.2626 4.9416 2.3110 0.0000 0.0000 0.0000
# 2 4.9416 217.8112 107.3359 0.0000 0.0000 0.0000
# 3 2.3110 107.3359 201.3218 0.0000 0.0000 0.0000
# 4 0.0000 0.0000 0.0000 51.0996 0.0000 0.0000
# 5 0.0000 0.0000 0.0000 0.0000 1.8168 0.0000
# 6 0.0000 0.0000 0.0000 0.0000 0.0000 -2.3726
#
#
#
# Elastic Compliance Matrix: (Units=1/GPa)
#
#
# Indices 1 2 3 4 5 6 
#
# 1 0.240943 -0.005566 0.000202 0.000000 0.000000 0.000000
# 2 -0.005566 0.006356 -0.003325 0.000000 0.000000 0.000000
# 3 0.000202 -0.003325 0.006737 0.000000 0.000000 0.000000
# 4 0.000000 0.000000 0.000000 0.019570 0.000000 0.000000
# 5 0.000000 0.000000 0.000000 0.000000 0.550410 0.000000
# 6 0.000000 0.000000 0.000000 0.000000 0.000000 -0.421479
#
#
# Mechanical properties :
#
#
# Convention : Reuss Voigt Hill
#
# Bulk Modulus (GPa) = 4.22549 72.50806 38.36678
# Shear Modulus (GPa) = 10.02403 30.69591 20.35997
#
# Velocity S-wave (km/s) = 2.24652 3.93125 3.20169
# Velocity P-wave (km/s) = 2.97601 7.55728 5.74322
#
# Compressibility (1/GPa) = 0.23665869
#
# Stress axis : x y z
#
# Youngs Moduli (GPa) = 4.15036 157.33609 148.42361
#
# Poissons Ratio (x) = 0.87569 -0.02991
# Poissons Ratio (y) = 0.02310 0.49347
# Poissons Ratio (z) = -0.00084 0.52310
#
# Static dielectric constant tensor:
#      x y z
#    x 2.834310 0.000000 0.000000 
#    y 0.000000 3.893330 0.000000 
#    z 0.000000 0.000000 3.941690 
# 
# 
# High freq. dielectric constant tensor:
#      x y z
#    x 1.697840 0.000000 0.000000 
#    y 0.000000 1.798820 0.000000 
#    z 0.000000 0.000000 1.799020 
# 
# From -- ./inp_files/3516.got.cif
#   From: 2010.03.12/outbox.cif.g09.slc.cpg/sg38_2_cif.got.tgz:3516.got - 2010.04.14 02:38:36.
