data_PCOD8178397
_publ_section_title
;
Structure prediction by ZEFSAII (Michael W. Deem and Ramdas Pophale) SiO2 
 PCOD8178397
Probable space group: A M M 2
;
_chemical_formula_sum "Si O2"
_cell_formula_units_Z 64
_cell_length_a 8.793887
_cell_length_b 23.165099
_cell_length_c 19.141191
_cell_angle_alpha 90.000000
_cell_angle_beta 90.000000
_cell_angle_gamma 90.000000
_cell_volume 3899.276193
_symmetry_space_group_name_H-M "A M M 2"
_symmetry_group_IT_number 38
_symmetry_cell_setting 'orthorhombic'
loop_
_space_group_symop_operation_xyz
x,y,z
-x,-y,z
-x,y,z
x,-y,z
x,1/2+y,1/2+z
-x,1/2-y,1/2+z
-x,1/2+y,1/2+z
x,1/2-y,1/2+z
loop_
_atom_site_type_symbol
_atom_site_label
_atom_site_fract_x
_atom_site_fract_y
_atom_site_fract_z
Si Si1 0.321679 0.333638 0.028950
Si Si2 0.822941 0.565571 0.105936
Si Si3 0.679574 0.749738 0.744037
Si Si4 0.675670 0.433623 0.378636
Si Si5 0.321889 0.230313 0.395430
Si Si6 0.322801 0.162791 0.983354
Si Si7 0.176789 0.126570 0.749711
Si Si8 0.820843 0.225073 0.103747
O O1 0.500000 0.326747 0.041751
O O2 0.267400 0.397282 0.048709
O O3 0.240206 0.286529 0.077132
O O4 0.280522 0.322676 0.947098
O O5 0.766509 0.500000 0.098702
O O6 0.785869 0.586457 0.183758
O O7 0.000000 0.571382 0.089232
O O8 0.500000 0.742997 0.734617
O O9 0.741723 0.721899 0.816998
O O10 0.720206 0.817126 0.743698
O O11 0.762092 0.715123 0.682287
O O12 0.500000 0.424517 0.356696
O O13 0.714588 0.500000 0.392890
O O14 0.709685 0.400071 0.451099
O O15 0.782529 0.409976 0.317935
O O16 0.500000 0.238237 0.387472
O O17 0.258567 0.289698 0.428757
O O18 0.500000 0.173217 0.998538
O O19 0.235405 0.171506 0.056460
O O20 0.000000 0.144301 0.751827
O O21 0.000000 0.227497 0.103640
#
# Coordination Sequence:
#
# PCOD8178397 Si02
#       8
#     8   8   8   8   8   8   8   8
#     4  10  19  33  51  71  93 125 164 204 244 287
#     4  10  21  35  48  66  98 136 168 201 239 281
#     4  11  19  32  52  73  97 131 164 201 246 292
#     4  10  20  34  52  72  97 132 174 212 244 286
#     4   8  16  30  49  70  94 121 156 200 244 285
#     4   9  17  33  50  69  95 128 166 204 244 289
#     4  11  21  32  46  69 102 137 170 203 238 284
#     4  11  21  32  47  72 100 127 160 201 249 300
#
# _framework density 16.413301000000001
#
# number of rings (size 3 to 8) (size 9 to 14) (size 15 to 20)
#    0.000    2.000    2.500    3.375    0.000    2.000 
#    0.000    1.875    0.000    0.000    0.000    0.875 
#    0.000    3.000    0.000    0.000    0.000    0.000 
#
# Total GULP energy -396772.548475 kJ/mol
# GULP energy per Si atom -12399.142140 kJ/mol
# Density = 1.637594 g / cm^3
# Si number density = 16.413301 Si / 1000 Ang^3
#
#
#
# Elastic Constant Matrix: (Units=GPa)
#
#
# Indices 1 2 3 4 5 6 
#
# 1 70.2440 29.2396 47.3016 0.0000 0.0000 0.0000
# 2 29.2396 70.6650 51.2905 0.0000 0.0000 0.0000
# 3 47.3016 51.2905 137.4279 0.0000 0.0000 0.0000
# 4 0.0000 0.0000 0.0000 24.2316 0.0000 0.0000
# 5 0.0000 0.0000 0.0000 0.0000 17.7912 0.0000
# 6 0.0000 0.0000 0.0000 0.0000 0.0000 18.9068
#
#
#
# Elastic Compliance Matrix: (Units=1/GPa)
#
#
# Indices 1 2 3 4 5 6 
#
# 1 0.019471 -0.004378 -0.005068 0.000000 0.000000 0.000000
# 2 -0.004378 0.020394 -0.006104 0.000000 0.000000 0.000000
# 3 -0.005068 -0.006104 0.011299 0.000000 0.000000 0.000000
# 4 0.000000 0.000000 0.000000 0.041268 0.000000 0.000000
# 5 0.000000 0.000000 0.000000 0.000000 0.056207 0.000000
# 6 0.000000 0.000000 0.000000 0.000000 0.000000 0.052891
#
#
# Mechanical properties :
#
#
# Convention : Reuss Voigt Hill
#
# Bulk Modulus (GPa) = 49.84294 59.33337 54.58815
# Shear Modulus (GPa) = 20.89259 22.21960 21.55610
#
# Velocity S-wave (km/s) = 3.57165 3.68333 3.62792
# Velocity P-wave (km/s) = 6.88783 7.37003 7.13301
#
# Compressibility (1/GPa) = 0.02006302
#
# Stress axis : x y z
#
# Youngs Moduli (GPa) = 51.35783 49.03501 88.50328
#
# Poissons Ratio (x) = 0.21470 0.44851
# Poissons Ratio (y) = 0.22487 0.54024
# Poissons Ratio (z) = 0.26027 0.29932
#
# Static dielectric constant tensor:
#      x y z
#    x 3.024420 0.000000 0.000000 
#    y 0.000000 2.957000 0.000000 
#    z 0.000000 0.000000 3.389260 
# 
# 
# High freq. dielectric constant tensor:
#      x y z
#    x 1.629360 0.000000 0.000000 
#    y 0.000000 1.600590 0.000000 
#    z 0.000000 0.000000 1.633360 
# 
# From -- ./inp_files/17265.got.cif
#   From: 2010.03.12/outbox.cif.g09.slc.cpg/sg38_9_cif.got.tgz:17265.got - 2010.04.14 02:38:36.
