data_PCOD8178168
_publ_section_title
;
Structure prediction by ZEFSAII (Michael W. Deem and Ramdas Pophale) SiO2 
 PCOD8178168
Probable space group: A M M 2
;
_chemical_formula_sum "Si O2"
_cell_formula_units_Z 64
_cell_length_a 8.989521
_cell_length_b 20.763283
_cell_length_c 19.529199
_cell_angle_alpha 90.000000
_cell_angle_beta 90.000000
_cell_angle_gamma 90.000000
_cell_volume 3645.163438
_symmetry_space_group_name_H-M "A M M 2"
_symmetry_group_IT_number 38
_symmetry_cell_setting 'orthorhombic'
loop_
_space_group_symop_operation_xyz
x,y,z
-x,-y,z
-x,y,z
x,-y,z
x,1/2+y,1/2+z
-x,1/2-y,1/2+z
-x,1/2+y,1/2+z
x,1/2-y,1/2+z
loop_
_atom_site_type_symbol
_atom_site_label
_atom_site_fract_x
_atom_site_fract_y
_atom_site_fract_z
Si Si1 0.670813 0.927836 0.676160
Si Si2 0.671890 0.262336 0.543078
Si Si3 0.176645 0.725137 0.406787
Si Si4 0.174709 0.871258 0.400999
Si Si5 0.823335 0.071507 0.262879
Si Si6 0.675679 0.312131 0.272228
Si Si7 0.175625 0.127126 0.551352
Si Si8 0.670212 0.314337 0.689977
O O1 0.500000 0.913539 0.656960
O O2 0.726244 0.876122 0.731659
O O3 0.767143 0.923220 0.607108
O O4 0.690805 0.000000 0.705924
O O5 0.500000 0.250283 0.524774
O O6 0.753750 0.297157 0.479325
O O7 0.746853 0.195262 0.563437
O O8 0.688763 0.307861 0.608727
O O9 0.232142 0.798145 0.394694
O O10 0.240906 0.683072 0.344756
O O11 0.000000 0.717873 0.410426
O O12 0.241760 0.913235 0.339050
O O13 0.217959 0.899744 0.475499
O O14 0.000000 0.870159 0.392714
O O15 0.764045 0.123202 0.209401
O O16 0.000000 0.075152 0.262683
O O17 0.768771 0.000000 0.242291
O O18 0.500000 0.311525 0.284666
O O19 0.728450 0.249412 0.229554
O O20 0.000000 0.137266 0.557955
O O21 0.500000 0.326085 0.710429
#
# Coordination Sequence:
#
# PCOD8178168 Si02
#       8
#     8   8   8   8   8   8   8   8
#     4  10  21  37  54  74 106 145 183 223 267 320
#     4  10  19  34  54  78 108 140 173 217 266 315
#     4  10  19  32  52  81 108 135 171 217 267 315
#     4   8  16  30  46  70 103 137 172 205 248 305
#     4  10  20  34  52  74 104 142 178 215 263 314
#     4  10  19  34  54  78 103 137 180 221 266 314
#     4  10  19  31  50  77 108 141 179 220 258 309
#     4  10  20  34  54  78 104 136 178 223 261 303
#
# _framework density 17.557511999999999
#
# number of rings (size 3 to 8) (size 9 to 14) (size 15 to 20)
#    0.000    2.250    2.500    1.875    0.000    2.500 
#    0.000    1.875    0.000    0.750    0.000    1.750 
#    0.000    0.000    0.000    0.000    0.000    0.000 
#
# Total GULP energy -396743.594055 kJ/mol
# GULP energy per Si atom -12398.237314 kJ/mol
# Density = 1.751755 g / cm^3
# Si number density = 17.557512 Si / 1000 Ang^3
#
#
#
# Elastic Constant Matrix: (Units=GPa)
#
#
# Indices 1 2 3 4 5 6 
#
# 1 63.0069 35.0117 42.9358 0.0000 0.0000 0.0000
# 2 35.0117 103.6414 55.1566 0.0000 0.0000 0.0000
# 3 42.9358 55.1566 115.4827 0.0000 0.0000 0.0000
# 4 0.0000 0.0000 0.0000 23.2076 0.0000 0.0000
# 5 0.0000 0.0000 0.0000 0.0000 30.8644 0.0000
# 6 0.0000 0.0000 0.0000 0.0000 0.0000 21.0787
#
#
#
# Elastic Compliance Matrix: (Units=1/GPa)
#
#
# Indices 1 2 3 4 5 6 
#
# 1 0.022562 -0.004234 -0.006366 0.000000 0.000000 0.000000
# 2 -0.004234 0.013731 -0.004984 0.000000 0.000000 0.000000
# 3 -0.006366 -0.004984 0.013407 0.000000 0.000000 0.000000
# 4 0.000000 0.000000 0.000000 0.043089 0.000000 0.000000
# 5 0.000000 0.000000 0.000000 0.000000 0.032400 0.000000
# 6 0.000000 0.000000 0.000000 0.000000 0.000000 0.047441
#
#
# Mechanical properties :
#
#
# Convention : Reuss Voigt Hill
#
# Bulk Modulus (GPa) = 53.96169 60.92659 57.44414
# Shear Modulus (GPa) = 23.81214 24.96529 24.38872
#
# Velocity S-wave (km/s) = 3.68671 3.77492 3.73107
# Velocity P-wave (km/s) = 6.99453 7.33325 7.16589
#
# Compressibility (1/GPa) = 0.01853167
#
# Stress axis : x y z
#
# Youngs Moduli (GPa) = 44.32185 72.82543 74.58860
#
# Poissons Ratio (x) = 0.30833 0.47486
# Poissons Ratio (y) = 0.18765 0.37177
# Poissons Ratio (z) = 0.28217 0.36298
#
# Static dielectric constant tensor:
#      x y z
#    x 3.165600 0.000000 0.000000 
#    y 0.000000 3.095030 0.000000 
#    z 0.000000 0.000000 3.410510 
# 
# 
# High freq. dielectric constant tensor:
#      x y z
#    x 1.671320 0.000000 0.000000 
#    y 0.000000 1.650190 0.000000 
#    z 0.000000 0.000000 1.684280 
# 
# From -- ./inp_files/17219.got.cif
#   From: 2010.03.12/outbox.cif.g09.slc.cpg/sg38_9_cif.got.tgz:17219.got - 2010.04.14 02:38:36.
