data_PCOD8178149
_publ_section_title
;
Structure prediction by ZEFSAII (Michael W. Deem and Ramdas Pophale) SiO2 
 PCOD8178149
Probable space group: A M M 2
;
_chemical_formula_sum "Si O2"
_cell_formula_units_Z 64
_cell_length_a 9.474176
_cell_length_b 15.651607
_cell_length_c 23.219256
_cell_angle_alpha 90.000000
_cell_angle_beta 90.000000
_cell_angle_gamma 90.000000
_cell_volume 3443.092439
_symmetry_space_group_name_H-M "A M M 2"
_symmetry_group_IT_number 38
_symmetry_cell_setting 'orthorhombic'
loop_
_space_group_symop_operation_xyz
x,y,z
-x,-y,z
-x,y,z
x,-y,z
x,1/2+y,1/2+z
-x,1/2-y,1/2+z
-x,1/2+y,1/2+z
x,1/2-y,1/2+z
loop_
_atom_site_type_symbol
_atom_site_label
_atom_site_fract_x
_atom_site_fract_y
_atom_site_fract_z
Si Si1 0.165854 0.099653 0.105050
Si Si2 0.332883 0.595476 0.075228
Si Si3 0.666376 0.729029 0.524092
Si Si4 0.336078 0.235526 0.892719
Si Si5 0.347733 0.402321 0.200715
Si Si6 0.340568 0.407885 0.837096
Si Si7 0.839244 0.358963 0.734050
Si Si8 0.161295 0.176471 0.789633
O O1 0.215612 0.124583 0.169488
O O2 0.000000 0.117906 0.097269
O O3 0.200469 0.000000 0.093230
O O4 0.250907 0.158823 0.060902
O O5 0.500000 0.587679 0.071142
O O6 0.269204 0.500000 0.060047
O O7 0.288013 0.629078 0.138988
O O8 0.280357 0.672998 0.034360
O O9 0.500000 0.721136 0.537757
O O10 0.699259 0.709108 0.457547
O O11 0.500000 0.219078 0.878650
O O12 0.293997 0.334892 0.881993
O O13 0.240255 0.179131 0.850648
O O14 0.500000 0.357535 0.215781
O O15 0.380283 0.500000 0.190523
O O16 0.234610 0.395264 0.251350
O O17 0.500000 0.390577 0.817051
O O18 0.326099 0.500000 0.868560
O O19 0.249687 0.413222 0.779168
O O20 0.821667 0.260563 0.751036
O O21 0.000000 0.389931 0.739042
O O22 0.000000 0.152565 0.801801
#
# Coordination Sequence:
#
# PCOD8178149 Si02
#       8
#     8   8   8   8   8   8   8   8
#     4  10  21  36  53  73 100 135 170 207 256 306
#     4   8  15  29  51  80 109 134 162 197 243 302
#     4  10  20  34  54  77 100 132 173 213 248 286
#     4   9  19  34  49  68  97 131 165 201 244 292
#     4   9  17  30  49  73 101 130 157 191 242 300
#     4   9  17  29  47  73 102 129 158 195 239 288
#     4   9  18  32  50  73 100 129 160 195 243 303
#     4  10  19  31  50  74  97 125 162 203 245 289
#
# _framework density 18.58794
#
# number of rings (size 3 to 8) (size 9 to 14) (size 15 to 20)
#    0.000    2.750    0.000    2.250    0.000    3.250 
#    0.000    3.125    0.000    1.875    0.000    1.750 
#    0.000    0.000    0.000    0.000    0.000    0.000 
#
# Total GULP energy -396540.039944 kJ/mol
# GULP energy per Si atom -12391.876248 kJ/mol
# Density = 1.854563 g / cm^3
# Si number density = 18.587940 Si / 1000 Ang^3
#
#
#
# Elastic Constant Matrix: (Units=GPa)
#
#
# Indices 1 2 3 4 5 6 
#
# 1 61.6541 20.8509 43.8051 0.0000 0.0000 0.0000
# 2 20.8509 55.5217 33.7826 0.0000 0.0000 0.0000
# 3 43.8051 33.7826 102.2853 0.0000 0.0000 0.0000
# 4 0.0000 0.0000 0.0000 20.2458 0.0000 0.0000
# 5 0.0000 0.0000 0.0000 0.0000 24.3903 0.0000
# 6 0.0000 0.0000 0.0000 0.0000 0.0000 20.3185
#
#
#
# Elastic Compliance Matrix: (Units=1/GPa)
#
#
# Indices 1 2 3 4 5 6 
#
# 1 0.023823 -0.003428 -0.009071 0.000000 0.000000 0.000000
# 2 -0.003428 0.023034 -0.006140 0.000000 0.000000 0.000000
# 3 -0.009071 -0.006140 0.015689 0.000000 0.000000 0.000000
# 4 0.000000 0.000000 0.000000 0.049393 0.000000 0.000000
# 5 0.000000 0.000000 0.000000 0.000000 0.041000 0.000000
# 6 0.000000 0.000000 0.000000 0.000000 0.000000 0.049216
#
#
# Mechanical properties :
#
#
# Convention : Reuss Voigt Hill
#
# Bulk Modulus (GPa) = 39.57192 46.25981 42.91587
# Shear Modulus (GPa) = 20.17311 21.05909 20.61610
#
# Velocity S-wave (km/s) = 3.29793 3.36957 3.33395
# Velocity P-wave (km/s) = 5.98641 6.33086 6.16104
#
# Compressibility (1/GPa) = 0.02527044
#
# Stress axis : x y z
#
# Youngs Moduli (GPa) = 41.97554 43.41419 63.73896
#
# Poissons Ratio (x) = 0.14881 0.57815
# Poissons Ratio (y) = 0.14388 0.39134
# Poissons Ratio (z) = 0.38074 0.26655
#
# Static dielectric constant tensor:
#      x y z
#    x 3.258510 0.000000 0.000000 
#    y 0.000000 3.401380 0.000000 
#    z 0.000000 0.000000 3.363850 
# 
# 
# High freq. dielectric constant tensor:
#      x y z
#    x 1.701770 0.000000 0.000000 
#    y 0.000000 1.716500 0.000000 
#    z 0.000000 0.000000 1.714340 
# 
# From -- ./inp_files/20102.got.cif
#   From: 2010.03.12/outbox.cif.g09.slc.cpg/sg38_11_cif.got.tgz:20102.got - 2010.04.14 02:38:36.
