data_PCOD8178511
_publ_section_title
;
Structure prediction by ZEFSAII (Michael W. Deem and Ramdas Pophale) SiO2 
 PCOD8178511
Probable space group: A M M 2
;
_chemical_formula_sum "Si O2"
_cell_formula_units_Z 64
_cell_length_a 13.562675
_cell_length_b 12.362969
_cell_length_c 20.042259
_cell_angle_alpha 90.000000
_cell_angle_beta 90.000000
_cell_angle_gamma 90.000000
_cell_volume 3360.584387
_symmetry_space_group_name_H-M "A M M 2"
_symmetry_group_IT_number 38
_symmetry_cell_setting 'orthorhombic'
loop_
_space_group_symop_operation_xyz
x,y,z
-x,-y,z
-x,y,z
x,-y,z
x,1/2+y,1/2+z
-x,1/2-y,1/2+z
-x,1/2+y,1/2+z
x,1/2-y,1/2+z
loop_
_atom_site_type_symbol
_atom_site_label
_atom_site_fract_x
_atom_site_fract_y
_atom_site_fract_z
Si Si1 0.112497 0.731867 0.747180
Si Si2 0.706484 0.874878 0.766510
Si Si3 0.389302 0.124202 0.907283
Si Si4 0.605666 0.882598 0.549223
Si Si5 0.200499 0.375810 0.621401
Si Si6 0.607494 0.281742 0.667691
Si Si7 0.759941 0.746949 0.989882
Si Si8 0.884758 0.877452 0.385083
O O1 0.181513 0.837754 0.751976
O O2 0.125644 0.669521 0.677081
O O3 0.139156 0.652042 0.808366
O O4 0.000000 0.772163 0.752235
O O5 0.677132 0.857629 0.842580
O O6 0.631356 0.798066 0.728032
O O7 0.695388 0.000000 0.744828
O O8 0.500000 0.175186 0.900920
O O9 0.326726 0.172789 0.967356
O O10 0.402385 0.000000 0.924086
O O11 0.500000 0.877989 0.510010
O O12 0.604621 0.790225 0.602931
O O13 0.701632 0.864619 0.503937
O O14 0.617601 0.000000 0.583227
O O15 0.174752 0.500000 0.603967
O O16 0.309573 0.372147 0.654861
O O17 0.188781 0.302206 0.554625
O O18 0.500000 0.335796 0.680465
O O19 0.838593 0.713394 0.933945
O O20 0.000000 0.872594 0.399260
O O21 0.845726 0.000000 0.397787
#
# Coordination Sequence:
#
# PCOD8178511 Si02
#       8
#     8   8   8   8   8   8   8   8
#     4  10  21  40  62  84 110 145 193 242 289 346
#     4  10  19  33  55  84 115 147 185 230 283 340
#     4  10  20  33  52  80 115 154 190 226 273 333
#     4   9  17  29  47  73 104 141 183 223 271 330
#     4  10  22  37  57  83 114 152 193 238 287 340
#     4   9  18  32  52  78 110 148 188 232 275 326
#     4  11  20  35  54  81 115 147 187 235 284 342
#     4  10  21  38  61  84 107 143 191 242 294 346
#
# _framework density 19.044305999999999
#
# number of rings (size 3 to 8) (size 9 to 14) (size 15 to 20)
#    0.000    2.125    1.250    2.250    0.000    3.500 
#    0.000    0.625    0.000    1.125    0.000    0.000 
#    0.000    0.000    0.000    0.000    0.000    0.000 
#
# Total GULP energy -396529.922226 kJ/mol
# GULP energy per Si atom -12391.560070 kJ/mol
# Density = 1.900096 g / cm^3
# Si number density = 19.044306 Si / 1000 Ang^3
#
#
#
# Elastic Constant Matrix: (Units=GPa)
#
#
# Indices 1 2 3 4 5 6 
#
# 1 73.0132 13.4272 27.7809 0.0000 0.0000 0.0000
# 2 13.4272 58.9710 35.9991 0.0000 0.0000 0.0000
# 3 27.7809 35.9991 92.9675 0.0000 0.0000 0.0000
# 4 0.0000 0.0000 0.0000 -9.6322 0.0000 0.0000
# 5 0.0000 0.0000 0.0000 0.0000 26.2006 0.0000
# 6 0.0000 0.0000 0.0000 0.0000 0.0000 24.9379
#
#
#
# Elastic Compliance Matrix: (Units=1/GPa)
#
#
# Indices 1 2 3 4 5 6 
#
# 1 0.015491 -0.000918 -0.004273 0.000000 0.000000 0.000000
# 2 -0.000918 0.022261 -0.008346 0.000000 0.000000 0.000000
# 3 -0.004273 -0.008346 0.015265 0.000000 0.000000 0.000000
# 4 0.000000 0.000000 0.000000 -0.103818 0.000000 0.000000
# 5 0.000000 0.000000 0.000000 0.000000 0.038167 0.000000
# 6 0.000000 0.000000 0.000000 0.000000 0.000000 0.040100
#
#
# Mechanical properties :
#
#
# Convention : Reuss Voigt Hill
#
# Bulk Modulus (GPa) = 38.54699 42.15179 40.34939
# Shear Modulus (GPa) = 79.12881 18.15089 48.63985
#
# Velocity S-wave (km/s) = 6.45291 3.09056 5.05923
# Velocity P-wave (km/s) = 8.70659 5.90906 7.44049
#
# Compressibility (1/GPa) = 0.02594236
#
# Stress axis : x y z
#
# Youngs Moduli (GPa) = 64.55332 44.92121 65.50914
#
# Poissons Ratio (x) = 0.04126 0.27995
# Poissons Ratio (y) = 0.05929 0.54671
# Poissons Ratio (z) = 0.27587 0.37489
#
# Static dielectric constant tensor:
#      x y z
#    x 3.825600 0.000000 0.000000 
#    y 0.000000 3.379620 0.000000 
#    z 0.000000 0.000000 3.566170 
# 
# 
# High freq. dielectric constant tensor:
#      x y z
#    x 1.742730 0.000000 0.000000 
#    y 0.000000 1.730410 0.000000 
#    z 0.000000 0.000000 1.737580 
# 
# From -- ./inp_files/18450.got.cif
#   From: 2010.03.12/outbox.cif.g09.slc.cpg/sg38_10_cif.got.tgz:18450.got - 2010.04.14 02:38:36.
