data_PCOD8178807
_publ_section_title
;
Structure prediction by ZEFSAII (Michael W. Deem and Ramdas Pophale) SiO2 
 PCOD8178807
Probable space group: A M M 2
;
_chemical_formula_sum "Si O2"
_cell_formula_units_Z 56
_cell_length_a 14.230599
_cell_length_b 7.762495
_cell_length_c 29.148157
_cell_angle_alpha 90.000000
_cell_angle_beta 90.000000
_cell_angle_gamma 90.000000
_cell_volume 3219.849810
_symmetry_space_group_name_H-M "A M M 2"
_symmetry_group_IT_number 38
_symmetry_cell_setting 'orthorhombic'
loop_
_space_group_symop_operation_xyz
x,y,z
-x,-y,z
-x,y,z
x,-y,z
x,1/2+y,1/2+z
-x,1/2-y,1/2+z
-x,1/2+y,1/2+z
x,1/2-y,1/2+z
loop_
_atom_site_type_symbol
_atom_site_label
_atom_site_fract_x
_atom_site_fract_y
_atom_site_fract_z
Si Si1 0.110464 0.199486 0.597920
Si Si2 0.784678 0.806722 0.508631
Si Si3 0.203788 0.202242 0.825373
Si Si4 0.112331 0.500000 0.767668
Si Si5 0.396065 0.295956 0.363383
Si Si6 0.889057 0.000000 0.163828
Si Si7 0.398996 0.698749 0.464738
Si Si8 0.893387 0.699266 0.421632
O O1 0.160959 0.272556 0.552083
O O2 0.145367 0.324637 0.638755
O O3 0.000000 0.218421 0.589019
O O4 0.135427 0.000000 0.609730
O O5 0.682900 0.722727 0.501575
O O6 0.847220 0.801394 0.463152
O O7 0.763449 0.000000 0.521731
O O8 0.151749 0.323923 0.789344
O O9 0.313457 0.261302 0.828481
O O10 0.159755 0.238454 0.874854
O O11 0.191467 0.000000 0.811477
O O12 0.149112 0.500000 0.715493
O O13 0.000000 0.500000 0.771976
O O14 0.500000 0.234508 0.346353
O O15 0.391857 0.500000 0.365719
O O16 0.375828 0.219554 0.414548
O O17 0.000000 0.000000 0.164889
O O18 0.500000 0.773070 0.482633
O O19 0.411628 0.500000 0.455608
O O20 0.886368 0.500000 0.434663
O O21 0.000000 0.761507 0.415641
#
# Coordination Sequence:
#
# PCOD8178807 Si02
#       8
#     8   8   8   4   8   4   8   8
#     4   9  19  35  53  77 106 132 169 217 264 315
#     4  11  21  30  46  73 103 136 171 212 260 306
#     4  10  20  35  52  74 107 142 177 216 261 316
#     4  11  24  38  55  79 105 137 184 226 270 322
#     4   8  14  28  50  72  99 139 181 219 258 304
#     4   9  20  38  58  77  97 133 175 226 277 308
#     4   9  17  30  47  67  96 136 178 213 246 295
#     4  10  20  31  44  66 101 145 180 202 240 303
#
# _framework density 17.392115
#
# number of rings (size 3 to 8) (size 9 to 14) (size 15 to 20)
#    0.000    2.429    1.429    2.143    3.000    2.571 
#    0.000    1.786    0.000    0.000    0.000    2.000 
#    0.000    2.286    0.000    0.000    0.000    0.000 
#
# Total GULP energy -346952.098205 kJ/mol
# GULP energy per Si atom -12391.146364 kJ/mol
# Density = 1.735253 g / cm^3
# Si number density = 17.392115 Si / 1000 Ang^3
#
#
#
# Elastic Constant Matrix: (Units=GPa)
#
#
# Indices 1 2 3 4 5 6 
#
# 1 121.6494 33.0649 50.2348 0.0000 0.0000 0.0000
# 2 33.0649 69.2377 48.9553 0.0000 0.0000 0.0000
# 3 50.2348 48.9553 109.8113 0.0000 0.0000 0.0000
# 4 0.0000 0.0000 0.0000 22.4542 0.0000 0.0000
# 5 0.0000 0.0000 0.0000 0.0000 9.3105 0.0000
# 6 0.0000 0.0000 0.0000 0.0000 0.0000 11.0380
#
#
#
# Elastic Compliance Matrix: (Units=1/GPa)
#
#
# Indices 1 2 3 4 5 6 
#
# 1 0.010388 -0.002338 -0.003710 0.000000 0.000000 0.000000
# 2 -0.002338 0.021617 -0.008568 0.000000 0.000000 0.000000
# 3 -0.003710 -0.008568 0.014623 0.000000 0.000000 0.000000
# 4 0.000000 0.000000 0.000000 0.044535 0.000000 0.000000
# 5 0.000000 0.000000 0.000000 0.000000 0.107406 0.000000
# 6 0.000000 0.000000 0.000000 0.000000 0.000000 0.090596
#
#
# Mechanical properties :
#
#
# Convention : Reuss Voigt Hill
#
# Bulk Modulus (GPa) = 57.47911 62.80093 60.14002
# Shear Modulus (GPa) = 15.42282 19.79012 17.60647
#
# Velocity S-wave (km/s) = 2.98110 3.37691 3.18516
# Velocity P-wave (km/s) = 6.70597 7.16881 6.94125
#
# Compressibility (1/GPa) = 0.01739762
#
# Stress axis : x y z
#
# Youngs Moduli (GPa) = 96.26778 46.25907 68.38376
#
# Poissons Ratio (x) = 0.10814 0.25369
# Poissons Ratio (y) = 0.22504 0.58591
# Poissons Ratio (z) = 0.35714 0.39634
#
# Static dielectric constant tensor:
#      x y z
#    x 3.714120 0.000000 0.000000 
#    y 0.000000 3.199940 0.000000 
#    z 0.000000 0.000000 3.193090 
# 
# 
# High freq. dielectric constant tensor:
#      x y z
#    x 1.674070 0.000000 0.000000 
#    y 0.000000 1.670030 0.000000 
#    z 0.000000 0.000000 1.631720 
# 
# From -- ./inp_files/25010.got.cif
#   From: 2010.03.12/outbox.cif.g09.slc.cpg/sg38_13_cif.got.tgz:25010.got - 2010.04.14 02:38:36.
