data_PCOD8178326
_publ_section_title
;
Structure prediction by ZEFSAII (Michael W. Deem and Ramdas Pophale) SiO2 
 PCOD8178326
Probable space group: A M M 2
;
_chemical_formula_sum "Si O2"
_cell_formula_units_Z 64
_cell_length_a 8.883590
_cell_length_b 20.626037
_cell_length_c 19.553414
_cell_angle_alpha 90.000000
_cell_angle_beta 90.000000
_cell_angle_gamma 90.000000
_cell_volume 3582.835714
_symmetry_space_group_name_H-M "A M M 2"
_symmetry_group_IT_number 38
_symmetry_cell_setting 'orthorhombic'
loop_
_space_group_symop_operation_xyz
x,y,z
-x,-y,z
-x,y,z
x,-y,z
x,1/2+y,1/2+z
-x,1/2-y,1/2+z
-x,1/2+y,1/2+z
x,1/2-y,1/2+z
loop_
_atom_site_type_symbol
_atom_site_label
_atom_site_fract_x
_atom_site_fract_y
_atom_site_fract_z
Si Si1 0.827247 0.426590 0.207310
Si Si2 0.827453 0.191148 0.214935
Si Si3 0.323393 0.687082 0.287822
Si Si4 0.321960 0.119839 0.575654
Si Si5 0.172653 0.256602 0.569240
Si Si6 0.322393 0.427258 0.784693
Si Si7 0.677419 0.123587 0.425907
Si Si8 0.675836 0.270216 0.434970
O O1 0.811031 0.500000 0.234454
O O2 0.738774 0.379666 0.257995
O O3 0.761281 0.424097 0.130943
O O4 0.000000 0.404132 0.205102
O O5 0.747121 0.250707 0.251910
O O6 0.811016 0.195593 0.133269
O O7 0.755702 0.122559 0.233936
O O8 0.000000 0.192550 0.238073
O O9 0.500000 0.690834 0.274341
O O10 0.287184 0.686144 0.368879
O O11 0.500000 0.114072 0.586693
O O12 0.275536 0.194458 0.584693
O O13 0.271451 0.095531 0.499809
O O14 0.231783 0.294286 0.501501
O O15 0.000000 0.234811 0.559053
O O16 0.500000 0.414545 0.782550
O O17 0.282147 0.500000 0.761265
O O18 0.259191 0.417503 0.862224
O O19 0.500000 0.121456 0.423541
O O20 0.731213 0.197572 0.417634
O O21 0.500000 0.271893 0.453275
#
# Coordination Sequence:
#
# PCOD8178326 Si02
#       8
#     8   8   8   8   8   8   8   8
#     4  11  24  39  53  76 113 150 184 226 277 333
#     4  11  22  35  54  81 112 144 181 224 272 324
#     4  11  21  36  60  84 107 139 184 231 273 323
#     4  10  19  32  53  78 107 145 187 227 264 314
#     4  10  20  33  52  80 112 143 177 222 274 324
#     4  10  20  35  55  78 107 145 186 227 270 318
#     4   8  15  30  49  75 108 139 177 220 265 313
#     4   9  18  33  54  81 109 137 175 224 274 323
#
# _framework density 17.862946000000001
#
# number of rings (size 3 to 8) (size 9 to 14) (size 15 to 20)
#    0.000    2.000    2.500    2.625    0.000    4.250 
#    0.000    1.875    0.000    0.750    0.000    0.000 
#    0.000    0.000    0.000    0.000    0.000    0.000 
#
# Total GULP energy -396736.396354 kJ/mol
# GULP energy per Si atom -12398.012386 kJ/mol
# Density = 1.782229 g / cm^3
# Si number density = 17.862946 Si / 1000 Ang^3
#
#
#
# Elastic Constant Matrix: (Units=GPa)
#
#
# Indices 1 2 3 4 5 6 
#
# 1 79.2951 43.3234 51.6002 0.0000 0.0000 0.0000
# 2 43.3234 90.1028 52.6203 0.0000 0.0000 0.0000
# 3 51.6002 52.6203 109.7372 0.0000 0.0000 0.0000
# 4 0.0000 0.0000 0.0000 24.4398 0.0000 0.0000
# 5 0.0000 0.0000 0.0000 0.0000 19.3643 0.0000
# 6 0.0000 0.0000 0.0000 0.0000 0.0000 25.1047
#
#
#
# Elastic Compliance Matrix: (Units=1/GPa)
#
#
# Indices 1 2 3 4 5 6 
#
# 1 0.020117 -0.005762 -0.006696 0.000000 0.000000 0.000000
# 2 -0.005762 0.017066 -0.005474 0.000000 0.000000 0.000000
# 3 -0.006696 -0.005474 0.014886 0.000000 0.000000 0.000000
# 4 0.000000 0.000000 0.000000 0.040917 0.000000 0.000000
# 5 0.000000 0.000000 0.000000 0.000000 0.051642 0.000000
# 6 0.000000 0.000000 0.000000 0.000000 0.000000 0.039833
#
#
# Mechanical properties :
#
#
# Convention : Reuss Voigt Hill
#
# Bulk Modulus (GPa) = 61.71155 63.80254 62.75705
# Shear Modulus (GPa) = 22.15080 22.55450 22.35265
#
# Velocity S-wave (km/s) = 3.52524 3.55722 3.54127
# Velocity P-wave (km/s) = 7.15486 7.25721 7.20622
#
# Compressibility (1/GPa) = 0.01620442
#
# Stress axis : x y z
#
# Youngs Moduli (GPa) = 49.71005 58.59738 67.17648
#
# Poissons Ratio (x) = 0.33763 0.44983
# Poissons Ratio (y) = 0.28642 0.36771
# Poissons Ratio (z) = 0.33287 0.32075
#
# Static dielectric constant tensor:
#      x y z
#    x 3.333340 0.000000 0.000000 
#    y 0.000000 3.069580 0.000000 
#    z 0.000000 0.000000 3.642900 
# 
# 
# High freq. dielectric constant tensor:
#      x y z
#    x 1.690590 0.000000 0.000000 
#    y 0.000000 1.661060 0.000000 
#    z 0.000000 0.000000 1.699050 
# 
# From -- ./inp_files/20257.got.cif
#   From: 2010.03.12/outbox.cif.g09.slc.cpg/sg38_11_cif.got.tgz:20257.got - 2010.04.14 02:38:36.
