data_PCOD8178290
_publ_section_title
;
Structure prediction by ZEFSAII (Michael W. Deem and Ramdas Pophale) SiO2 
 PCOD8178290
Probable space group: A M M 2
;
_chemical_formula_sum "Si O2"
_cell_formula_units_Z 64
_cell_length_a 18.568276
_cell_length_b 8.766161
_cell_length_c 20.764105
_cell_angle_alpha 90.000000
_cell_angle_beta 90.000000
_cell_angle_gamma 90.000000
_cell_volume 3379.825217
_symmetry_space_group_name_H-M "A M M 2"
_symmetry_group_IT_number 38
_symmetry_cell_setting 'orthorhombic'
loop_
_space_group_symop_operation_xyz
x,y,z
-x,-y,z
-x,y,z
x,-y,z
x,1/2+y,1/2+z
-x,1/2-y,1/2+z
-x,1/2+y,1/2+z
x,1/2-y,1/2+z
loop_
_atom_site_type_symbol
_atom_site_label
_atom_site_fract_x
_atom_site_fract_y
_atom_site_fract_z
Si Si1 0.082740 0.177273 0.344800
Si Si2 0.662813 0.679408 0.471972
Si Si3 0.166189 0.666281 0.096444
Si Si4 0.321518 0.179866 0.236385
Si Si5 0.583305 0.175503 0.357722
Si Si6 0.832682 0.818292 0.733743
Si Si7 0.183390 0.317378 0.960279
Si Si8 0.663515 0.331344 0.104330
O O1 0.104935 0.273170 0.282658
O O2 0.129974 0.235878 0.404472
O O3 0.000000 0.210121 0.361048
O O4 0.096994 0.000000 0.330971
O O5 0.671804 0.500000 0.477714
O O6 0.603750 0.721682 0.418807
O O7 0.738122 0.749875 0.447742
O O8 0.635960 0.741646 0.541212
O O9 0.129423 0.500000 0.094565
O O10 0.142114 0.747638 0.163065
O O11 0.251633 0.651640 0.100041
O O12 0.149646 0.748376 0.028048
O O13 0.373333 0.227981 0.294594
O O14 0.243274 0.246719 0.253952
O O15 0.355975 0.244172 0.170372
O O16 0.314179 0.000000 0.229021
O O17 0.500000 0.200355 0.342004
O O18 0.600813 0.000000 0.374478
O O19 0.823278 0.000000 0.729992
O O20 0.190352 0.500000 0.964516
O O21 0.627994 0.500000 0.105441
#
# Coordination Sequence:
#
# PCOD8178290 Si02
#       8
#     8   8   8   8   8   8   8   8
#     4  10  21  35  50  71 101 137 176 218 262 307
#     4  11  21  33  54  83 109 135 174 222 266 310
#     4   7  13  27  48  73  96 121 160 206 248 295
#     4  10  19  33  56  83 107 134 173 221 268 314
#     4  10  22  39  55  73 104 145 181 214 260 316
#     4  10  19  32  52  77 104 135 169 208 259 318
#     4   9  17  33  55  75  99 133 171 212 260 313
#     4   9  17  32  54  79 108 139 172 213 261 315
#
# _framework density 18.935890000000001
#
# number of rings (size 3 to 8) (size 9 to 14) (size 15 to 20)
#    0.000    2.500    0.000    4.500    0.000    5.000 
#    0.000    1.875    0.000    4.500    0.000    0.000 
#    0.000    0.000    0.000    0.000    0.000    0.000 
#
# Total GULP energy -396620.126981 kJ/mol
# GULP energy per Si atom -12394.378968 kJ/mol
# Density = 1.889279 g / cm^3
# Si number density = 18.935890 Si / 1000 Ang^3
#
#
#
# Elastic Constant Matrix: (Units=GPa)
#
#
# Indices 1 2 3 4 5 6 
#
# 1 50.5817 15.3812 31.4877 0.0000 0.0000 0.0000
# 2 15.3812 70.2796 32.7539 0.0000 0.0000 0.0000
# 3 31.4877 32.7539 137.8499 0.0000 0.0000 0.0000
# 4 0.0000 0.0000 0.0000 31.8110 0.0000 0.0000
# 5 0.0000 0.0000 0.0000 0.0000 7.4981 0.0000
# 6 0.0000 0.0000 0.0000 0.0000 0.0000 17.6052
#
#
#
# Elastic Compliance Matrix: (Units=1/GPa)
#
#
# Indices 1 2 3 4 5 6 
#
# 1 0.023590 -0.002982 -0.004680 0.000000 0.000000 0.000000
# 2 -0.002982 0.016378 -0.003210 0.000000 0.000000 0.000000
# 3 -0.004680 -0.003210 0.009086 0.000000 0.000000 0.000000
# 4 0.000000 0.000000 0.000000 0.031436 0.000000 0.000000
# 5 0.000000 0.000000 0.000000 0.000000 0.133368 0.000000
# 6 0.000000 0.000000 0.000000 0.000000 0.000000 0.056801
#
#
# Mechanical properties :
#
#
# Convention : Reuss Voigt Hill
#
# Bulk Modulus (GPa) = 36.61707 46.43962 41.52834
# Shear Modulus (GPa) = 16.58343 23.32208 19.95275
#
# Velocity S-wave (km/s) = 2.96255 3.51327 3.24960
# Velocity P-wave (km/s) = 5.57509 6.40588 6.00487
#
# Compressibility (1/GPa) = 0.02730967
#
# Stress axis : x y z
#
# Youngs Moduli (GPa) = 42.39082 61.05889 110.05883
#
# Poissons Ratio (x) = 0.18206 0.51507
# Poissons Ratio (y) = 0.12640 0.35332
# Poissons Ratio (z) = 0.19839 0.19602
#
# Static dielectric constant tensor:
#      x y z
#    x 3.081500 0.000000 0.000000 
#    y 0.000000 3.389840 0.000000 
#    z 0.000000 0.000000 4.036360 
# 
# 
# High freq. dielectric constant tensor:
#      x y z
#    x 1.695390 0.000000 0.000000 
#    y 0.000000 1.721780 0.000000 
#    z 0.000000 0.000000 1.761480 
# 
# From -- ./inp_files/21456.got.cif
#   From: 2010.03.12/outbox.cif.g09.slc.cpg/sg38_11_cif.got.tgz:21456.got - 2010.04.14 02:38:36.
