data_PCOD8178994
_publ_section_title
;
Structure prediction by ZEFSAII (Michael W. Deem and Ramdas Pophale) SiO2 
 PCOD8178994
Probable space group: A M M 2
;
_chemical_formula_sum "Si O2"
_cell_formula_units_Z 64
_cell_length_a 17.788585
_cell_length_b 8.962479
_cell_length_c 22.888711
_cell_angle_alpha 90.000000
_cell_angle_beta 90.000000
_cell_angle_gamma 90.000000
_cell_volume 3649.143063
_symmetry_space_group_name_H-M "A M M 2"
_symmetry_group_IT_number 38
_symmetry_cell_setting 'orthorhombic'
loop_
_space_group_symop_operation_xyz
x,y,z
-x,-y,z
-x,y,z
x,-y,z
x,1/2+y,1/2+z
-x,1/2-y,1/2+z
-x,1/2+y,1/2+z
x,1/2-y,1/2+z
loop_
_atom_site_type_symbol
_atom_site_label
_atom_site_fract_x
_atom_site_fract_y
_atom_site_fract_z
Si Si1 0.200326 0.666459 0.391240
Si Si2 0.584629 0.824272 0.949146
Si Si3 0.085349 0.671523 0.179770
Si Si4 0.641594 0.837699 0.829506
Si Si5 0.862320 0.666653 0.790257
Si Si6 0.780927 0.321085 0.617557
Si Si7 0.726964 0.677759 0.998716
Si Si8 0.298274 0.337257 0.731133
O O1 0.172274 0.500000 0.408597
O O2 0.273607 0.651715 0.351690
O O3 0.136671 0.751263 0.353324
O O4 0.217637 0.761766 0.448869
O O5 0.500000 0.795730 0.971428
O O6 0.592280 0.765625 0.881983
O O7 0.605991 0.000000 0.951094
O O8 0.641538 0.734618 0.990289
O O9 0.113024 0.500000 0.181325
O O10 0.088682 0.737798 0.245082
O O11 0.136006 0.766536 0.135226
O O12 0.000000 0.682322 0.157143
O O13 0.638655 0.750898 0.767978
O O14 0.608634 0.000000 0.815239
O O15 0.896475 0.500000 0.796812
O O16 0.777663 0.653410 0.767888
O O17 0.781982 0.500000 0.611062
O O18 0.756774 0.240579 0.559148
O O19 0.721520 0.268625 0.667651
O O20 0.728128 0.500000 0.998487
O O21 0.333062 0.500000 0.721761
#
# Coordination Sequence:
#
# PCOD8178994 Si02
#       8
#     8   8   8   8   8   8   8   8
#     4   9  16  28  46  68  95 125 157 194 239 289
#     4   9  18  33  51  71  98 132 167 204 252 309
#     4  10  20  33  50  74 103 133 166 207 256 307
#     4   8  14  24  42  67  91 117 149 186 231 283
#     4   9  16  27  45  70  97 124 156 194 239 289
#     4  10  20  34  51  71  97 132 176 217 253 299
#     4  11  21  32  49  74 102 131 170 216 258 304
#     4   8  15  26  42  65  91 118 149 190 234 277
#
# _framework density 17.538364999999999
#
# number of rings (size 3 to 8) (size 9 to 14) (size 15 to 20)
#    0.000    2.750    0.000    4.125    0.000    7.750 
#    0.000    0.000    0.000    1.500    0.000    3.500 
#    0.000    0.000    0.000    0.000    0.000    0.000 
#
# Total GULP energy -396582.127797 kJ/mol
# GULP energy per Si atom -12393.191494 kJ/mol
# Density = 1.749845 g / cm^3
# Si number density = 17.538365 Si / 1000 Ang^3
#
#
#
# Elastic Constant Matrix: (Units=GPa)
#
#
# Indices 1 2 3 4 5 6 
#
# 1 51.1807 33.8632 41.7019 0.0000 0.0000 0.0000
# 2 33.8632 122.9160 61.1999 0.0000 0.0000 0.0000
# 3 41.7019 61.1999 125.7562 0.0000 0.0000 0.0000
# 4 0.0000 0.0000 0.0000 32.4982 0.0000 0.0000
# 5 0.0000 0.0000 0.0000 0.0000 15.2205 0.0000
# 6 0.0000 0.0000 0.0000 0.0000 0.0000 18.8680
#
#
#
# Elastic Compliance Matrix: (Units=1/GPa)
#
#
# Indices 1 2 3 4 5 6 
#
# 1 0.028268 -0.004119 -0.007370 0.000000 0.000000 0.000000
# 2 -0.004119 0.011337 -0.004152 0.000000 0.000000 0.000000
# 3 -0.007370 -0.004152 0.012416 0.000000 0.000000 0.000000
# 4 0.000000 0.000000 0.000000 0.030771 0.000000 0.000000
# 5 0.000000 0.000000 0.000000 0.000000 0.065701 0.000000
# 6 0.000000 0.000000 0.000000 0.000000 0.000000 0.053000
#
#
# Mechanical properties :
#
#
# Convention : Reuss Voigt Hill
#
# Bulk Modulus (GPa) = 48.21101 63.70921 55.96011
# Shear Modulus (GPa) = 20.86047 24.18986 22.52516
#
# Velocity S-wave (km/s) = 3.45254 3.71786 3.58765
# Velocity P-wave (km/s) = 6.59105 7.40503 7.00986
#
# Compressibility (1/GPa) = 0.02074215
#
# Stress axis : x y z
#
# Youngs Moduli (GPa) = 35.37514 88.20363 80.53984
#
# Poissons Ratio (x) = 0.36327 0.59356
# Poissons Ratio (y) = 0.14569 0.33438
# Poissons Ratio (z) = 0.26071 0.36619
#
# Static dielectric constant tensor:
#      x y z
#    x 2.915250 0.000000 0.000000 
#    y 0.000000 3.535070 0.000000 
#    z 0.000000 0.000000 3.268060 
# 
# 
# High freq. dielectric constant tensor:
#      x y z
#    x 1.633280 0.000000 0.000000 
#    y 0.000000 1.688170 0.000000 
#    z 0.000000 0.000000 1.667910 
# 
# From -- ./inp_files/23109.got.cif
#   From: 2010.03.12/outbox.cif.g09.slc.cpg/sg38_12_cif.got.tgz:23109.got - 2010.04.14 02:38:36.
