data_PCOD8178941
_publ_section_title
;
Structure prediction by ZEFSAII (Michael W. Deem and Ramdas Pophale) SiO2 
 PCOD8178941
Probable space group: A M M 2
;
_chemical_formula_sum "Si O2"
_cell_formula_units_Z 64
_cell_length_a 9.099873
_cell_length_b 18.681118
_cell_length_c 20.990522
_cell_angle_alpha 90.000000
_cell_angle_beta 90.000000
_cell_angle_gamma 90.000000
_cell_volume 3568.300607
_symmetry_space_group_name_H-M "A M M 2"
_symmetry_group_IT_number 38
_symmetry_cell_setting 'orthorhombic'
loop_
_space_group_symop_operation_xyz
x,y,z
-x,-y,z
-x,y,z
x,-y,z
x,1/2+y,1/2+z
-x,1/2-y,1/2+z
-x,1/2+y,1/2+z
x,1/2-y,1/2+z
loop_
_atom_site_type_symbol
_atom_site_label
_atom_site_fract_x
_atom_site_fract_y
_atom_site_fract_z
Si Si1 0.825430 0.824770 0.708670
Si Si2 0.172831 0.581248 0.089074
Si Si3 0.674984 0.579910 0.826763
Si Si4 0.325044 0.172621 0.208574
Si Si5 0.173697 0.916787 0.100334
Si Si6 0.824214 0.919753 0.825695
Si Si7 0.663226 0.414821 0.965757
Si Si8 0.839571 0.584664 0.461934
O O1 0.774827 0.870528 0.647734
O O2 0.742809 0.750527 0.706680
O O3 0.769199 0.866375 0.771266
O O4 0.000000 0.812854 0.709325
O O5 0.228315 0.500000 0.100829
O O6 0.000000 0.582690 0.082201
O O7 0.237366 0.613918 0.023576
O O8 0.500000 0.576194 0.827246
O O9 0.737638 0.500000 0.813138
O O10 0.732317 0.633479 0.772541
O O11 0.727568 0.608604 0.896460
O O12 0.500000 0.176961 0.206358
O O13 0.268312 0.128993 0.148498
O O14 0.000000 0.899868 0.106111
O O15 0.203013 0.000000 0.114320
O O16 0.235764 0.895095 0.029444
O O17 0.759856 0.893326 0.895127
O O18 0.000000 0.920409 0.829075
O O19 0.768171 0.000000 0.809617
O O20 0.500000 0.383377 0.975716
O O21 0.658640 0.500000 0.966053
O O22 0.859276 0.500000 0.460134
O O23 0.000000 0.620999 0.462703
#
# Coordination Sequence:
#
# PCOD8178941 Si02
#       8
#     8   8   8   8   8   8   8   8
#     4  10  20  33  48  68  97 129 159 195 236 277
#     4   9  17  30  49  73  98 122 151 192 241 285
#     4   8  15  30  51  71  90 117 155 195 234 276
#     4  11  22  34  48  67  95 131 166 198 232 275
#     4   9  17  31  52  76 100 125 154 192 238 283
#     4   8  13  25  49  76  95 117 155 196 233 280
#     4   8  14  27  49  73  93 116 150 191 233 280
#     4   7  11  22  44  74 100 118 144 188 237 281
#
# _framework density 17.935708000000002
#
# number of rings (size 3 to 8) (size 9 to 14) (size 15 to 20)
#    0.000    3.250    0.000    3.375    0.000    2.750 
#    0.000    2.500    0.000    9.375    0.000    1.750 
#    0.000    0.000    0.000    0.000    0.000    0.000 
#
# Total GULP energy -396441.739812 kJ/mol
# GULP energy per Si atom -12388.804369 kJ/mol
# Density = 1.789489 g / cm^3
# Si number density = 17.935708 Si / 1000 Ang^3
#
#
#
# Elastic Constant Matrix: (Units=GPa)
#
#
# Indices 1 2 3 4 5 6 
#
# 1 26.3564 30.2285 39.3618 0.0000 0.0000 0.0000
# 2 30.2285 89.9496 79.9434 0.0000 0.0000 0.0000
# 3 39.3618 79.9434 203.7391 0.0000 0.0000 0.0000
# 4 0.0000 0.0000 0.0000 3.5325 0.0000 0.0000
# 5 0.0000 0.0000 0.0000 0.0000 20.5784 0.0000
# 6 0.0000 0.0000 0.0000 0.0000 0.0000 8.2757
#
#
#
# Elastic Compliance Matrix: (Units=1/GPa)
#
#
# Indices 1 2 3 4 5 6 
#
# 1 0.066573 -0.016800 -0.006270 0.000000 0.000000 0.000000
# 2 -0.016800 0.021310 -0.005116 0.000000 0.000000 0.000000
# 3 -0.006270 -0.005116 0.008127 0.000000 0.000000 0.000000
# 4 0.000000 0.000000 0.000000 0.283083 0.000000 0.000000
# 5 0.000000 0.000000 0.000000 0.000000 0.048595 0.000000
# 6 0.000000 0.000000 0.000000 0.000000 0.000000 0.120836
#
#
# Mechanical properties :
#
#
# Convention : Reuss Voigt Hill
#
# Bulk Modulus (GPa) = 25.22808 68.79028 47.00918
# Shear Modulus (GPa) = 8.08920 17.84476 12.96698
#
# Velocity S-wave (km/s) = 2.12601 3.15767 2.69173
# Velocity P-wave (km/s) = 4.48586 7.19247 5.99394
#
# Compressibility (1/GPa) = 0.03963837
#
# Stress axis : x y z
#
# Youngs Moduli (GPa) = 15.02104 46.92622 123.04854
#
# Poissons Ratio (x) = 0.78838 0.77146
# Poissons Ratio (y) = 0.25236 0.62950
# Poissons Ratio (z) = 0.09418 0.24007
#
# Static dielectric constant tensor:
#      x y z
#    x 2.917830 0.000000 0.000000 
#    y 0.000000 3.058710 0.000000 
#    z 0.000000 0.000000 3.955600 
# 
# 
# High freq. dielectric constant tensor:
#      x y z
#    x 1.647110 0.000000 0.000000 
#    y 0.000000 1.662260 0.000000 
#    z 0.000000 0.000000 1.722840 
# 
# From -- ./inp_files/20060.got.cif
#   From: 2010.03.12/outbox.cif.g09.slc.cpg/sg38_11_cif.got.tgz:20060.got - 2010.04.14 02:38:36.
