data_PCOD8178701
_publ_section_title
;
Structure prediction by ZEFSAII (Michael W. Deem and Ramdas Pophale) SiO2 
 PCOD8178701
Probable space group: A M M 2
;
_chemical_formula_sum "Si O2"
_cell_formula_units_Z 64
_cell_length_a 23.655134
_cell_length_b 8.793835
_cell_length_c 15.352535
_cell_angle_alpha 90.000000
_cell_angle_beta 90.000000
_cell_angle_gamma 90.000000
_cell_volume 3193.624279
_symmetry_space_group_name_H-M "A M M 2"
_symmetry_group_IT_number 38
_symmetry_cell_setting 'orthorhombic'
loop_
_space_group_symop_operation_xyz
x,y,z
-x,-y,z
-x,y,z
x,-y,z
x,1/2+y,1/2+z
-x,1/2-y,1/2+z
-x,1/2+y,1/2+z
x,1/2-y,1/2+z
loop_
_atom_site_type_symbol
_atom_site_label
_atom_site_fract_x
_atom_site_fract_y
_atom_site_fract_z
Si Si1 0.878633 0.820444 0.228500
Si Si2 0.750090 0.180135 0.483532
Si Si3 0.642677 0.176967 0.736729
Si Si4 0.436598 0.680218 0.389992
Si Si5 0.371174 0.823243 0.543094
Si Si6 0.244573 0.820671 0.288468
Si Si7 0.933803 0.674735 0.391672
Si Si8 0.869041 0.820159 0.549345
O O1 0.814067 0.769961 0.245269
O O2 0.919283 0.737005 0.296215
O O3 0.895735 0.765988 0.131967
O O4 0.887223 0.000000 0.237702
O O5 0.692446 0.238364 0.527602
O O6 0.753357 0.247063 0.386031
O O7 0.804132 0.236246 0.538421
O O8 0.751981 0.000000 0.478823
O O9 0.603078 0.246474 0.812825
O O10 0.612572 0.205565 0.643728
O O11 0.703783 0.253860 0.733707
O O12 0.652709 0.000000 0.752560
O O13 0.500000 0.742719 0.375987
O O14 0.436338 0.500000 0.386717
O O15 0.414984 0.732829 0.483881
O O16 0.375053 0.000000 0.518131
O O17 0.250746 0.000000 0.289549
O O18 0.914191 0.500000 0.399820
O O19 0.902849 0.777139 0.462952
O O20 0.000000 0.690798 0.407100
O O21 0.873251 0.000000 0.563662
#
# Coordination Sequence:
#
# PCOD8178701 Si02
#       8
#     8   8   8   8   8   8   8   8
#     4  11  23  40  62  91 124 160 200 243 296 355
#     4   9  17  33  57  86 119 150 183 232 290 344
#     4  10  21  36  57  86 114 147 188 233 289 346
#     4  10  22  39  55  76 111 149 188 238 290 338
#     4  10  20  36  59  84 112 146 188 232 278 340
#     4  10  19  35  59  87 120 154 188 233 288 345
#     4  11  25  44  64  88 119 158 205 252 298 351
#     4  11  22  40  65  92 123 158 196 244 301 357
#
# _framework density 20.039928
#
# number of rings (size 3 to 8) (size 9 to 14) (size 15 to 20)
#    0.000    1.750    2.500    1.875    0.000    4.750 
#    0.000    2.500    0.000    0.000    0.000    0.000 
#    0.000    0.000    0.000    0.000    0.000    0.000 
#
# Total GULP energy -396894.301171 kJ/mol
# GULP energy per Si atom -12402.946912 kJ/mol
# Density = 1.999432 g / cm^3
# Si number density = 20.039928 Si / 1000 Ang^3
#
#
#
# Elastic Constant Matrix: (Units=GPa)
#
#
# Indices 1 2 3 4 5 6 
#
# 1 80.9981 25.7286 14.4769 0.0000 0.0000 0.0000
# 2 25.7286 38.7574 12.4012 0.0000 0.0000 0.0000
# 3 14.4769 12.4012 98.1945 0.0000 0.0000 0.0000
# 4 0.0000 0.0000 0.0000 32.1163 0.0000 0.0000
# 5 0.0000 0.0000 0.0000 0.0000 16.9506 0.0000
# 6 0.0000 0.0000 0.0000 0.0000 0.0000 26.3505
#
#
#
# Elastic Compliance Matrix: (Units=1/GPa)
#
#
# Indices 1 2 3 4 5 6 
#
# 1 0.015747 -0.010119 -0.001044 0.000000 0.000000 0.000000
# 2 -0.010119 0.033391 -0.002725 0.000000 0.000000 0.000000
# 3 -0.001044 -0.002725 0.010682 0.000000 0.000000 0.000000
# 4 0.000000 0.000000 0.000000 0.031137 0.000000 0.000000
# 5 0.000000 0.000000 0.000000 0.000000 0.058995 0.000000
# 6 0.000000 0.000000 0.000000 0.000000 0.000000 0.037950
#
#
# Mechanical properties :
#
#
# Convention : Reuss Voigt Hill
#
# Bulk Modulus (GPa) = 31.20744 35.90704 33.55724
# Shear Modulus (GPa) = 22.08881 26.10637 24.09759
#
# Velocity S-wave (km/s) = 3.32360 3.61323 3.47144
# Velocity P-wave (km/s) = 5.50771 5.94676 5.73144
#
# Compressibility (1/GPa) = 0.03204364
#
# Stress axis : x y z
#
# Youngs Moduli (GPa) = 63.50462 29.94805 93.61643
#
# Poissons Ratio (x) = 0.30306 0.09770
# Poissons Ratio (y) = 0.64263 0.25512
# Poissons Ratio (z) = 0.06627 0.08161
#
# Static dielectric constant tensor:
#      x y z
#    x 3.722920 0.000000 0.000000 
#    y 0.000000 3.398390 0.000000 
#    z 0.000000 0.000000 3.727810 
# 
# 
# High freq. dielectric constant tensor:
#      x y z
#    x 1.778750 0.000000 0.000000 
#    y 0.000000 1.763620 0.000000 
#    z 0.000000 0.000000 1.795780 
# 
# From -- ./inp_files/15734.got.cif
#   From: 2010.03.12/outbox.cif.g09.slc.cpg/sg38_8_cif.got.tgz:15734.got - 2010.04.14 02:38:36.
