data_PCOD8178633
_publ_section_title
;
Structure prediction by ZEFSAII (Michael W. Deem and Ramdas Pophale) SiO2 
 PCOD8178633
Probable space group: A M M 2
;
_chemical_formula_sum "Si O2"
_cell_formula_units_Z 64
_cell_length_a 14.474559
_cell_length_b 8.719874
_cell_length_c 25.101897
_cell_angle_alpha 90.000000
_cell_angle_beta 90.000000
_cell_angle_gamma 90.000000
_cell_volume 3168.269333
_symmetry_space_group_name_H-M "A M M 2"
_symmetry_group_IT_number 38
_symmetry_cell_setting 'orthorhombic'
loop_
_space_group_symop_operation_xyz
x,y,z
-x,-y,z
-x,y,z
x,-y,z
x,1/2+y,1/2+z
-x,1/2-y,1/2+z
-x,1/2+y,1/2+z
x,1/2-y,1/2+z
loop_
_atom_site_type_symbol
_atom_site_label
_atom_site_fract_x
_atom_site_fract_y
_atom_site_fract_z
Si Si1 0.396136 0.321393 0.390200
Si Si2 0.213819 0.817281 0.628059
Si Si3 0.363419 0.329883 0.271584
Si Si4 0.893297 0.819235 0.029039
Si Si5 0.101024 0.820578 0.847195
Si Si6 0.156854 0.168176 0.738903
Si Si7 0.779644 0.821458 0.433693
Si Si8 0.397596 0.176889 0.162637
O O1 0.500000 0.294157 0.411643
O O2 0.368731 0.500000 0.391671
O O3 0.390115 0.260474 0.329272
O O4 0.327072 0.230527 0.429608
O O5 0.155911 0.758865 0.578798
O O6 0.165473 0.746142 0.681852
O O7 0.321364 0.767209 0.627646
O O8 0.213681 0.000000 0.629406
O O9 0.407096 0.500000 0.265570
O O10 0.254464 0.341044 0.268083
O O11 0.401790 0.224340 0.224511
O O12 0.000000 0.763678 0.024855
O O13 0.888955 0.000000 0.036285
O O14 0.836166 0.773580 0.977197
O O15 0.093460 0.759711 0.785486
O O16 0.173193 0.713671 0.877314
O O17 0.000000 0.802188 0.873529
O O18 0.131874 0.000000 0.848890
O O19 0.117939 0.000000 0.725456
O O20 0.784391 0.000000 0.447979
O O21 0.500000 0.206539 0.138160
O O22 0.370548 0.000000 0.159422
#
# Coordination Sequence:
#
# PCOD8178633 Si02
#       8
#     8   8   8   8   8   8   8   8
#     4  10  20  36  60  87 118 159 204 247 294 354
#     4  10  21  38  62  91 121 154 198 252 301 353
#     4   9  16  30  53  80 115 159 205 248 289 344
#     4  11  25  46  70  91 113 150 199 250 304 363
#     4  10  19  34  58  85 116 157 201 242 289 353
#     4   8  15  30  53  83 119 155 191 234 286 345
#     4  12  25  40  60  87 122 157 195 250 303 354
#     4  10  20  33  52  83 125 168 206 245 292 349
#
# _framework density 20.200302000000001
#
# number of rings (size 3 to 8) (size 9 to 14) (size 15 to 20)
#    0.000    2.000    1.250    3.750    0.000    5.500 
#    0.000    2.500    0.000    3.750    0.000    0.000 
#    0.000    0.000    0.000    0.000    0.000    0.000 
#
# Total GULP energy -396554.383948 kJ/mol
# GULP energy per Si atom -12392.324498 kJ/mol
# Density = 2.015433 g / cm^3
# Si number density = 20.200302 Si / 1000 Ang^3
#
#
#
# Elastic Constant Matrix: (Units=GPa)
#
#
# Indices 1 2 3 4 5 6 
#
# 1 122.0773 34.4880 47.2565 0.0000 0.0000 0.0000
# 2 34.4880 68.5113 22.4677 0.0000 0.0000 0.0000
# 3 47.2565 22.4677 92.8581 0.0000 0.0000 0.0000
# 4 0.0000 0.0000 0.0000 28.5315 0.0000 0.0000
# 5 0.0000 0.0000 0.0000 0.0000 19.1943 0.0000
# 6 0.0000 0.0000 0.0000 0.0000 0.0000 19.6209
#
#
#
# Elastic Compliance Matrix: (Units=1/GPa)
#
#
# Indices 1 2 3 4 5 6 
#
# 1 0.011160 -0.004079 -0.004693 0.000000 0.000000 0.000000
# 2 -0.004079 0.017345 -0.002121 0.000000 0.000000 0.000000
# 3 -0.004693 -0.002121 0.013670 0.000000 0.000000 0.000000
# 4 0.000000 0.000000 0.000000 0.035049 0.000000 0.000000
# 5 0.000000 0.000000 0.000000 0.000000 0.052099 0.000000
# 6 0.000000 0.000000 0.000000 0.000000 0.000000 0.050966
#
#
# Mechanical properties :
#
#
# Convention : Reuss Voigt Hill
#
# Bulk Modulus (GPa) = 49.04226 54.65235 51.84730
# Shear Modulus (GPa) = 23.93808 25.41829 24.67818
#
# Velocity S-wave (km/s) = 3.44617 3.55112 3.49904
# Velocity P-wave (km/s) = 6.33762 6.62781 6.48434
#
# Compressibility (1/GPa) = 0.02039058
#
# Stress axis : x y z
#
# Youngs Moduli (GPa) = 89.60173 57.65327 73.15055
#
# Poissons Ratio (x) = 0.23518 0.34327
# Poissons Ratio (y) = 0.36550 0.15514
# Poissons Ratio (z) = 0.42048 0.12227
#
# Static dielectric constant tensor:
#      x y z
#    x 3.870970 0.000000 0.000000 
#    y 0.000000 3.442710 0.000000 
#    z 0.000000 0.000000 3.625620 
# 
# 
# High freq. dielectric constant tensor:
#      x y z
#    x 1.801190 0.000000 0.000000 
#    y 0.000000 1.762700 0.000000 
#    z 0.000000 0.000000 1.774630 
# 
# From -- ./inp_files/22889.got.cif
#   From: 2010.03.12/outbox.cif.g09.slc.cpg/sg38_12_cif.got.tgz:22889.got - 2010.04.14 02:38:36.
