data_PCOD8178068
_publ_section_title
;
Structure prediction by ZEFSAII (Michael W. Deem and Ramdas Pophale) SiO2 
 PCOD8178068
Probable space group: A M M 2
;
_chemical_formula_sum "Si O2"
_cell_formula_units_Z 64
_cell_length_a 15.204504
_cell_length_b 8.983315
_cell_length_c 30.403875
_cell_angle_alpha 90.000000
_cell_angle_beta 90.000000
_cell_angle_gamma 90.000000
_cell_volume 4152.769479
_symmetry_space_group_name_H-M "A M M 2"
_symmetry_group_IT_number 38
_symmetry_cell_setting 'orthorhombic'
loop_
_space_group_symop_operation_xyz
x,y,z
-x,-y,z
-x,y,z
x,-y,z
x,1/2+y,1/2+z
-x,1/2-y,1/2+z
-x,1/2+y,1/2+z
x,1/2-y,1/2+z
loop_
_atom_site_type_symbol
_atom_site_label
_atom_site_fract_x
_atom_site_fract_y
_atom_site_fract_z
Si Si1 0.407487 0.666406 0.754060
Si Si2 0.104760 0.165998 0.404583
Si Si3 0.897249 0.173261 0.086920
Si Si4 0.895874 0.830380 0.817874
Si Si5 0.770199 0.175413 0.653586
Si Si6 0.219647 0.178474 0.247302
Si Si7 0.104329 0.164672 0.988513
Si Si8 0.596442 0.666669 0.649617
O O1 0.500000 0.748427 0.768938
O O2 0.412059 0.500000 0.773037
O O3 0.313638 0.737331 0.768209
O O4 0.404599 0.661968 0.701810
O O5 0.138394 0.267163 0.364374
O O6 0.142910 0.227870 0.450732
O O7 0.000000 0.165803 0.405874
O O8 0.141627 0.000000 0.397825
O O9 0.844386 0.280039 0.119031
O O10 0.000000 0.201864 0.094956
O O11 0.874623 0.000000 0.095278
O O12 0.869933 0.220034 0.037242
O O13 0.857862 0.733031 0.778351
O O14 0.000000 0.817315 0.814576
O O15 0.864046 0.000000 0.813619
O O16 0.794638 0.255337 0.699080
O O17 0.674912 0.224831 0.634311
O O18 0.770277 0.000000 0.661080
O O19 0.219209 0.000000 0.243669
O O20 0.000000 0.157381 0.984909
O O21 0.142978 0.000000 0.980284
O O22 0.500000 0.722346 0.632659
O O23 0.614653 0.500000 0.631531
#
# Coordination Sequence:
#
# PCOD8178068 Si02
#       8
#     8   8   8   8   8   8   8   8
#     4   7  11  22  41  62  79  97 126 165 208 250
#     4   9  16  26  42  63  84 106 134 169 211 258
#     4   9  18  32  47  61  81 114 153 185 212 249
#     4  10  20  32  44  59  83 114 146 180 215 249
#     4  11  21  30  42  62  89 117 145 180 219 257
#     4  10  19  31  46  61  81 112 148 181 211 249
#     4   8  14  26  44  63  81 103 134 174 218 256
#     4   8  14  27  46  63  80 106 140 176 214 256
#
# _framework density 15.411402000000001
#
# number of rings (size 3 to 8) (size 9 to 14) (size 15 to 20)
#    0.000    3.000    0.000    4.500    0.000    3.750 
#    0.000    1.250    0.000    1.125    0.000    0.000 
#    0.000    1.000    0.000    6.500    0.000    3.875 
#
# Total GULP energy -396429.560598 kJ/mol
# GULP energy per Si atom -12388.423769 kJ/mol
# Density = 1.537632 g / cm^3
# Si number density = 15.411402 Si / 1000 Ang^3
#
#
#
# Elastic Constant Matrix: (Units=GPa)
#
#
# Indices 1 2 3 4 5 6 
#
# 1 52.5104 35.4128 34.6906 0.0000 0.0000 0.0000
# 2 35.4128 91.9779 44.0746 0.0000 0.0000 0.0000
# 3 34.6906 44.0746 80.8944 0.0000 0.0000 0.0000
# 4 0.0000 0.0000 0.0000 23.7182 0.0000 0.0000
# 5 0.0000 0.0000 0.0000 0.0000 -0.0155 0.0000
# 6 0.0000 0.0000 0.0000 0.0000 0.0000 16.2623
#
#
#
# Elastic Compliance Matrix: (Units=1/GPa)
#
#
# Indices 1 2 3 4 5 6 
#
# 1 0.029742 -0.007226 -0.008818 0.000000 0.000000 0.000000
# 2 -0.007226 0.016469 -0.005874 0.000000 0.000000 0.000000
# 3 -0.008818 -0.005874 0.019344 0.000000 0.000000 0.000000
# 4 0.000000 0.000000 0.000000 0.042162 0.000000 0.000000
# 5 0.000000 0.000000 0.000000 0.000000-64.632029 0.000000
# 6 0.000000 0.000000 0.000000 0.000000 0.000000 0.061492
#
#
# Mechanical properties :
#
#
# Convention : Reuss Voigt Hill
#
# Bulk Modulus (GPa) = 46.04182 50.41541 48.22862
# Shear Modulus (GPa) = -0.07763 15.40664 7.66451
#
# Velocity S-wave (km/s) = -0.22467 3.16522 2.23250
# Velocity P-wave (km/s) = 5.46559 6.79281 6.16502
#
# Compressibility (1/GPa) = 0.02171938
#
# Stress axis : x y z
#
# Youngs Moduli (GPa) = 33.62210 60.71952 51.69640
#
# Poissons Ratio (x) = 0.43876 0.45584
# Poissons Ratio (y) = 0.24295 0.30368
# Poissons Ratio (z) = 0.29647 0.35669
#
# Static dielectric constant tensor:
#      x y z
#    x 3.174770 0.000000 0.000000 
#    y 0.000000 2.973460 0.000000 
#    z 0.000000 0.000000 2.804510 
# 
# 
# High freq. dielectric constant tensor:
#      x y z
#    x 1.568130 0.000000 0.000000 
#    y 0.000000 1.586180 0.000000 
#    z 0.000000 0.000000 1.562860 
# 
# From -- ./inp_files/24042.got.cif
#   From: 2010.03.12/outbox.cif.g09.slc.cpg/sg38_13_cif.got.tgz:24042.got - 2010.04.14 02:38:36.
