data_PCOD8178051
_publ_section_title
;
Structure prediction by ZEFSAII (Michael W. Deem and Ramdas Pophale) SiO2 
 PCOD8178051
Probable space group: A M M 2
;
_chemical_formula_sum "Si O2"
_cell_formula_units_Z 64
_cell_length_a 8.953842
_cell_length_b 14.346456
_cell_length_c 28.015920
_cell_angle_alpha 90.000000
_cell_angle_beta 90.000000
_cell_angle_gamma 90.000000
_cell_volume 3598.810226
_symmetry_space_group_name_H-M "A M M 2"
_symmetry_group_IT_number 38
_symmetry_cell_setting 'orthorhombic'
loop_
_space_group_symop_operation_xyz
x,y,z
-x,-y,z
-x,y,z
x,-y,z
x,1/2+y,1/2+z
-x,1/2-y,1/2+z
-x,1/2+y,1/2+z
x,1/2-y,1/2+z
loop_
_atom_site_type_symbol
_atom_site_label
_atom_site_fract_x
_atom_site_fract_y
_atom_site_fract_z
Si Si1 0.325705 0.108012 0.700300
Si Si2 0.671394 0.891999 0.864757
Si Si3 0.173384 0.607503 0.102209
Si Si4 0.823397 0.221191 0.511103
Si Si5 0.176161 0.721652 0.283836
Si Si6 0.675126 0.895238 0.974062
Si Si7 0.828679 0.607682 0.920039
Si Si8 0.675537 0.106310 0.321931
O O1 0.500000 0.129660 0.704407
O O2 0.269546 0.136181 0.647991
O O3 0.238336 0.168979 0.738206
O O4 0.290668 0.000000 0.710685
O O5 0.500000 0.861831 0.855910
O O6 0.778959 0.831363 0.832070
O O7 0.719145 0.874311 0.919305
O O8 0.691029 0.000000 0.851332
O O9 0.198749 0.500000 0.088272
O O10 0.233900 0.669907 0.058639
O O11 0.000000 0.626817 0.113319
O O12 0.759644 0.325628 0.509586
O O13 0.766208 0.165321 0.464833
O O14 0.000000 0.224270 0.511433
O O15 0.242497 0.826310 0.284413
O O16 0.000000 0.727119 0.280045
O O17 0.500000 0.882893 0.980976
O O18 0.724156 0.000000 0.987639
O O19 0.814264 0.500000 0.933981
O O20 0.726721 0.633540 0.875125
O O21 0.000000 0.633229 0.907700
O O22 0.500000 0.121364 0.318145
O O23 0.721374 0.000000 0.310007
#
# Coordination Sequence:
#
# PCOD8178051 Si02
#       8
#     8   8   8   8   8   8   8   8
#     4  10  21  37  56  78 104 132 163 202 248 298
#     4   9  18  33  51  72 102 138 173 210 251 295
#     4   9  18  34  54  76 104 133 160 196 246 302
#     4  10  19  30  49  76 102 132 168 204 246 294
#     4  12  23  33  51  77 103 133 168 206 251 303
#     4   9  19  34  49  67  96 135 174 211 251 290
#     4   9  17  30  48  73 106 138 167 201 244 296
#     4  10  21  36  52  71  99 136 175 213 251 291
#
# _framework density 17.783653999999999
#
# number of rings (size 3 to 8) (size 9 to 14) (size 15 to 20)
#    0.000    2.250    0.000    4.125    0.000    8.500 
#    0.000    1.250    0.000    4.500    0.000    3.500 
#    0.000    0.000    0.000    0.000    0.000    0.000 
#
# Total GULP energy -396889.602354 kJ/mol
# GULP energy per Si atom -12402.800074 kJ/mol
# Density = 1.774318 g / cm^3
# Si number density = 17.783654 Si / 1000 Ang^3
#
#
#
# Elastic Constant Matrix: (Units=GPa)
#
#
# Indices 1 2 3 4 5 6 
#
# 1 81.8810 51.1482 52.1629 0.0000 0.0000 0.0000
# 2 51.1482 109.4471 71.4160 0.0000 0.0000 0.0000
# 3 52.1629 71.4160 95.6127 0.0000 0.0000 0.0000
# 4 0.0000 0.0000 0.0000 32.2627 0.0000 0.0000
# 5 0.0000 0.0000 0.0000 0.0000 26.2325 0.0000
# 6 0.0000 0.0000 0.0000 0.0000 0.0000 30.3421
#
#
#
# Elastic Compliance Matrix: (Units=1/GPa)
#
#
# Indices 1 2 3 4 5 6 
#
# 1 0.019694 -0.004278 -0.007549 0.000000 0.000000 0.000000
# 2 -0.004278 0.018753 -0.011673 0.000000 0.000000 0.000000
# 3 -0.007549 -0.011673 0.023297 0.000000 0.000000 0.000000
# 4 0.000000 0.000000 0.000000 0.030996 0.000000 0.000000
# 5 0.000000 0.000000 0.000000 0.000000 0.038121 0.000000
# 6 0.000000 0.000000 0.000000 0.000000 0.000000 0.032958
#
#
# Mechanical properties :
#
#
# Convention : Reuss Voigt Hill
#
# Bulk Modulus (GPa) = 67.82834 70.71056 69.26945
# Shear Modulus (GPa) = 23.17676 25.24838 24.21257
#
# Velocity S-wave (km/s) = 3.61399 3.77205 3.69386
# Velocity P-wave (km/s) = 7.45910 7.66935 7.56496
#
# Compressibility (1/GPa) = 0.01474310
#
# Stress axis : x y z
#
# Youngs Moduli (GPa) = 50.77592 53.32465 42.92444
#
# Poissons Ratio (x) = 0.22811 0.32405
# Poissons Ratio (y) = 0.21721 0.50108
# Poissons Ratio (z) = 0.38333 0.62248
#
# Static dielectric constant tensor:
#      x y z
#    x 3.217520 0.000000 0.000000 
#    y 0.000000 3.426350 0.000000 
#    z 0.000000 0.000000 3.222630 
# 
# 
# High freq. dielectric constant tensor:
#      x y z
#    x 1.686640 0.000000 0.000000 
#    y 0.000000 1.691650 0.000000 
#    z 0.000000 0.000000 1.669430 
# 
# From -- ./inp_files/22176.got.cif
#   From: 2010.03.12/outbox.cif.g09.slc.cpg/sg38_12_cif.got.tgz:22176.got - 2010.04.14 02:38:36.
