data_PCOD8178662
_publ_section_title
;
Structure prediction by ZEFSAII (Michael W. Deem and Ramdas Pophale) SiO2 
 PCOD8178662
Probable space group: A M M 2
;
_chemical_formula_sum "Si O2"
_cell_formula_units_Z 48
_cell_length_a 9.020123
_cell_length_b 24.739242
_cell_length_c 12.261297
_cell_angle_alpha 90.000000
_cell_angle_beta 90.000000
_cell_angle_gamma 90.000000
_cell_volume 2736.120758
_symmetry_space_group_name_H-M "A M M 2"
_symmetry_group_IT_number 38
_symmetry_cell_setting 'orthorhombic'
loop_
_space_group_symop_operation_xyz
x,y,z
-x,-y,z
-x,y,z
x,-y,z
x,1/2+y,1/2+z
-x,1/2-y,1/2+z
-x,1/2+y,1/2+z
x,1/2-y,1/2+z
loop_
_atom_site_type_symbol
_atom_site_label
_atom_site_fract_x
_atom_site_fract_y
_atom_site_fract_z
Si Si1 0.675435 0.665311 0.790260
Si Si2 0.327791 0.562769 0.175593
Si Si3 0.173520 0.153747 0.062301
Si Si4 0.166653 0.756865 0.430319
Si Si5 0.832849 0.628084 0.988775
Si Si6 0.170417 0.438530 0.395369
O O1 0.500000 0.662780 0.794313
O O2 0.731086 0.651183 0.670727
O O3 0.731737 0.725526 0.826611
O O4 0.744053 0.620745 0.874121
O O5 0.500000 0.576167 0.170037
O O6 0.293923 0.500000 0.154722
O O7 0.246216 0.596652 0.084291
O O8 0.268723 0.580499 0.293616
O O9 0.000000 0.160452 0.090621
O O10 0.230491 0.203982 0.989304
O O11 0.207097 0.098592 0.998497
O O12 0.165531 0.807403 0.515739
O O13 0.000000 0.745337 0.387233
O O14 0.000000 0.605891 0.974700
O O15 0.207756 0.500000 0.429152
O O16 0.000000 0.432230 0.359721
#
# Coordination Sequence:
#
# PCOD8178662 Si02
#       6
#     8   8   8   8   8   8
#     4  10  20  34  52  77 110 139 173 222 269 317
#     4  10  20  34  54  80 111 143 174 218 273 321
#     4  10  19  35  57  78 106 144 181 218 264 319
#     4   8  18  34  52  75 103 140 177 214 260 314
#     4   9  18  35  55  76 104 141 180 219 259 310
#     4   9  19  35  55  79 105 138 183 227 262 309
#
# _framework density 17.543085000000001
#
# number of rings (size 3 to 8) (size 9 to 14) (size 15 to 20)
#    1.000    1.667    0.000    2.000    0.000    3.667 
#    0.000    7.500    0.000    3.000    0.000    0.000 
#    0.000    0.000    0.000    0.000    0.000    0.000 
#
# Total GULP energy -297454.311745 kJ/mol
# GULP energy per Si atom -12393.929656 kJ/mol
# Density = 1.750316 g / cm^3
# Si number density = 17.543085 Si / 1000 Ang^3
#
#
#
# Elastic Constant Matrix: (Units=GPa)
#
#
# Indices 1 2 3 4 5 6 
#
# 1 118.2562 48.3037 76.5183 0.0000 0.0000 0.0000
# 2 48.3037 73.0614 63.8299 0.0000 0.0000 0.0000
# 3 76.5183 63.8299 130.4502 0.0000 0.0000 0.0000
# 4 0.0000 0.0000 0.0000 30.2568 0.0000 0.0000
# 5 0.0000 0.0000 0.0000 0.0000 17.2923 0.0000
# 6 0.0000 0.0000 0.0000 0.0000 0.0000 15.8303
#
#
#
# Elastic Compliance Matrix: (Units=1/GPa)
#
#
# Indices 1 2 3 4 5 6 
#
# 1 0.014174 -0.003681 -0.006513 0.000000 0.000000 0.000000
# 2 -0.003681 0.024863 -0.010006 0.000000 0.000000 0.000000
# 3 -0.006513 -0.010006 0.016382 0.000000 0.000000 0.000000
# 4 0.000000 0.000000 0.000000 0.033050 0.000000 0.000000
# 5 0.000000 0.000000 0.000000 0.000000 0.057829 0.000000
# 6 0.000000 0.000000 0.000000 0.000000 0.000000 0.063170
#
#
# Mechanical properties :
#
#
# Convention : Reuss Voigt Hill
#
# Bulk Modulus (GPa) = 66.58456 77.67462 72.12959
# Shear Modulus (GPa) = 19.61744 21.55027 20.58386
#
# Velocity S-wave (km/s) = 3.34764 3.50868 3.42911
# Velocity P-wave (km/s) = 7.27871 7.79661 7.54210
#
# Compressibility (1/GPa) = 0.01501850
#
# Stress axis : x y z
#
# Youngs Moduli (GPa) = 70.55173 40.22092 61.04191
#
# Poissons Ratio (x) = 0.14805 0.39756
# Poissons Ratio (y) = 0.25970 0.61080
# Poissons Ratio (z) = 0.45950 0.40246
#
# Static dielectric constant tensor:
#      x y z
#    x 3.336040 0.000000 0.000000 
#    y 0.000000 3.199300 0.000000 
#    z 0.000000 0.000000 3.083960 
# 
# 
# High freq. dielectric constant tensor:
#      x y z
#    x 1.680980 0.000000 0.000000 
#    y 0.000000 1.663880 0.000000 
#    z 0.000000 0.000000 1.667690 
# 
# From -- ./inp_files/12545.got.cif
#   From: 2010.03.12/outbox.cif.g09.slc.cpg/sg38_7_cif.got.tgz:12545.got - 2010.04.14 02:38:36.
