data_PCOD8178418
_publ_section_title
;
Structure prediction by ZEFSAII (Michael W. Deem and Ramdas Pophale) SiO2 
 PCOD8178418
Probable space group: A M M 2
;
_chemical_formula_sum "Si O2"
_cell_formula_units_Z 48
_cell_length_a 16.722693
_cell_length_b 9.495248
_cell_length_c 15.857440
_cell_angle_alpha 90.000000
_cell_angle_beta 90.000000
_cell_angle_gamma 90.000000
_cell_volume 2517.941327
_symmetry_space_group_name_H-M "A M M 2"
_symmetry_group_IT_number 38
_symmetry_cell_setting 'orthorhombic'
loop_
_space_group_symop_operation_xyz
x,y,z
-x,-y,z
-x,y,z
x,-y,z
x,1/2+y,1/2+z
-x,1/2-y,1/2+z
-x,1/2+y,1/2+z
x,1/2-y,1/2+z
loop_
_atom_site_type_symbol
_atom_site_label
_atom_site_fract_x
_atom_site_fract_y
_atom_site_fract_z
Si Si1 0.662166 0.664580 0.105750
Si Si2 0.500000 0.657432 0.845461
Si Si3 0.169729 0.662817 0.173236
Si Si4 0.329133 0.838437 0.420277
Si Si5 0.190317 0.164538 0.859785
Si Si6 0.500000 0.332052 0.183300
Si Si7 0.907246 0.163472 0.024187
O O1 0.646341 0.500000 0.096074
O O2 0.735805 0.698630 0.167306
O O3 0.579533 0.731543 0.139385
O O4 0.684675 0.724003 0.013891
O O5 0.500000 0.500000 0.805306
O O6 0.577405 0.678706 0.902790
O O7 0.500000 0.778963 0.777712
O O8 0.153874 0.500000 0.150324
O O9 0.145250 0.695451 0.270488
O O10 0.119578 0.754432 0.107713
O O11 0.274308 0.746868 0.358261
O O12 0.301367 0.000000 0.411936
O O13 0.209822 0.000000 0.865947
O O14 0.136699 0.215891 0.938792
O O15 0.500000 0.500000 0.185008
O O16 0.000000 0.192620 0.009000
O O17 0.889309 0.000000 0.040272
#
# Coordination Sequence:
#
# PCOD8178418 Si02
#       7
#     8   4   8   8   8   4   8
#     4   9  17  31  53  79 105 140 188 231 267 316
#     4  10  21  33  47  75 111 146 186 232 278 324
#     4  10  20  36  59  86 113 145 190 232 270 329
#     4  10  19  34  55  78 110 150 190 230 275 328
#     4  10  21  37  59  87 115 145 184 232 283 331
#     4  10  19  33  53  75 105 146 190 234 274 320
#     4  10  22  40  59  82 115 148 178 223 286 345
#
# _framework density 19.063191
#
# number of rings (size 3 to 8) (size 9 to 14) (size 15 to 20)
#    0.000    2.167    1.667    1.500    0.000    5.667 
#    0.000    3.333    0.000    1.000    0.000    0.000 
#    0.000    0.000    0.000    0.000    0.000    0.000 
#
# Total GULP energy -297553.135407 kJ/mol
# GULP energy per Si atom -12398.047309 kJ/mol
# Density = 1.901980 g / cm^3
# Si number density = 19.063191 Si / 1000 Ang^3
#
#
#
# Elastic Constant Matrix: (Units=GPa)
#
#
# Indices 1 2 3 4 5 6 
#
# 1 95.9389 39.5942 43.8844 0.0000 0.0000 0.0000
# 2 39.5942 46.9907 44.0654 0.0000 0.0000 0.0000
# 3 43.8844 44.0654 132.1867 0.0000 0.0000 0.0000
# 4 0.0000 0.0000 0.0000 29.9111 0.0000 0.0000
# 5 0.0000 0.0000 0.0000 0.0000 22.1002 0.0000
# 6 0.0000 0.0000 0.0000 0.0000 0.0000 24.2409
#
#
#
# Elastic Compliance Matrix: (Units=1/GPa)
#
#
# Indices 1 2 3 4 5 6 
#
# 1 0.016110 -0.012451 -0.001198 0.000000 0.000000 0.000000
# 2 -0.012451 0.040582 -0.009395 0.000000 0.000000 0.000000
# 3 -0.001198 -0.009395 0.011094 0.000000 0.000000 0.000000
# 4 0.000000 0.000000 0.000000 0.033432 0.000000 0.000000
# 5 0.000000 0.000000 0.000000 0.000000 0.045248 0.000000
# 6 0.000000 0.000000 0.000000 0.000000 0.000000 0.041253
#
#
# Mechanical properties :
#
#
# Convention : Reuss Voigt Hill
#
# Bulk Modulus (GPa) = 46.08409 58.91159 52.49784
# Shear Modulus (GPa) = 20.74357 25.08860 22.91608
#
# Velocity S-wave (km/s) = 3.30229 3.63171 3.47091
# Velocity P-wave (km/s) = 6.22631 6.96823 6.60769
#
# Compressibility (1/GPa) = 0.02169946
#
# Stress axis : x y z
#
# Youngs Moduli (GPa) = 62.07484 24.64165 90.13523
#
# Poissons Ratio (x) = 0.30681 0.10795
# Poissons Ratio (y) = 0.77288 0.84679
# Poissons Ratio (z) = 0.07434 0.23150
#
# Static dielectric constant tensor:
#      x y z
#    x 3.527010 0.000000 0.000000 
#    y 0.000000 3.244920 0.000000 
#    z 0.000000 0.000000 3.634970 
# 
# 
# High freq. dielectric constant tensor:
#      x y z
#    x 1.741920 0.000000 0.000000 
#    y 0.000000 1.713640 0.000000 
#    z 0.000000 0.000000 1.751890 
# 
# From -- ./inp_files/14988.got.cif
#   From: 2010.03.12/outbox.cif.g09.slc.cpg/sg38_8_cif.got.tgz:14988.got - 2010.04.14 02:38:36.
