data_PCOD8178089
_publ_section_title
;
Structure prediction by ZEFSAII (Michael W. Deem and Ramdas Pophale) SiO2 
 PCOD8178089
Probable space group: A M M 2
;
_chemical_formula_sum "Si O2"
_cell_formula_units_Z 56
_cell_length_a 7.759753
_cell_length_b 13.765427
_cell_length_c 32.428424
_cell_angle_alpha 90.000000
_cell_angle_beta 90.000000
_cell_angle_gamma 90.000000
_cell_volume 3463.884703
_symmetry_space_group_name_H-M "A M M 2"
_symmetry_group_IT_number 38
_symmetry_cell_setting 'orthorhombic'
loop_
_space_group_symop_operation_xyz
x,y,z
-x,-y,z
-x,y,z
x,-y,z
x,1/2+y,1/2+z
-x,1/2-y,1/2+z
-x,1/2+y,1/2+z
x,1/2-y,1/2+z
loop_
_atom_site_type_symbol
_atom_site_label
_atom_site_fract_x
_atom_site_fract_y
_atom_site_fract_z
Si Si1 0.701201 0.893965 0.156270
Si Si2 0.000000 0.384832 0.879194
Si Si3 0.295748 0.891165 0.698349
Si Si4 0.307744 0.611706 0.822054
Si Si5 0.803559 0.297289 0.740245
Si Si6 0.698017 0.114545 0.530332
Si Si7 0.704595 0.204429 0.615311
Si Si8 0.000000 0.115130 0.471042
O O1 0.500000 0.902961 0.148745
O O2 0.730406 0.860008 0.202805
O O3 0.776549 0.813566 0.124443
O O4 0.787901 0.000000 0.148805
O O5 0.828690 0.348732 0.855558
O O6 0.000000 0.339403 0.925174
O O7 0.000000 0.500000 0.882794
O O8 0.500000 0.880743 0.700692
O O9 0.213727 0.817585 0.731331
O O10 0.230575 0.865360 0.652189
O O11 0.234646 0.000000 0.709170
O O12 0.500000 0.620957 0.840922
O O13 0.265207 0.500000 0.810661
O O14 0.301442 0.676094 0.781020
O O15 0.000000 0.325715 0.748029
O O16 0.500000 0.144227 0.519863
O O17 0.770579 0.166396 0.571477
O O18 0.824910 0.149504 0.493929
O O19 0.710025 0.000000 0.537897
O O20 0.500000 0.204059 0.615063
O O21 0.000000 0.000000 0.468879
#
# Coordination Sequence:
#
# PCOD8178089 Si02
#       8
#     8   4   8   8   8   8   8   4
#     4   9  17  29  44  61  84 118 158 194 226 259
#     4   9  18  32  46  65  91 115 143 179 222 272
#     4   9  17  30  46  62  85 119 157 194 226 257
#     4  10  19  31  48  67  89 119 152 185 222 266
#     4  11  20  29  42  62  91 122 153 189 224 264
#     4   9  16  27  44  64  88 118 148 180 219 264
#     4   8  14  26  43  62  85 115 151 187 222 258
#     4   9  18  30  44  65  91 115 143 177 218 272
#
# _framework density 16.166820000000001
#
# number of rings (size 3 to 8) (size 9 to 14) (size 15 to 20)
#    0.000    2.714    0.714    3.000    0.000    4.571 
#    5.143    2.857    0.000    0.000    0.000    0.000 
#    0.000    2.286    0.000    7.286    0.000    0.286 
#
# Total GULP energy -347059.393363 kJ/mol
# GULP energy per Si atom -12394.978334 kJ/mol
# Density = 1.613002 g / cm^3
# Si number density = 16.166820 Si / 1000 Ang^3
#
#
#
# Elastic Constant Matrix: (Units=GPa)
#
#
# Indices 1 2 3 4 5 6 
#
# 1 64.4533 18.4695 44.7108 0.0000 0.0000 0.0000
# 2 18.4695 77.0300 35.6325 0.0000 0.0000 0.0000
# 3 44.7108 35.6325 119.1591 0.0000 0.0000 0.0000
# 4 0.0000 0.0000 0.0000 -1.6458 0.0000 0.0000
# 5 0.0000 0.0000 0.0000 0.0000 22.6206 0.0000
# 6 0.0000 0.0000 0.0000 0.0000 0.0000 10.3618
#
#
#
# Elastic Compliance Matrix: (Units=1/GPa)
#
#
# Indices 1 2 3 4 5 6 
#
# 1 0.021148 -0.001625 -0.007449 0.000000 0.000000 0.000000
# 2 -0.001625 0.015191 -0.003933 0.000000 0.000000 0.000000
# 3 -0.007449 -0.003933 0.012363 0.000000 0.000000 0.000000
# 4 0.000000 0.000000 0.000000 -0.607613 0.000000 0.000000
# 5 0.000000 0.000000 0.000000 0.000000 0.044207 0.000000
# 6 0.000000 0.000000 0.000000 0.000000 0.000000 0.096508
#
#
# Mechanical properties :
#
#
# Convention : Reuss Voigt Hill
#
# Bulk Modulus (GPa) = 44.07558 50.91867 47.49712
# Shear Modulus (GPa) = -12.99989 17.05597 2.02804
#
# Velocity S-wave (km/s) = -2.83876 3.25160 1.12124
# Velocity P-wave (km/s) = 4.07154 6.75732 5.57848
#
# Compressibility (1/GPa) = 0.02268830
#
# Stress axis : x y z
#
# Youngs Moduli (GPa) = 47.28515 65.82921 80.88419
#
# Poissons Ratio (x) = 0.10696 0.60254
# Poissons Ratio (y) = 0.07683 0.31811
# Poissons Ratio (z) = 0.35224 0.25890
#
# Static dielectric constant tensor:
#      x y z
#    x 3.069450 0.000000 0.000000 
#    y 0.000000 4.032460 0.000000 
#    z 0.000000 0.000000 3.044730 
# 
# 
# High freq. dielectric constant tensor:
#      x y z
#    x 1.626000 0.000000 0.000000 
#    y 0.000000 1.592950 0.000000 
#    z 0.000000 0.000000 1.596350 
# 
# From -- ./inp_files/24676.got.cif
#   From: 2010.03.12/outbox.cif.g09.slc.cpg/sg38_13_cif.got.tgz:24676.got - 2010.04.14 02:38:36.
