data_PCOD8178265
_publ_section_title
;
Structure prediction by ZEFSAII (Michael W. Deem and Ramdas Pophale) SiO2 
 PCOD8178265
Probable space group: A M M 2
;
_chemical_formula_sum "Si O2"
_cell_formula_units_Z 64
_cell_length_a 14.681393
_cell_length_b 8.875409
_cell_length_c 25.133177
_cell_angle_alpha 90.000000
_cell_angle_beta 90.000000
_cell_angle_gamma 90.000000
_cell_volume 3274.937601
_symmetry_space_group_name_H-M "A M M 2"
_symmetry_group_IT_number 38
_symmetry_cell_setting 'orthorhombic'
loop_
_space_group_symop_operation_xyz
x,y,z
-x,-y,z
-x,y,z
x,-y,z
x,1/2+y,1/2+z
-x,1/2-y,1/2+z
-x,1/2+y,1/2+z
x,1/2-y,1/2+z
loop_
_atom_site_type_symbol
_atom_site_label
_atom_site_fract_x
_atom_site_fract_y
_atom_site_fract_z
Si Si1 0.103926 0.820140 0.875000
Si Si2 0.788859 0.824745 0.975627
Si Si3 0.900910 0.670183 0.182505
Si Si4 0.401538 0.324808 0.514699
Si Si5 0.773299 0.178556 0.776978
Si Si6 0.176251 0.173866 0.093251
Si Si7 0.398088 0.326249 0.732995
Si Si8 0.358738 0.677473 0.122254
O O1 0.152292 0.751688 0.928140
O O2 0.166999 0.762826 0.826646
O O3 0.000000 0.757779 0.870672
O O4 0.099933 0.000000 0.876127
O O5 0.684017 0.761844 0.979904
O O6 0.783017 0.000000 0.962967
O O7 0.841296 0.792029 0.031068
O O8 0.878219 0.500000 0.164966
O O9 0.826461 0.729364 0.224080
O O10 0.907932 0.777439 0.130156
O O11 0.000000 0.676708 0.210395
O O12 0.500000 0.303143 0.485354
O O13 0.382039 0.500000 0.526816
O O14 0.410463 0.242021 0.570994
O O15 0.673346 0.253100 0.774742
O O16 0.761301 0.000000 0.780085
O O17 0.253617 0.280771 0.117240
O O18 0.202447 0.000000 0.100671
O O19 0.500000 0.309090 0.757157
O O20 0.371906 0.500000 0.724946
O O21 0.398485 0.245807 0.676050
O O22 0.372659 0.500000 0.124659
#
# Coordination Sequence:
#
# PCOD8178265 Si02
#       8
#     8   8   8   8   8   8   8   8
#     4   9  17  32  56  83 109 140 180 228 279 324
#     4   8  16  30  49  76 107 138 179 227 271 319
#     4  10  20  33  50  76 110 145 178 219 276 334
#     4   9  17  30  48  72 106 146 184 223 269 321
#     4  10  20  35  56  81 108 140 182 229 272 321
#     4  10  19  32  51  77 111 148 184 222 268 322
#     4  11  23  37  54  77 108 146 182 219 270 328
#     4  11  20  31  50  77 109 144 182 224 268 319
#
# _framework density 19.542356000000002
#
# number of rings (size 3 to 8) (size 9 to 14) (size 15 to 20)
#    0.000    2.250    1.250    3.375    0.000    5.000 
#    0.000    1.875    0.000    7.125    0.000    0.000 
#    0.000    0.000    0.000    0.000    0.000    0.000 
#
# Total GULP energy -396538.629281 kJ/mol
# GULP energy per Si atom -12391.832165 kJ/mol
# Density = 1.949788 g / cm^3
# Si number density = 19.542356 Si / 1000 Ang^3
#
#
#
# Elastic Constant Matrix: (Units=GPa)
#
#
# Indices 1 2 3 4 5 6 
#
# 1 139.8273 33.0466 70.0397 0.0000 0.0000 0.0000
# 2 33.0466 60.3723 33.2281 0.0000 0.0000 0.0000
# 3 70.0397 33.2281 120.2760 0.0000 0.0000 0.0000
# 4 0.0000 0.0000 0.0000 18.2563 0.0000 0.0000
# 5 0.0000 0.0000 0.0000 0.0000 22.2970 0.0000
# 6 0.0000 0.0000 0.0000 0.0000 0.0000 20.9288
#
#
#
# Elastic Compliance Matrix: (Units=1/GPa)
#
#
# Indices 1 2 3 4 5 6 
#
# 1 0.010485 -0.002805 -0.005331 0.000000 0.000000 0.000000
# 2 -0.002805 0.020285 -0.003970 0.000000 0.000000 0.000000
# 3 -0.005331 -0.003970 0.012515 0.000000 0.000000 0.000000
# 4 0.000000 0.000000 0.000000 0.054776 0.000000 0.000000
# 5 0.000000 0.000000 0.000000 0.000000 0.044849 0.000000
# 6 0.000000 0.000000 0.000000 0.000000 0.000000 0.047781
#
#
# Mechanical properties :
#
#
# Convention : Reuss Voigt Hill
#
# Bulk Modulus (GPa) = 52.43222 65.90049 59.16636
# Shear Modulus (GPa) = 22.59784 24.57384 23.58584
#
# Velocity S-wave (km/s) = 3.40421 3.54992 3.47783
# Velocity P-wave (km/s) = 6.50690 7.11321 6.81680
#
# Compressibility (1/GPa) = 0.01907224
#
# Stress axis : x y z
#
# Youngs Moduli (GPa) = 95.37673 49.29832 79.90296
#
# Poissons Ratio (x) = 0.13830 0.42592
# Poissons Ratio (y) = 0.26756 0.31724
# Poissons Ratio (z) = 0.50841 0.19573
#
# Static dielectric constant tensor:
#      x y z
#    x 3.848220 0.000000 0.000000 
#    y 0.000000 3.238380 0.000000 
#    z 0.000000 0.000000 3.516630 
# 
# 
# High freq. dielectric constant tensor:
#      x y z
#    x 1.776300 0.000000 0.000000 
#    y 0.000000 1.728070 0.000000 
#    z 0.000000 0.000000 1.739010 
# 
# From -- ./inp_files/22968.got.cif
#   From: 2010.03.12/outbox.cif.g09.slc.cpg/sg38_12_cif.got.tgz:22968.got - 2010.04.14 02:38:36.
