data_PCOD8178972
_publ_section_title
;
Structure prediction by ZEFSAII (Michael W. Deem and Ramdas Pophale) SiO2 
 PCOD8178972
Probable space group: A M M 2
;
_chemical_formula_sum "Si O2"
_cell_formula_units_Z 64
_cell_length_a 19.256341
_cell_length_b 9.032888
_cell_length_c 20.927730
_cell_angle_alpha 90.000000
_cell_angle_beta 90.000000
_cell_angle_gamma 90.000000
_cell_volume 3640.177132
_symmetry_space_group_name_H-M "A M M 2"
_symmetry_group_IT_number 38
_symmetry_cell_setting 'orthorhombic'
loop_
_space_group_symop_operation_xyz
x,y,z
-x,-y,z
-x,y,z
x,-y,z
x,1/2+y,1/2+z
-x,1/2-y,1/2+z
-x,1/2+y,1/2+z
x,1/2-y,1/2+z
loop_
_atom_site_type_symbol
_atom_site_label
_atom_site_fract_x
_atom_site_fract_y
_atom_site_fract_z
Si Si1 0.923734 0.674376 0.082880
Si Si2 0.923081 0.670648 0.450812
Si Si3 0.577531 0.329029 0.207124
Si Si4 0.716185 0.173788 0.769380
Si Si5 0.296410 0.324255 0.018699
Si Si6 0.786314 0.824661 0.643020
Si Si7 0.777962 0.326269 0.400625
Si Si8 0.579537 0.828043 0.074526
O O1 0.920188 0.500000 0.073792
O O2 0.866534 0.726063 0.134515
O O3 0.000000 0.725757 0.106698
O O4 0.905683 0.739488 0.014203
O O5 0.922541 0.500000 0.470609
O O6 0.861516 0.703079 0.400108
O O7 0.000000 0.713985 0.423273
O O8 0.500000 0.297007 0.233974
O O9 0.585489 0.500000 0.186071
O O10 0.633828 0.290764 0.262080
O O11 0.593904 0.231814 0.145469
O O12 0.756806 0.244372 0.708682
O O13 0.746315 0.240407 0.834999
O O14 0.730106 0.000000 0.770890
O O15 0.299003 0.500000 0.013046
O O16 0.257794 0.260458 0.957644
O O17 0.257019 0.267943 0.082231
O O18 0.374184 0.259008 0.022780
O O19 0.779492 0.000000 0.646083
O O20 0.761599 0.500000 0.408232
O O21 0.500000 0.800610 0.054859
O O22 0.598915 0.000000 0.073402
#
# Coordination Sequence:
#
# PCOD8178972 Si02
#       8
#     8   8   8   8   8   8   8   8
#     4   9  16  27  46  72  98 125 163 210 254 294
#     4   9  17  29  45  68  97 129 167 208 254 307
#     4   9  16  29  51  75  97 128 171 209 248 304
#     4   9  17  31  49  71 100 133 168 208 253 304
#     4  11  20  33  54  76 101 132 168 210 251 300
#     4   9  16  28  48  73  97 125 163 207 250 293
#     4  10  20  33  50  72 102 137 172 212 256 304
#     4  10  20  33  51  78 108 133 163 208 257 301
#
# _framework density 17.581562999999999
#
# number of rings (size 3 to 8) (size 9 to 14) (size 15 to 20)
#    0.000    2.500    2.500    0.750    0.000    0.750 
#    0.000    1.875    0.000    6.000    0.000    0.000 
#    0.000    4.000    0.000    0.000    0.000    0.000 
#
# Total GULP energy -396626.806829 kJ/mol
# GULP energy per Si atom -12394.587713 kJ/mol
# Density = 1.754155 g / cm^3
# Si number density = 17.581563 Si / 1000 Ang^3
#
#
#
# Elastic Constant Matrix: (Units=GPa)
#
#
# Indices 1 2 3 4 5 6 
#
# 1 153.9668 35.6114 79.1290 0.0000 0.0000 0.0000
# 2 35.6114 40.3594 28.6512 0.0000 0.0000 0.0000
# 3 79.1290 28.6512 115.2008 0.0000 0.0000 0.0000
# 4 0.0000 0.0000 0.0000 18.9596 0.0000 0.0000
# 5 0.0000 0.0000 0.0000 0.0000 29.2082 0.0000
# 6 0.0000 0.0000 0.0000 0.0000 0.0000 19.6664
#
#
#
# Elastic Compliance Matrix: (Units=1/GPa)
#
#
# Indices 1 2 3 4 5 6 
#
# 1 0.010872 -0.005212 -0.006172 0.000000 0.000000 0.000000
# 2 -0.005212 0.032589 -0.004525 0.000000 0.000000 0.000000
# 3 -0.006172 -0.004525 0.014045 0.000000 0.000000 0.000000
# 4 0.000000 0.000000 0.000000 0.052744 0.000000 0.000000
# 5 0.000000 0.000000 0.000000 0.000000 0.034237 0.000000
# 6 0.000000 0.000000 0.000000 0.000000 0.000000 0.050848
#
#
# Mechanical properties :
#
#
# Convention : Reuss Voigt Hill
#
# Bulk Modulus (GPa) = 38.92777 66.25670 52.59224
# Shear Modulus (GPa) = 21.21209 24.64254 22.92731
#
# Velocity S-wave (km/s) = 3.47723 3.74787 3.61509
# Velocity P-wave (km/s) = 6.18958 7.51637 6.88501
#
# Compressibility (1/GPa) = 0.02568860
#
# Stress axis : x y z
#
# Youngs Moduli (GPa) = 91.97757 30.68567 71.19928
#
# Poissons Ratio (x) = 0.15993 0.43942
# Poissons Ratio (y) = 0.47938 0.32218
# Poissons Ratio (z) = 0.56765 0.13885
#
# Static dielectric constant tensor:
#      x y z
#    x 3.764480 0.000000 0.000000 
#    y 0.000000 3.071150 0.000000 
#    z 0.000000 0.000000 3.194850 
# 
# 
# High freq. dielectric constant tensor:
#      x y z
#    x 1.702220 0.000000 0.000000 
#    y 0.000000 1.654870 0.000000 
#    z 0.000000 0.000000 1.646290 
# 
# From -- ./inp_files/18960.got.cif
#   From: 2010.03.12/outbox.cif.g09.slc.cpg/sg38_10_cif.got.tgz:18960.got - 2010.04.14 02:38:36.
