data_PCOD8178973
_publ_section_title
;
Structure prediction by ZEFSAII (Michael W. Deem and Ramdas Pophale) SiO2 
 PCOD8178973
Probable space group: A M M 2
;
_chemical_formula_sum "Si O2"
_cell_formula_units_Z 48
_cell_length_a 16.370134
_cell_length_b 9.209972
_cell_length_c 18.405062
_cell_angle_alpha 90.000000
_cell_angle_beta 90.000000
_cell_angle_gamma 90.000000
_cell_volume 2774.903144
_symmetry_space_group_name_H-M "A M M 2"
_symmetry_group_IT_number 38
_symmetry_cell_setting 'orthorhombic'
loop_
_space_group_symop_operation_xyz
x,y,z
-x,-y,z
-x,y,z
x,-y,z
x,1/2+y,1/2+z
-x,1/2-y,1/2+z
-x,1/2+y,1/2+z
x,1/2-y,1/2+z
loop_
_atom_site_type_symbol
_atom_site_label
_atom_site_fract_x
_atom_site_fract_y
_atom_site_fract_z
Si Si1 0.831962 0.840371 0.768260
Si Si2 0.334834 0.337144 0.180465
Si Si3 0.274002 0.671094 0.396530
Si Si4 0.909681 0.669568 0.648649
Si Si5 0.752208 0.670877 0.562104
Si Si6 0.406592 0.333022 0.807096
O O1 0.749393 0.844762 0.722783
O O2 0.806325 0.786739 0.848938
O O3 0.895847 0.735530 0.728957
O O4 0.871939 0.000000 0.772001
O O5 0.368381 0.500000 0.165550
O O6 0.319863 0.254377 0.104441
O O7 0.398340 0.247416 0.229499
O O8 0.292679 0.500000 0.387779
O O9 0.253858 0.715473 0.478442
O O10 0.353056 0.758399 0.369829
O O11 0.903449 0.500000 0.659959
O O12 0.841713 0.721581 0.590726
O O13 0.000000 0.715108 0.620544
O O14 0.739659 0.500000 0.573933
O O15 0.500000 0.322522 0.832592
O O16 0.378770 0.500000 0.797646
#
# Coordination Sequence:
#
# PCOD8178973 Si02
#       6
#     8   8   8   8   8   8
#     4   8  15  28  45  66  90 117 152 191 230 276
#     4   9  17  30  49  71  93 120 156 193 230 277
#     4   9  18  32  50  72  97 126 160 196 238 287
#     4   9  17  29  46  68  93 123 160 200 240 281
#     4   9  17  31  50  71  97 128 160 195 237 285
#     4  10  20  33  50  72  96 123 158 199 241 284
#
# _framework density 17.297901
#
# number of rings (size 3 to 8) (size 9 to 14) (size 15 to 20)
#    0.000    3.000    0.000    2.000    0.000    6.333 
#    0.000    1.667    0.000    4.000    0.000    0.000 
#    0.000    0.000    0.000    0.000    0.000    0.000 
#
# Total GULP energy -297487.013593 kJ/mol
# GULP energy per Si atom -12395.292233 kJ/mol
# Density = 1.725853 g / cm^3
# Si number density = 17.297901 Si / 1000 Ang^3
#
#
#
# Elastic Constant Matrix: (Units=GPa)
#
#
# Indices 1 2 3 4 5 6 
#
# 1 74.3821 39.6396 44.2926 0.0000 0.0000 0.0000
# 2 39.6396 72.4110 48.9254 0.0000 0.0000 0.0000
# 3 44.2926 48.9254 140.7861 0.0000 0.0000 0.0000
# 4 0.0000 0.0000 0.0000 28.0129 0.0000 0.0000
# 5 0.0000 0.0000 0.0000 0.0000 18.3175 0.0000
# 6 0.0000 0.0000 0.0000 0.0000 0.0000 22.1766
#
#
#
# Elastic Compliance Matrix: (Units=1/GPa)
#
#
# Indices 1 2 3 4 5 6 
#
# 1 0.020066 -0.008781 -0.003261 0.000000 0.000000 0.000000
# 2 -0.008781 0.021890 -0.004845 0.000000 0.000000 0.000000
# 3 -0.003261 -0.004845 0.009813 0.000000 0.000000 0.000000
# 4 0.000000 0.000000 0.000000 0.035698 0.000000 0.000000
# 5 0.000000 0.000000 0.000000 0.000000 0.054593 0.000000
# 6 0.000000 0.000000 0.000000 0.000000 0.000000 0.045093
#
#
# Mechanical properties :
#
#
# Convention : Reuss Voigt Hill
#
# Bulk Modulus (GPa) = 55.57170 61.47716 58.52443
# Shear Modulus (GPa) = 22.03386 24.01618 23.02502
#
# Velocity S-wave (km/s) = 3.57289 3.73015 3.65237
# Velocity P-wave (km/s) = 7.01546 7.35999 7.18979
#
# Compressibility (1/GPa) = 0.01799477
#
# Stress axis : x y z
#
# Youngs Moduli (GPa) = 49.83655 45.68246 101.90953
#
# Poissons Ratio (x) = 0.40113 0.33236
# Poissons Ratio (y) = 0.43761 0.49372
# Poissons Ratio (z) = 0.16253 0.22132
#
# Static dielectric constant tensor:
#      x y z
#    x 3.126040 0.000000 0.000000 
#    y 0.000000 3.369610 0.000000 
#    z 0.000000 0.000000 3.358830 
# 
# 
# High freq. dielectric constant tensor:
#      x y z
#    x 1.644530 0.000000 0.000000 
#    y 0.000000 1.670690 0.000000 
#    z 0.000000 0.000000 1.658690 
# 
# From -- ./inp_files/18580.got.cif
#   From: 2010.03.12/outbox.cif.g09.slc.cpg/sg38_10_cif.got.tgz:18580.got - 2010.04.14 02:38:36.
