data_PCOD8178532
_publ_section_title
;
Structure prediction by ZEFSAII (Michael W. Deem and Ramdas Pophale) SiO2 
 PCOD8178532
Probable space group: A M M 2
;
_chemical_formula_sum "Si O2"
_cell_formula_units_Z 64
_cell_length_a 8.650591
_cell_length_b 29.051171
_cell_length_c 12.649530
_cell_angle_alpha 90.000000
_cell_angle_beta 90.000000
_cell_angle_gamma 90.000000
_cell_volume 3178.950834
_symmetry_space_group_name_H-M "A M M 2"
_symmetry_group_IT_number 38
_symmetry_cell_setting 'orthorhombic'
loop_
_space_group_symop_operation_xyz
x,y,z
-x,-y,z
-x,y,z
x,-y,z
x,1/2+y,1/2+z
-x,1/2-y,1/2+z
-x,1/2+y,1/2+z
x,1/2-y,1/2+z
loop_
_atom_site_type_symbol
_atom_site_label
_atom_site_fract_x
_atom_site_fract_y
_atom_site_fract_z
Si Si1 0.678524 0.576380 0.834750
Si Si2 0.824629 0.949600 0.129750
Si Si3 0.183233 0.447359 0.262570
Si Si4 0.174409 0.201502 0.489255
Si Si5 0.319381 0.610104 0.455100
Si Si6 0.184083 0.101405 0.547969
Si Si7 0.181795 0.300116 0.538291
Si Si8 0.826111 0.833563 0.267719
O O1 0.500000 0.562561 0.838631
O O2 0.766986 0.544508 0.750324
O O3 0.700289 0.627938 0.792413
O O4 0.749622 0.570774 0.951840
O O5 0.000000 0.931031 0.126354
O O6 0.815104 0.000000 0.076275
O O7 0.718880 0.913883 0.066667
O O8 0.247122 0.500000 0.265710
O O9 0.239185 0.418313 0.362193
O O10 0.241954 0.421649 0.156534
O O11 0.000000 0.448311 0.264410
O O12 0.248284 0.154288 0.537608
O O13 0.256352 0.249259 0.522223
O O14 0.180026 0.202985 0.362130
O O15 0.000000 0.203061 0.532351
O O16 0.500000 0.609698 0.434415
O O17 0.260359 0.662703 0.460243
O O18 0.000000 0.101512 0.537531
O O19 0.220341 0.309933 0.659420
O O20 0.000000 0.300719 0.512806
O O21 0.000000 0.854980 0.261560
#
# Coordination Sequence:
#
# PCOD8178532 Si02
#       8
#     8   8   8   8   8   8   8   8
#     4  11  21  34  56  85 118 152 186 231 293 355
#     4  11  23  39  60  84 111 146 191 241 291 347
#     4  10  22  41  65  90 118 158 205 251 301 361
#     4   8  16  31  54  86 114 148 201 254 296 342
#     4  12  25  39  57  84 119 155 195 245 304 365
#     4   9  19  38  62  86 118 156 202 250 292 347
#     4  10  19  33  57  83 112 154 203 250 298 353
#     4   9  17  32  54  78 112 153 194 240 290 344
#
# _framework density 20.132428999999998
#
# number of rings (size 3 to 8) (size 9 to 14) (size 15 to 20)
#    0.000    2.000    1.250    3.750    0.000    4.750 
#    0.000    7.500    0.000    1.500    0.000    0.000 
#    0.000    0.000    0.000    0.000    0.000    0.000 
#
# Total GULP energy -396641.836102 kJ/mol
# GULP energy per Si atom -12395.057378 kJ/mol
# Density = 2.008661 g / cm^3
# Si number density = 20.132429 Si / 1000 Ang^3
#
#
#
# Elastic Constant Matrix: (Units=GPa)
#
#
# Indices 1 2 3 4 5 6 
#
# 1 35.4982 10.7445 11.2591 0.0000 0.0000 0.0000
# 2 10.7445 120.5246 53.3473 0.0000 0.0000 0.0000
# 3 11.2591 53.3473 118.4321 0.0000 0.0000 0.0000
# 4 0.0000 0.0000 0.0000 28.0309 0.0000 0.0000
# 5 0.0000 0.0000 0.0000 0.0000 19.0672 0.0000
# 6 0.0000 0.0000 0.0000 0.0000 0.0000 -8.9830
#
#
#
# Elastic Compliance Matrix: (Units=1/GPa)
#
#
# Indices 1 2 3 4 5 6 
#
# 1 0.029330 -0.001724 -0.002012 0.000000 0.000000 0.000000
# 2 -0.001724 0.010465 -0.004550 0.000000 0.000000 0.000000
# 3 -0.002012 -0.004550 0.010684 0.000000 0.000000 0.000000
# 4 0.000000 0.000000 0.000000 0.035675 0.000000 0.000000
# 5 0.000000 0.000000 0.000000 0.000000 0.052446 0.000000
# 6 0.000000 0.000000 0.000000 0.000000 0.000000 -0.111322
#
#
# Mechanical properties :
#
#
# Convention : Reuss Voigt Hill
#
# Bulk Modulus (GPa) = 29.49180 47.23964 38.36572
# Shear Modulus (GPa) = 90.65751 20.89664 55.77707
#
# Velocity S-wave (km/s) = 6.71776 3.22523 5.26927
# Velocity P-wave (km/s) = 8.65170 6.11432 7.49122
#
# Compressibility (1/GPa) = 0.03390773
#
# Stress axis : x y z
#
# Youngs Moduli (GPa) = 34.09434 95.55974 93.59473
#
# Poissons Ratio (x) = 0.16478 0.18828
# Poissons Ratio (y) = 0.05879 0.42584
# Poissons Ratio (z) = 0.06859 0.43478
#
# Static dielectric constant tensor:
#      x y z
#    x 3.320160 0.000000 0.000000 
#    y 0.000000 3.865320 0.000000 
#    z 0.000000 0.000000 3.778570 
# 
# 
# High freq. dielectric constant tensor:
#      x y z
#    x 1.753710 0.000000 0.000000 
#    y 0.000000 1.791150 0.000000 
#    z 0.000000 0.000000 1.789440 
# 
# From -- ./inp_files/8639.got.cif
#   From: 2010.03.12/outbox.cif.g09.slc.cpg/sg38_5_cif.got.tgz:8639.got - 2010.04.14 02:38:36.
