data_PCOD8178502
_publ_section_title
;
Structure prediction by ZEFSAII (Michael W. Deem and Ramdas Pophale) SiO2 
 PCOD8178502
Probable space group: A M M 2
;
_chemical_formula_sum "Si O2"
_cell_formula_units_Z 64
_cell_length_a 19.548520
_cell_length_b 19.384303
_cell_length_c 8.581150
_cell_angle_alpha 90.000000
_cell_angle_beta 90.000000
_cell_angle_gamma 90.000000
_cell_volume 3251.693226
_symmetry_space_group_name_H-M "A M M 2"
_symmetry_group_IT_number 38
_symmetry_cell_setting 'orthorhombic'
loop_
_space_group_symop_operation_xyz
x,y,z
-x,-y,z
-x,y,z
x,-y,z
x,1/2+y,1/2+z
-x,1/2-y,1/2+z
-x,1/2+y,1/2+z
x,1/2-y,1/2+z
loop_
_atom_site_type_symbol
_atom_site_label
_atom_site_fract_x
_atom_site_fract_y
_atom_site_fract_z
Si Si1 0.672844 0.923083 0.144250
Si Si2 0.347871 0.212033 0.966628
Si Si3 0.187824 0.922957 0.307672
Si Si4 0.576515 0.304300 0.164050
Si Si5 0.220069 0.689343 0.035972
Si Si6 0.133565 0.781870 0.819536
Si Si7 0.577966 0.078550 0.427528
Si Si8 0.077523 0.165606 0.124325
O O1 0.752369 0.925727 0.181949
O O2 0.627601 0.897148 0.289643
O O3 0.648208 0.000000 0.090826
O O4 0.666012 0.866968 0.009890
O O5 0.362217 0.209080 0.784266
O O6 0.289078 0.266424 0.015113
O O7 0.417636 0.240720 0.043739
O O8 0.220625 0.887169 0.462080
O O9 0.124759 0.885551 0.223781
O O10 0.164795 0.000000 0.356213
O O11 0.500000 0.305186 0.235463
O O12 0.592775 0.376472 0.079783
O O13 0.162843 0.726003 0.935718
O O14 0.195517 0.684434 0.217020
O O15 0.082621 0.742581 0.699943
O O16 0.096589 0.835549 0.937985
O O17 0.500000 0.088786 0.370197
O O18 0.593331 0.000000 0.474582
O O19 0.000000 0.139539 0.138957
#
# Coordination Sequence:
#
# PCOD8178502 Si02
#       8
#     8   8   8   8   8   8   8   8
#     4  10  21  37  57  81 108 140 181 228 279 336
#     4  12  22  35  56  79 107 143 184 231 284 335
#     4  10  21  37  56  79 110 147 184 225 273 328
#     4  11  23  35  51  77 109 144 183 230 279 333
#     4  10  19  34  56  82 109 142 184 230 277 325
#     4   9  18  32  54  83 111 136 176 229 274 318
#     4   9  19  37  58  79 108 148 190 233 285 340
#     4  10  19  33  55  82 112 144 178 219 271 329
#
# _framework density 19.682051999999999
#
# number of rings (size 3 to 8) (size 9 to 14) (size 15 to 20)
#    0.000    1.875    0.000    6.000    0.000    2.750 
#    0.000    1.250    0.000    5.250    0.000    0.000 
#    0.000    0.000    0.000    0.000    0.000    0.000 
#
# Total GULP energy -396519.438357 kJ/mol
# GULP energy per Si atom -12391.232449 kJ/mol
# Density = 1.963725 g / cm^3
# Si number density = 19.682052 Si / 1000 Ang^3
#
#
#
# Elastic Constant Matrix: (Units=GPa)
#
#
# Indices 1 2 3 4 5 6 
#
# 1 100.9525 35.6489 38.3299 0.0000 0.0000 0.0000
# 2 35.6489 109.1444 41.2597 0.0000 0.0000 0.0000
# 3 38.3299 41.2597 90.6078 0.0000 0.0000 0.0000
# 4 0.0000 0.0000 0.0000 25.9424 0.0000 0.0000
# 5 0.0000 0.0000 0.0000 0.0000 31.0470 0.0000
# 6 0.0000 0.0000 0.0000 0.0000 0.0000 24.3041
#
#
#
# Elastic Compliance Matrix: (Units=1/GPa)
#
#
# Indices 1 2 3 4 5 6 
#
# 1 0.012334 -0.002484 -0.004087 0.000000 0.000000 0.000000
# 2 -0.002484 0.011567 -0.004217 0.000000 0.000000 0.000000
# 3 -0.004087 -0.004217 0.014686 0.000000 0.000000 0.000000
# 4 0.000000 0.000000 0.000000 0.038547 0.000000 0.000000
# 5 0.000000 0.000000 0.000000 0.000000 0.032209 0.000000
# 6 0.000000 0.000000 0.000000 0.000000 0.000000 0.041145
#
#
# Mechanical properties :
#
#
# Convention : Reuss Voigt Hill
#
# Bulk Modulus (GPa) = 58.77902 59.02017 58.89960
# Shear Modulus (GPa) = 28.13185 28.62312 28.37748
#
# Velocity S-wave (km/s) = 3.78473 3.81763 3.80122
# Velocity P-wave (km/s) = 7.00200 7.03451 7.01827
#
# Compressibility (1/GPa) = 0.01701287
#
# Stress axis : x y z
#
# Youngs Moduli (GPa) = 81.07401 86.44944 68.09403
#
# Poissons Ratio (x) = 0.21472 0.27829
# Poissons Ratio (y) = 0.20137 0.28713
# Poissons Ratio (z) = 0.33133 0.36453
#
# Static dielectric constant tensor:
#      x y z
#    x 3.539650 0.000000 0.000000 
#    y 0.000000 3.710620 0.000000 
#    z 0.000000 0.000000 3.773670 
# 
# 
# High freq. dielectric constant tensor:
#      x y z
#    x 1.768380 0.000000 0.000000 
#    y 0.000000 1.753890 0.000000 
#    z 0.000000 0.000000 1.760330 
# 
# From -- ./inp_files/6496.got.cif
#   From: 2010.03.12/outbox.cif.g09.slc.cpg/sg38_4_cif.got.tgz:6496.got - 2010.04.14 02:38:36.
