data_PCOD8178897
_publ_section_title
;
Structure prediction by ZEFSAII (Michael W. Deem and Ramdas Pophale) SiO2 
 PCOD8178897
Probable space group: A M M 2
;
_chemical_formula_sum "Si O2"
_cell_formula_units_Z 64
_cell_length_a 9.072367
_cell_length_b 32.673164
_cell_length_c 11.750585
_cell_angle_alpha 90.000000
_cell_angle_beta 90.000000
_cell_angle_gamma 90.000000
_cell_volume 3483.142892
_symmetry_space_group_name_H-M "A M M 2"
_symmetry_group_IT_number 38
_symmetry_cell_setting 'orthorhombic'
loop_
_space_group_symop_operation_xyz
x,y,z
-x,-y,z
-x,y,z
x,-y,z
x,1/2+y,1/2+z
-x,1/2-y,1/2+z
-x,1/2+y,1/2+z
x,1/2-y,1/2+z
loop_
_atom_site_type_symbol
_atom_site_label
_atom_site_fract_x
_atom_site_fract_y
_atom_site_fract_z
Si Si1 0.174444 0.876894 0.716410
Si Si2 0.825618 0.453546 0.076172
Si Si3 0.175371 0.647755 0.464775
Si Si4 0.836242 0.903023 0.178763
Si Si5 0.826980 0.196514 0.554981
Si Si6 0.325805 0.781278 0.093843
Si Si7 0.337014 0.048041 0.348120
Si Si8 0.164245 0.319198 0.796806
O O1 0.230263 0.921453 0.672324
O O2 0.234672 0.867868 0.843094
O O3 0.228147 0.840958 0.633065
O O4 0.000000 0.877615 0.720338
O O5 0.774950 0.500000 0.108404
O O6 0.000000 0.451592 0.062648
O O7 0.760292 0.438789 0.956045
O O8 0.221204 0.613418 0.556986
O O9 0.251014 0.690831 0.496167
O O10 0.000000 0.655180 0.467356
O O11 0.729881 0.937549 0.227934
O O12 0.836775 0.866979 0.270621
O O13 0.000000 0.921492 0.164482
O O14 0.731060 0.235440 0.586040
O O15 0.789129 0.185211 0.426401
O O16 0.000000 0.205512 0.573442
O O17 0.500000 0.783004 0.077950
O O18 0.283106 0.796414 0.219380
O O19 0.500000 0.066927 0.362838
O O20 0.345231 0.000000 0.340387
O O21 0.000000 0.300925 0.774090
#
# Coordination Sequence:
#
# PCOD8178897 Si02
#       8
#     8   8   8   8   8   8   8   8
#     4   9  18  34  57  83 106 136 179 222 263 319
#     4   9  17  32  56  84 112 139 172 221 276 320
#     4   9  19  37  57  76 103 141 182 217 261 325
#     4   9  17  32  54  77 101 130 171 219 259 306
#     4  10  20  34  55  78 102 136 178 219 259 315
#     4  11  23  36  51  75 108 138 173 221 271 317
#     4  10  20  32  49  76 109 142 175 213 261 320
#     4   9  19  36  56  76  99 131 173 214 260 317
#
# _framework density 18.374210000000001
#
# number of rings (size 3 to 8) (size 9 to 14) (size 15 to 20)
#    0.000    2.500    0.000    3.000    1.750    5.250 
#    0.000    3.125    0.000    2.250    0.000    1.750 
#    0.000    0.000    0.000    0.000    0.000    0.000 
#
# Total GULP energy -396743.062185 kJ/mol
# GULP energy per Si atom -12398.220693 kJ/mol
# Density = 1.833239 g / cm^3
# Si number density = 18.374210 Si / 1000 Ang^3
#
#
#
# Elastic Constant Matrix: (Units=GPa)
#
#
# Indices 1 2 3 4 5 6 
#
# 1 59.9717 34.8254 33.1407 0.0000 0.0000 0.0000
# 2 34.8254 84.7227 68.2809 0.0000 0.0000 0.0000
# 3 33.1407 68.2809 130.3265 0.0000 0.0000 0.0000
# 4 0.0000 0.0000 0.0000 25.8598 0.0000 0.0000
# 5 0.0000 0.0000 0.0000 0.0000 7.9704 0.0000
# 6 0.0000 0.0000 0.0000 0.0000 0.0000 12.5953
#
#
#
# Elastic Compliance Matrix: (Units=1/GPa)
#
#
# Indices 1 2 3 4 5 6 
#
# 1 0.022068 -0.007873 -0.001487 0.000000 0.000000 0.000000
# 2 -0.007873 0.023238 -0.010173 0.000000 0.000000 0.000000
# 3 -0.001487 -0.010173 0.013381 0.000000 0.000000 0.000000
# 4 0.000000 0.000000 0.000000 0.038670 0.000000 0.000000
# 5 0.000000 0.000000 0.000000 0.000000 0.125465 0.000000
# 6 0.000000 0.000000 0.000000 0.000000 0.000000 0.079395
#
#
# Mechanical properties :
#
#
# Convention : Reuss Voigt Hill
#
# Bulk Modulus (GPa) = 50.96397 60.83499 55.89948
# Shear Modulus (GPa) = 14.37516 18.53667 16.45591
#
# Velocity S-wave (km/s) = 2.80010 3.17967 2.99590
# Velocity P-wave (km/s) = 6.18473 6.83090 6.51583
#
# Compressibility (1/GPa) = 0.01962171
#
# Stress axis : x y z
#
# Youngs Moduli (GPa) = 45.31476 43.03295 74.73275
#
# Poissons Ratio (x) = 0.33878 0.11113
# Poissons Ratio (y) = 0.35675 0.76025
# Poissons Ratio (z) = 0.06738 0.43777
#
# Static dielectric constant tensor:
#      x y z
#    x 3.269650 0.000000 0.000000 
#    y 0.000000 3.445240 0.000000 
#    z 0.000000 0.000000 3.531390 
# 
# 
# High freq. dielectric constant tensor:
#      x y z
#    x 1.689580 0.000000 0.000000 
#    y 0.000000 1.709610 0.000000 
#    z 0.000000 0.000000 1.713710 
# 
# From -- ./inp_files/8579.got.cif
#   From: 2010.03.12/outbox.cif.g09.slc.cpg/sg38_5_cif.got.tgz:8579.got - 2010.04.14 02:38:36.
