data_PCOD8178207
_publ_section_title
;
Structure prediction by ZEFSAII (Michael W. Deem and Ramdas Pophale) SiO2 
 PCOD8178207
Probable space group: A M M 2
;
_chemical_formula_sum "Si O2"
_cell_formula_units_Z 56
_cell_length_a 18.147422
_cell_length_b 19.177306
_cell_length_c 9.654194
_cell_angle_alpha 90.000000
_cell_angle_beta 90.000000
_cell_angle_gamma 90.000000
_cell_volume 3359.839706
_symmetry_space_group_name_H-M "A M M 2"
_symmetry_group_IT_number 38
_symmetry_cell_setting 'orthorhombic'
loop_
_space_group_symop_operation_xyz
x,y,z
-x,-y,z
-x,y,z
x,-y,z
x,1/2+y,1/2+z
-x,1/2-y,1/2+z
-x,1/2+y,1/2+z
x,1/2-y,1/2+z
loop_
_atom_site_type_symbol
_atom_site_label
_atom_site_fract_x
_atom_site_fract_y
_atom_site_fract_z
Si Si1 0.414019 0.919970 0.781420
Si Si2 0.917620 0.690847 0.154557
Si Si3 0.587918 0.317940 0.810317
Si Si4 0.835249 0.918178 0.502136
Si Si5 0.917628 0.691101 0.850451
Si Si6 0.586904 0.308431 0.498130
Si Si7 0.662619 0.919322 0.505755
O O1 0.500000 0.908566 0.749732
O O2 0.370811 0.889038 0.648931
O O3 0.393974 0.000000 0.809255
O O4 0.389730 0.879242 0.919707
O O5 0.869564 0.619202 0.140450
O O6 0.880775 0.749803 0.252687
O O7 0.000000 0.671771 0.208869
O O8 0.922389 0.725634 0.002610
O O9 0.500000 0.324211 0.810522
O O10 0.618745 0.307610 0.654063
O O11 0.623222 0.387562 0.871814
O O12 0.617452 0.255502 0.907158
O O13 0.869523 0.880547 0.364120
O O14 0.748884 0.904658 0.502031
O O15 0.855327 0.000000 0.502271
O O16 0.000000 0.672076 0.796030
O O17 0.500000 0.301810 0.507180
O O18 0.643463 0.000000 0.499213
#
# Coordination Sequence:
#
# PCOD8178207 Si02
#       7
#     8   8   8   8   8   8   8
#     4   9  17  31  50  70  92 124 165 205 250 299
#     4   8  15  29  51  76 100 127 160 198 239 285
#     4  10  19  32  48  69  94 123 163 208 250 291
#     4   9  18  32  50  73 104 134 168 203 242 298
#     4   8  15  29  51  76 100 126 159 200 240 283
#     4   9  18  32  50  69  92 118 154 211 258 292
#     4  10  20  33  48  67  97 131 161 202 248 292
#
# _framework density 16.667463000000001
#
# number of rings (size 3 to 8) (size 9 to 14) (size 15 to 20)
#    0.857    2.143    0.000    1.286    0.000    4.857 
#    5.143    1.429    0.000    0.857    0.000    4.000 
#    0.000    0.000    0.000    0.000    0.000    0.000 
#
# Total GULP energy -346902.814950 kJ/mol
# GULP energy per Si atom -12389.386248 kJ/mol
# Density = 1.662953 g / cm^3
# Si number density = 16.667463 Si / 1000 Ang^3
#
#
#
# Elastic Constant Matrix: (Units=GPa)
#
#
# Indices 1 2 3 4 5 6 
#
# 1 48.6817 41.9867 33.4944 0.0000 0.0000 0.0000
# 2 41.9867 102.6304 60.1209 0.0000 0.0000 0.0000
# 3 33.4944 60.1209 119.4604 0.0000 0.0000 0.0000
# 4 0.0000 0.0000 0.0000 35.6525 0.0000 0.0000
# 5 0.0000 0.0000 0.0000 0.0000 10.1658 0.0000
# 6 0.0000 0.0000 0.0000 0.0000 0.0000 23.0860
#
#
#
# Elastic Compliance Matrix: (Units=1/GPa)
#
#
# Indices 1 2 3 4 5 6 
#
# 1 0.032717 -0.011360 -0.003456 0.000000 0.000000 0.000000
# 2 -0.011360 0.017762 -0.005754 0.000000 0.000000 0.000000
# 3 -0.003456 -0.005754 0.012236 0.000000 0.000000 0.000000
# 4 0.000000 0.000000 0.000000 0.028048 0.000000 0.000000
# 5 0.000000 0.000000 0.000000 0.000000 0.098369 0.000000
# 6 0.000000 0.000000 0.000000 0.000000 0.000000 0.043316
#
#
# Mechanical properties :
#
#
# Convention : Reuss Voigt Hill
#
# Bulk Modulus (GPa) = 46.35068 60.21960 53.28514
# Shear Modulus (GPa) = 17.80748 22.79224 20.29986
#
# Velocity S-wave (km/s) = 3.27218 3.70194 3.49368
# Velocity P-wave (km/s) = 6.49197 7.38112 6.95078
#
# Compressibility (1/GPa) = 0.02157466
#
# Stress axis : x y z
#
# Youngs Moduli (GPa) = 30.56476 56.30041 81.72822
#
# Poissons Ratio (x) = 0.63959 0.28245
# Poissons Ratio (y) = 0.34723 0.47025
# Poissons Ratio (z) = 0.10563 0.32394
#
# Static dielectric constant tensor:
#      x y z
#    x 2.901300 0.000000 0.000000 
#    y 0.000000 3.097500 0.000000 
#    z 0.000000 0.000000 3.159450 
# 
# 
# High freq. dielectric constant tensor:
#      x y z
#    x 1.617820 0.000000 0.000000 
#    y 0.000000 1.638230 0.000000 
#    z 0.000000 0.000000 1.631190 
# 
# From -- ./inp_files/6804.got.cif
#   From: 2010.03.12/outbox.cif.g09.slc.cpg/sg38_4_cif.got.tgz:6804.got - 2010.04.14 02:38:36.
