data_PCOD8178026
_publ_section_title
;
Structure prediction by ZEFSAII (Michael W. Deem and Ramdas Pophale) SiO2 
 PCOD8178026
Probable space group: A M M 2
;
_chemical_formula_sum "Si O2"
_cell_formula_units_Z 48
_cell_length_a 13.093821
_cell_length_b 17.833290
_cell_length_c 11.081397
_cell_angle_alpha 90.000000
_cell_angle_beta 90.000000
_cell_angle_gamma 90.000000
_cell_volume 2587.571658
_symmetry_space_group_name_H-M "A M M 2"
_symmetry_group_IT_number 38
_symmetry_cell_setting 'orthorhombic'
loop_
_space_group_symop_operation_xyz
x,y,z
-x,-y,z
-x,y,z
x,-y,z
x,1/2+y,1/2+z
-x,1/2-y,1/2+z
-x,1/2+y,1/2+z
x,1/2-y,1/2+z
loop_
_atom_site_type_symbol
_atom_site_label
_atom_site_fract_x
_atom_site_fract_y
_atom_site_fract_z
Si Si1 0.380059 0.413805 0.432620
Si Si2 0.885110 0.582246 0.791519
Si Si3 0.111338 0.376995 0.049236
Si Si4 0.745504 0.821912 0.736702
Si Si5 0.735956 0.833147 0.128533
Si Si6 0.111616 0.713077 0.440632
O O1 0.500000 0.410761 0.413854
O O2 0.340782 0.500000 0.425526
O O3 0.333888 0.364084 0.323092
O O4 0.356221 0.379419 0.565922
O O5 0.882873 0.500000 0.731807
O O6 0.788209 0.628812 0.744033
O O7 0.000000 0.618341 0.769993
O O8 0.866363 0.570721 0.934711
O O9 0.202979 0.382907 0.146498
O O10 0.000000 0.397389 0.106702
O O11 0.106656 0.293916 0.997556
O O12 0.696435 0.751195 0.662643
O O13 0.837791 0.783364 0.809367
O O14 0.823081 0.839337 0.027174
O O15 0.000000 0.677057 0.427120
#
# Coordination Sequence:
#
# PCOD8178026 Si02
#       6
#     8   8   8   8   8   8
#     4  10  23  42  60  77 101 136 177 227 286 331
#     4  10  19  30  47  75 114 152 178 205 249 309
#     4   9  17  28  45  74 110 143 173 203 243 302
#     4  10  19  32  56  80 104 136 179 220 261 310
#     4  10  19  33  55  81 105 136 178 223 263 309
#     4   9  16  27  47  77 109 139 173 210 249 299
#
# _framework density 18.550211999999998
#
# number of rings (size 3 to 8) (size 9 to 14) (size 15 to 20)
#    0.000    2.333    1.667    1.500    0.000    2.667 
#    0.000    0.000    0.000    9.500    0.000    2.333 
#    0.000    0.000    0.000    0.000    0.000    0.000 
#
# Total GULP energy -297332.292824 kJ/mol
# GULP energy per Si atom -12388.845534 kJ/mol
# Density = 1.850799 g / cm^3
# Si number density = 18.550212 Si / 1000 Ang^3
#
#
#
# Elastic Constant Matrix: (Units=GPa)
#
#
# Indices 1 2 3 4 5 6 
#
# 1 70.9272 32.8418 33.5356 0.0000 0.0000 0.0000
# 2 32.8418 78.0481 29.0680 0.0000 0.0000 0.0000
# 3 33.5356 29.0680 78.9075 0.0000 0.0000 0.0000
# 4 0.0000 0.0000 0.0000 22.1495 0.0000 0.0000
# 5 0.0000 0.0000 0.0000 0.0000 26.6179 0.0000
# 6 0.0000 0.0000 0.0000 0.0000 0.0000 16.7089
#
#
#
# Elastic Compliance Matrix: (Units=1/GPa)
#
#
# Indices 1 2 3 4 5 6 
#
# 1 0.019825 -0.006032 -0.006204 0.000000 0.000000 0.000000
# 2 -0.006032 0.016685 -0.003583 0.000000 0.000000 0.000000
# 3 -0.006204 -0.003583 0.016630 0.000000 0.000000 0.000000
# 4 0.000000 0.000000 0.000000 0.045148 0.000000 0.000000
# 5 0.000000 0.000000 0.000000 0.000000 0.037569 0.000000
# 6 0.000000 0.000000 0.000000 0.000000 0.000000 0.059848
#
#
# Mechanical properties :
#
#
# Convention : Reuss Voigt Hill
#
# Bulk Modulus (GPa) = 46.50523 46.53041 46.51782
# Shear Modulus (GPa) = 21.32116 21.92443 21.62279
#
# Velocity S-wave (km/s) = 3.39392 3.44160 3.41784
# Velocity P-wave (km/s) = 6.36260 6.39772 6.38018
#
# Compressibility (1/GPa) = 0.02150296
#
# Stress axis : x y z
#
# Youngs Moduli (GPa) = 50.44119 59.93359 60.13395
#
# Poissons Ratio (x) = 0.36150 0.37305
# Poissons Ratio (y) = 0.30425 0.21546
# Poissons Ratio (z) = 0.31292 0.21474
#
# Static dielectric constant tensor:
#      x y z
#    x 3.751860 0.000000 0.000000 
#    y 0.000000 3.363360 0.000000 
#    z 0.000000 0.000000 3.616730 
# 
# 
# High freq. dielectric constant tensor:
#      x y z
#    x 1.689690 0.000000 0.000000 
#    y 0.000000 1.712090 0.000000 
#    z 0.000000 0.000000 1.721250 
# 
# From -- ./inp_files/9229.got.cif
#   From: 2010.03.12/outbox.cif.g09.slc.cpg/sg38_5_cif.got.tgz:9229.got - 2010.04.14 02:38:36.
