data_PCOD8178279
_publ_section_title
;
Structure prediction by ZEFSAII (Michael W. Deem and Ramdas Pophale) SiO2 
 PCOD8178279
Probable space group: A M M 2
;
_chemical_formula_sum "Si O2"
_cell_formula_units_Z 36
_cell_length_a 21.445021
_cell_length_b 18.052618
_cell_length_c 5.054034
_cell_angle_alpha 90.000000
_cell_angle_beta 90.000000
_cell_angle_gamma 90.000000
_cell_volume 1956.612517
_symmetry_space_group_name_H-M "A M M 2"
_symmetry_group_IT_number 38
_symmetry_cell_setting 'orthorhombic'
loop_
_space_group_symop_operation_xyz
x,y,z
-x,-y,z
-x,y,z
x,-y,z
x,1/2+y,1/2+z
-x,1/2-y,1/2+z
-x,1/2+y,1/2+z
x,1/2-y,1/2+z
loop_
_atom_site_type_symbol
_atom_site_label
_atom_site_fract_x
_atom_site_fract_y
_atom_site_fract_z
Si Si1 0.742826 0.414499 0.843250
Si Si2 0.928728 0.701868 0.349386
Si Si3 0.500000 0.796280 0.233563
Si Si4 0.176474 0.414762 0.339676
Si Si5 0.366077 0.800561 0.333574
O O1 0.721889 0.500000 0.834141
O O2 0.795176 0.397784 0.625461
O O3 0.682544 0.365682 0.786491
O O4 0.771747 0.392350 0.124577
O O5 0.914179 0.734397 0.637272
O O6 0.886070 0.631233 0.296696
O O7 0.000000 0.674866 0.323956
O O8 0.500000 0.723102 0.422355
O O9 0.435190 0.838219 0.303003
O O10 0.157299 0.500000 0.305258
O O11 0.357097 0.765080 0.621711
#
# Coordination Sequence:
#
# PCOD8178279 Si02
#       5
#     8   8   4   8   8
#     4  10  21  35  50  74 105 131 162 207 250 288
#     4  10  21  36  54  77 103 129 162 207 250 288
#     4   8  16  30  47  70  99 126 160 206 244 284
#     4  10  21  36  53  73 101 135 166 200 245 296
#     4  10  19  32  52  75  98 130 169 204 244 294
#
# _framework density 18.399145000000001
#
# number of rings (size 3 to 8) (size 9 to 14) (size 15 to 20)
#    0.000    2.222    0.000    2.667    0.000    5.778 
#    0.000    0.556    0.000    8.000    0.000   14.000 
#    0.000    0.000    0.000    0.000    0.000    0.000 
#
# Total GULP energy -223191.086534 kJ/mol
# GULP energy per Si atom -12399.504807 kJ/mol
# Density = 1.835727 g / cm^3
# Si number density = 18.399145 Si / 1000 Ang^3
#
#
#
# Elastic Constant Matrix: (Units=GPa)
#
#
# Indices 1 2 3 4 5 6 
#
# 1 126.0591 73.4361 7.2594 0.0000 0.0000 0.0000
# 2 73.4361 68.7539 11.0515 0.0000 0.0000 0.0000
# 3 7.2594 11.0515 69.2016 0.0000 0.0000 0.0000
# 4 0.0000 0.0000 0.0000 17.7101 0.0000 0.0000
# 5 0.0000 0.0000 0.0000 0.0000 19.6676 0.0000
# 6 0.0000 0.0000 0.0000 0.0000 0.0000 11.7074
#
#
#
# Elastic Compliance Matrix: (Units=1/GPa)
#
#
# Indices 1 2 3 4 5 6 
#
# 1 0.021135 -0.022803 0.001425 0.000000 0.000000 0.000000
# 2 -0.022803 0.039531 -0.003921 0.000000 0.000000 0.000000
# 3 0.001425 -0.003921 0.014927 0.000000 0.000000 0.000000
# 4 0.000000 0.000000 0.000000 0.056465 0.000000 0.000000
# 5 0.000000 0.000000 0.000000 0.000000 0.050845 0.000000
# 6 0.000000 0.000000 0.000000 0.000000 0.000000 0.085416
#
#
# Mechanical properties :
#
#
# Convention : Reuss Voigt Hill
#
# Bulk Modulus (GPa) = 40.00971 49.72320 44.86645
# Shear Modulus (GPa) = 15.27889 21.30152 18.29021
#
# Velocity S-wave (km/s) = 2.88482 3.40626 3.15632
# Velocity P-wave (km/s) = 5.73488 6.52331 6.14176
#
# Compressibility (1/GPa) = 0.02499393
#
# Stress axis : x y z
#
# Youngs Moduli (GPa) = 47.31556 25.29677 66.99149
#
# Poissons Ratio (x) = 0.57684 -0.09543
# Poissons Ratio (y) = 1.07894 0.26267
# Poissons Ratio (z) = -0.06740 0.09919
#
# Static dielectric constant tensor:
#      x y z
#    x 3.478560 0.000000 0.000000 
#    y 0.000000 3.033110 0.000000 
#    z 0.000000 0.000000 3.605220 
# 
# 
# High freq. dielectric constant tensor:
#      x y z
#    x 1.723050 0.000000 0.000000 
#    y 0.000000 1.678220 0.000000 
#    z 0.000000 0.000000 1.737780 
# 
# From -- ./inp_files/1534.got.cif
#   From: 2010.03.12/outbox.cif.g09.slc.cpg/sg38_1_cif.got.tgz:1534.got - 2010.04.14 02:38:36.
