data_PCOD8178813
_publ_section_title
;
Structure prediction by ZEFSAII (Michael W. Deem and Ramdas Pophale) SiO2 
 PCOD8178813
Probable space group: A M M 2
;
_chemical_formula_sum "Si O2"
_cell_formula_units_Z 48
_cell_length_a 9.575416
_cell_length_b 9.468164
_cell_length_c 30.931788
_cell_angle_alpha 90.000000
_cell_angle_beta 90.000000
_cell_angle_gamma 90.000000
_cell_volume 2804.325671
_symmetry_space_group_name_H-M "A M M 2"
_symmetry_group_IT_number 38
_symmetry_cell_setting 'orthorhombic'
loop_
_space_group_symop_operation_xyz
x,y,z
-x,-y,z
-x,y,z
x,-y,z
x,1/2+y,1/2+z
-x,1/2-y,1/2+z
-x,1/2+y,1/2+z
x,1/2-y,1/2+z
loop_
_atom_site_type_symbol
_atom_site_label
_atom_site_fract_x
_atom_site_fract_y
_atom_site_fract_z
Si Si1 0.164464 0.664435 0.892880
Si Si2 0.663811 0.836738 0.823995
Si Si3 0.838286 0.334744 0.148823
Si Si4 0.834269 0.159047 0.068905
Si Si5 0.654017 0.167474 0.726926
Si Si6 0.165845 0.341774 0.473627
O O1 0.201358 0.500000 0.894142
O O2 0.245040 0.736658 0.853866
O O3 0.220010 0.732822 0.937617
O O4 0.000000 0.690635 0.886584
O O5 0.500000 0.814091 0.833016
O O6 0.701782 0.789767 0.775103
O O7 0.704553 0.000000 0.832132
O O8 0.812844 0.500000 0.142967
O O9 0.774291 0.261090 0.106078
O O10 0.760645 0.273442 0.191123
O O11 0.000000 0.297817 0.155154
O O12 0.000000 0.169064 0.068952
O O13 0.785256 0.000000 0.079012
O O14 0.778878 0.204854 0.021242
O O15 0.500000 0.229402 0.717230
O O16 0.648094 0.000000 0.724635
O O17 0.219895 0.500000 0.462644
O O18 0.000000 0.342436 0.474463
#
# Coordination Sequence:
#
# PCOD8178813 Si02
#       6
#     8   8   8   8   8   8
#     4  10  20  31  45  70 100 124 149 187 235 280
#     4   9  18  33  52  70  88 118 160 197 230 273
#     4   9  16  25  41  67  92 112 141 182 222 258
#     4   8  14  25  41  62  89 119 148 179 218 262
#     4   8  15  29  47  65  86 114 148 183 219 264
#     4   8  14  26  44  64  87 118 154 187 220 263
#
# _framework density 17.116413999999999
#
# number of rings (size 3 to 8) (size 9 to 14) (size 15 to 20)
#    0.000    3.333    0.000    2.500    0.000    2.667 
#    0.000    5.833    0.000    4.500    0.000    4.667 
#    0.000    0.000    0.000    0.000    0.000    0.000 
#
# Total GULP energy -297438.894188 kJ/mol
# GULP energy per Si atom -12393.287258 kJ/mol
# Density = 1.707746 g / cm^3
# Si number density = 17.116414 Si / 1000 Ang^3
#
#
#
# Elastic Constant Matrix: (Units=GPa)
#
#
# Indices 1 2 3 4 5 6 
#
# 1 40.4957 37.5287 58.0191 0.0000 0.0000 0.0000
# 2 37.5287 84.5431 81.8798 0.0000 0.0000 0.0000
# 3 58.0191 81.8798 180.7919 0.0000 0.0000 0.0000
# 4 0.0000 0.0000 0.0000 31.3637 0.0000 0.0000
# 5 0.0000 0.0000 0.0000 0.0000 1.6465 0.0000
# 6 0.0000 0.0000 0.0000 0.0000 0.0000 15.9954
#
#
#
# Elastic Compliance Matrix: (Units=1/GPa)
#
#
# Indices 1 2 3 4 5 6 
#
# 1 0.052060 -0.012343 -0.011117 0.000000 0.000000 0.000000
# 2 -0.012343 0.023997 -0.006907 0.000000 0.000000 0.000000
# 3 -0.011117 -0.006907 0.012227 0.000000 0.000000 0.000000
# 4 0.000000 0.000000 0.000000 0.031884 0.000000 0.000000
# 5 0.000000 0.000000 0.000000 0.000000 0.607356 0.000000
# 6 0.000000 0.000000 0.000000 0.000000 0.000000 0.062518
#
#
# Mechanical properties :
#
#
# Convention : Reuss Voigt Hill
#
# Bulk Modulus (GPa) = 36.29729 73.40955 54.85342
# Shear Modulus (GPa) = 5.81424 18.36133 12.08778
#
# Velocity S-wave (km/s) = 1.84506 3.27881 2.66034
# Velocity P-wave (km/s) = 5.07850 7.57071 6.44619
#
# Compressibility (1/GPa) = 0.02755026
#
# Stress axis : x y z
#
# Youngs Moduli (GPa) = 19.20867 41.67264 81.78636
#
# Poissons Ratio (x) = 0.51435 0.90922
# Poissons Ratio (y) = 0.23709 0.56490
# Poissons Ratio (z) = 0.21354 0.28783
#
# Static dielectric constant tensor:
#      x y z
#    x 2.926080 0.000000 0.000000 
#    y 0.000000 3.082410 0.000000 
#    z 0.000000 0.000000 3.679190 
# 
# 
# High freq. dielectric constant tensor:
#      x y z
#    x 1.618860 0.000000 0.000000 
#    y 0.000000 1.640620 0.000000 
#    z 0.000000 0.000000 1.677550 
# 
# From -- ./inp_files/22434.got.cif
#   From: 2010.03.12/outbox.cif.g09.slc.cpg/sg38_12_cif.got.tgz:22434.got - 2010.04.14 02:38:36.
