data_PCOD8178923
_publ_section_title
;
Structure prediction by ZEFSAII (Michael W. Deem and Ramdas Pophale) SiO2 
 PCOD8178923
Probable space group: A M M 2
;
_chemical_formula_sum "Si O2"
_cell_formula_units_Z 48
_cell_length_a 8.822770
_cell_length_b 10.023031
_cell_length_c 28.300060
_cell_angle_alpha 90.000000
_cell_angle_beta 90.000000
_cell_angle_gamma 90.000000
_cell_volume 2502.599697
_symmetry_space_group_name_H-M "A M M 2"
_symmetry_group_IT_number 38
_symmetry_cell_setting 'orthorhombic'
loop_
_space_group_symop_operation_xyz
x,y,z
-x,-y,z
-x,y,z
x,-y,z
x,1/2+y,1/2+z
-x,1/2-y,1/2+z
-x,1/2+y,1/2+z
x,1/2-y,1/2+z
loop_
_atom_site_type_symbol
_atom_site_label
_atom_site_fract_x
_atom_site_fract_y
_atom_site_fract_z
Si Si1 0.320674 0.656467 0.358170
Si Si2 0.320207 0.347265 0.943440
Si Si3 0.319526 0.255434 0.044553
Si Si4 0.320882 0.000000 0.708265
Si Si5 0.319532 0.000000 0.100443
Si Si6 0.178273 0.239539 0.762502
Si Si7 0.319364 0.500000 0.103783
Si Si8 0.823310 0.000000 0.204368
O O1 0.500000 0.664215 0.350239
O O2 0.271514 0.500000 0.363207
O O3 0.268458 0.743609 0.403166
O O4 0.236920 0.732112 0.315851
O O5 0.500000 0.355687 0.945664
O O6 0.258021 0.500000 0.936054
O O7 0.256586 0.281788 0.991840
O O8 0.500000 0.252147 0.042913
O O9 0.255894 0.372190 0.077187
O O10 0.257283 0.122877 0.069511
O O11 0.264169 0.871251 0.733982
O O12 0.252001 0.000000 0.656040
O O13 0.500000 0.000000 0.708128
O O14 0.260602 0.000000 0.154107
O O15 0.500000 0.000000 0.104159
O O16 0.223925 0.376104 0.736961
O O17 0.000000 0.214556 0.762050
O O18 0.500000 0.500000 0.104360
O O19 0.000000 0.000000 0.192774
#
# Coordination Sequence:
#
# PCOD8178923 Si02
#       8
#     8   8   8   4   4   8   4   4
#     4  10  21  35  54  83 114 141 180 234 286 332
#     4   9  17  30  50  78 113 148 179 219 278 340
#     4   9  16  28  47  76 112 143 174 216 270 333
#     4  11  21  35  58  87 116 143 179 235 288 333
#     4  10  20  32  53  84 111 141 184 232 281 326
#     4  11  23  40  59  79 109 151 194 232 280 342
#     4   9  16  27  46  73 107 141 170 211 268 325
#     4  10  24  42  57  78 112 155 197 234 277 336
#
# _framework density 19.180056
#
# number of rings (size 3 to 8) (size 9 to 14) (size 15 to 20)
#    0.000    2.167    1.667    1.750    2.333    2.667 
#    0.000    0.000    0.000    1.000    0.000    0.000 
#    0.000    0.000    0.000    0.000    0.000    0.000 
#
# Total GULP energy -297475.540356 kJ/mol
# GULP energy per Si atom -12394.814181 kJ/mol
# Density = 1.913640 g / cm^3
# Si number density = 19.180056 Si / 1000 Ang^3
#
#
#
# Elastic Constant Matrix: (Units=GPa)
#
#
# Indices 1 2 3 4 5 6 
#
# 1 29.6528 25.8652 28.6680 0.0000 0.0000 0.0000
# 2 25.8652 169.5659 85.3725 0.0000 0.0000 0.0000
# 3 28.6680 85.3725 180.9623 0.0000 0.0000 0.0000
# 4 0.0000 0.0000 0.0000 46.4068 0.0000 0.0000
# 5 0.0000 0.0000 0.0000 0.0000 3.7687 0.0000
# 6 0.0000 0.0000 0.0000 0.0000 0.0000 18.2641
#
#
#
# Elastic Compliance Matrix: (Units=1/GPa)
#
#
# Indices 1 2 3 4 5 6 
#
# 1 0.041783 -0.003988 -0.004738 0.000000 0.000000 0.000000
# 2 -0.003988 0.008115 -0.003197 0.000000 0.000000 0.000000
# 3 -0.004738 -0.003197 0.007785 0.000000 0.000000 0.000000
# 4 0.000000 0.000000 0.000000 0.021549 0.000000 0.000000
# 5 0.000000 0.000000 0.000000 0.000000 0.265346 0.000000
# 6 0.000000 0.000000 0.000000 0.000000 0.000000 0.054752
#
#
# Mechanical properties :
#
#
# Convention : Reuss Voigt Hill
#
# Bulk Modulus (GPa) = 29.55300 73.33249 51.44274
# Shear Modulus (GPa) = 11.50869 29.70628 20.60749
#
# Velocity S-wave (km/s) = 2.45222 3.93976 3.28139
# Velocity P-wave (km/s) = 4.84350 7.68195 6.42152
#
# Compressibility (1/GPa) = 0.03383752
#
# Stress axis : x y z
#
# Youngs Moduli (GPa) = 23.93331 123.22520 128.45748
#
# Poissons Ratio (x) = 0.49144 0.60860
# Poissons Ratio (y) = 0.09545 0.41064
# Poissons Ratio (z) = 0.11339 0.39392
#
# Static dielectric constant tensor:
#      x y z
#    x 3.047550 0.000000 0.000000 
#    y 0.000000 3.771880 0.000000 
#    z 0.000000 0.000000 3.841730 
# 
# 
# High freq. dielectric constant tensor:
#      x y z
#    x 1.695340 0.000000 0.000000 
#    y 0.000000 1.764540 0.000000 
#    z 0.000000 0.000000 1.766240 
# 
# From -- ./inp_files/24452.got.cif
#   From: 2010.03.12/outbox.cif.g09.slc.cpg/sg38_13_cif.got.tgz:24452.got - 2010.04.14 02:38:36.
