data_PCOD8178678
_publ_section_title
;
Structure prediction by ZEFSAII (Michael W. Deem and Ramdas Pophale) SiO2 
 PCOD8178678
Probable space group: A M M 2
;
_chemical_formula_sum "Si O2"
_cell_formula_units_Z 40
_cell_length_a 8.714033
_cell_length_b 25.985924
_cell_length_c 8.922948
_cell_angle_alpha 90.000000
_cell_angle_beta 90.000000
_cell_angle_gamma 90.000000
_cell_volume 2020.531969
_symmetry_space_group_name_H-M "A M M 2"
_symmetry_group_IT_number 38
_symmetry_cell_setting 'orthorhombic'
loop_
_space_group_symop_operation_xyz
x,y,z
-x,-y,z
-x,y,z
x,-y,z
x,1/2+y,1/2+z
-x,1/2-y,1/2+z
-x,1/2+y,1/2+z
x,1/2-y,1/2+z
loop_
_atom_site_type_symbol
_atom_site_label
_atom_site_fract_x
_atom_site_fract_y
_atom_site_fract_z
Si Si1 0.180780 0.899034 0.746330
Si Si2 0.317816 0.300934 0.743143
Si Si3 0.819843 0.000000 0.911524
Si Si4 0.323845 0.500000 0.730615
Si Si5 0.317563 0.198950 0.905618
Si Si6 0.679493 0.099630 0.424902
O O1 0.262297 0.849504 0.812797
O O2 0.220541 0.904562 0.572996
O O3 0.000000 0.893362 0.767652
O O4 0.247440 0.949048 0.832176
O O5 0.500000 0.299359 0.736684
O O6 0.253728 0.250407 0.826344
O O7 0.251599 0.303060 0.574487
O O8 0.262302 0.350997 0.832684
O O9 0.000000 0.000000 0.889482
O O10 0.780916 0.000000 0.085400
O O11 0.500000 0.500000 0.678489
O O12 0.284528 0.450141 0.826876
O O13 0.500000 0.199165 0.906676
O O14 0.500000 0.103899 0.466200
#
# Coordination Sequence:
#
# PCOD8178678 Si02
#       6
#     8   8   4   4   8   8
#     4  11  23  38  55  79 109 146 187 224 265 321
#     4   9  18  33  57  84 110 142 180 219 273 335
#     4  10  23  40  56  76 110 150 183 216 270 334
#     4  10  21  36  60  90 112 134 179 232 272 314
#     4  10  19  35  58  82 108 142 181 225 272 323
#     4  10  20  36  57  84 113 142 178 224 273 323
#
# _framework density 19.796766000000002
#
# number of rings (size 3 to 8) (size 9 to 14) (size 15 to 20)
#    0.000    2.000    0.000    3.600    0.000    7.200 
#    0.000    5.000    0.000    0.000    0.000    0.000 
#    0.000    0.000    0.000    0.000    0.000    0.000 
#
# Total GULP energy -248073.739318 kJ/mol
# GULP energy per Si atom -12403.686966 kJ/mol
# Density = 1.975171 g / cm^3
# Si number density = 19.796766 Si / 1000 Ang^3
#
#
#
# Elastic Constant Matrix: (Units=GPa)
#
#
# Indices 1 2 3 4 5 6 
#
# 1 10.1151 12.1775 6.7562 0.0000 0.0000 0.0000
# 2 12.1775 185.8598 63.2660 0.0000 0.0000 0.0000
# 3 6.7562 63.2660 129.6980 0.0000 0.0000 0.0000
# 4 0.0000 0.0000 0.0000 34.2714 0.0000 0.0000
# 5 0.0000 0.0000 0.0000 0.0000 26.5792 0.0000
# 6 0.0000 0.0000 0.0000 0.0000 0.0000 14.3907
#
#
#
# Elastic Compliance Matrix: (Units=1/GPa)
#
#
# Indices 1 2 3 4 5 6 
#
# 1 0.108059 -0.006192 -0.002608 0.000000 0.000000 0.000000
# 2 -0.006192 0.006806 -0.002998 0.000000 0.000000 0.000000
# 3 -0.002608 -0.002998 0.009308 0.000000 0.000000 0.000000
# 4 0.000000 0.000000 0.000000 0.029179 0.000000 0.000000
# 5 0.000000 0.000000 0.000000 0.000000 0.037623 0.000000
# 6 0.000000 0.000000 0.000000 0.000000 0.000000 0.069489
#
#
# Mechanical properties :
#
#
# Convention : Reuss Voigt Hill
#
# Bulk Modulus (GPa) = 9.94262 54.45248 32.19755
# Shear Modulus (GPa) = 15.74372 31.27981 23.51176
#
# Velocity S-wave (km/s) = 2.82311 3.97929 3.44998
# Velocity P-wave (km/s) = 3.95725 6.97700 5.67179
#
# Compressibility (1/GPa) = 0.10057711
#
# Stress axis : x y z
#
# Youngs Moduli (GPa) = 9.25424 146.91883 107.43083
#
# Poissons Ratio (x) = 0.90973 0.28023
# Poissons Ratio (y) = 0.05730 0.32204
# Poissons Ratio (z) = 0.02414 0.44041
#
# Static dielectric constant tensor:
#      x y z
#    x 3.214380 0.000000 0.000000 
#    y 0.000000 3.942990 0.000000 
#    z 0.000000 0.000000 3.747380 
# 
# 
# High freq. dielectric constant tensor:
#      x y z
#    x 1.735260 0.000000 0.000000 
#    y 0.000000 1.795420 0.000000 
#    z 0.000000 0.000000 1.789140 
# 
# From -- ./inp_files/3334.got.cif
#   From: 2010.03.12/outbox.cif.g09.slc.cpg/sg38_2_cif.got.tgz:3334.got - 2010.04.14 02:38:36.
