data_PCOD8178911
_publ_section_title
;
Structure prediction by ZEFSAII (Michael W. Deem and Ramdas Pophale) SiO2 
 PCOD8178911
Probable space group: A M M 2
;
_chemical_formula_sum "Si O2"
_cell_formula_units_Z 48
_cell_length_a 9.208522
_cell_length_b 7.619409
_cell_length_c 34.526887
_cell_angle_alpha 90.000000
_cell_angle_beta 90.000000
_cell_angle_gamma 90.000000
_cell_volume 2422.527077
_symmetry_space_group_name_H-M "A M M 2"
_symmetry_group_IT_number 38
_symmetry_cell_setting 'orthorhombic'
loop_
_space_group_symop_operation_xyz
x,y,z
-x,-y,z
-x,y,z
x,-y,z
x,1/2+y,1/2+z
-x,1/2-y,1/2+z
-x,1/2+y,1/2+z
x,1/2-y,1/2+z
loop_
_atom_site_type_symbol
_atom_site_label
_atom_site_fract_x
_atom_site_fract_y
_atom_site_fract_z
Si Si1 0.828573 0.500000 0.283680
Si Si2 0.329284 0.296900 0.918110
Si Si3 0.826445 0.000000 0.871180
Si Si4 0.829542 0.298916 0.726530
Si Si5 0.664092 0.706807 0.649751
Si Si6 0.158630 0.298437 0.075186
Si Si7 0.339799 0.707830 0.005034
O O1 0.767965 0.500000 0.327100
O O2 0.775659 0.675913 0.261626
O O3 0.000000 0.500000 0.285201
O O4 0.500000 0.261468 0.911945
O O5 0.292571 0.500000 0.909218
O O6 0.234849 0.176373 0.890165
O O7 0.283715 0.246250 0.961987
O O8 0.000000 0.000000 0.874052
O O9 0.790308 0.500000 0.737072
O O10 0.746877 0.233169 0.688331
O O11 0.000000 0.277031 0.718394
O O12 0.500000 0.779372 0.651188
O O13 0.666757 0.500000 0.645953
O O14 0.743631 0.785927 0.612972
O O15 0.136076 0.500000 0.065053
O O16 0.235387 0.208760 0.037847
O O17 0.000000 0.210007 0.081818
O O18 0.500000 0.788688 0.011279
O O19 0.350084 0.500000 0.009465
#
# Coordination Sequence:
#
# PCOD8178911 Si02
#       7
#     4   8   4   8   8   8   8
#     4   9  20  37  57  83 113 145 185 229 281 349
#     4   9  19  38  62  84 112 155 198 238 290 349
#     4  11  23  37  57  91 125 151 189 241 293 353
#     4   9  18  35  58  79 104 142 184 229 279 331
#     4  10  21  36  52  74 106 141 180 224 272 327
#     4  10  20  32  50  78 109 141 179 225 273 325
#     4   8  15  31  54  77 103 140 187 232 276 328
#
# _framework density 19.814019999999999
#
# number of rings (size 3 to 8) (size 9 to 14) (size 15 to 20)
#    0.000    2.667    0.000    2.250    1.167    3.667 
#    1.500    5.000    0.000    2.000    0.000    0.000 
#    0.000    0.000    0.000    0.000    0.000    0.000 
#
# Total GULP energy -297525.701791 kJ/mol
# GULP energy per Si atom -12396.904241 kJ/mol
# Density = 1.976892 g / cm^3
# Si number density = 19.814020 Si / 1000 Ang^3
#
#
#
# Elastic Constant Matrix: (Units=GPa)
#
#
# Indices 1 2 3 4 5 6 
#
# 1 108.6431 39.5734 78.6702 0.0000 0.0000 0.0000
# 2 39.5734 75.2985 61.9378 0.0000 0.0000 0.0000
# 3 78.6702 61.9378 183.1940 0.0000 0.0000 0.0000
# 4 0.0000 0.0000 0.0000 -207.0735 0.0000 0.0000
# 5 0.0000 0.0000 0.0000 0.0000 17.3924 0.0000
# 6 0.0000 0.0000 0.0000 0.0000 0.0000 20.9403
#
#
#
# Elastic Compliance Matrix: (Units=1/GPa)
#
#
# Indices 1 2 3 4 5 6 
#
# 1 0.013935 -0.003326 -0.004860 0.000000 0.000000 0.000000
# 2 -0.003326 0.019191 -0.005060 0.000000 0.000000 0.000000
# 3 -0.004860 -0.005060 0.009256 0.000000 0.000000 0.000000
# 4 0.000000 0.000000 0.000000 -0.004829 0.000000 0.000000
# 5 0.000000 0.000000 0.000000 0.000000 0.057496 0.000000
# 6 0.000000 0.000000 0.000000 0.000000 0.000000 0.047755
#
#
# Mechanical properties :
#
#
# Convention : Reuss Voigt Hill
#
# Bulk Modulus (GPa) = 62.93086 80.83316 71.88201
# Shear Modulus (GPa) = 28.63812 -21.28457 3.67678
#
# Velocity S-wave (km/s) = 3.80590 -3.28108 1.36370
# Velocity P-wave (km/s) = 7.15142 5.15078 6.23191
#
# Compressibility (1/GPa) = 0.01589046
#
# Stress axis : x y z
#
# Youngs Moduli (GPa) = 71.76209 52.10840 108.03397
#
# Poissons Ratio (x) = 0.17333 0.52500
# Poissons Ratio (y) = 0.23870 0.54665
# Poissons Ratio (z) = 0.34873 0.26367
#
# Static dielectric constant tensor:
#      x y z
#    x 3.870580 0.000000 0.000000 
#    y 0.000000 3.689550 0.000000 
#    z 0.000000 0.000000 3.763080 
# 
# 
# High freq. dielectric constant tensor:
#      x y z
#    x 1.764720 0.000000 0.000000 
#    y 0.000000 1.764630 0.000000 
#    z 0.000000 0.000000 1.772560 
# 
# From -- ./inp_files/24390.got.cif
#   From: 2010.03.12/outbox.cif.g09.slc.cpg/sg38_13_cif.got.tgz:24390.got - 2010.04.14 02:38:36.
