data_PCOD8178980
_publ_section_title
;
Structure prediction by ZEFSAII (Michael W. Deem and Ramdas Pophale) SiO2 
 PCOD8178980
Probable space group: A M M 2
;
_chemical_formula_sum "Si O2"
_cell_formula_units_Z 48
_cell_length_a 9.086087
_cell_length_b 9.120080
_cell_length_c 31.059384
_cell_angle_alpha 90.000000
_cell_angle_beta 90.000000
_cell_angle_gamma 90.000000
_cell_volume 2573.761955
_symmetry_space_group_name_H-M "A M M 2"
_symmetry_group_IT_number 38
_symmetry_cell_setting 'orthorhombic'
loop_
_space_group_symop_operation_xyz
x,y,z
-x,-y,z
-x,y,z
x,-y,z
x,1/2+y,1/2+z
-x,1/2-y,1/2+z
-x,1/2+y,1/2+z
x,1/2-y,1/2+z
loop_
_atom_site_type_symbol
_atom_site_label
_atom_site_fract_x
_atom_site_fract_y
_atom_site_fract_z
Si Si1 0.324330 0.834247 0.760030
Si Si2 0.826676 0.667940 0.514935
Si Si3 0.675286 0.334596 0.843464
Si Si4 0.324872 0.834514 0.176541
Si Si5 0.670639 0.328462 0.091302
Si Si6 0.330027 0.829858 0.927852
O O1 0.500000 0.833194 0.759907
O O2 0.262625 0.754110 0.802539
O O3 0.262551 0.749646 0.718250
O O4 0.264375 0.000000 0.759304
O O5 0.780739 0.500000 0.524730
O O6 0.762605 0.773165 0.551025
O O7 0.761872 0.718906 0.469327
O O8 0.000000 0.686960 0.513258
O O9 0.500000 0.331434 0.842532
O O10 0.735393 0.500000 0.841244
O O11 0.732157 0.260147 0.887279
O O12 0.500000 0.834395 0.177962
O O13 0.269336 0.752512 0.133807
O O14 0.263185 0.000000 0.176437
O O15 0.500000 0.291563 0.083200
O O16 0.696389 0.500000 0.097813
O O17 0.500000 0.792846 0.936995
O O18 0.308064 0.000000 0.917037
#
# Coordination Sequence:
#
# PCOD8178980 Si02
#       6
#     8   8   8   8   8   8
#     4   9  15  23  37  60  93 128 158 191 234 283
#     4  10  21  36  53  73  97 127 164 205 250 299
#     4   9  16  25  39  62  92 124 158 195 235 281
#     4   9  16  26  42  65  94 127 161 197 238 284
#     4  10  20  33  50  73 100 130 165 204 246 293
#     4   9  17  30  48  69  94 125 160 198 241 288
#
# _framework density 18.649744999999999
#
# number of rings (size 3 to 8) (size 9 to 14) (size 15 to 20)
#    0.000    2.667    0.000    2.500    0.000    8.667 
#    0.000    1.667    0.000    0.000    0.000    1.167 
#    0.000    6.667    0.000    0.000    0.000    0.000 
#
# Total GULP energy -297628.350051 kJ/mol
# GULP energy per Si atom -12401.181252 kJ/mol
# Density = 1.860730 g / cm^3
# Si number density = 18.649745 Si / 1000 Ang^3
#
#
#
# Elastic Constant Matrix: (Units=GPa)
#
#
# Indices 1 2 3 4 5 6 
#
# 1 28.6189 26.5749 34.5194 0.0000 0.0000 0.0000
# 2 26.5749 143.5856 98.1452 0.0000 0.0000 0.0000
# 3 34.5194 98.1452 184.8311 0.0000 0.0000 0.0000
# 4 0.0000 0.0000 0.0000 44.0885 0.0000 0.0000
# 5 0.0000 0.0000 0.0000 0.0000 -2.3212 0.0000
# 6 0.0000 0.0000 0.0000 0.0000 0.0000 12.9215
#
#
#
# Elastic Compliance Matrix: (Units=1/GPa)
#
#
# Indices 1 2 3 4 5 6 
#
# 1 0.046666 -0.004206 -0.006482 0.000000 0.000000 0.000000
# 2 -0.004206 0.011312 -0.005221 0.000000 0.000000 0.000000
# 3 -0.006482 -0.005221 0.009393 0.000000 0.000000 0.000000
# 4 0.000000 0.000000 0.000000 0.022682 0.000000 0.000000
# 5 0.000000 0.000000 0.000000 0.000000 -0.430820 0.000000
# 6 0.000000 0.000000 0.000000 0.000000 0.000000 0.077391
#
#
# Mechanical properties :
#
#
# Convention : Reuss Voigt Hill
#
# Bulk Modulus (GPa) = 28.12729 75.05719 51.59224
# Shear Modulus (GPa) = -22.75751 24.12417 0.68333
#
# Velocity S-wave (km/s) = -3.49701 3.60048 0.60597
# Velocity P-wave (km/s) = 1.09125 7.59063 5.31163
#
# Compressibility (1/GPa) = 0.03555266
#
# Stress axis : x y z
#
# Youngs Moduli (GPa) = 21.42880 88.40441 106.46010
#
# Poissons Ratio (x) = 0.37187 0.69006
# Poissons Ratio (y) = 0.09014 0.55582
# Poissons Ratio (z) = 0.13890 0.46155
#
# Static dielectric constant tensor:
#      x y z
#    x 2.804870 0.000000 0.000000 
#    y 0.000000 3.568440 0.000000 
#    z 0.000000 0.000000 3.625350 
# 
# 
# High freq. dielectric constant tensor:
#      x y z
#    x 1.656330 0.000000 0.000000 
#    y 0.000000 1.734110 0.000000 
#    z 0.000000 0.000000 1.742290 
# 
# From -- ./inp_files/24283.got.cif
#   From: 2010.03.12/outbox.cif.g09.slc.cpg/sg38_13_cif.got.tgz:24283.got - 2010.04.14 02:38:36.
