data_PCOD8178899
_publ_section_title
;
Structure prediction by ZEFSAII (Michael W. Deem and Ramdas Pophale) SiO2 
 PCOD8178899
Probable space group: A M M 2
;
_chemical_formula_sum "Si O2"
_cell_formula_units_Z 64
_cell_length_a 13.346814
_cell_length_b 13.939640
_cell_length_c 18.944290
_cell_angle_alpha 90.000000
_cell_angle_beta 90.000000
_cell_angle_gamma 90.000000
_cell_volume 3524.581030
_symmetry_space_group_name_H-M "A M M 2"
_symmetry_group_IT_number 38
_symmetry_cell_setting 'orthorhombic'
loop_
_space_group_symop_operation_xyz
x,y,z
-x,-y,z
-x,y,z
x,-y,z
x,1/2+y,1/2+z
-x,1/2-y,1/2+z
-x,1/2+y,1/2+z
x,1/2-y,1/2+z
loop_
_atom_site_type_symbol
_atom_site_label
_atom_site_fract_x
_atom_site_fract_y
_atom_site_fract_z
Si Si1 0.116075 0.386684 0.446450
Si Si2 0.118278 0.395596 0.289103
Si Si3 0.741347 0.243239 0.040391
Si Si4 0.891341 0.108136 0.242185
Si Si5 0.616054 0.112207 0.445088
Si Si6 0.316159 0.110829 0.294852
Si Si7 0.113417 0.717861 0.154980
Si Si8 0.616925 0.389716 0.643334
O O1 0.133727 0.500000 0.457649
O O2 0.145888 0.356750 0.366521
O O3 0.189331 0.325224 0.494141
O O4 0.000000 0.361094 0.462956
O O5 0.167197 0.500000 0.277217
O O6 0.157757 0.327360 0.227170
O O7 0.000000 0.404248 0.284164
O O8 0.814278 0.306508 0.090368
O O9 0.667591 0.176356 0.084749
O O10 0.679945 0.321704 0.996944
O O11 0.803945 0.129187 0.298632
O O12 0.881960 0.168050 0.169767
O O13 0.000000 0.130146 0.278443
O O14 0.884005 0.000000 0.215040
O O15 0.500000 0.123736 0.464576
O O16 0.634075 0.153133 0.365581
O O17 0.649067 0.000000 0.451651
O O18 0.358811 0.153692 0.221384
O O19 0.344970 0.000000 0.293760
O O20 0.000000 0.682994 0.138238
O O21 0.500000 0.384691 0.629154
O O22 0.655536 0.500000 0.637167
#
# Coordination Sequence:
#
# PCOD8178899 Si02
#       8
#     8   8   8   8   8   8   8   8
#     4   9  19  35  54  79 111 146 180 212 255 322
#     4   8  16  33  53  69  93 135 182 216 238 278
#     4  12  22  32  53  79 112 140 175 218 276 331
#     4   9  17  29  48  78 113 141 167 207 263 322
#     4  10  23  42  59  75 101 143 191 234 278 328
#     4   9  17  34  57  77  99 134 181 223 266 324
#     4  10  20  32  49  77 109 142 175 210 258 315
#     4  10  20  34  53  78 104 130 169 226 282 327
#
# _framework density 18.158186000000001
#
# number of rings (size 3 to 8) (size 9 to 14) (size 15 to 20)
#    0.000    2.375    1.250    2.250    1.750    2.500 
#    0.000    1.875    0.000    1.875    0.000    0.000 
#    0.000    4.000    0.000    0.000    0.000    0.000 
#
# Total GULP energy -396550.308821 kJ/mol
# GULP energy per Si atom -12392.197151 kJ/mol
# Density = 1.811686 g / cm^3
# Si number density = 18.158186 Si / 1000 Ang^3
#
#
#
# Elastic Constant Matrix: (Units=GPa)
#
#
# Indices 1 2 3 4 5 6 
#
# 1 96.9586 42.7868 63.0094 0.0000 0.0000 0.0000
# 2 42.7868 70.1077 60.1418 0.0000 0.0000 0.0000
# 3 63.0094 60.1418 141.5026 0.0000 0.0000 0.0000
# 4 0.0000 0.0000 0.0000 25.0175 0.0000 0.0000
# 5 0.0000 0.0000 0.0000 0.0000 28.8636 0.0000
# 6 0.0000 0.0000 0.0000 0.0000 0.0000 23.8209
#
#
#
# Elastic Compliance Matrix: (Units=1/GPa)
#
#
# Indices 1 2 3 4 5 6 
#
# 1 0.015835 -0.005690 -0.004633 0.000000 0.000000 0.000000
# 2 -0.005690 0.024493 -0.007876 0.000000 0.000000 0.000000
# 3 -0.004633 -0.007876 0.012478 0.000000 0.000000 0.000000
# 4 0.000000 0.000000 0.000000 0.039972 0.000000 0.000000
# 5 0.000000 0.000000 0.000000 0.000000 0.034646 0.000000
# 6 0.000000 0.000000 0.000000 0.000000 0.000000 0.041980
#
#
# Mechanical properties :
#
#
# Convention : Reuss Voigt Hill
#
# Bulk Modulus (GPa) = 60.94791 71.16054 66.05423
# Shear Modulus (GPa) = 23.66619 25.04912 24.35766
#
# Velocity S-wave (km/s) = 3.61409 3.71818 3.66651
# Velocity P-wave (km/s) = 7.14516 7.59655 7.37431
#
# Compressibility (1/GPa) = 0.01640745
#
# Stress axis : x y z
#
# Youngs Moduli (GPa) = 63.14983 40.82762 80.14319
#
# Poissons Ratio (x) = 0.23231 0.37130
# Poissons Ratio (y) = 0.35932 0.63125
# Poissons Ratio (z) = 0.29257 0.32158
#
# Static dielectric constant tensor:
#      x y z
#    x 3.386850 0.000000 0.000000 
#    y 0.000000 3.384160 0.000000 
#    z 0.000000 0.000000 3.476220 
# 
# 
# High freq. dielectric constant tensor:
#      x y z
#    x 1.698270 0.000000 0.000000 
#    y 0.000000 1.686170 0.000000 
#    z 0.000000 0.000000 1.698380 
# 
# From -- ./inp_files/18511.got.cif
#   From: 2010.03.12/outbox.cif.g09.slc.cpg/sg38_10_cif.got.tgz:18511.got - 2010.04.14 02:38:36.
