data_PCOD8178824
_publ_section_title
;
Structure prediction by ZEFSAII (Michael W. Deem and Ramdas Pophale) SiO2 
 PCOD8178824
Probable space group: A M M 2
;
_chemical_formula_sum "Si O2"
_cell_formula_units_Z 48
_cell_length_a 8.753500
_cell_length_b 7.927909
_cell_length_c 34.327944
_cell_angle_alpha 90.000000
_cell_angle_beta 90.000000
_cell_angle_gamma 90.000000
_cell_volume 2382.254663
_symmetry_space_group_name_H-M "A M M 2"
_symmetry_group_IT_number 38
_symmetry_cell_setting 'orthorhombic'
loop_
_space_group_symop_operation_xyz
x,y,z
-x,-y,z
-x,y,z
x,-y,z
x,1/2+y,1/2+z
-x,1/2-y,1/2+z
-x,1/2+y,1/2+z
x,1/2-y,1/2+z
loop_
_atom_site_type_symbol
_atom_site_label
_atom_site_fract_x
_atom_site_fract_y
_atom_site_fract_z
Si Si1 0.819384 0.500000 0.979671
Si Si2 0.320381 0.694097 0.432380
Si Si3 0.317619 0.500000 0.064542
Si Si4 0.330979 0.192307 0.276054
Si Si5 0.325411 0.807734 0.695794
Si Si6 0.172887 0.304898 0.351744
Si Si7 0.681158 0.186244 0.115523
O O1 0.759857 0.672802 0.960508
O O2 0.000000 0.500000 0.977039
O O3 0.764516 0.500000 0.023602
O O4 0.500000 0.711805 0.438081
O O5 0.267776 0.500000 0.441426
O O6 0.278197 0.743481 0.388258
O O7 0.500000 0.500000 0.059054
O O8 0.258496 0.667764 0.086917
O O9 0.500000 0.271409 0.284578
O O10 0.248688 0.277511 0.238211
O O11 0.225967 0.206371 0.313776
O O12 0.348768 0.000000 0.264823
O O13 0.500000 0.749569 0.701539
O O14 0.251191 0.706355 0.659473
O O15 0.312233 0.000000 0.683093
O O16 0.186874 0.500000 0.341611
O O17 0.000000 0.252738 0.362080
O O18 0.500000 0.206649 0.118466
O O19 0.727249 0.000000 0.099637
#
# Coordination Sequence:
#
# PCOD8178824 Si02
#       7
#     4   8   4   8   8   8   8
#     4  12  26  42  64  92 126 164 200 244 304 374
#     4  10  22  42  68  94 120 154 200 254 306 359
#     4  10  20  36  56  84 116 148 194 248 300 356
#     4  10  20  31  47  76 112 150 194 243 290 343
#     4   9  15  26  46  74 109 147 188 238 295 346
#     4  10  21  37  56  79 111 151 194 239 295 358
#     4   9  16  28  50  80 113 147 186 239 299 353
#
# _framework density 20.148980999999999
#
# number of rings (size 3 to 8) (size 9 to 14) (size 15 to 20)
#    0.000    2.167    0.833    2.750    1.167    5.667 
#    0.000    1.667    0.000    1.000    0.000    0.000 
#    0.000    0.000    0.000    0.000    0.000    0.000 
#
# Total GULP energy -297485.258742 kJ/mol
# GULP energy per Si atom -12395.219114 kJ/mol
# Density = 2.010312 g / cm^3
# Si number density = 20.148981 Si / 1000 Ang^3
#
#
#
# Elastic Constant Matrix: (Units=GPa)
#
#
# Indices 1 2 3 4 5 6 
#
# 1 60.5239 32.9229 34.8389 0.0000 0.0000 0.0000
# 2 32.9229 127.2104 76.4550 0.0000 0.0000 0.0000
# 3 34.8389 76.4550 156.9424 0.0000 0.0000 0.0000
# 4 0.0000 0.0000 0.0000 31.6128 0.0000 0.0000
# 5 0.0000 0.0000 0.0000 0.0000 -4.3882 0.0000
# 6 0.0000 0.0000 0.0000 0.0000 0.0000 18.2247
#
#
#
# Elastic Compliance Matrix: (Units=1/GPa)
#
#
# Indices 1 2 3 4 5 6 
#
# 1 0.020015 -0.003549 -0.002714 0.000000 0.000000 0.000000
# 2 -0.003549 0.011745 -0.004934 0.000000 0.000000 0.000000
# 3 -0.002714 -0.004934 0.009378 0.000000 0.000000 0.000000
# 4 0.000000 0.000000 0.000000 0.031633 0.000000 0.000000
# 5 0.000000 0.000000 0.000000 0.000000 -0.227882 0.000000
# 6 0.000000 0.000000 0.000000 0.000000 0.000000 0.054871
#
#
# Mechanical properties :
#
#
# Convention : Reuss Voigt Hill
#
# Bulk Modulus (GPa) = 53.34993 70.34560 61.84776
# Shear Modulus (GPa) = -69.83334 22.45383 -23.68975
#
# Velocity S-wave (km/s) = -5.89353 3.34187 -3.43261
# Velocity P-wave (km/s) = 4.44707 7.06253 3.87962
#
# Compressibility (1/GPa) = 0.01874417
#
# Stress axis : x y z
#
# Youngs Moduli (GPa) = 49.96203 85.14534 106.63531
#
# Poissons Ratio (x) = 0.30216 0.28944
# Poissons Ratio (y) = 0.17730 0.52610
# Poissons Ratio (z) = 0.13561 0.42008
#
# Static dielectric constant tensor:
#      x y z
#    x 3.280300 0.000000 0.000000 
#    y 0.000000 3.853590 0.000000 
#    z 0.000000 0.000000 3.689190 
# 
# 
# High freq. dielectric constant tensor:
#      x y z
#    x 1.737290 0.000000 0.000000 
#    y 0.000000 1.797980 0.000000 
#    z 0.000000 0.000000 1.794110 
# 
# From -- ./inp_files/24388.got.cif
#   From: 2010.03.12/outbox.cif.g09.slc.cpg/sg38_13_cif.got.tgz:24388.got - 2010.04.14 02:38:36.
