data_PCOD8178547
_publ_section_title
;
Structure prediction by ZEFSAII (Michael W. Deem and Ramdas Pophale) SiO2 
 PCOD8178547
Probable space group: A M M 2
;
_chemical_formula_sum "Si O2"
_cell_formula_units_Z 56
_cell_length_a 22.971214
_cell_length_b 9.113916
_cell_length_c 15.421122
_cell_angle_alpha 90.000000
_cell_angle_beta 90.000000
_cell_angle_gamma 90.000000
_cell_volume 3228.530862
_symmetry_space_group_name_H-M "A M M 2"
_symmetry_group_IT_number 38
_symmetry_cell_setting 'orthorhombic'
loop_
_space_group_symop_operation_xyz
x,y,z
-x,-y,z
-x,y,z
x,-y,z
x,1/2+y,1/2+z
-x,1/2-y,1/2+z
-x,1/2+y,1/2+z
x,1/2-y,1/2+z
loop_
_atom_site_type_symbol
_atom_site_label
_atom_site_fract_x
_atom_site_fract_y
_atom_site_fract_z
Si Si1 0.066904 0.328047 0.617990
Si Si2 0.933117 0.172186 0.792174
Si Si3 0.270458 0.174193 0.969920
Si Si4 0.567088 0.672951 0.704928
Si Si5 0.336712 0.333400 0.119509
Si Si6 0.861396 0.325733 0.454919
Si Si7 0.652786 0.833903 0.809340
O O1 0.076024 0.500000 0.630896
O O2 0.088341 0.249407 0.704867
O O3 0.105913 0.265257 0.539867
O O4 0.000000 0.290085 0.596975
O O5 0.893831 0.235523 0.869959
O O6 0.000000 0.211141 0.813075
O O7 0.924399 0.000000 0.780009
O O8 0.204918 0.229337 0.954720
O O9 0.308219 0.227707 0.887564
O O10 0.273039 0.000000 0.981054
O O11 0.293417 0.248147 0.057013
O O12 0.500000 0.718346 0.701693
O O13 0.575963 0.500000 0.698500
O O14 0.600278 0.750997 0.623782
O O15 0.595266 0.732593 0.795572
O O16 0.345408 0.500000 0.086669
O O17 0.310705 0.331073 0.218217
O O18 0.865211 0.500000 0.454430
O O19 0.632569 0.000000 0.829840
#
# Coordination Sequence:
#
# PCOD8178547 Si02
#       7
#     8   8   8   8   8   8   8
#     4   9  17  31  50  72  99 129 163 207 257 304
#     4   9  17  31  51  73  97 129 168 209 254 303
#     4  10  19  34  52  72 100 137 176 210 249 302
#     4   9  17  32  56  81 102 129 167 207 248 297
#     4   9  19  34  52  75 103 134 166 206 253 296
#     4   9  18  31  50  72  97 131 171 208 247 302
#     4   8  18  33  50  72 102 135 165 203 252 297
#
# _framework density 17.34535
#
# number of rings (size 3 to 8) (size 9 to 14) (size 15 to 20)
#    0.857    2.143    0.000    0.857    0.000    4.571 
#    0.000    4.286    0.000    4.286    0.000    0.000 
#    0.000    0.000    0.000    0.000    0.000    0.000 
#
# Total GULP energy -347004.690529 kJ/mol
# GULP energy per Si atom -12393.024662 kJ/mol
# Density = 1.730587 g / cm^3
# Si number density = 17.345350 Si / 1000 Ang^3
#
#
#
# Elastic Constant Matrix: (Units=GPa)
#
#
# Indices 1 2 3 4 5 6 
#
# 1 107.0383 35.4903 55.6932 0.0000 0.0000 0.0000
# 2 35.4903 42.6955 29.7816 0.0000 0.0000 0.0000
# 3 55.6932 29.7816 103.8286 0.0000 0.0000 0.0000
# 4 0.0000 0.0000 0.0000 26.6133 0.0000 0.0000
# 5 0.0000 0.0000 0.0000 0.0000 25.3556 0.0000
# 6 0.0000 0.0000 0.0000 0.0000 0.0000 19.6959
#
#
#
# Elastic Compliance Matrix: (Units=1/GPa)
#
#
# Indices 1 2 3 4 5 6 
#
# 1 0.015148 -0.008656 -0.005643 0.000000 0.000000 0.000000
# 2 -0.008656 0.034226 -0.005174 0.000000 0.000000 0.000000
# 3 -0.005643 -0.005174 0.014142 0.000000 0.000000 0.000000
# 4 0.000000 0.000000 0.000000 0.037575 0.000000 0.000000
# 5 0.000000 0.000000 0.000000 0.000000 0.039439 0.000000
# 6 0.000000 0.000000 0.000000 0.000000 0.000000 0.050772
#
#
# Mechanical properties :
#
#
# Convention : Reuss Voigt Hill
#
# Bulk Modulus (GPa) = 40.69867 55.05474 47.87671
# Shear Modulus (GPa) = 20.96972 23.17278 22.07125
#
# Velocity S-wave (km/s) = 3.48077 3.65905 3.57102
# Velocity P-wave (km/s) = 6.29834 7.04704 6.68318
#
# Compressibility (1/GPa) = 0.02457083
#
# Stress axis : x y z
#
# Youngs Moduli (GPa) = 66.01320 29.21747 70.71082
#
# Poissons Ratio (x) = 0.25291 0.39900
# Poissons Ratio (y) = 0.57141 0.36587
# Poissons Ratio (z) = 0.37249 0.15118
#
# Static dielectric constant tensor:
#      x y z
#    x 3.162730 0.000000 0.000000 
#    y 0.000000 3.040750 0.000000 
#    z 0.000000 0.000000 3.241620 
# 
# 
# High freq. dielectric constant tensor:
#      x y z
#    x 1.657860 0.000000 0.000000 
#    y 0.000000 1.655510 0.000000 
#    z 0.000000 0.000000 1.666830 
# 
# From -- ./inp_files/18808.got.cif
#   From: 2010.03.12/outbox.cif.g09.slc.cpg/sg38_10_cif.got.tgz:18808.got - 2010.04.14 02:38:36.
