data_PCOD8178197
_publ_section_title
;
Structure prediction by ZEFSAII (Michael W. Deem and Ramdas Pophale) SiO2 
 PCOD8178197
Probable space group: A M M 2
;
_chemical_formula_sum "Si O2"
_cell_formula_units_Z 40
_cell_length_a 9.096502
_cell_length_b 7.838728
_cell_length_c 29.005364
_cell_angle_alpha 90.000000
_cell_angle_beta 90.000000
_cell_angle_gamma 90.000000
_cell_volume 2068.227623
_symmetry_space_group_name_H-M "A M M 2"
_symmetry_group_IT_number 38
_symmetry_cell_setting 'orthorhombic'
loop_
_space_group_symop_operation_xyz
x,y,z
-x,-y,z
-x,y,z
x,-y,z
x,1/2+y,1/2+z
-x,1/2-y,1/2+z
-x,1/2+y,1/2+z
x,1/2-y,1/2+z
loop_
_atom_site_type_symbol
_atom_site_label
_atom_site_fract_x
_atom_site_fract_y
_atom_site_fract_z
Si Si1 0.830153 0.310851 0.074010
Si Si2 0.174638 0.000000 0.134616
Si Si3 0.672104 0.192549 0.790922
Si Si4 0.824775 0.500000 0.739165
Si Si5 0.329799 0.804953 0.987157
Si Si6 0.674032 0.190924 0.389123
O O1 0.807839 0.500000 0.095524
O O2 0.000000 0.270849 0.065066
O O3 0.764431 0.169637 0.108982
O O4 0.751638 0.308880 0.024689
O O5 0.232728 0.000000 0.186686
O O6 0.000000 0.000000 0.135022
O O7 0.500000 0.238402 0.786273
O O8 0.764394 0.327764 0.761906
O O9 0.722629 0.201793 0.844403
O O10 0.703840 0.000000 0.773276
O O11 0.000000 0.500000 0.742919
O O12 0.500000 0.753564 0.988087
O O13 0.262388 0.771464 0.936252
O O14 0.304528 0.000000 0.000580
O O15 0.500000 0.192086 0.392664
O O16 0.735374 0.000000 0.383342
#
# Coordination Sequence:
#
# PCOD8178197 Si02
#       6
#     8   4   8   4   8   8
#     4  10  20  36  58  80 105 142 186 229 275 332
#     4   9  20  39  59  79 107 147 191 231 282 343
#     4  10  20  37  61  86 115 153 195 236 284 348
#     4  11  23  39  61  87 115 149 193 249 298 341
#     4  10  19  31  51  82 115 146 181 224 275 327
#     4   9  16  29  52  80 111 147 186 226 269 329
#
# _framework density 19.340233000000001
#
# number of rings (size 3 to 8) (size 9 to 14) (size 15 to 20)
#    0.000    2.200    2.000    1.500    0.000    4.800 
#    0.000    5.000    0.000    2.400    0.000    0.000 
#    0.000    0.000    0.000    0.000    0.000    0.000 
#
# Total GULP energy -247954.988412 kJ/mol
# GULP energy per Si atom -12397.749421 kJ/mol
# Density = 1.929621 g / cm^3
# Si number density = 19.340233 Si / 1000 Ang^3
#
#
#
# Elastic Constant Matrix: (Units=GPa)
#
#
# Indices 1 2 3 4 5 6 
#
# 1 41.7302 39.2167 36.1024 0.0000 0.0000 0.0000
# 2 39.2167 136.5686 69.1599 0.0000 0.0000 0.0000
# 3 36.1024 69.1599 145.4403 0.0000 0.0000 0.0000
# 4 0.0000 0.0000 0.0000 30.0189 0.0000 0.0000
# 5 0.0000 0.0000 0.0000 0.0000 26.7629 0.0000
# 6 0.0000 0.0000 0.0000 0.0000 0.0000 22.8716
#
#
#
# Elastic Compliance Matrix: (Units=1/GPa)
#
#
# Indices 1 2 3 4 5 6 
#
# 1 0.035613 -0.007574 -0.005239 0.000000 0.000000 0.000000
# 2 -0.007574 0.011256 -0.003472 0.000000 0.000000 0.000000
# 3 -0.005239 -0.003472 0.009827 0.000000 0.000000 0.000000
# 4 0.000000 0.000000 0.000000 0.033312 0.000000 0.000000
# 5 0.000000 0.000000 0.000000 0.000000 0.037365 0.000000
# 6 0.000000 0.000000 0.000000 0.000000 0.000000 0.043722
#
#
# Mechanical properties :
#
#
# Convention : Reuss Voigt Hill
#
# Bulk Modulus (GPa) = 41.44803 68.07745 54.76274
# Shear Modulus (GPa) = 23.61753 27.88135 25.74944
#
# Velocity S-wave (km/s) = 3.49830 3.80099 3.65278
# Velocity P-wave (km/s) = 6.14776 7.38510 6.79466
#
# Compressibility (1/GPa) = 0.02412660
#
# Stress axis : x y z
#
# Youngs Moduli (GPa) = 28.07956 88.84519 101.75812
#
# Poissons Ratio (x) = 0.67288 0.53309
# Poissons Ratio (y) = 0.21266 0.35333
# Poissons Ratio (z) = 0.14710 0.30849
#
# Static dielectric constant tensor:
#      x y z
#    x 3.109760 0.000000 0.000000 
#    y 0.000000 3.694590 0.000000 
#    z 0.000000 0.000000 3.675410 
# 
# 
# High freq. dielectric constant tensor:
#      x y z
#    x 1.707050 0.000000 0.000000 
#    y 0.000000 1.769440 0.000000 
#    z 0.000000 0.000000 1.753660 
# 
# From -- ./inp_files/23245.got.cif
#   From: 2010.03.12/outbox.cif.g09.slc.cpg/sg38_12_cif.got.tgz:23245.got - 2010.04.14 02:38:36.
