data_PCOD8178623
_publ_section_title
;
Structure prediction by ZEFSAII (Michael W. Deem and Ramdas Pophale) SiO2 
 PCOD8178623
Probable space group: A M M 2
;
_chemical_formula_sum "Si O2"
_cell_formula_units_Z 64
_cell_length_a 12.639076
_cell_length_b 13.514505
_cell_length_c 19.880951
_cell_angle_alpha 90.000000
_cell_angle_beta 90.000000
_cell_angle_gamma 90.000000
_cell_volume 3395.882254
_symmetry_space_group_name_H-M "A M M 2"
_symmetry_group_IT_number 38
_symmetry_cell_setting 'orthorhombic'
loop_
_space_group_symop_operation_xyz
x,y,z
-x,-y,z
-x,y,z
x,-y,z
x,1/2+y,1/2+z
-x,1/2-y,1/2+z
-x,1/2+y,1/2+z
x,1/2-y,1/2+z
loop_
_atom_site_type_symbol
_atom_site_label
_atom_site_fract_x
_atom_site_fract_y
_atom_site_fract_z
Si Si1 0.252305 0.612624 0.670230
Si Si2 0.881660 0.293221 0.140699
Si Si3 0.622048 0.710295 0.786150
Si Si4 0.732035 0.609363 0.236873
Si Si5 0.270308 0.745715 0.928158
Si Si6 0.624067 0.612052 0.534144
Si Si7 0.117483 0.113203 0.500181
Si Si8 0.118909 0.888098 0.861917
O O1 0.212686 0.500000 0.671313
O O2 0.149376 0.681535 0.661649
O O3 0.311975 0.633139 0.740941
O O4 0.328645 0.634251 0.607431
O O5 0.793063 0.368315 0.168149
O O6 0.000000 0.314495 0.168714
O O7 0.879973 0.309538 0.061361
O O8 0.500000 0.678707 0.786845
O O9 0.634396 0.817926 0.751425
O O10 0.663165 0.715703 0.862569
O O11 0.683449 0.500000 0.235474
O O12 0.821955 0.623861 0.292068
O O13 0.214593 0.644447 0.952329
O O14 0.174185 0.820861 0.916912
O O15 0.343762 0.801977 0.981951
O O16 0.500000 0.619277 0.542983
O O17 0.655522 0.500000 0.509653
O O18 0.000000 0.120830 0.466239
O O19 0.136917 0.000000 0.523472
O O20 0.000000 0.850894 0.851240
O O21 0.122498 0.000000 0.888580
#
# Coordination Sequence:
#
# PCOD8178623 Si02
#       8
#     8   8   8   8   8   8   8   8
#     4  10  21  39  60  84 113 146 187 233 283 342
#     4  10  19  34  57  85 114 145 179 225 278 335
#     4  10  22  37  56  82 112 150 192 238 287 336
#     4   9  18  32  53  80 111 145 183 225 271 329
#     4  11  20  35  54  80 113 147 190 237 282 336
#     4  10  20  35  58  84 110 144 187 239 293 340
#     4  10  21  36  55  80 111 149 190 229 276 336
#     4   9  17  29  47  74 108 143 178 220 274 335
#
# _framework density 18.846354000000002
#
# number of rings (size 3 to 8) (size 9 to 14) (size 15 to 20)
#    0.000    2.125    1.250    2.250    0.000    3.500 
#    0.000    0.625    0.000    1.125    0.000    0.000 
#    0.000    0.000    0.000    0.000    0.000    0.000 
#
# Total GULP energy -396662.182859 kJ/mol
# GULP energy per Si atom -12395.693214 kJ/mol
# Density = 1.880346 g / cm^3
# Si number density = 18.846354 Si / 1000 Ang^3
#
#
#
# Elastic Constant Matrix: (Units=GPa)
#
#
# Indices 1 2 3 4 5 6 
#
# 1 60.5726 11.6288 14.3458 0.0000 0.0000 0.0000
# 2 11.6288 69.6903 18.4869 0.0000 0.0000 0.0000
# 3 14.3458 18.4869 77.8655 0.0000 0.0000 0.0000
# 4 0.0000 0.0000 0.0000 27.0679 0.0000 0.0000
# 5 0.0000 0.0000 0.0000 0.0000 20.7877 0.0000
# 6 0.0000 0.0000 0.0000 0.0000 0.0000 23.0593
#
#
#
# Elastic Compliance Matrix: (Units=1/GPa)
#
#
# Indices 1 2 3 4 5 6 
#
# 1 0.017576 -0.002213 -0.002713 0.000000 0.000000 0.000000
# 2 -0.002213 0.015592 -0.003294 0.000000 0.000000 0.000000
# 3 -0.002713 -0.003294 0.014125 0.000000 0.000000 0.000000
# 4 0.000000 0.000000 0.000000 0.036944 0.000000 0.000000
# 5 0.000000 0.000000 0.000000 0.000000 0.048105 0.000000
# 6 0.000000 0.000000 0.000000 0.000000 0.000000 0.043367
#
#
# Mechanical properties :
#
#
# Convention : Reuss Voigt Hill
#
# Bulk Modulus (GPa) = 32.41179 33.00570 32.70874
# Shear Modulus (GPa) = 24.69936 25.09409 24.89672
#
# Velocity S-wave (km/s) = 3.62410 3.65294 3.63855
# Velocity P-wave (km/s) = 5.89469 5.94500 5.91990
#
# Compressibility (1/GPa) = 0.03085298
#
# Stress axis : x y z
#
# Youngs Moduli (GPa) = 56.89417 64.13392 70.79859
#
# Poissons Ratio (x) = 0.14194 0.19206
# Poissons Ratio (y) = 0.12592 0.23322
# Poissons Ratio (z) = 0.15434 0.21127
#
# Static dielectric constant tensor:
#      x y z
#    x 3.390620 0.000000 0.000000 
#    y 0.000000 3.509420 0.000000 
#    z 0.000000 0.000000 3.367690 
# 
# 
# High freq. dielectric constant tensor:
#      x y z
#    x 1.727280 0.000000 0.000000 
#    y 0.000000 1.729940 0.000000 
#    z 0.000000 0.000000 1.727230 
# 
# From -- ./inp_files/17835.got.cif
#   From: 2010.03.12/outbox.cif.g09.slc.cpg/sg38_9_cif.got.tgz:17835.got - 2010.04.14 02:38:36.
