data_PCOD8178353
_publ_section_title
;
Structure prediction by ZEFSAII (Michael W. Deem and Ramdas Pophale) SiO2 
 PCOD8178353
Probable space group: A M M 2
;
_chemical_formula_sum "Si O2"
_cell_formula_units_Z 56
_cell_length_a 15.115553
_cell_length_b 8.804875
_cell_length_c 20.211960
_cell_angle_alpha 90.000000
_cell_angle_beta 90.000000
_cell_angle_gamma 90.000000
_cell_volume 2690.020968
_symmetry_space_group_name_H-M "A M M 2"
_symmetry_group_IT_number 38
_symmetry_cell_setting 'orthorhombic'
loop_
_space_group_symop_operation_xyz
x,y,z
-x,-y,z
-x,y,z
x,-y,z
x,1/2+y,1/2+z
-x,1/2-y,1/2+z
-x,1/2+y,1/2+z
x,1/2-y,1/2+z
loop_
_atom_site_type_symbol
_atom_site_label
_atom_site_fract_x
_atom_site_fract_y
_atom_site_fract_z
Si Si1 0.330870 0.670676 0.945360
Si Si2 0.725967 0.821267 0.671490
Si Si3 0.867936 0.672214 0.986370
Si Si4 0.267416 0.680106 0.804458
Si Si5 0.399467 0.326501 0.565911
Si Si6 0.900744 0.676443 0.622180
Si Si7 0.902837 0.673724 0.351683
O O1 0.369368 0.500000 0.943546
O O2 0.237384 0.673501 0.982020
O O3 0.321131 0.733373 0.870029
O O4 0.395092 0.775897 0.988865
O O5 0.686700 0.744187 0.738245
O O6 0.664484 0.775179 0.610434
O O7 0.827760 0.772019 0.661924
O O8 0.722730 0.000000 0.679698
O O9 0.901773 0.500000 0.996504
O O10 0.910168 0.740682 0.920995
O O11 0.899896 0.776222 0.045910
O O12 0.262478 0.500000 0.802955
O O13 0.167602 0.744031 0.804768
O O14 0.500000 0.306768 0.590444
O O15 0.368310 0.500000 0.571631
O O16 0.875650 0.500000 0.628105
O O17 0.000000 0.706699 0.650281
O O18 0.873135 0.500000 0.362998
O O19 0.000000 0.682080 0.318095
#
# Coordination Sequence:
#
# PCOD8178353 Si02
#       7
#     8   8   8   8   8   8   8
#     4   9  19  37  62  92 121 155 198 247 306 365
#     4  12  25  42  64  91 126 167 210 258 313 373
#     4  10  19  32  53  83 118 157 202 255 311 363
#     4  10  22  40  62  86 119 162 206 254 311 370
#     4  11  24  42  68  99 128 161 202 251 309 372
#     4  11  23  37  56  84 120 165 213 260 311 367
#     4  10  20  33  51  79 116 159 209 260 308 363
#
# _framework density 20.817682000000001
#
# number of rings (size 3 to 8) (size 9 to 14) (size 15 to 20)
#    0.000    1.571    1.429    4.714    0.000    8.571 
#    0.000    0.714    0.000    0.857    0.000    0.000 
#    0.000    0.000    0.000    0.000    0.000    0.000 
#
# Total GULP energy -347206.518191 kJ/mol
# GULP energy per Si atom -12400.232793 kJ/mol
# Density = 2.077030 g / cm^3
# Si number density = 20.817682 Si / 1000 Ang^3
#
#
#
# Elastic Constant Matrix: (Units=GPa)
#
#
# Indices 1 2 3 4 5 6 
#
# 1 61.0010 27.0688 26.4302 0.0000 0.0000 0.0000
# 2 27.0688 89.0972 19.2650 0.0000 0.0000 0.0000
# 3 26.4302 19.2650 99.4514 0.0000 0.0000 0.0000
# 4 0.0000 0.0000 0.0000 38.5082 0.0000 0.0000
# 5 0.0000 0.0000 0.0000 0.0000 9.1232 0.0000
# 6 0.0000 0.0000 0.0000 0.0000 0.0000 22.3066
#
#
#
# Elastic Compliance Matrix: (Units=1/GPa)
#
#
# Indices 1 2 3 4 5 6 
#
# 1 0.020690 -0.005320 -0.004468 0.000000 0.000000 0.000000
# 2 -0.005320 0.013082 -0.001120 0.000000 0.000000 0.000000
# 3 -0.004468 -0.001120 0.011460 0.000000 0.000000 0.000000
# 4 0.000000 0.000000 0.000000 0.025968 0.000000 0.000000
# 5 0.000000 0.000000 0.000000 0.000000 0.109610 0.000000
# 6 0.000000 0.000000 0.000000 0.000000 0.000000 0.044830
#
#
# Mechanical properties :
#
#
# Convention : Reuss Voigt Hill
#
# Bulk Modulus (GPa) = 42.70726 43.89751 43.30239
# Shear Modulus (GPa) = 19.58778 25.77331 22.68055
#
# Velocity S-wave (km/s) = 3.07077 3.52241 3.30432
# Velocity P-wave (km/s) = 5.75606 6.13804 5.95012
#
# Compressibility (1/GPa) = 0.02341522
#
# Stress axis : x y z
#
# Youngs Moduli (GPa) = 48.33347 76.44018 87.26292
#
# Poissons Ratio (x) = 0.40663 0.38989
# Poissons Ratio (y) = 0.25712 0.09777
# Poissons Ratio (z) = 0.21595 0.08565
#
# Static dielectric constant tensor:
#      x y z
#    x 2.855100 0.000000 0.000000 
#    y 0.000000 3.807930 0.000000 
#    z 0.000000 0.000000 3.825800 
# 
# 
# High freq. dielectric constant tensor:
#      x y z
#    x 1.794660 0.000000 0.000000 
#    y 0.000000 1.823660 0.000000 
#    z 0.000000 0.000000 1.814410 
# 
# From -- ./inp_files/21100.got.cif
#   From: 2010.03.12/outbox.cif.g09.slc.cpg/sg38_11_cif.got.tgz:21100.got - 2010.04.14 02:38:36.
