data_PCOD8178563
_publ_section_title
;
Structure prediction by ZEFSAII (Michael W. Deem and Ramdas Pophale) SiO2 
 PCOD8178563
Probable space group: A M M 2
;
_chemical_formula_sum "Si O2"
_cell_formula_units_Z 64
_cell_length_a 15.019111
_cell_length_b 24.280204
_cell_length_c 9.198192
_cell_angle_alpha 90.000000
_cell_angle_beta 90.000000
_cell_angle_gamma 90.000000
_cell_volume 3354.277809
_symmetry_space_group_name_H-M "A M M 2"
_symmetry_group_IT_number 38
_symmetry_cell_setting 'orthorhombic'
loop_
_space_group_symop_operation_xyz
x,y,z
-x,-y,z
-x,y,z
x,-y,z
x,1/2+y,1/2+z
-x,1/2-y,1/2+z
-x,1/2+y,1/2+z
x,1/2-y,1/2+z
loop_
_atom_site_type_symbol
_atom_site_label
_atom_site_fract_x
_atom_site_fract_y
_atom_site_fract_z
Si Si1 0.597138 0.770859 0.547880
Si Si2 0.245284 0.371858 0.368906
Si Si3 0.099578 0.435371 0.203010
Si Si4 0.895461 0.563363 0.873224
Si Si5 0.598612 0.109556 0.418381
Si Si6 0.396952 0.437628 0.214752
Si Si7 0.715012 0.243822 0.802045
Si Si8 0.757334 0.862704 0.213786
O O1 0.500000 0.743890 0.521276
O O2 0.595506 0.834339 0.508107
O O3 0.622469 0.760580 0.714330
O O4 0.679239 0.742651 0.466107
O O5 0.162519 0.408630 0.322349
O O6 0.337403 0.397161 0.311341
O O7 0.227212 0.312077 0.292858
O O8 0.250401 0.368657 0.542051
O O9 0.101563 0.500000 0.228626
O O10 0.000000 0.412641 0.227484
O O11 0.131309 0.421939 0.039030
O O12 0.870827 0.500000 0.838377
O O13 0.843069 0.603767 0.766461
O O14 0.000000 0.572968 0.849129
O O15 0.500000 0.096394 0.353825
O O16 0.626461 0.065453 0.541929
O O17 0.668533 0.111537 0.286712
O O18 0.500000 0.421101 0.239122
O O19 0.378125 0.500000 0.265035
O O20 0.770288 0.298628 0.760822
#
# Coordination Sequence:
#
# PCOD8178563 Si02
#       8
#     8   8   8   8   8   8   8   8
#     4  10  19  34  55  77 106 149 200 246 285 327
#     4  12  23  36  57  85 120 155 188 238 298 346
#     4   9  20  40  66  92 113 142 190 240 286 344
#     4   9  20  41  68  92 113 145 190 236 285 347
#     4   9  19  36  56  79 110 152 200 240 280 336
#     4  10  21  37  57  81 111 154 203 242 284 343
#     4  11  22  37  51  83 117 153 193 241 290 345
#     4  11  24  37  56  88 120 153 189 239 295 345
#
# _framework density 19.080113999999998
#
# number of rings (size 3 to 8) (size 9 to 14) (size 15 to 20)
#    0.000    1.875    2.500    2.250    1.750    4.500 
#    0.000    1.875    0.000    1.500    0.000    0.000 
#    0.000    0.000    0.000    0.000    0.000    0.000 
#
# Total GULP energy -396658.684313 kJ/mol
# GULP energy per Si atom -12395.583885 kJ/mol
# Density = 1.903669 g / cm^3
# Si number density = 19.080114 Si / 1000 Ang^3
#
#
#
# Elastic Constant Matrix: (Units=GPa)
#
#
# Indices 1 2 3 4 5 6 
#
# 1 90.9635 48.9828 50.9346 0.0000 0.0000 0.0000
# 2 48.9828 88.1394 50.3931 0.0000 0.0000 0.0000
# 3 50.9346 50.3931 105.6949 0.0000 0.0000 0.0000
# 4 0.0000 0.0000 0.0000 22.9282 0.0000 0.0000
# 5 0.0000 0.0000 0.0000 0.0000 24.1319 0.0000
# 6 0.0000 0.0000 0.0000 0.0000 0.0000 25.2055
#
#
#
# Elastic Compliance Matrix: (Units=1/GPa)
#
#
# Indices 1 2 3 4 5 6 
#
# 1 0.017574 -0.006770 -0.005241 0.000000 0.000000 0.000000
# 2 -0.006770 0.018205 -0.005418 0.000000 0.000000 0.000000
# 3 -0.005241 -0.005418 0.014570 0.000000 0.000000 0.000000
# 4 0.000000 0.000000 0.000000 0.043614 0.000000 0.000000
# 5 0.000000 0.000000 0.000000 0.000000 0.041439 0.000000
# 6 0.000000 0.000000 0.000000 0.000000 0.000000 0.039674
#
#
# Mechanical properties :
#
#
# Convention : Reuss Voigt Hill
#
# Bulk Modulus (GPa) = 64.54960 65.04654 64.79807
# Shear Modulus (GPa) = 23.24535 23.41896 23.33215
#
# Velocity S-wave (km/s) = 3.49421 3.50723 3.50072
# Velocity P-wave (km/s) = 7.08404 7.11099 7.09752
#
# Compressibility (1/GPa) = 0.01549196
#
# Stress axis : x y z
#
# Youngs Moduli (GPa) = 56.90348 54.92873 68.63493
#
# Poissons Ratio (x) = 0.37186 0.35972
# Poissons Ratio (y) = 0.38523 0.37183
# Poissons Ratio (z) = 0.29823 0.29758
#
# Static dielectric constant tensor:
#      x y z
#    x 3.524680 0.000000 0.000000 
#    y 0.000000 3.567080 0.000000 
#    z 0.000000 0.000000 3.407930 
# 
# 
# High freq. dielectric constant tensor:
#      x y z
#    x 1.731040 0.000000 0.000000 
#    y 0.000000 1.741800 0.000000 
#    z 0.000000 0.000000 1.739290 
# 
# From -- ./inp_files/5887.got.cif
#   From: 2010.03.12/outbox.cif.g09.slc.cpg/sg38_3_cif.got.tgz:5887.got - 2010.04.14 02:38:36.
