data_PCOD8178557
_publ_section_title
;
Structure prediction by ZEFSAII (Michael W. Deem and Ramdas Pophale) SiO2 
 PCOD8178557
Probable space group: A M M 2
;
_chemical_formula_sum "Si O2"
_cell_formula_units_Z 64
_cell_length_a 9.035441
_cell_length_b 19.424724
_cell_length_c 20.645654
_cell_angle_alpha 90.000000
_cell_angle_beta 90.000000
_cell_angle_gamma 90.000000
_cell_volume 3623.538298
_symmetry_space_group_name_H-M "A M M 2"
_symmetry_group_IT_number 38
_symmetry_cell_setting 'orthorhombic'
loop_
_space_group_symop_operation_xyz
x,y,z
-x,-y,z
-x,y,z
x,-y,z
x,1/2+y,1/2+z
-x,1/2-y,1/2+z
-x,1/2+y,1/2+z
x,1/2-y,1/2+z
loop_
_atom_site_type_symbol
_atom_site_label
_atom_site_fract_x
_atom_site_fract_y
_atom_site_fract_z
Si Si1 0.675583 0.574849 0.617130
Si Si2 0.324400 0.714689 0.556330
Si Si3 0.173792 0.208027 0.303267
Si Si4 0.824869 0.203912 0.926337
Si Si5 0.671549 0.421472 0.371125
Si Si6 0.832260 0.076830 0.738961
Si Si7 0.673126 0.077298 0.263213
Si Si8 0.171114 0.214006 0.672793
O O1 0.500000 0.574767 0.619915
O O2 0.731127 0.500000 0.590919
O O3 0.731352 0.636849 0.572062
O O4 0.734522 0.586007 0.690084
O O5 0.500000 0.719112 0.548927
O O6 0.246424 0.738067 0.490126
O O7 0.274234 0.764975 0.613502
O O8 0.228367 0.252151 0.364553
O O9 0.245691 0.132577 0.308393
O O10 0.223028 0.246496 0.237632
O O11 0.000000 0.198876 0.305837
O O12 0.763956 0.126424 0.919417
O O13 0.000000 0.202480 0.933537
O O14 0.500000 0.402071 0.376928
O O15 0.700637 0.500000 0.392369
O O16 0.721415 0.409437 0.297571
O O17 0.803100 0.132269 0.682759
O O18 0.000000 0.086338 0.765798
O O19 0.809501 0.000000 0.710158
O O20 0.500000 0.092488 0.265892
O O21 0.707707 0.000000 0.288304
O O22 0.000000 0.230413 0.656933
#
# Coordination Sequence:
#
# PCOD8178557 Si02
#       8
#     8   8   8   8   8   8   8   8
#     4   8  15  29  48  71 102 136 168 203 247 302
#     4  11  22  35  53  79 106 141 180 219 268 318
#     4  10  20  34  54  79 106 138 178 221 265 309
#     4  11  23  39  54  74 107 147 183 222 268 318
#     4  10  20  33  51  78 110 143 180 221 265 316
#     4   9  17  32  55  80 107 140 178 221 268 317
#     4   9  17  31  53  80 107 136 170 212 264 315
#     4  10  19  34  54  79 107 138 177 223 268 317
#
# _framework density 17.662296000000001
#
# number of rings (size 3 to 8) (size 9 to 14) (size 15 to 20)
#    0.000    2.250    2.500    1.875    0.000    3.000 
#    0.000    1.250    0.000    1.875    0.000    1.750 
#    0.000    0.000    0.000    0.000    0.000    0.000 
#
# Total GULP energy -396773.386674 kJ/mol
# GULP energy per Si atom -12399.168334 kJ/mol
# Density = 1.762210 g / cm^3
# Si number density = 17.662296 Si / 1000 Ang^3
#
#
#
# Elastic Constant Matrix: (Units=GPa)
#
#
# Indices 1 2 3 4 5 6 
#
# 1 55.9296 38.4679 43.6324 0.0000 0.0000 0.0000
# 2 38.4679 105.1451 51.3520 0.0000 0.0000 0.0000
# 3 43.6324 51.3520 103.9000 0.0000 0.0000 0.0000
# 4 0.0000 0.0000 0.0000 23.0374 0.0000 0.0000
# 5 0.0000 0.0000 0.0000 0.0000 26.0233 0.0000
# 6 0.0000 0.0000 0.0000 0.0000 0.0000 29.0805
#
#
#
# Elastic Compliance Matrix: (Units=1/GPa)
#
#
# Indices 1 2 3 4 5 6 
#
# 1 0.029391 -0.006228 -0.009264 0.000000 0.000000 0.000000
# 2 -0.006228 0.013857 -0.004233 0.000000 0.000000 0.000000
# 3 -0.009264 -0.004233 0.015607 0.000000 0.000000 0.000000
# 4 0.000000 0.000000 0.000000 0.043408 0.000000 0.000000
# 5 0.000000 0.000000 0.000000 0.000000 0.038427 0.000000
# 6 0.000000 0.000000 0.000000 0.000000 0.000000 0.034387
#
#
# Mechanical properties :
#
#
# Convention : Reuss Voigt Hill
#
# Bulk Modulus (GPa) = 51.53677 59.09770 55.31723
# Shear Modulus (GPa) = 22.62488 24.39638 23.51063
#
# Velocity S-wave (km/s) = 3.58295 3.72057 3.65241
# Velocity P-wave (km/s) = 6.80874 7.21036 7.01243
#
# Compressibility (1/GPa) = 0.01940362
#
# Stress axis : x y z
#
# Youngs Moduli (GPa) = 34.02452 72.16745 64.07250
#
# Poissons Ratio (x) = 0.44947 0.59358
# Poissons Ratio (y) = 0.21191 0.27123
# Poissons Ratio (z) = 0.31521 0.30549
#
# Static dielectric constant tensor:
#      x y z
#    x 3.137510 0.000000 0.000000 
#    y 0.000000 3.514120 0.000000 
#    z 0.000000 0.000000 3.085790 
# 
# 
# High freq. dielectric constant tensor:
#      x y z
#    x 1.673990 0.000000 0.000000 
#    y 0.000000 1.687410 0.000000 
#    z 0.000000 0.000000 1.656130 
# 
# From -- ./inp_files/20236.got.cif
#   From: 2010.03.12/outbox.cif.g09.slc.cpg/sg38_11_cif.got.tgz:20236.got - 2010.04.14 02:38:36.
