data_PCOD8178719
_publ_section_title
;
Structure prediction by ZEFSAII (Michael W. Deem and Ramdas Pophale) SiO2 
 PCOD8178719
Probable space group: A M M 2
;
_chemical_formula_sum "Si O2"
_cell_formula_units_Z 64
_cell_length_a 8.541596
_cell_length_b 23.912967
_cell_length_c 15.422312
_cell_angle_alpha 90.000000
_cell_angle_beta 90.000000
_cell_angle_gamma 90.000000
_cell_volume 3150.082846
_symmetry_space_group_name_H-M "A M M 2"
_symmetry_group_IT_number 38
_symmetry_cell_setting 'orthorhombic'
loop_
_space_group_symop_operation_xyz
x,y,z
-x,-y,z
-x,y,z
x,-y,z
x,1/2+y,1/2+z
-x,1/2-y,1/2+z
-x,1/2+y,1/2+z
x,1/2-y,1/2+z
loop_
_atom_site_type_symbol
_atom_site_label
_atom_site_fract_x
_atom_site_fract_y
_atom_site_fract_z
Si Si1 0.318945 0.630141 0.513620
Si Si2 0.682643 0.868812 0.699056
Si Si3 0.315142 0.365864 0.006941
Si Si4 0.818381 0.745444 0.249429
Si Si5 0.684992 0.937559 0.348965
Si Si6 0.316736 0.248481 0.935892
Si Si7 0.818377 0.632071 0.694474
Si Si8 0.181396 0.564466 0.356059
O O1 0.500000 0.624238 0.537070
O O2 0.275119 0.693537 0.490084
O O3 0.219839 0.611953 0.597334
O O4 0.281667 0.589625 0.433969
O O5 0.500000 0.881130 0.714327
O O6 0.738458 0.886182 0.602264
O O7 0.711601 0.802858 0.709115
O O8 0.782553 0.904164 0.766698
O O9 0.500000 0.369365 0.001458
O O10 0.241594 0.405194 0.932130
O O11 0.264399 0.301651 0.992599
O O12 0.789402 0.748964 0.351325
O O13 0.766441 0.803564 0.205497
O O14 0.000000 0.732119 0.232261
O O15 0.500000 0.940002 0.358133
O O16 0.724381 0.906196 0.260706
O O17 0.756039 0.000000 0.346959
O O18 0.500000 0.250007 0.909859
O O19 0.000000 0.624290 0.714489
O O20 0.227409 0.500000 0.344574
O O21 0.000000 0.572402 0.378370
#
# Coordination Sequence:
#
# PCOD8178719 Si02
#       8
#     8   8   8   8   8   8   8   8
#     4  11  23  39  64  94 119 154 202 250 300 358
#     4  11  22  38  63  93 122 158 200 247 301 357
#     4   9  19  36  60  90 122 154 194 244 299 356
#     4  11  22  36  58  89 124 162 197 239 298 362
#     4  10  21  39  63  88 116 155 203 255 303 349
#     4  10  19  35  61  90 119 154 193 243 302 356
#     4  11  24  40  60  89 124 164 200 242 303 362
#     4  11  25  44  63  86 121 162 202 250 305 359
#
# _framework density 20.316925999999999
#
# number of rings (size 3 to 8) (size 9 to 14) (size 15 to 20)
#    0.000    1.500    2.500    2.625    0.000    5.250 
#    0.000    3.750    0.000    0.000    0.000    0.000 
#    0.000    0.000    0.000    0.000    0.000    0.000 
#
# Total GULP energy -396919.680491 kJ/mol
# GULP energy per Si atom -12403.740015 kJ/mol
# Density = 2.027068 g / cm^3
# Si number density = 20.316926 Si / 1000 Ang^3
#
#
#
# Elastic Constant Matrix: (Units=GPa)
#
#
# Indices 1 2 3 4 5 6 
#
# 1 28.6167 14.3621 5.9412 0.0000 0.0000 0.0000
# 2 14.3621 125.1126 48.7592 0.0000 0.0000 0.0000
# 3 5.9412 48.7592 140.0987 0.0000 0.0000 0.0000
# 4 0.0000 0.0000 0.0000 4.9001 0.0000 0.0000
# 5 0.0000 0.0000 0.0000 0.0000 20.1035 0.0000
# 6 0.0000 0.0000 0.0000 0.0000 0.0000 25.2583
#
#
#
# Elastic Compliance Matrix: (Units=1/GPa)
#
#
# Indices 1 2 3 4 5 6 
#
# 1 0.037082 -0.004216 -0.000105 0.000000 0.000000 0.000000
# 2 -0.004216 0.009726 -0.003206 0.000000 0.000000 0.000000
# 3 -0.000105 -0.003206 0.008258 0.000000 0.000000 0.000000
# 4 0.000000 0.000000 0.000000 0.204077 0.000000 0.000000
# 5 0.000000 0.000000 0.000000 0.000000 0.049743 0.000000
# 6 0.000000 0.000000 0.000000 0.000000 0.000000 0.039591
#
#
# Mechanical properties :
#
#
# Convention : Reuss Voigt Hill
#
# Bulk Modulus (GPa) = 24.99251 47.99477 36.49364
# Shear Modulus (GPa) = 13.26721 25.03676 19.15198
#
# Velocity S-wave (km/s) = 2.55818 3.51424 3.07361
# Velocity P-wave (km/s) = 4.58844 6.33568 5.53148
#
# Compressibility (1/GPa) = 0.04001198
#
# Stress axis : x y z
#
# Youngs Moduli (GPa) = 26.96709 102.81386 121.09173
#
# Poissons Ratio (x) = 0.43344 0.01275
# Poissons Ratio (y) = 0.11369 0.38826
# Poissons Ratio (z) = 0.00284 0.32965
#
# Static dielectric constant tensor:
#      x y z
#    x 3.463920 0.000000 0.000000 
#    y 0.000000 3.879340 0.000000 
#    z 0.000000 0.000000 3.815610 
# 
# 
# High freq. dielectric constant tensor:
#      x y z
#    x 1.778950 0.000000 0.000000 
#    y 0.000000 1.793820 0.000000 
#    z 0.000000 0.000000 1.806070 
# 
# From -- ./inp_files/12857.got.cif
#   From: 2010.03.12/outbox.cif.g09.slc.cpg/sg38_7_cif.got.tgz:12857.got - 2010.04.14 02:38:36.
