data_PCOD8178793
_publ_section_title
;
Structure prediction by ZEFSAII (Michael W. Deem and Ramdas Pophale) SiO2 
 PCOD8178793
Probable space group: A M M 2
;
_chemical_formula_sum "Si O2"
_cell_formula_units_Z 48
_cell_length_a 9.064104
_cell_length_b 23.656514
_cell_length_c 14.044312
_cell_angle_alpha 90.000000
_cell_angle_beta 90.000000
_cell_angle_gamma 90.000000
_cell_volume 3011.453050
_symmetry_space_group_name_H-M "A M M 2"
_symmetry_group_IT_number 38
_symmetry_cell_setting 'orthorhombic'
loop_
_space_group_symop_operation_xyz
x,y,z
-x,-y,z
-x,y,z
x,-y,z
x,1/2+y,1/2+z
-x,1/2-y,1/2+z
-x,1/2+y,1/2+z
x,1/2-y,1/2+z
loop_
_atom_site_type_symbol
_atom_site_label
_atom_site_fract_x
_atom_site_fract_y
_atom_site_fract_z
Si Si1 0.826571 0.160161 0.647240
Si Si2 0.174842 0.773801 0.465173
Si Si3 0.824883 0.772783 0.255064
Si Si4 0.824706 0.834254 0.074570
Si Si5 0.173226 0.063812 0.951802
Si Si6 0.672639 0.935107 0.755963
O O1 0.781816 0.176530 0.538830
O O2 0.778270 0.210779 0.717902
O O3 0.739170 0.103492 0.672840
O O4 0.000000 0.148318 0.655661
O O5 0.242591 0.784780 0.359923
O O6 0.236146 0.713878 0.503221
O O7 0.000000 0.769991 0.458208
O O8 0.765650 0.820851 0.181437
O O9 0.000000 0.775537 0.258857
O O10 0.000000 0.831027 0.076231
O O11 0.772089 0.895550 0.037500
O O12 0.254763 0.082029 0.855916
O O13 0.000000 0.070979 0.932569
O O14 0.213753 0.000000 0.981930
O O15 0.500000 0.924454 0.764242
O O16 0.709229 0.000000 0.730557
#
# Coordination Sequence:
#
# PCOD8178793 Si02
#       6
#     8   8   8   8   8   8
#     4   9  16  26  43  64  82 105 138 170 198 234
#     4   8  13  21  36  60  85 107 133 165 201 238
#     4   8  13  22  39  63  88 111 134 163 200 240
#     4   8  13  21  36  60  86 109 134 165 200 236
#     4   9  16  26  42  63  84 107 137 170 199 232
#     4  10  20  31  42  58  81 108 134 163 206 252
#
# _framework density 15.93915
#
# number of rings (size 3 to 8) (size 9 to 14) (size 15 to 20)
#    0.000    3.333    0.000    3.500    0.000    3.667 
#    0.000    0.000    0.000   10.000    0.000    4.667 
#    0.000    2.667    0.000    0.000    0.000    0.000 
#
# Total GULP energy -297409.313580 kJ/mol
# GULP energy per Si atom -12392.054732 kJ/mol
# Density = 1.590287 g / cm^3
# Si number density = 15.939150 Si / 1000 Ang^3
#
#
#
# Elastic Constant Matrix: (Units=GPa)
#
#
# Indices 1 2 3 4 5 6 
#
# 1 22.9462 24.1498 20.2339 0.0000 0.0000 0.0000
# 2 24.1498 102.9492 75.1015 0.0000 0.0000 0.0000
# 3 20.2339 75.1015 155.8609 0.0000 0.0000 0.0000
# 4 0.0000 0.0000 0.0000 27.8851 0.0000 0.0000
# 5 0.0000 0.0000 0.0000 0.0000 2.9670 0.0000
# 6 0.0000 0.0000 0.0000 0.0000 0.0000 11.6577
#
#
#
# Elastic Compliance Matrix: (Units=1/GPa)
#
#
# Indices 1 2 3 4 5 6 
#
# 1 0.058094 -0.012531 -0.001504 0.000000 0.000000 0.000000
# 2 -0.012531 0.017681 -0.006893 0.000000 0.000000 0.000000
# 3 -0.001504 -0.006893 0.009933 0.000000 0.000000 0.000000
# 4 0.000000 0.000000 0.000000 0.035861 0.000000 0.000000
# 5 0.000000 0.000000 0.000000 0.000000 0.337045 0.000000
# 6 0.000000 0.000000 0.000000 0.000000 0.000000 0.085781
#
#
# Mechanical properties :
#
#
# Convention : Reuss Voigt Hill
#
# Bulk Modulus (GPa) = 22.80336 57.85849 40.33093
# Shear Modulus (GPa) = 8.32129 19.32002 13.82066
#
# Velocity S-wave (km/s) = 2.28736 3.48532 2.94783
# Velocity P-wave (km/s) = 4.61666 7.25086 6.07818
#
# Compressibility (1/GPa) = 0.04385318
#
# Stress axis : x y z
#
# Youngs Moduli (GPa) = 17.21337 56.55639 100.67814
#
# Poissons Ratio (x) = 0.70869 0.15141
# Poissons Ratio (y) = 0.21569 0.69398
# Poissons Ratio (z) = 0.02589 0.38985
#
# Static dielectric constant tensor:
#      x y z
#    x 2.562690 0.000000 0.000000 
#    y 0.000000 3.075040 0.000000 
#    z 0.000000 0.000000 3.431160 
# 
# 
# High freq. dielectric constant tensor:
#      x y z
#    x 1.562860 0.000000 0.000000 
#    y 0.000000 1.603790 0.000000 
#    z 0.000000 0.000000 1.611400 
# 
# From -- ./inp_files/12242.got.cif
#   From: 2010.03.12/outbox.cif.g09.slc.cpg/sg38_7_cif.got.tgz:12242.got - 2010.04.14 02:38:36.
