data_PCOD8178674
_publ_section_title
;
Structure prediction by ZEFSAII (Michael W. Deem and Ramdas Pophale) SiO2 
 PCOD8178674
Probable space group: A M M 2
;
_chemical_formula_sum "Si O2"
_cell_formula_units_Z 48
_cell_length_a 16.826628
_cell_length_b 9.398456
_cell_length_c 15.712324
_cell_angle_alpha 90.000000
_cell_angle_beta 90.000000
_cell_angle_gamma 90.000000
_cell_volume 2484.814840
_symmetry_space_group_name_H-M "A M M 2"
_symmetry_group_IT_number 38
_symmetry_cell_setting 'orthorhombic'
loop_
_space_group_symop_operation_xyz
x,y,z
-x,-y,z
-x,y,z
x,-y,z
x,1/2+y,1/2+z
-x,1/2-y,1/2+z
-x,1/2+y,1/2+z
x,1/2-y,1/2+z
loop_
_atom_site_type_symbol
_atom_site_label
_atom_site_fract_x
_atom_site_fract_y
_atom_site_fract_z
Si Si1 0.688223 0.165001 0.333690
Si Si2 0.000000 0.667513 0.132755
Si Si3 0.679921 0.663746 0.643805
Si Si4 0.151231 0.160294 0.082528
Si Si5 0.000000 0.167053 0.828442
Si Si6 0.166410 0.837598 0.889076
Si Si7 0.408948 0.832154 0.497921
O O1 0.649412 0.191720 0.240417
O O2 0.770175 0.249520 0.336234
O O3 0.629308 0.217789 0.408276
O O4 0.708624 0.000000 0.345749
O O5 0.079221 0.731103 0.091918
O O6 0.000000 0.500000 0.116851
O O7 0.000000 0.709954 0.230662
O O8 0.666251 0.500000 0.617097
O O9 0.774411 0.699074 0.642767
O O10 0.632263 0.761233 0.578871
O O11 0.119920 0.000000 0.099848
O O12 0.186464 0.173275 0.988055
O O13 0.920889 0.229801 0.872124
O O14 0.000000 0.000000 0.843826
O O15 0.169818 0.000000 0.856194
O O16 0.500000 0.783406 0.495622
O O17 0.400340 0.000000 0.509295
#
# Coordination Sequence:
#
# PCOD8178674 Si02
#       7
#     8   4   8   8   4   8   8
#     4  10  21  37  59  87 119 149 186 237 291 339
#     4  11  22  33  49  77 110 147 194 239 284 335
#     4  10  21  38  61  89 116 151 195 238 286 342
#     4  10  20  35  55  79 110 148 191 237 287 335
#     4   9  19  33  49  75 108 145 190 235 278 331
#     4  10  19  35  58  79 108 151 195 233 280 338
#     4  10  22  40  60  84 117 153 186 230 291 351
#
# _framework density 19.317335
#
# number of rings (size 3 to 8) (size 9 to 14) (size 15 to 20)
#    0.000    2.000    1.667    1.750    0.000    4.333 
#    0.000    2.917    0.000    0.000    0.000    0.000 
#    0.000    0.000    0.000    0.000    0.000    0.000 
#
# Total GULP energy -297614.660946 kJ/mol
# GULP energy per Si atom -12400.610873 kJ/mol
# Density = 1.927337 g / cm^3
# Si number density = 19.317335 Si / 1000 Ang^3
#
#
#
# Elastic Constant Matrix: (Units=GPa)
#
#
# Indices 1 2 3 4 5 6 
#
# 1 107.9765 38.2425 54.6388 0.0000 0.0000 0.0000
# 2 38.2425 51.5041 40.7946 0.0000 0.0000 0.0000
# 3 54.6388 40.7946 113.5483 0.0000 0.0000 0.0000
# 4 0.0000 0.0000 0.0000 27.5353 0.0000 0.0000
# 5 0.0000 0.0000 0.0000 0.0000 21.0349 0.0000
# 6 0.0000 0.0000 0.0000 0.0000 0.0000 31.2223
#
#
#
# Elastic Compliance Matrix: (Units=1/GPa)
#
#
# Indices 1 2 3 4 5 6 
#
# 1 0.013834 -0.006988 -0.004146 0.000000 0.000000 0.000000
# 2 -0.006988 0.030668 -0.007656 0.000000 0.000000 0.000000
# 3 -0.004146 -0.007656 0.013553 0.000000 0.000000 0.000000
# 4 0.000000 0.000000 0.000000 0.036317 0.000000 0.000000
# 5 0.000000 0.000000 0.000000 0.000000 0.047540 0.000000
# 6 0.000000 0.000000 0.000000 0.000000 0.000000 0.032028
#
#
# Mechanical properties :
#
#
# Convention : Reuss Voigt Hill
#
# Bulk Modulus (GPa) = 48.83979 60.04229 54.44104
# Shear Modulus (GPa) = 22.89941 25.24870 24.07405
#
# Velocity S-wave (km/s) = 3.44675 3.61923 3.53404
# Velocity P-wave (km/s) = 6.41700 6.97242 6.70047
#
# Compressibility (1/GPa) = 0.02047511
#
# Stress axis : x y z
#
# Youngs Moduli (GPa) = 72.28323 32.60685 73.78693
#
# Poissons Ratio (x) = 0.22786 0.30596
# Poissons Ratio (y) = 0.50512 0.56489
# Poissons Ratio (z) = 0.29972 0.24963
#
# Static dielectric constant tensor:
#      x y z
#    x 3.495610 0.000000 0.000000 
#    y 0.000000 3.367090 0.000000 
#    z 0.000000 0.000000 3.624120 
# 
# 
# High freq. dielectric constant tensor:
#      x y z
#    x 1.749030 0.000000 0.000000 
#    y 0.000000 1.734890 0.000000 
#    z 0.000000 0.000000 1.763280 
# 
# From -- ./inp_files/14987.got.cif
#   From: 2010.03.12/outbox.cif.g09.slc.cpg/sg38_8_cif.got.tgz:14987.got - 2010.04.14 02:38:36.
