data_PCOD8178065
_publ_section_title
;
Structure prediction by ZEFSAII (Michael W. Deem and Ramdas Pophale) SiO2 
 PCOD8178065
Probable space group: A M M 2
;
_chemical_formula_sum "Si O2"
_cell_formula_units_Z 40
_cell_length_a 20.977281
_cell_length_b 23.588657
_cell_length_c 4.999792
_cell_angle_alpha 90.000000
_cell_angle_beta 90.000000
_cell_angle_gamma 90.000000
_cell_volume 2474.026508
_symmetry_space_group_name_H-M "A M M 2"
_symmetry_group_IT_number 38
_symmetry_cell_setting 'orthorhombic'
loop_
_space_group_symop_operation_xyz
x,y,z
-x,-y,z
-x,y,z
x,-y,z
x,1/2+y,1/2+z
-x,1/2-y,1/2+z
-x,1/2+y,1/2+z
x,1/2-y,1/2+z
loop_
_atom_site_type_symbol
_atom_site_label
_atom_site_fract_x
_atom_site_fract_y
_atom_site_fract_z
Si Si1 0.230309 0.789441 0.277450
Si Si2 0.074726 0.565465 0.360234
Si Si3 0.500000 0.711865 0.726757
Si Si4 0.368790 0.286722 0.866628
Si Si5 0.000000 0.286381 0.879925
Si Si6 0.114906 0.369454 0.857395
O O1 0.219213 0.739388 0.491022
O O2 0.301418 0.817131 0.303505
O O3 0.183698 0.842175 0.313802
O O4 0.087951 0.500000 0.299762
O O5 0.101686 0.579711 0.651888
O O6 0.000000 0.579424 0.340046
O O7 0.112253 0.604389 0.151669
O O8 0.500000 0.732555 0.421343
O O9 0.566313 0.677566 0.792387
O O10 0.370728 0.230503 0.677433
O O11 0.937201 0.321227 0.812606
O O12 0.000000 0.231390 0.689846
#
# Coordination Sequence:
#
# PCOD8178065 Si02
#       6
#     8   8   4   8   4   8
#     4  10  19  31  44  64  93 125 149 172 208 260
#     4  11  22  38  54  68  82 104 144 193 236 272
#     4   8  12  20  34  54  76 108 149 182 199 224
#     4   8  14  23  37  55  81 114 149 176 201 235
#     4  12  22  32  45  66  91 116 144 172 200 248
#     4  12  21  35  50  68  88 116 144 181 222 263
#
# _framework density 16.167974999999998
#
# number of rings (size 3 to 8) (size 9 to 14) (size 15 to 20)
#    0.000    1.800    2.000    4.200    0.000    1.600 
#    0.000    0.000    0.000    0.000    0.000    0.000 
#    0.000    0.000    0.000    5.400    0.000    2.000 
#
# Total GULP energy -247873.569682 kJ/mol
# GULP energy per Si atom -12393.678484 kJ/mol
# Density = 1.613118 g / cm^3
# Si number density = 16.167975 Si / 1000 Ang^3
#
#
#
# Elastic Constant Matrix: (Units=GPa)
#
#
# Indices 1 2 3 4 5 6 
#
# 1 126.0443 35.1889 3.3850 0.0000 0.0000 0.0000
# 2 35.1889 43.4826 7.7255 0.0000 0.0000 0.0000
# 3 3.3850 7.7255 64.1435 0.0000 0.0000 0.0000
# 4 0.0000 0.0000 0.0000 25.0045 0.0000 0.0000
# 5 0.0000 0.0000 0.0000 0.0000 22.1335 0.0000
# 6 0.0000 0.0000 0.0000 0.0000 0.0000 4.5674
#
#
#
# Elastic Compliance Matrix: (Units=1/GPa)
#
#
# Indices 1 2 3 4 5 6 
#
# 1 0.010263 -0.008389 0.000469 0.000000 0.000000 0.000000
# 2 -0.008389 0.030357 -0.003214 0.000000 0.000000 0.000000
# 3 0.000469 -0.003214 0.015952 0.000000 0.000000 0.000000
# 4 0.000000 0.000000 0.000000 0.039993 0.000000 0.000000
# 5 0.000000 0.000000 0.000000 0.000000 0.045180 0.000000
# 6 0.000000 0.000000 0.000000 0.000000 0.000000 0.218941
#
#
# Mechanical properties :
#
#
# Convention : Reuss Voigt Hill
#
# Bulk Modulus (GPa) = 29.14977 36.25212 32.70095
# Shear Modulus (GPa) = 12.67783 22.83249 17.75516
#
# Velocity S-wave (km/s) = 2.80327 3.76201 3.31746
# Velocity P-wave (km/s) = 5.34287 6.42971 5.91132
#
# Compressibility (1/GPa) = 0.03430558
#
# Stress axis : x y z
#
# Youngs Moduli (GPa) = 97.43622 32.94083 62.68668
#
# Poissons Ratio (x) = 0.27634 -0.02938
# Poissons Ratio (y) = 0.81738 0.20145
# Poissons Ratio (z) = -0.04567 0.10586
#
# Static dielectric constant tensor:
#      x y z
#    x 3.550320 0.000000 0.000000 
#    y 0.000000 2.557580 0.000000 
#    z 0.000000 0.000000 3.228400 
# 
# 
# High freq. dielectric constant tensor:
#      x y z
#    x 1.634590 0.000000 0.000000 
#    y 0.000000 1.548970 0.000000 
#    z 0.000000 0.000000 1.650360 
# 
# From -- ./inp_files/1852.got.cif
#   From: 2010.03.12/outbox.cif.g09.slc.cpg/sg38_1_cif.got.tgz:1852.got - 2010.04.14 02:38:36.
