data_PCOD8178394
_publ_section_title
;
Structure prediction by ZEFSAII (Michael W. Deem and Ramdas Pophale) SiO2 
 PCOD8178394
Probable space group: A M M 2
;
_chemical_formula_sum "Si O2"
_cell_formula_units_Z 56
_cell_length_a 12.820479
_cell_length_b 20.957132
_cell_length_c 9.499582
_cell_angle_alpha 90.000000
_cell_angle_beta 90.000000
_cell_angle_gamma 90.000000
_cell_volume 2552.352163
_symmetry_space_group_name_H-M "A M M 2"
_symmetry_group_IT_number 38
_symmetry_cell_setting 'orthorhombic'
loop_
_space_group_symop_operation_xyz
x,y,z
-x,-y,z
-x,y,z
x,-y,z
x,1/2+y,1/2+z
-x,1/2-y,1/2+z
-x,1/2+y,1/2+z
x,1/2-y,1/2+z
loop_
_atom_site_type_symbol
_atom_site_label
_atom_site_fract_x
_atom_site_fract_y
_atom_site_fract_z
Si Si1 0.616222 0.216668 0.743860
Si Si2 0.613894 0.365067 0.507617
Si Si3 0.803740 0.207611 0.351125
Si Si4 0.879652 0.426906 0.340313
Si Si5 0.172939 0.680971 0.549909
Si Si6 0.256359 0.621831 0.080598
Si Si7 0.376705 0.500000 0.425124
Si Si8 0.377133 0.000000 0.605435
O O1 0.500000 0.242268 0.700964
O O2 0.684458 0.271557 0.817395
O O3 0.676971 0.186097 0.611705
O O4 0.601745 0.156000 0.846355
O O5 0.500000 0.360890 0.582965
O O6 0.700559 0.320722 0.580680
O O7 0.661049 0.436784 0.505917
O O8 0.859649 0.263657 0.441053
O O9 0.870552 0.195270 0.206859
O O10 0.807674 0.142133 0.441097
O O11 0.840662 0.500000 0.369124
O O12 0.864767 0.385749 0.483220
O O13 0.818473 0.394794 0.211099
O O14 0.000000 0.427968 0.297173
O O15 0.329329 0.563123 0.034359
O O16 0.500000 0.500000 0.420522
O O17 0.337588 0.500000 0.265545
O O18 0.500000 0.000000 0.582982
#
# Coordination Sequence:
#
# PCOD8178394 Si02
#       8
#     8   8   8   8   8   8   4   4
#     4  10  19  32  57  89 128 173 216 258 307 370
#     4   9  17  28  49  83 116 157 207 250 300 357
#     4  11  23  40  63  91 133 172 215 259 325 374
#     4  11  24  45  73  99 123 161 211 266 331 395
#     4  11  21  41  63  89 129 165 209 264 313 378
#     4  12  21  40  64  94 131 171 218 275 315 382
#     4   9  14  24  45  74 104 144 202 248 287 350
#     4  11  20  32  58  94 130 174 219 264 318 374
#
# _framework density 21.940546000000001
#
# number of rings (size 3 to 8) (size 9 to 14) (size 15 to 20)
#    0.000    1.429    6.429    0.429    1.000    1.714 
#    1.286    3.571    0.000    2.571    0.000    0.000 
#    0.000    0.000    0.000    0.000    0.000    0.000 
#
# Total GULP energy -346998.614694 kJ/mol
# GULP energy per Si atom -12392.807668 kJ/mol
# Density = 2.189061 g / cm^3
# Si number density = 21.940546 Si / 1000 Ang^3
#
#
#
# Elastic Constant Matrix: (Units=GPa)
#
#
# Indices 1 2 3 4 5 6 
#
# 1 42.0993 21.2268 13.1749 0.0000 0.0000 0.0000
# 2 21.2268 133.9404 66.6341 0.0000 0.0000 0.0000
# 3 13.1749 66.6341 127.0914 0.0000 0.0000 0.0000
# 4 0.0000 0.0000 0.0000 20.3797 0.0000 0.0000
# 5 0.0000 0.0000 0.0000 0.0000 4.2037 0.0000
# 6 0.0000 0.0000 0.0000 0.0000 0.0000 14.3263
#
#
#
# Elastic Compliance Matrix: (Units=1/GPa)
#
#
# Indices 1 2 3 4 5 6 
#
# 1 0.025865 -0.003741 -0.000720 0.000000 0.000000 0.000000
# 2 -0.003741 0.010642 -0.005192 0.000000 0.000000 0.000000
# 3 -0.000720 -0.005192 0.010665 0.000000 0.000000 0.000000
# 4 0.000000 0.000000 0.000000 0.049068 0.000000 0.000000
# 5 0.000000 0.000000 0.000000 0.000000 0.237883 0.000000
# 6 0.000000 0.000000 0.000000 0.000000 0.000000 0.069802
#
#
# Mechanical properties :
#
#
# Convention : Reuss Voigt Hill
#
# Bulk Modulus (GPa) = 35.88527 56.13364 46.00945
# Shear Modulus (GPa) = 11.56020 21.25496 16.40758
#
# Velocity S-wave (km/s) = 2.29789 3.11586 2.73760
# Velocity P-wave (km/s) = 4.84062 6.21166 5.56850
#
# Compressibility (1/GPa) = 0.02786659
#
# Stress axis : x y z
#
# Youngs Moduli (GPa) = 38.66246 93.97046 93.76505
#
# Poissons Ratio (x) = 0.35153 0.06750
# Poissons Ratio (y) = 0.14463 0.48679
# Poissons Ratio (z) = 0.02783 0.48786
#
# Static dielectric constant tensor:
#      x y z
#    x 3.863540 0.000000 0.000000 
#    y 0.000000 4.304740 0.000000 
#    z 0.000000 0.000000 3.692550 
# 
# 
# High freq. dielectric constant tensor:
#      x y z
#    x 1.846140 0.000000 0.000000 
#    y 0.000000 1.874460 0.000000 
#    z 0.000000 0.000000 1.831190 
# 
# From -- ./inp_files/5761.got.cif
#   From: 2010.03.12/outbox.cif.g09.slc.cpg/sg38_3_cif.got.tgz:5761.got - 2010.04.14 02:38:36.
