data_PCOD8178965
_publ_section_title
;
Structure prediction by ZEFSAII (Michael W. Deem and Ramdas Pophale) SiO2 
 PCOD8178965
Probable space group: A M M 2
;
_chemical_formula_sum "Si O2"
_cell_formula_units_Z 64
_cell_length_a 14.311799
_cell_length_b 8.779076
_cell_length_c 28.523842
_cell_angle_alpha 90.000000
_cell_angle_beta 90.000000
_cell_angle_gamma 90.000000
_cell_volume 3583.860190
_symmetry_space_group_name_H-M "A M M 2"
_symmetry_group_IT_number 38
_symmetry_cell_setting 'orthorhombic'
loop_
_space_group_symop_operation_xyz
x,y,z
-x,-y,z
-x,y,z
x,-y,z
x,1/2+y,1/2+z
-x,1/2-y,1/2+z
-x,1/2+y,1/2+z
x,1/2-y,1/2+z
loop_
_atom_site_type_symbol
_atom_site_label
_atom_site_fract_x
_atom_site_fract_y
_atom_site_fract_z
Si Si1 0.742548 0.180992 0.307710
Si Si2 0.896399 0.680558 0.985836
Si Si3 0.603421 0.180508 0.487835
Si Si4 0.744605 0.679182 0.663965
Si Si5 0.751707 0.178737 0.563602
Si Si6 0.251980 0.318394 0.913003
Si Si7 0.103490 0.820171 0.236413
Si Si8 0.607646 0.820436 0.734765
O O1 0.745489 0.247144 0.360435
O O2 0.838589 0.232008 0.282293
O O3 0.653689 0.249502 0.281143
O O4 0.731777 0.000000 0.307042
O O5 0.902327 0.500000 0.982921
O O6 0.842379 0.725638 0.033327
O O7 0.000000 0.753432 0.986477
O O8 0.840542 0.740989 0.940141
O O9 0.500000 0.253706 0.489485
O O10 0.659226 0.225706 0.534727
O O11 0.657248 0.240472 0.441550
O O12 0.597304 0.000000 0.484982
O O13 0.730011 0.500000 0.669452
O O14 0.753416 0.723651 0.610283
O O15 0.839525 0.731991 0.690302
O O16 0.655704 0.759853 0.687418
O O17 0.751853 0.000000 0.575633
O O18 0.250865 0.500000 0.912006
O O19 0.000000 0.744460 0.236599
O O20 0.092539 0.000000 0.236694
O O21 0.500000 0.770566 0.733596
O O22 0.619439 0.000000 0.736727
#
# Coordination Sequence:
#
# PCOD8178965 Si02
#       8
#     8   8   8   8   8   8   8   8
#     4   9  17  29  48  74  99 123 155 197 239 275
#     4   8  14  25  42  67  99 130 160 197 236 274
#     4   8  14  25  41  62  89 119 149 182 220 264
#     4  10  20  33  50  71  94 121 155 197 241 281
#     4   9  17  29  45  66  92 121 156 194 231 277
#     4   8  14  24  40  66  95 121 153 190 227 268
#     4   8  15  28  44  64  92 122 150 183 226 275
#     4  10  21  36  52  69  92 124 158 191 234 291
#
# _framework density 17.857839999999999
#
# number of rings (size 3 to 8) (size 9 to 14) (size 15 to 20)
#    0.000    3.250    0.000    3.000    0.000    3.000 
#    0.000    5.000    0.000   12.000    0.000    0.000 
#    0.000    0.000    0.000    0.000    0.000    0.000 
#
# Total GULP energy -396634.219699 kJ/mol
# GULP energy per Si atom -12394.819366 kJ/mol
# Density = 1.781719 g / cm^3
# Si number density = 17.857840 Si / 1000 Ang^3
#
#
#
# Elastic Constant Matrix: (Units=GPa)
#
#
# Indices 1 2 3 4 5 6 
#
# 1 180.2343 23.3732 80.8629 0.0000 0.0000 0.0000
# 2 23.3732 22.3038 18.2974 0.0000 0.0000 0.0000
# 3 80.8629 18.2974 157.5849 0.0000 0.0000 0.0000
# 4 0.0000 0.0000 0.0000 23.2711 0.0000 0.0000
# 5 0.0000 0.0000 0.0000 0.0000 14.0892 0.0000
# 6 0.0000 0.0000 0.0000 0.0000 0.0000 11.4628
#
#
#
# Elastic Compliance Matrix: (Units=1/GPa)
#
#
# Indices 1 2 3 4 5 6 
#
# 1 0.007749 -0.005370 -0.003353 0.000000 0.000000 0.000000
# 2 -0.005370 0.053277 -0.003431 0.000000 0.000000 0.000000
# 3 -0.003353 -0.003431 0.008465 0.000000 0.000000 0.000000
# 4 0.000000 0.000000 0.000000 0.042972 0.000000 0.000000
# 5 0.000000 0.000000 0.000000 0.000000 0.070976 0.000000
# 6 0.000000 0.000000 0.000000 0.000000 0.000000 0.087239
#
#
# Mechanical properties :
#
#
# Convention : Reuss Voigt Hill
#
# Bulk Modulus (GPa) = 22.13172 67.24331 44.68752
# Shear Modulus (GPa) = 16.12671 25.60395 20.86533
#
# Velocity S-wave (km/s) = 3.00836 3.79062 3.42191
# Velocity P-wave (km/s) = 4.94845 7.54287 6.37895
#
# Compressibility (1/GPa) = 0.04518401
#
# Stress axis : x y z
#
# Youngs Moduli (GPa) = 129.04963 18.76982 118.13977
#
# Poissons Ratio (x) = 0.10079 0.39610
# Poissons Ratio (y) = 0.69299 0.40528
# Poissons Ratio (z) = 0.43267 0.06439
#
# Static dielectric constant tensor:
#      x y z
#    x 3.863390 0.000000 0.000000 
#    y 0.000000 2.794040 0.000000 
#    z 0.000000 0.000000 3.428500 
# 
# 
# High freq. dielectric constant tensor:
#      x y z
#    x 1.698840 0.000000 0.000000 
#    y 0.000000 1.640430 0.000000 
#    z 0.000000 0.000000 1.696180 
# 
# From -- ./inp_files/25081.got.cif
#   From: 2010.03.12/outbox.cif.g09.slc.cpg/sg38_13_cif.got.tgz:25081.got - 2010.04.14 02:38:36.
