data_PCOD8178055
_publ_section_title
;
Structure prediction by ZEFSAII (Michael W. Deem and Ramdas Pophale) SiO2 
 PCOD8178055
Probable space group: A M M 2
;
_chemical_formula_sum "Si O2"
_cell_formula_units_Z 40
_cell_length_a 9.436105
_cell_length_b 7.884233
_cell_length_c 28.891731
_cell_angle_alpha 90.000000
_cell_angle_beta 90.000000
_cell_angle_gamma 90.000000
_cell_volume 2149.442233
_symmetry_space_group_name_H-M "A M M 2"
_symmetry_group_IT_number 38
_symmetry_cell_setting 'orthorhombic'
loop_
_space_group_symop_operation_xyz
x,y,z
-x,-y,z
-x,y,z
x,-y,z
x,1/2+y,1/2+z
-x,1/2-y,1/2+z
-x,1/2+y,1/2+z
x,1/2-y,1/2+z
loop_
_atom_site_type_symbol
_atom_site_label
_atom_site_fract_x
_atom_site_fract_y
_atom_site_fract_z
Si Si1 0.332877 0.000000 0.123891
Si Si2 0.337902 0.310861 0.060042
Si Si3 0.169096 0.500000 0.719125
Si Si4 0.162590 0.805936 0.976989
Si Si5 0.168441 0.808758 0.378359
Si Si6 0.831805 0.812891 0.780867
O O1 0.286082 0.169066 0.096257
O O2 0.243610 0.000000 0.170172
O O3 0.500000 0.000000 0.134851
O O4 0.500000 0.273737 0.046852
O O5 0.319753 0.500000 0.081639
O O6 0.249669 0.306250 0.012836
O O7 0.223207 0.332843 0.746372
O O8 0.000000 0.500000 0.712741
O O9 0.223139 0.781542 0.925069
O O10 0.000000 0.745350 0.979133
O O11 0.178943 0.000000 0.991665
O O12 0.229096 0.715992 0.332697
O O13 0.000000 0.802186 0.376917
O O14 0.224729 0.000000 0.378106
O O15 0.000000 0.801683 0.782700
O O16 0.782488 0.000000 0.763723
#
# Coordination Sequence:
#
# PCOD8178055 Si02
#       6
#     4   8   4   8   8   8
#     4  10  22  40  58  76 102 138 176 220 271 322
#     4  10  21  38  58  77 101 138 181 219 263 322
#     4  10  20  34  54  80 104 132 174 222 265 306
#     4  10  19  30  49  80 113 142 175 217 263 308
#     4   9  15  25  43  71 108 144 174 206 249 307
#     4   9  16  28  47  73 107 140 170 208 256 310
#
# _framework density 18.609479
#
# number of rings (size 3 to 8) (size 9 to 14) (size 15 to 20)
#    0.000    2.400    2.000    1.200    0.000    5.200 
#    0.000    0.000    0.000    1.200    0.000    0.000 
#    0.000    0.000    0.000    0.000    0.000    0.000 
#
# Total GULP energy -247937.262152 kJ/mol
# GULP energy per Si atom -12396.863108 kJ/mol
# Density = 1.856712 g / cm^3
# Si number density = 18.609479 Si / 1000 Ang^3
#
#
#
# Elastic Constant Matrix: (Units=GPa)
#
#
# Indices 1 2 3 4 5 6 
#
# 1 27.6662 26.0359 38.8897 0.0000 0.0000 0.0000
# 2 26.0359 148.0194 72.9027 0.0000 0.0000 0.0000
# 3 38.8897 72.9027 148.0218 0.0000 0.0000 0.0000
# 4 0.0000 0.0000 0.0000 30.0068 0.0000 0.0000
# 5 0.0000 0.0000 0.0000 0.0000 -5.4681 0.0000
# 6 0.0000 0.0000 0.0000 0.0000 0.0000 14.6898
#
#
#
# Elastic Compliance Matrix: (Units=1/GPa)
#
#
# Indices 1 2 3 4 5 6 
#
# 1 0.058733 -0.003605 -0.013655 0.000000 0.000000 0.000000
# 2 -0.003605 0.009141 -0.003555 0.000000 0.000000 0.000000
# 3 -0.013655 -0.003555 0.012094 0.000000 0.000000 0.000000
# 4 0.000000 0.000000 0.000000 0.033326 0.000000 0.000000
# 5 0.000000 0.000000 0.000000 0.000000 -0.182880 0.000000
# 6 0.000000 0.000000 0.000000 0.000000 0.000000 0.068074
#
#
# Mechanical properties :
#
#
# Convention : Reuss Voigt Hill
#
# Bulk Modulus (GPa) = 26.08427 66.59602 46.34015
# Shear Modulus (GPa) = 94.52268 20.23764 57.38016
#
# Velocity S-wave (km/s) = 7.13464 3.30129 5.55885
# Velocity P-wave (km/s) = 9.05084 7.09895 8.13366
#
# Compressibility (1/GPa) = 0.03833728
#
# Stress axis : x y z
#
# Youngs Moduli (GPa) = 17.02623 109.39928 82.68464
#
# Poissons Ratio (x) = 0.39443 1.12907
# Poissons Ratio (y) = 0.06139 0.29392
# Poissons Ratio (z) = 0.23250 0.38889
#
# Static dielectric constant tensor:
#      x y z
#    x 2.902050 0.000000 0.000000 
#    y 0.000000 3.740890 0.000000 
#    z 0.000000 0.000000 3.405220 
# 
# 
# High freq. dielectric constant tensor:
#      x y z
#    x 1.662530 0.000000 0.000000 
#    y 0.000000 1.742400 0.000000 
#    z 0.000000 0.000000 1.721080 
# 
# From -- ./inp_files/23206.got.cif
#   From: 2010.03.12/outbox.cif.g09.slc.cpg/sg38_12_cif.got.tgz:23206.got - 2010.04.14 02:38:36.
