data_PCOD8178268
_publ_section_title
;
Structure prediction by ZEFSAII (Michael W. Deem and Ramdas Pophale) SiO2 
 PCOD8178268
Probable space group: A M M 2
;
_chemical_formula_sum "Si O2"
_cell_formula_units_Z 56
_cell_length_a 8.967724
_cell_length_b 22.127970
_cell_length_c 14.470720
_cell_angle_alpha 90.000000
_cell_angle_beta 90.000000
_cell_angle_gamma 90.000000
_cell_volume 2871.533900
_symmetry_space_group_name_H-M "A M M 2"
_symmetry_group_IT_number 38
_symmetry_cell_setting 'orthorhombic'
loop_
_space_group_symop_operation_xyz
x,y,z
-x,-y,z
-x,y,z
x,-y,z
x,1/2+y,1/2+z
-x,1/2-y,1/2+z
-x,1/2+y,1/2+z
x,1/2-y,1/2+z
loop_
_atom_site_type_symbol
_atom_site_label
_atom_site_fract_x
_atom_site_fract_y
_atom_site_fract_z
Si Si1 0.325054 0.117537 0.546860
Si Si2 0.328621 0.851073 0.346319
Si Si3 0.175772 0.887796 0.965749
Si Si4 0.323499 0.212711 0.852618
Si Si5 0.676574 0.500000 0.153757
Si Si6 0.827802 0.148121 0.165481
Si Si7 0.823782 0.214019 0.665111
Si Si8 0.322428 0.500000 0.365210
O O1 0.500000 0.128886 0.565455
O O2 0.295330 0.109030 0.437242
O O3 0.263257 0.058996 0.600551
O O4 0.232369 0.175678 0.578359
O O5 0.500000 0.850990 0.320321
O O6 0.276765 0.782354 0.365512
O O7 0.248732 0.879554 0.256803
O O8 0.240115 0.823997 0.932382
O O9 0.000000 0.891408 0.945596
O O10 0.260053 0.941303 0.914929
O O11 0.208845 0.892147 0.075537
O O12 0.500000 0.201619 0.858700
O O13 0.262189 0.188444 0.754789
O O14 0.500000 0.500000 0.149511
O O15 0.733336 0.500000 0.259131
O O16 0.775334 0.216886 0.147538
O O17 0.000000 0.147591 0.187835
O O18 0.000000 0.206530 0.678447
O O19 0.500000 0.500000 0.370845
#
# Coordination Sequence:
#
# PCOD8178268 Si02
#       8
#     8   8   8   8   4   8   8   4
#     4  10  19  34  54  77 105 140 177 219 268 316
#     4   9  19  33  53  80 109 140 178 221 268 321
#     4  11  22  37  56  79 107 143 182 224 272 324
#     4  10  19  32  51  79 111 142 175 219 271 324
#     4   9  20  37  56  75 102 136 171 211 260 313
#     4   9  20  36  54  77 109 143 175 215 269 323
#     4  10  19  32  52  80 109 141 178 218 265 323
#     4  11  23  39  58  81 106 140 181 221 268 325
#
# _framework density 19.501771999999999
#
# number of rings (size 3 to 8) (size 9 to 14) (size 15 to 20)
#    0.000    2.143    0.000    3.214    0.000    4.000 
#    0.000    1.786    0.000    0.857    0.000    0.000 
#    0.000    0.000    0.000    0.000    0.000    0.000 
#
# Total GULP energy -347230.638399 kJ/mol
# GULP energy per Si atom -12401.094229 kJ/mol
# Density = 1.945738 g / cm^3
# Si number density = 19.501772 Si / 1000 Ang^3
#
#
#
# Elastic Constant Matrix: (Units=GPa)
#
#
# Indices 1 2 3 4 5 6 
#
# 1 65.3019 29.8285 53.4604 0.0000 0.0000 0.0000
# 2 29.8285 67.4421 56.8686 0.0000 0.0000 0.0000
# 3 53.4604 56.8686 151.6749 0.0000 0.0000 0.0000
# 4 0.0000 0.0000 0.0000 33.2269 0.0000 0.0000
# 5 0.0000 0.0000 0.0000 0.0000 34.1880 0.0000
# 6 0.0000 0.0000 0.0000 0.0000 0.0000 23.8945
#
#
#
# Elastic Compliance Matrix: (Units=1/GPa)
#
#
# Indices 1 2 3 4 5 6 
#
# 1 0.022531 -0.004780 -0.006149 0.000000 0.000000 0.000000
# 2 -0.004780 0.022697 -0.006825 0.000000 0.000000 0.000000
# 3 -0.006149 -0.006825 0.011319 0.000000 0.000000 0.000000
# 4 0.000000 0.000000 0.000000 0.030096 0.000000 0.000000
# 5 0.000000 0.000000 0.000000 0.000000 0.029250 0.000000
# 6 0.000000 0.000000 0.000000 0.000000 0.000000 0.041851
#
#
# Mechanical properties :
#
#
# Convention : Reuss Voigt Hill
#
# Bulk Modulus (GPa) = 47.53156 62.74819 55.13988
# Shear Modulus (GPa) = 24.96689 27.87931 26.42310
#
# Velocity S-wave (km/s) = 3.58192 3.78508 3.68490
# Velocity P-wave (km/s) = 6.44459 7.16575 6.81471
#
# Compressibility (1/GPa) = 0.02103865
#
# Stress axis : x y z
#
# Youngs Moduli (GPa) = 44.38318 44.05939 88.34348
#
# Poissons Ratio (x) = 0.21060 0.54325
# Poissons Ratio (y) = 0.21215 0.60295
# Poissons Ratio (z) = 0.27293 0.30071
#
# Static dielectric constant tensor:
#      x y z
#    x 3.453990 0.000000 0.000000 
#    y 0.000000 3.440880 0.000000 
#    z 0.000000 0.000000 3.752800 
# 
# 
# High freq. dielectric constant tensor:
#      x y z
#    x 1.753490 0.000000 0.000000 
#    y 0.000000 1.735740 0.000000 
#    z 0.000000 0.000000 1.773240 
# 
# From -- ./inp_files/12479.got.cif
#   From: 2010.03.12/outbox.cif.g09.slc.cpg/sg38_7_cif.got.tgz:12479.got - 2010.04.14 02:38:36.
