data_PCOD8178195
_publ_section_title
;
Structure prediction by ZEFSAII (Michael W. Deem and Ramdas Pophale) SiO2 
 PCOD8178195
Probable space group: A M M 2
;
_chemical_formula_sum "Si O2"
_cell_formula_units_Z 52
_cell_length_a 17.940480
_cell_length_b 25.131771
_cell_length_c 5.272644
_cell_angle_alpha 90.000000
_cell_angle_beta 90.000000
_cell_angle_gamma 90.000000
_cell_volume 2377.308821
_symmetry_space_group_name_H-M "A M M 2"
_symmetry_group_IT_number 38
_symmetry_cell_setting 'orthorhombic'
loop_
_space_group_symop_operation_xyz
x,y,z
-x,-y,z
-x,y,z
x,-y,z
x,1/2+y,1/2+z
-x,1/2-y,1/2+z
-x,1/2+y,1/2+z
x,1/2-y,1/2+z
loop_
_atom_site_type_symbol
_atom_site_label
_atom_site_fract_x
_atom_site_fract_y
_atom_site_fract_z
Si Si1 0.588342 0.562536 0.720680
Si Si2 0.500000 0.713632 0.220634
Si Si3 0.911114 0.617523 0.720157
Si Si4 0.887472 0.765723 0.220858
Si Si5 0.371605 0.373307 0.220677
Si Si6 0.088537 0.941424 0.720201
Si Si7 0.275317 0.221682 0.720715
O O1 0.500000 0.570672 0.720701
O O2 0.609109 0.500000 0.720679
O O3 0.621631 0.589757 0.468869
O O4 0.621639 0.589759 0.972477
O O5 0.500000 0.750012 0.470594
O O6 0.570734 0.675198 0.220672
O O7 0.867231 0.672616 0.721006
O O8 0.883042 0.587067 0.472431
O O9 0.000000 0.627213 0.720224
O O10 0.883113 0.586755 0.967086
O O11 0.934819 0.749977 0.470821
O O12 0.813886 0.728863 0.220693
O O13 0.292594 0.341798 0.220697
O O14 0.000000 0.943972 0.720486
O O15 0.123305 0.000000 0.720933
O O16 0.309933 0.250002 0.470718
#
# Coordination Sequence:
#
# PCOD8178195 Si02
#       7
#     8   4   8   8   8   8   8
#     4  11  22  38  57  84 118 151 187 224 276 336
#     4  12  22  32  49  80 117 144 176 220 266 316
#     4  10  19  31  51  81 114 148 184 228 280 333
#     4  10  21  36  54  78 107 145 192 230 277 328
#     4  12  21  37  57  83 114 153 186 225 279 319
#     4   9  17  30  49  77 113 149 182 221 273 333
#     4  10  21  38  57  81 107 146 195 228 271 336
#
# _framework density 21.873473000000001
#
# number of rings (size 3 to 8) (size 9 to 14) (size 15 to 20)
#    0.000    1.538    1.538    4.615    0.000    3.692 
#    0.000    0.000    0.000    0.000    0.000   86.154 
#    0.000    0.000    0.000    0.000    0.000    0.923 
#
# Total GULP energy -322256.648993 kJ/mol
# GULP energy per Si atom -12394.486500 kJ/mol
# Density = 2.182369 g / cm^3
# Si number density = 21.873473 Si / 1000 Ang^3
#
#
#
# Elastic Constant Matrix: (Units=GPa)
#
#
# Indices 1 2 3 4 5 6 
#
# 1 49.1893 24.7753 8.2470 0.0000 0.0000 0.0000
# 2 24.7753 176.9838 105.0822 0.0000 0.0000 0.0000
# 3 8.2470 105.0822 268.0554 0.0000 0.0000 0.0000
# 4 0.0000 0.0000 0.0000 56.5942 0.0000 0.0000
# 5 0.0000 0.0000 0.0000 0.0000 -17.1731 0.0000
# 6 0.0000 0.0000 0.0000 0.0000 0.0000 32.1237
#
#
#
# Elastic Compliance Matrix: (Units=1/GPa)
#
#
# Indices 1 2 3 4 5 6 
#
# 1 0.021969 -0.003485 0.000690 0.000000 0.000000 0.000000
# 2 -0.003485 0.007917 -0.002996 0.000000 0.000000 0.000000
# 3 0.000690 -0.002996 0.004884 0.000000 0.000000 0.000000
# 4 0.000000 0.000000 0.000000 0.017670 0.000000 0.000000
# 5 0.000000 0.000000 0.000000 0.000000 -0.058231 0.000000
# 6 0.000000 0.000000 0.000000 0.000000 0.000000 0.031130
#
#
# Mechanical properties :
#
#
# Convention : Reuss Voigt Hill
#
# Bulk Modulus (GPa) = 43.12612 85.60417 64.36514
# Shear Modulus (GPa) = 111.97885 38.05057 75.01471
#
# Velocity S-wave (km/s) = 7.16275 4.17535 5.86253
# Velocity P-wave (km/s) = 9.38966 7.90353 8.67846
#
# Compressibility (1/GPa) = 0.02318781
#
# Stress axis : x y z
#
# Youngs Moduli (GPa) = 45.51798 126.30651 204.75042
#
# Poissons Ratio (x) = 0.44022 -0.14136
# Poissons Ratio (y) = 0.15864 0.61353
# Poissons Ratio (z) = -0.03143 0.37847
#
# Static dielectric constant tensor:
#      x y z
#    x 3.521350 0.000000 0.000000 
#    y 0.000000 4.106700 0.000000 
#    z 0.000000 0.000000 6.770120 
# 
# 
# High freq. dielectric constant tensor:
#      x y z
#    x 1.815520 0.000000 0.000000 
#    y 0.000000 1.870110 0.000000 
#    z 0.000000 0.000000 1.894710 
# 
# From -- ./inp_files/1899.got.cif
#   From: 2010.03.12/outbox.cif.g09.slc.cpg/sg38_1_cif.got.tgz:1899.got - 2010.04.14 02:38:36.
