data_PCOD8178660
_publ_section_title
;
Structure prediction by ZEFSAII (Michael W. Deem and Ramdas Pophale) SiO2 
 PCOD8178660
Probable space group: A M M 2
;
_chemical_formula_sum "Si O2"
_cell_formula_units_Z 64
_cell_length_a 8.785867
_cell_length_b 24.760031
_cell_length_c 15.075752
_cell_angle_alpha 90.000000
_cell_angle_beta 90.000000
_cell_angle_gamma 90.000000
_cell_volume 3279.554054
_symmetry_space_group_name_H-M "A M M 2"
_symmetry_group_IT_number 38
_symmetry_cell_setting 'orthorhombic'
loop_
_space_group_symop_operation_xyz
x,y,z
-x,-y,z
-x,y,z
x,-y,z
x,1/2+y,1/2+z
-x,1/2-y,1/2+z
-x,1/2+y,1/2+z
x,1/2-y,1/2+z
loop_
_atom_site_type_symbol
_atom_site_label
_atom_site_fract_x
_atom_site_fract_y
_atom_site_fract_z
Si Si1 0.173665 0.237723 0.165640
Si Si2 0.321588 0.562773 0.621085
Si Si3 0.173894 0.725460 0.461974
Si Si4 0.181289 0.635700 0.767236
Si Si5 0.679669 0.161612 0.444479
Si Si6 0.323687 0.883083 0.938871
Si Si7 0.179842 0.354312 0.130177
Si Si8 0.325219 0.562021 0.257220
O O1 0.248823 0.192939 0.229554
O O2 0.245312 0.298033 0.172430
O O3 0.000000 0.242475 0.194235
O O4 0.192013 0.215910 0.066320
O O5 0.500000 0.572565 0.635162
O O6 0.281646 0.500000 0.615782
O O7 0.231075 0.587361 0.703484
O O8 0.264861 0.589898 0.529556
O O9 0.271319 0.776398 0.430494
O O10 0.232781 0.671388 0.414855
O O11 0.000000 0.736317 0.434168
O O12 0.253607 0.626233 0.863738
O O13 0.000000 0.636225 0.773171
O O14 0.500000 0.156985 0.445862
O O15 0.744667 0.136235 0.534741
O O16 0.500000 0.867936 0.947167
O O17 0.293376 0.925030 0.859803
O O18 0.216966 0.403429 0.194215
O O19 0.000000 0.349013 0.114757
O O20 0.500000 0.574491 0.232850
O O21 0.284231 0.500000 0.240689
#
# Coordination Sequence:
#
# PCOD8178660 Si02
#       8
#     8   8   8   8   8   8   8   8
#     4   8  17  33  54  81 114 150 185 230 287 343
#     4  10  21  38  59  85 121 162 201 244 292 345
#     4  10  19  35  56  84 120 157 193 236 289 344
#     4  11  21  37  59  87 120 157 199 244 294 348
#     4  11  23  39  59  87 120 155 194 241 297 359
#     4  10  20  35  57  87 120 159 200 238 287 350
#     4  10  21  40  62  87 116 152 197 246 299 351
#     4  10  22  40  60  85 119 158 200 246 295 348
#
# _framework density 19.514848000000001
#
# number of rings (size 3 to 8) (size 9 to 14) (size 15 to 20)
#    0.000    2.000    1.250    3.375    1.750    2.500 
#    0.000    1.875    0.000    6.000    0.000    0.000 
#    0.000    0.000    0.000    0.000    0.000    0.000 
#
# Total GULP energy -396831.610509 kJ/mol
# GULP energy per Si atom -12400.987828 kJ/mol
# Density = 1.947043 g / cm^3
# Si number density = 19.514848 Si / 1000 Ang^3
#
#
#
# Elastic Constant Matrix: (Units=GPa)
#
#
# Indices 1 2 3 4 5 6 
#
# 1 83.4657 34.7226 40.5397 0.0000 0.0000 0.0000
# 2 34.7226 93.9500 41.6840 0.0000 0.0000 0.0000
# 3 40.5397 41.6840 97.7999 0.0000 0.0000 0.0000
# 4 0.0000 0.0000 0.0000 31.0533 0.0000 0.0000
# 5 0.0000 0.0000 0.0000 0.0000 28.8774 0.0000
# 6 0.0000 0.0000 0.0000 0.0000 0.0000 29.0085
#
#
#
# Elastic Compliance Matrix: (Units=1/GPa)
#
#
# Indices 1 2 3 4 5 6 
#
# 1 0.015957 -0.003654 -0.005057 0.000000 0.000000 0.000000
# 2 -0.003654 0.013963 -0.004437 0.000000 0.000000 0.000000
# 3 -0.005057 -0.004437 0.014212 0.000000 0.000000 0.000000
# 4 0.000000 0.000000 0.000000 0.032203 0.000000 0.000000
# 5 0.000000 0.000000 0.000000 0.000000 0.034629 0.000000
# 6 0.000000 0.000000 0.000000 0.000000 0.000000 0.034473
#
#
# Mechanical properties :
#
#
# Convention : Reuss Voigt Hill
#
# Bulk Modulus (GPa) = 56.06321 56.56757 56.31539
# Shear Modulus (GPa) = 28.14083 28.33915 28.23999
#
# Velocity S-wave (km/s) = 3.80152 3.81489 3.80821
# Velocity P-wave (km/s) = 6.93250 6.96092 6.94672
#
# Compressibility (1/GPa) = 0.01783701
#
# Stress axis : x y z
#
# Youngs Moduli (GPa) = 62.66719 71.61892 70.36183
#
# Poissons Ratio (x) = 0.26168 0.35584
# Poissons Ratio (y) = 0.22897 0.31217
# Poissons Ratio (z) = 0.31693 0.31775
#
# Static dielectric constant tensor:
#      x y z
#    x 3.406210 0.000000 0.000000 
#    y 0.000000 3.490320 0.000000 
#    z 0.000000 0.000000 3.571070 
# 
# 
# High freq. dielectric constant tensor:
#      x y z
#    x 1.747640 0.000000 0.000000 
#    y 0.000000 1.753100 0.000000 
#    z 0.000000 0.000000 1.764110 
# 
# From -- ./inp_files/12729.got.cif
#   From: 2010.03.12/outbox.cif.g09.slc.cpg/sg38_7_cif.got.tgz:12729.got - 2010.04.14 02:38:36.
