data_PCOD8178311
_publ_section_title
;
Structure prediction by ZEFSAII (Michael W. Deem and Ramdas Pophale) SiO2 
 PCOD8178311
Probable space group: A M M 2
;
_chemical_formula_sum "Si O2"
_cell_formula_units_Z 64
_cell_length_a 9.129300
_cell_length_b 27.059030
_cell_length_c 14.551102
_cell_angle_alpha 90.000000
_cell_angle_beta 90.000000
_cell_angle_gamma 90.000000
_cell_volume 3594.558765
_symmetry_space_group_name_H-M "A M M 2"
_symmetry_group_IT_number 38
_symmetry_cell_setting 'orthorhombic'
loop_
_space_group_symop_operation_xyz
x,y,z
-x,-y,z
-x,y,z
x,-y,z
x,1/2+y,1/2+z
-x,1/2-y,1/2+z
-x,1/2+y,1/2+z
x,1/2-y,1/2+z
loop_
_atom_site_type_symbol
_atom_site_label
_atom_site_fract_x
_atom_site_fract_y
_atom_site_fract_z
Si Si1 0.171568 0.131397 0.361380
Si Si2 0.331031 0.171023 0.193824
Si Si3 0.670091 0.057973 0.491139
Si Si4 0.332063 0.627243 0.305427
Si Si5 0.331886 0.783020 0.675339
Si Si6 0.669236 0.322100 0.486673
Si Si7 0.171191 0.778684 0.492648
Si Si8 0.168846 0.557580 0.175791
O O1 0.229774 0.137085 0.257646
O O2 0.252761 0.085151 0.406932
O O3 0.209750 0.181398 0.415335
O O4 0.000000 0.119994 0.359884
O O5 0.500000 0.160724 0.218237
O O6 0.289992 0.228376 0.210002
O O7 0.295897 0.156951 0.087991
O O8 0.500000 0.072136 0.494666
O O9 0.741774 0.075642 0.586818
O O10 0.695031 0.000000 0.476269
O O11 0.500000 0.610778 0.290855
O O12 0.299934 0.679409 0.257033
O O13 0.294962 0.634972 0.413028
O O14 0.227412 0.585093 0.266005
O O15 0.500000 0.783654 0.642989
O O16 0.235505 0.798706 0.588305
O O17 0.500000 0.306093 0.479577
O O18 0.761188 0.273457 0.463339
O O19 0.000000 0.771501 0.505133
O O20 0.192333 0.500000 0.193863
O O21 0.000000 0.570908 0.159160
#
# Coordination Sequence:
#
# PCOD8178311 Si02
#       8
#     8   8   8   8   8   8   8   8
#     4  11  22  33  49  75 104 134 167 204 250 301
#     4   9  18  33  51  70  97 134 172 209 247 290
#     4  10  21  37  57  79 101 128 164 204 246 295
#     4  10  19  32  53  77  99 129 171 212 249 294
#     4   9  18  31  48  72 101 133 167 205 249 293
#     4   9  19  35  52  71  98 133 173 214 252 288
#     4  10  20  31  45  70 103 136 168 202 244 297
#     4  10  21  36  53  76 107 136 160 195 247 302
#
# _framework density 17.804689
#
# number of rings (size 3 to 8) (size 9 to 14) (size 15 to 20)
#    0.000    2.250    0.000    3.750    0.000    9.500 
#    0.000    0.000    0.000    0.750    0.000    1.750 
#    0.000    0.000    0.000    0.000    0.000    0.000 
#
# Total GULP energy -396907.721729 kJ/mol
# GULP energy per Si atom -12403.366304 kJ/mol
# Density = 1.776416 g / cm^3
# Si number density = 17.804689 Si / 1000 Ang^3
#
#
#
# Elastic Constant Matrix: (Units=GPa)
#
#
# Indices 1 2 3 4 5 6 
#
# 1 97.2402 48.1494 60.1649 0.0000 0.0000 0.0000
# 2 48.1494 58.6274 52.4010 0.0000 0.0000 0.0000
# 3 60.1649 52.4010 120.4016 0.0000 0.0000 0.0000
# 4 0.0000 0.0000 0.0000 28.3350 0.0000 0.0000
# 5 0.0000 0.0000 0.0000 0.0000 21.9960 0.0000
# 6 0.0000 0.0000 0.0000 0.0000 0.0000 28.8990
#
#
#
# Elastic Compliance Matrix: (Units=1/GPa)
#
#
# Indices 1 2 3 4 5 6 
#
# 1 0.018619 -0.011417 -0.004335 0.000000 0.000000 0.000000
# 2 -0.011417 0.034917 -0.009491 0.000000 0.000000 0.000000
# 3 -0.004335 -0.009491 0.014603 0.000000 0.000000 0.000000
# 4 0.000000 0.000000 0.000000 0.035292 0.000000 0.000000
# 5 0.000000 0.000000 0.000000 0.000000 0.045463 0.000000
# 6 0.000000 0.000000 0.000000 0.000000 0.000000 0.034603
#
#
# Mechanical properties :
#
#
# Convention : Reuss Voigt Hill
#
# Bulk Modulus (GPa) = 56.65167 66.41109 61.53138
# Shear Modulus (GPa) = 20.84486 23.54960 22.19723
#
# Velocity S-wave (km/s) = 3.42534 3.64079 3.53470
# Velocity P-wave (km/s) = 6.89430 7.41987 7.16191
#
# Compressibility (1/GPa) = 0.01765173
#
# Stress axis : x y z
#
# Youngs Moduli (GPa) = 53.70774 28.63974 68.48030
#
# Poissons Ratio (x) = 0.32697 0.29689
# Poissons Ratio (y) = 0.61317 0.64997
# Poissons Ratio (z) = 0.23284 0.27183
#
# Static dielectric constant tensor:
#      x y z
#    x 3.317740 0.000000 0.000000 
#    y 0.000000 3.111940 0.000000 
#    z 0.000000 0.000000 3.381440 
# 
# 
# High freq. dielectric constant tensor:
#      x y z
#    x 1.693810 0.000000 0.000000 
#    y 0.000000 1.665970 0.000000 
#    z 0.000000 0.000000 1.688920 
# 
# From -- ./inp_files/12708.got.cif
#   From: 2010.03.12/outbox.cif.g09.slc.cpg/sg38_7_cif.got.tgz:12708.got - 2010.04.14 02:38:36.
