data_PCOD8178764
_publ_section_title
;
Structure prediction by ZEFSAII (Michael W. Deem and Ramdas Pophale) SiO2 
 PCOD8178764
Probable space group: A M M 2
;
_chemical_formula_sum "Si O2"
_cell_formula_units_Z 48
_cell_length_a 8.758774
_cell_length_b 14.471381
_cell_length_c 20.252220
_cell_angle_alpha 90.000000
_cell_angle_beta 90.000000
_cell_angle_gamma 90.000000
_cell_volume 2567.000390
_symmetry_space_group_name_H-M "A M M 2"
_symmetry_group_IT_number 38
_symmetry_cell_setting 'orthorhombic'
loop_
_space_group_symop_operation_xyz
x,y,z
-x,-y,z
-x,y,z
x,-y,z
x,1/2+y,1/2+z
-x,1/2-y,1/2+z
-x,1/2+y,1/2+z
x,1/2-y,1/2+z
loop_
_atom_site_type_symbol
_atom_site_label
_atom_site_fract_x
_atom_site_fract_y
_atom_site_fract_z
Si Si1 0.180258 0.500000 0.775060
Si Si2 0.179726 0.194928 0.073138
Si Si3 0.676575 0.500000 0.370500
Si Si4 0.322908 0.808057 0.935851
Si Si5 0.319320 0.810679 0.687650
Si Si6 0.179644 0.500000 0.229140
Si Si7 0.180832 0.500000 0.626440
Si Si8 0.320865 0.312496 0.810185
O O1 0.247358 0.500000 0.700676
O O2 0.237662 0.410281 0.813464
O O3 0.000000 0.500000 0.774161
O O4 0.267199 0.266713 0.119144
O O5 0.000000 0.204351 0.085348
O O6 0.239748 0.091326 0.088989
O O7 0.220069 0.219134 0.998046
O O8 0.500000 0.500000 0.347463
O O9 0.716228 0.588092 0.414520
O O10 0.779287 0.500000 0.305955
O O11 0.500000 0.798164 0.954744
O O12 0.277176 0.740331 0.876798
O O13 0.500000 0.821243 0.689907
O O14 0.246420 0.911054 0.692798
O O15 0.260959 0.747000 0.748080
O O16 0.000000 0.500000 0.220909
O O17 0.000000 0.500000 0.628671
O O18 0.500000 0.329063 0.804063
#
# Coordination Sequence:
#
# PCOD8178764 Si02
#       8
#     4   8   4   8   8   4   4   8
#     4  11  21  36  59  87 120 151 191 241 295 346
#     4  11  22  38  58  87 125 159 196 243 298 357
#     4  10  19  37  61  88 123 157 198 245 293 354
#     4  10  21  38  59  86 120 158 199 244 293 350
#     4  11  22  40  63  86 116 157 201 245 292 349
#     4  12  24  37  60  93 123 152 194 246 301 356
#     4   9  19  34  54  84 124 156 181 234 297 348
#     4  10  21  38  61  86 116 153 200 245 286 342
#
# _framework density 18.698867
#
# number of rings (size 3 to 8) (size 9 to 14) (size 15 to 20)
#    0.000    1.500    3.333    2.500    0.000    2.000 
#    0.000    2.083    0.000    3.000    0.000    0.000 
#    0.000    0.000    0.000    0.000    0.000    0.000 
#
# Total GULP energy -297735.840088 kJ/mol
# GULP energy per Si atom -12405.660004 kJ/mol
# Density = 1.865631 g / cm^3
# Si number density = 18.698867 Si / 1000 Ang^3
#
#
#
# Elastic Constant Matrix: (Units=GPa)
#
#
# Indices 1 2 3 4 5 6 
#
# 1 65.3886 48.6684 36.5123 0.0000 0.0000 0.0000
# 2 48.6684 151.8399 65.7634 0.0000 0.0000 0.0000
# 3 36.5123 65.7634 122.8033 0.0000 0.0000 0.0000
# 4 0.0000 0.0000 0.0000 21.0965 0.0000 0.0000
# 5 0.0000 0.0000 0.0000 0.0000 30.4717 0.0000
# 6 0.0000 0.0000 0.0000 0.0000 0.0000 21.8159
#
#
#
# Elastic Compliance Matrix: (Units=1/GPa)
#
#
# Indices 1 2 3 4 5 6 
#
# 1 0.021158 -0.005282 -0.003462 0.000000 0.000000 0.000000
# 2 -0.005282 0.009893 -0.003728 0.000000 0.000000 0.000000
# 3 -0.003462 -0.003728 0.011169 0.000000 0.000000 0.000000
# 4 0.000000 0.000000 0.000000 0.047401 0.000000 0.000000
# 5 0.000000 0.000000 0.000000 0.000000 0.032817 0.000000
# 6 0.000000 0.000000 0.000000 0.000000 0.000000 0.045838
#
#
# Mechanical properties :
#
#
# Convention : Reuss Voigt Hill
#
# Bulk Modulus (GPa) = 57.88271 71.32445 64.60358
# Shear Modulus (GPa) = 25.12830 27.28267 26.20548
#
# Velocity S-wave (km/s) = 3.66982 3.82390 3.74765
# Velocity P-wave (km/s) = 6.99851 7.59755 7.30418
#
# Compressibility (1/GPa) = 0.01727632
#
# Stress axis : x y z
#
# Youngs Moduli (GPa) = 47.26383 101.07737 89.53652
#
# Poissons Ratio (x) = 0.53391 0.30998
# Poissons Ratio (y) = 0.24966 0.33376
# Poissons Ratio (z) = 0.16363 0.37677
#
# Static dielectric constant tensor:
#      x y z
#    x 3.294780 0.000000 0.000000 
#    y 0.000000 3.542290 0.000000 
#    z 0.000000 0.000000 3.369730 
# 
# 
# High freq. dielectric constant tensor:
#      x y z
#    x 1.720340 0.000000 0.000000 
#    y 0.000000 1.732700 0.000000 
#    z 0.000000 0.000000 1.724530 
# 
# From -- ./inp_files/16726.got.cif
#   From: 2010.03.12/outbox.cif.g09.slc.cpg/sg38_9_cif.got.tgz:16726.got - 2010.04.14 02:38:36.
