data_PCOD8178506
_publ_section_title
;
Structure prediction by ZEFSAII (Michael W. Deem and Ramdas Pophale) SiO2 
 PCOD8178506
Probable space group: A M M 2
;
_chemical_formula_sum "Si O2"
_cell_formula_units_Z 40
_cell_length_a 13.161969
_cell_length_b 19.926041
_cell_length_c 8.006718
_cell_angle_alpha 90.000000
_cell_angle_beta 90.000000
_cell_angle_gamma 90.000000
_cell_volume 2099.889374
_symmetry_space_group_name_H-M "A M M 2"
_symmetry_group_IT_number 38
_symmetry_cell_setting 'orthorhombic'
loop_
_space_group_symop_operation_xyz
x,y,z
-x,-y,z
-x,y,z
x,-y,z
x,1/2+y,1/2+z
-x,1/2-y,1/2+z
-x,1/2+y,1/2+z
x,1/2-y,1/2+z
loop_
_atom_site_type_symbol
_atom_site_label
_atom_site_fract_x
_atom_site_fract_y
_atom_site_fract_z
Si Si1 0.500000 0.649514 0.800990
Si Si2 0.887877 0.150256 0.279214
Si Si3 0.186055 0.726199 0.086426
Si Si4 0.694570 0.679234 0.378453
Si Si5 0.305428 0.078490 0.165845
Si Si6 0.500000 0.709901 0.169574
O O1 0.398858 0.605650 0.776457
O O2 0.500000 0.708729 0.661679
O O3 0.500000 0.680785 0.984376
O O4 0.877096 0.208309 0.140814
O O5 0.880189 0.181621 0.463265
O O6 0.800847 0.094294 0.258040
O O7 0.000000 0.117723 0.260388
O O8 0.212618 0.680421 0.246033
O O9 0.290095 0.755116 0.998679
O O10 0.695225 0.610585 0.481794
O O11 0.593364 0.682962 0.274581
O O12 0.318492 0.000000 0.143175
#
# Coordination Sequence:
#
# PCOD8178506 Si02
#       6
#     4   8   8   8   8   4
#     4  12  23  37  60  86 113 141 175 226 279 328
#     4  10  19  34  59  85 112 143 178 228 279 325
#     4   9  18  33  54  87 115 135 173 228 287 329
#     4  10  19  33  55  82 115 145 175 223 276 327
#     4  11  24  40  55  75 111 155 192 220 258 322
#     4  12  20  33  60  90 110 133 175 230 287 330
#
# _framework density 19.048622000000002
#
# number of rings (size 3 to 8) (size 9 to 14) (size 15 to 20)
#    0.000    1.600    0.000    8.700    0.000    0.400 
#    0.000    6.000    0.000    0.000    0.000    0.000 
#    0.000    0.000    0.000    0.000    0.000    0.000 
#
# Total GULP energy -247993.651917 kJ/mol
# GULP energy per Si atom -12399.682596 kJ/mol
# Density = 1.900527 g / cm^3
# Si number density = 19.048622 Si / 1000 Ang^3
#
#
#
# Elastic Constant Matrix: (Units=GPa)
#
#
# Indices 1 2 3 4 5 6 
#
# 1 138.6995 52.0535 37.6307 0.0000 0.0000 0.0000
# 2 52.0535 114.8797 49.5513 0.0000 0.0000 0.0000
# 3 37.6307 49.5513 114.6488 0.0000 0.0000 0.0000
# 4 0.0000 0.0000 0.0000 20.8967 0.0000 0.0000
# 5 0.0000 0.0000 0.0000 0.0000 18.8126 0.0000
# 6 0.0000 0.0000 0.0000 0.0000 0.0000 10.9936
#
#
#
# Elastic Compliance Matrix: (Units=1/GPa)
#
#
# Indices 1 2 3 4 5 6 
#
# 1 0.008878 -0.003399 -0.001445 0.000000 0.000000 0.000000
# 2 -0.003399 0.012001 -0.004071 0.000000 0.000000 0.000000
# 3 -0.001445 -0.004071 0.010956 0.000000 0.000000 0.000000
# 4 0.000000 0.000000 0.000000 0.047854 0.000000 0.000000
# 5 0.000000 0.000000 0.000000 0.000000 0.053156 0.000000
# 6 0.000000 0.000000 0.000000 0.000000 0.000000 0.090962
#
#
# Mechanical properties :
#
#
# Convention : Reuss Voigt Hill
#
# Bulk Modulus (GPa) = 71.40636 71.85542 71.63089
# Shear Modulus (GPa) = 20.29998 25.40675 22.85337
#
# Velocity S-wave (km/s) = 3.26804 3.65606 3.46748
# Velocity P-wave (km/s) = 7.19777 7.45831 7.32920
#
# Compressibility (1/GPa) = 0.01400435
#
# Stress axis : x y z
#
# Youngs Moduli (GPa) = 112.64349 83.32588 91.27437
#
# Poissons Ratio (x) = 0.28326 0.13186
# Poissons Ratio (y) = 0.38292 0.37159
# Poissons Ratio (z) = 0.16273 0.33923
#
# Static dielectric constant tensor:
#      x y z
#    x 3.581680 0.000000 0.000000 
#    y 0.000000 3.110230 0.000000 
#    z 0.000000 0.000000 3.751470 
# 
# 
# High freq. dielectric constant tensor:
#      x y z
#    x 1.751080 0.000000 0.000000 
#    y 0.000000 1.694930 0.000000 
#    z 0.000000 0.000000 1.755740 
# 
# From -- ./inp_files/4474.got.cif
#   From: 2010.03.12/outbox.cif.g09.slc.cpg/sg38_3_cif.got.tgz:4474.got - 2010.04.14 02:38:36.
