data_PCOD8178032
_publ_section_title
;
Structure prediction by ZEFSAII (Michael W. Deem and Ramdas Pophale) SiO2 
 PCOD8178032
Probable space group: A M M 2
;
_chemical_formula_sum "Si O2"
_cell_formula_units_Z 40
_cell_length_a 18.709026
_cell_length_b 23.329726
_cell_length_c 4.949705
_cell_angle_alpha 90.000000
_cell_angle_beta 90.000000
_cell_angle_gamma 90.000000
_cell_volume 2160.429668
_symmetry_space_group_name_H-M "A M M 2"
_symmetry_group_IT_number 38
_symmetry_cell_setting 'orthorhombic'
loop_
_space_group_symop_operation_xyz
x,y,z
-x,-y,z
-x,y,z
x,-y,z
x,1/2+y,1/2+z
-x,1/2-y,1/2+z
-x,1/2+y,1/2+z
x,1/2-y,1/2+z
loop_
_atom_site_type_symbol
_atom_site_label
_atom_site_fract_x
_atom_site_fract_y
_atom_site_fract_z
Si Si1 0.126309 0.376890 0.007150
Si Si2 0.219900 0.500000 0.616830
Si Si3 0.000000 0.210665 0.512070
Si Si4 0.871645 0.000000 0.616637
Si Si5 0.224709 0.377890 0.506587
Si Si6 0.651765 0.288811 0.612494
Si Si7 0.500000 0.712761 0.495400
O O1 0.088353 0.439944 0.045450
O O2 0.193379 0.370026 0.208003
O O3 0.157633 0.370370 0.707464
O O4 0.069596 0.327527 0.062043
O O5 0.147320 0.500000 0.433791
O O6 0.261082 0.441073 0.543892
O O7 0.200640 0.500000 0.933674
O O8 0.000000 0.264812 0.710374
O O9 0.285499 0.332353 0.556070
O O10 0.658210 0.233748 0.417092
O O11 0.574290 0.320166 0.565814
O O12 0.500000 0.729402 0.180208
#
# Coordination Sequence:
#
# PCOD8178032 Si02
#       7
#     8   4   4   4   8   8   4
#     4  10  21  36  53  72  95 125 162 201 237 281
#     4   8  16  30  48  72  98 120 148 196 246 276
#     4  12  26  39  50  69 102 136 156 188 248 296
#     4   8  16  33  54  72  88 115 160 204 238 269
#     4  10  19  33  53  74  96 124 161 199 235 282
#     4  10  19  30  48  73  98 127 160 196 237 278
#     4   8  16  30  44  65  98 127 156 194 234 274
#
# _framework density 18.514835999999999
#
# number of rings (size 3 to 8) (size 9 to 14) (size 15 to 20)
#    0.000    2.400    0.000    2.400    0.000    5.200 
#    0.000    0.000    0.000    9.000    0.000    0.000 
#    0.000   19.200    0.000    0.000    0.000    3.200 
#
# Total GULP energy -247809.565479 kJ/mol
# GULP energy per Si atom -12390.478274 kJ/mol
# Density = 1.847270 g / cm^3
# Si number density = 18.514836 Si / 1000 Ang^3
#
#
#
# Elastic Constant Matrix: (Units=GPa)
#
#
# Indices 1 2 3 4 5 6 
#
# 1 72.7104 47.1178 1.8516 0.0000 0.0000 0.0000
# 2 47.1178 93.4488 3.6763 0.0000 0.0000 0.0000
# 3 1.8516 3.6763 69.4965 0.0000 0.0000 0.0000
# 4 0.0000 0.0000 0.0000 24.9385 0.0000 0.0000
# 5 0.0000 0.0000 0.0000 0.0000 19.8138 0.0000
# 6 0.0000 0.0000 0.0000 0.0000 0.0000 -11.6678
#
#
#
# Elastic Compliance Matrix: (Units=1/GPa)
#
#
# Indices 1 2 3 4 5 6 
#
# 1 0.020428 -0.010300 0.000001 0.000000 0.000000 0.000000
# 2 -0.010300 0.015917 -0.000568 0.000000 0.000000 0.000000
# 3 0.000001 -0.000568 0.014419 0.000000 0.000000 0.000000
# 4 0.000000 0.000000 0.000000 0.040099 0.000000 0.000000
# 5 0.000000 0.000000 0.000000 0.000000 0.050470 0.000000
# 6 0.000000 0.000000 0.000000 0.000000 0.000000 -0.085706
#
#
# Mechanical properties :
#
#
# Convention : Reuss Voigt Hill
#
# Bulk Modulus (GPa) = 34.44721 37.88300 36.16511
# Shear Modulus (GPa) = 57.44746 18.81758 38.13252
#
# Velocity S-wave (km/s) = 5.57630 3.19149 4.54317
# Velocity P-wave (km/s) = 7.75279 5.83833 6.86265
#
# Compressibility (1/GPa) = 0.02902993
#
# Stress axis : x y z
#
# Youngs Moduli (GPa) = 48.95319 62.82726 69.35189
#
# Poissons Ratio (x) = 0.64711 -0.00004
# Poissons Ratio (y) = 0.50421 0.03936
# Poissons Ratio (z) = -0.00003 0.03566
#
# Static dielectric constant tensor:
#      x y z
#    x 3.171580 0.000000 0.000000 
#    y 0.000000 3.486940 0.000000 
#    z 0.000000 0.000000 3.592470 
# 
# 
# High freq. dielectric constant tensor:
#      x y z
#    x 1.680520 0.000000 0.000000 
#    y 0.000000 1.705690 0.000000 
#    z 0.000000 0.000000 1.745350 
# 
# From -- ./inp_files/1601.got.cif
#   From: 2010.03.12/outbox.cif.g09.slc.cpg/sg38_1_cif.got.tgz:1601.got - 2010.04.14 02:38:36.
