data_PCOD8178392
_publ_section_title
;
Structure prediction by ZEFSAII (Michael W. Deem and Ramdas Pophale) SiO2 
 PCOD8178392
Probable space group: A M M 2
;
_chemical_formula_sum "Si O2"
_cell_formula_units_Z 40
_cell_length_a 7.740998
_cell_length_b 7.724526
_cell_length_c 32.627425
_cell_angle_alpha 90.000000
_cell_angle_beta 90.000000
_cell_angle_gamma 90.000000
_cell_volume 1950.974507
_symmetry_space_group_name_H-M "A M M 2"
_symmetry_group_IT_number 38
_symmetry_cell_setting 'orthorhombic'
loop_
_space_group_symop_operation_xyz
x,y,z
-x,-y,z
-x,y,z
x,-y,z
x,1/2+y,1/2+z
-x,1/2-y,1/2+z
-x,1/2+y,1/2+z
x,1/2-y,1/2+z
loop_
_atom_site_type_symbol
_atom_site_label
_atom_site_fract_x
_atom_site_fract_y
_atom_site_fract_z
Si Si1 0.699187 0.700715 0.551950
Si Si2 0.798335 0.690448 0.345804
Si Si3 0.000000 0.796906 0.112290
Si Si4 0.000000 0.706329 0.703205
Si Si5 0.698434 0.500000 0.989617
Si Si6 0.803499 0.000000 0.398519
Si Si7 0.692488 0.699957 0.759406
O O1 0.500000 0.728941 0.565815
O O2 0.731205 0.500000 0.539195
O O3 0.746315 0.825183 0.514092
O O4 0.825469 0.758926 0.588639
O O5 0.763595 0.500000 0.364325
O O6 0.719262 0.827875 0.378391
O O7 0.703680 0.702078 0.302359
O O8 0.000000 0.721822 0.337760
O O9 0.000000 0.712097 0.157463
O O10 0.000000 0.000000 0.117318
O O11 0.170617 0.774490 0.726651
O O12 0.000000 0.500000 0.700659
O O13 0.500000 0.500000 0.977828
O O14 0.799378 0.500000 0.947315
O O15 0.000000 0.000000 0.384893
O O16 0.500000 0.725848 0.741181
O O17 0.733914 0.500000 0.768206
#
# Coordination Sequence:
#
# PCOD8178392 Si02
#       7
#     8   8   4   4   4   4   8
#     4   9  19  36  58  84 115 149 187 234 283 337
#     4  10  20  36  58  81 112 154 193 235 284 334
#     4   9  18  33  57  87 111 149 193 229 284 351
#     4   9  18  32  54  84 119 146 186 243 285 332
#     4  10  22  38  58  84 116 152 190 237 287 342
#     4  10  22  36  56  86 118 150 192 242 284 333
#     4  10  19  32  56  84 112 152 195 232 283 340
#
# _framework density 20.502576000000001
#
# number of rings (size 3 to 8) (size 9 to 14) (size 15 to 20)
#    0.000    2.400    2.000    0.000    1.400    2.800 
#    0.000    4.000    4.400    0.000    0.000    0.000 
#    0.000    0.000    0.000    0.000    0.000    0.000 
#
# Total GULP energy -247934.322876 kJ/mol
# GULP energy per Si atom -12396.716144 kJ/mol
# Density = 2.045591 g / cm^3
# Si number density = 20.502576 Si / 1000 Ang^3
#
#
#
# Elastic Constant Matrix: (Units=GPa)
#
#
# Indices 1 2 3 4 5 6 
#
# 1 102.9200 37.6092 59.0878 0.0000 0.0000 0.0000
# 2 37.6092 103.9706 59.6786 0.0000 0.0000 0.0000
# 3 59.0878 59.6786 159.8402 0.0000 0.0000 0.0000
# 4 0.0000 0.0000 0.0000 10.0827 0.0000 0.0000
# 5 0.0000 0.0000 0.0000 0.0000 13.5776 0.0000
# 6 0.0000 0.0000 0.0000 0.0000 0.0000 12.9838
#
#
#
# Elastic Compliance Matrix: (Units=1/GPa)
#
#
# Indices 1 2 3 4 5 6 
#
# 1 0.012801 -0.002436 -0.003822 0.000000 0.000000 0.000000
# 2 -0.002436 0.012705 -0.003843 0.000000 0.000000 0.000000
# 3 -0.003822 -0.003843 0.009104 0.000000 0.000000 0.000000
# 4 0.000000 0.000000 0.000000 0.099180 0.000000 0.000000
# 5 0.000000 0.000000 0.000000 0.000000 0.073650 0.000000
# 6 0.000000 0.000000 0.000000 0.000000 0.000000 0.077019
#
#
# Mechanical properties :
#
#
# Convention : Reuss Voigt Hill
#
# Bulk Modulus (GPa) = 69.41230 75.49798 72.45514
# Shear Modulus (GPa) = 16.15687 21.35251 18.75469
#
# Velocity S-wave (km/s) = 2.81025 3.23066 3.02776
# Velocity P-wave (km/s) = 6.66775 7.12880 6.90213
#
# Compressibility (1/GPa) = 0.01440667
#
# Stress axis : x y z
#
# Youngs Moduli (GPa) = 78.11785 78.70723 109.84004
#
# Poissons Ratio (x) = 0.19177 0.41986
# Poissons Ratio (y) = 0.19033 0.42212
# Poissons Ratio (z) = 0.29860 0.30247
#
# Static dielectric constant tensor:
#      x y z
#    x 3.722100 0.000000 0.000000 
#    y 0.000000 3.760410 0.000000 
#    z 0.000000 0.000000 3.593850 
# 
# 
# High freq. dielectric constant tensor:
#      x y z
#    x 1.802390 0.000000 0.000000 
#    y 0.000000 1.796320 0.000000 
#    z 0.000000 0.000000 1.781470 
# 
# From -- ./inp_files/23299.got.cif
#   From: 2010.03.12/outbox.cif.g09.slc.cpg/sg38_12_cif.got.tgz:23299.got - 2010.04.14 02:38:36.
