data_PCOD8178387
_publ_section_title
;
Structure prediction by ZEFSAII (Michael W. Deem and Ramdas Pophale) SiO2 
 PCOD8178387
Probable space group: A M M 2
;
_chemical_formula_sum "Si O2"
_cell_formula_units_Z 48
_cell_length_a 8.968737
_cell_length_b 14.474149
_cell_length_c 20.255584
_cell_angle_alpha 90.000000
_cell_angle_beta 90.000000
_cell_angle_gamma 90.000000
_cell_volume 2629.475309
_symmetry_space_group_name_H-M "A M M 2"
_symmetry_group_IT_number 38
_symmetry_cell_setting 'orthorhombic'
loop_
_space_group_symop_operation_xyz
x,y,z
-x,-y,z
-x,y,z
x,-y,z
x,1/2+y,1/2+z
-x,1/2-y,1/2+z
-x,1/2+y,1/2+z
x,1/2-y,1/2+z
loop_
_atom_site_type_symbol
_atom_site_label
_atom_site_fract_x
_atom_site_fract_y
_atom_site_fract_z
Si Si1 0.675975 0.686763 0.959280
Si Si2 0.175218 0.807293 0.220247
Si Si3 0.176790 0.500000 0.774717
Si Si4 0.831893 0.500000 0.514775
Si Si5 0.324092 0.500000 0.378673
Si Si6 0.676562 0.196061 0.832502
Si Si7 0.171124 0.302573 0.569862
Si Si8 0.822891 0.500000 0.925620
O O1 0.500000 0.670814 0.959306
O O2 0.729301 0.741786 0.894224
O O3 0.758941 0.589257 0.962434
O O4 0.720217 0.744389 0.023683
O O5 0.239456 0.908812 0.238402
O O6 0.252100 0.730888 0.265253
O O7 0.213430 0.781163 0.145305
O O8 0.000000 0.805220 0.233849
O O9 0.233215 0.500000 0.850083
O O10 0.000000 0.500000 0.771765
O O11 0.719163 0.500000 0.454721
O O12 0.802872 0.588625 0.560101
O O13 0.000000 0.500000 0.486574
O O14 0.500000 0.500000 0.376715
O O15 0.262780 0.408100 0.343127
O O16 0.500000 0.198472 0.825991
O O17 0.000000 0.275633 0.554591
O O18 0.000000 0.500000 0.930967
#
# Coordination Sequence:
#
# PCOD8178387 Si02
#       8
#     8   8   4   4   4   8   8   4
#     4  11  22  37  58  83 114 150 191 234 277 337
#     4  10  20  36  57  82 114 148 186 229 279 338
#     4   9  17  31  55  84 112 144 177 223 282 334
#     4  10  19  32  55  85 115 143 182 233 280 335
#     4  10  20  37  56  80 111 145 185 228 279 331
#     4  10  21  36  56  80 110 147 188 233 277 331
#     4  10  21  36  56  84 116 150 187 233 287 340
#     4  11  21  36  60  87 114 146 188 234 281 334
#
# _framework density 18.254591999999999
#
# number of rings (size 3 to 8) (size 9 to 14) (size 15 to 20)
#    0.000    1.833    3.333    1.250    0.000    4.000 
#    0.000    1.250    0.000    6.000    0.000    0.000 
#    0.000    0.000    0.000    0.000    0.000    0.000 
#
# Total GULP energy -297676.448012 kJ/mol
# GULP energy per Si atom -12403.185334 kJ/mol
# Density = 1.821304 g / cm^3
# Si number density = 18.254592 Si / 1000 Ang^3
#
#
#
# Elastic Constant Matrix: (Units=GPa)
#
#
# Indices 1 2 3 4 5 6 
#
# 1 36.9526 38.0467 29.5016 0.0000 0.0000 0.0000
# 2 38.0467 135.7188 55.3166 0.0000 0.0000 0.0000
# 3 29.5016 55.3166 112.9327 0.0000 0.0000 0.0000
# 4 0.0000 0.0000 0.0000 32.1226 0.0000 0.0000
# 5 0.0000 0.0000 0.0000 0.0000 28.6724 0.0000
# 6 0.0000 0.0000 0.0000 0.0000 0.0000 20.1863
#
#
#
# Elastic Compliance Matrix: (Units=1/GPa)
#
#
# Indices 1 2 3 4 5 6 
#
# 1 0.041459 -0.009006 -0.006419 0.000000 0.000000 0.000000
# 2 -0.009006 0.011162 -0.003115 0.000000 0.000000 0.000000
# 3 -0.006419 -0.003115 0.012057 0.000000 0.000000 0.000000
# 4 0.000000 0.000000 0.000000 0.031131 0.000000 0.000000
# 5 0.000000 0.000000 0.000000 0.000000 0.034877 0.000000
# 6 0.000000 0.000000 0.000000 0.000000 0.000000 0.049538
#
#
# Mechanical properties :
#
#
# Convention : Reuss Voigt Hill
#
# Bulk Modulus (GPa) = 36.23335 59.03710 47.63523
# Shear Modulus (GPa) = 22.07456 27.04555 24.56005
#
# Velocity S-wave (km/s) = 3.48121 3.85330 3.67197
# Velocity P-wave (km/s) = 6.00420 7.22554 6.64300
#
# Compressibility (1/GPa) = 0.02759888
#
# Stress axis : x y z
#
# Youngs Moduli (GPa) = 24.12005 89.58568 82.93628
#
# Poissons Ratio (x) = 0.80682 0.53238
# Poissons Ratio (y) = 0.21723 0.25834
# Poissons Ratio (z) = 0.15483 0.27905
#
# Static dielectric constant tensor:
#      x y z
#    x 3.197810 0.000000 0.000000 
#    y 0.000000 3.587770 0.000000 
#    z 0.000000 0.000000 3.260940 
# 
# 
# High freq. dielectric constant tensor:
#      x y z
#    x 1.694180 0.000000 0.000000 
#    y 0.000000 1.715460 0.000000 
#    z 0.000000 0.000000 1.702800 
# 
# From -- ./inp_files/16719.got.cif
#   From: 2010.03.12/outbox.cif.g09.slc.cpg/sg38_9_cif.got.tgz:16719.got - 2010.04.14 02:38:36.
