data_PCOD8178714
_publ_section_title
;
Structure prediction by ZEFSAII (Michael W. Deem and Ramdas Pophale) SiO2 
 PCOD8178714
Probable space group: A M M 2
;
_chemical_formula_sum "Si O2"
_cell_formula_units_Z 48
_cell_length_a 14.139605
_cell_length_b 8.740993
_cell_length_c 19.978028
_cell_angle_alpha 90.000000
_cell_angle_beta 90.000000
_cell_angle_gamma 90.000000
_cell_volume 2469.168155
_symmetry_space_group_name_H-M "A M M 2"
_symmetry_group_IT_number 38
_symmetry_cell_setting 'orthorhombic'
loop_
_space_group_symop_operation_xyz
x,y,z
-x,-y,z
-x,y,z
x,-y,z
x,1/2+y,1/2+z
-x,1/2-y,1/2+z
-x,1/2+y,1/2+z
x,1/2-y,1/2+z
loop_
_atom_site_type_symbol
_atom_site_label
_atom_site_fract_x
_atom_site_fract_y
_atom_site_fract_z
Si Si1 0.500000 0.679627 0.418591
Si Si2 0.695820 0.827513 0.862468
Si Si3 0.000000 0.684090 0.431377
Si Si4 0.805536 0.678084 0.745947
Si Si5 0.500000 0.181070 0.565780
Si Si6 0.000000 0.680860 0.278859
Si Si7 0.307574 0.817962 0.115389
Si Si8 0.187681 0.672904 0.494580
O O1 0.500000 0.500000 0.436382
O O2 0.412226 0.724760 0.371296
O O3 0.500000 0.767644 0.488662
O O4 0.751940 0.714007 0.814707
O O5 0.736589 0.819321 0.936320
O O6 0.704710 0.000000 0.833707
O O7 0.090682 0.752840 0.470313
O O8 0.000000 0.500000 0.428643
O O9 0.000000 0.744351 0.355031
O O10 0.827237 0.500000 0.741551
O O11 0.736237 0.730540 0.686381
O O12 0.906224 0.762382 0.740849
O O13 0.409249 0.241813 0.605955
O O14 0.500000 0.000000 0.567928
O O15 0.000000 0.500000 0.278218
O O16 0.319799 0.000000 0.107775
O O17 0.234891 0.750649 0.059666
O O18 0.161308 0.500000 0.513335
#
# Coordination Sequence:
#
# PCOD8178714 Si02
#       8
#     4   8   4   8   4   4   8   8
#     4  10  20  37  62  87 117 159 209 249 288 360
#     4  10  19  35  61  88 114 156 204 244 290 351
#     4   9  16  28  55  91 111 138 194 249 283 323
#     4  11  24  39  59  90 125 157 194 248 304 353
#     4  12  24  37  60  91 119 151 195 255 314 356
#     4  11  21  38  63  87 117 158 202 243 295 365
#     4  10  22  41  62  84 119 164 201 240 296 366
#     4   9  16  31  58  86 110 146 202 244 274 340
#
# _framework density 19.439747000000001
#
# number of rings (size 3 to 8) (size 9 to 14) (size 15 to 20)
#    0.000    1.833    3.333    1.500    0.000    3.333 
#    0.000    4.167    0.000    0.000    0.000    0.000 
#    0.000    0.000    0.000    0.000    0.000    0.000 
#
# Total GULP energy -297572.721441 kJ/mol
# GULP energy per Si atom -12398.863393 kJ/mol
# Density = 1.939550 g / cm^3
# Si number density = 19.439747 Si / 1000 Ang^3
#
#
#
# Elastic Constant Matrix: (Units=GPa)
#
#
# Indices 1 2 3 4 5 6 
#
# 1 155.4050 39.5655 36.4447 0.0000 0.0000 0.0000
# 2 39.5655 56.9686 30.5166 0.0000 0.0000 0.0000
# 3 36.4447 30.5166 80.4179 0.0000 0.0000 0.0000
# 4 0.0000 0.0000 0.0000 20.5976 0.0000 0.0000
# 5 0.0000 0.0000 0.0000 0.0000 27.5853 0.0000
# 6 0.0000 0.0000 0.0000 0.0000 0.0000 26.0648
#
#
#
# Elastic Compliance Matrix: (Units=1/GPa)
#
#
# Indices 1 2 3 4 5 6 
#
# 1 0.008045 -0.004562 -0.001915 0.000000 0.000000 0.000000
# 2 -0.004562 0.024619 -0.007275 0.000000 0.000000 0.000000
# 3 -0.001915 -0.007275 0.016064 0.000000 0.000000 0.000000
# 4 0.000000 0.000000 0.000000 0.048549 0.000000 0.000000
# 5 0.000000 0.000000 0.000000 0.000000 0.036251 0.000000
# 6 0.000000 0.000000 0.000000 0.000000 0.000000 0.038366
#
#
# Mechanical properties :
#
#
# Convention : Reuss Voigt Hill
#
# Bulk Modulus (GPa) = 47.11573 56.20503 51.66038
# Shear Modulus (GPa) = 24.21634 27.26715 25.74175
#
# Velocity S-wave (km/s) = 3.53329 3.74926 3.64288
# Velocity P-wave (km/s) = 6.39804 6.90781 6.65781
#
# Compressibility (1/GPa) = 0.02122433
#
# Stress axis : x y z
#
# Youngs Moduli (GPa) = 124.29613 40.61950 62.25280
#
# Poissons Ratio (x) = 0.18530 0.11921
# Poissons Ratio (y) = 0.56701 0.45288
# Poissons Ratio (z) = 0.23802 0.29550
#
# Static dielectric constant tensor:
#      x y z
#    x 3.859730 0.000000 0.000000 
#    y 0.000000 3.235270 0.000000 
#    z 0.000000 0.000000 3.534170 
# 
# 
# High freq. dielectric constant tensor:
#      x y z
#    x 1.779240 0.000000 0.000000 
#    y 0.000000 1.721160 0.000000 
#    z 0.000000 0.000000 1.752240 
# 
# From -- ./inp_files/18240.got.cif
#   From: 2010.03.12/outbox.cif.g09.slc.cpg/sg38_10_cif.got.tgz:18240.got - 2010.04.14 02:38:36.
