data_PCOD8178348
_publ_section_title
;
Structure prediction by ZEFSAII (Michael W. Deem and Ramdas Pophale) SiO2 
 PCOD8178348
Probable space group: A M M 2
;
_chemical_formula_sum "Si O2"
_cell_formula_units_Z 64
_cell_length_a 9.019647
_cell_length_b 24.515953
_cell_length_c 15.237789
_cell_angle_alpha 90.000000
_cell_angle_beta 90.000000
_cell_angle_gamma 90.000000
_cell_volume 3369.459779
_symmetry_space_group_name_H-M "A M M 2"
_symmetry_group_IT_number 38
_symmetry_cell_setting 'orthorhombic'
loop_
_space_group_symop_operation_xyz
x,y,z
-x,-y,z
-x,y,z
x,-y,z
x,1/2+y,1/2+z
-x,1/2-y,1/2+z
-x,1/2+y,1/2+z
x,1/2-y,1/2+z
loop_
_atom_site_type_symbol
_atom_site_label
_atom_site_fract_x
_atom_site_fract_y
_atom_site_fract_z
Si Si1 0.673953 0.358761 0.086010
Si Si2 0.172371 0.563627 0.948700
Si Si3 0.825711 0.355484 0.455067
Si Si4 0.169680 0.438013 0.600216
Si Si5 0.173792 0.233665 0.492331
Si Si6 0.671039 0.400334 0.770936
Si Si7 0.670243 0.337769 0.279942
Si Si8 0.669233 0.217227 0.318993
O O1 0.500000 0.360390 0.064807
O O2 0.705797 0.368740 0.189192
O O3 0.756018 0.404713 0.030274
O O4 0.736437 0.298408 0.066552
O O5 0.196184 0.500000 0.966717
O O6 0.248011 0.579940 0.858131
O O7 0.000000 0.579108 0.943137
O O8 0.764805 0.400843 0.522119
O O9 0.777816 0.296862 0.493644
O O10 0.760561 0.365594 0.358454
O O11 0.000000 0.359630 0.444365
O O12 0.182119 0.500000 0.568028
O O13 0.262497 0.431014 0.688105
O O14 0.000000 0.421657 0.620540
O O15 0.219149 0.207651 0.399429
O O16 0.000000 0.225955 0.507858
O O17 0.500000 0.416656 0.779885
O O18 0.690810 0.335102 0.756147
O O19 0.500000 0.344294 0.305266
O O20 0.709865 0.273291 0.269185
O O21 0.500000 0.218982 0.354530
#
# Coordination Sequence:
#
# PCOD8178348 Si02
#       8
#     8   8   8   8   8   8   8   8
#     4  11  22  36  57  85 116 151 189 231 282 339
#     4  11  24  41  60  82 113 153 193 235 283 335
#     4   9  20  38  58  83 112 147 193 240 288 335
#     4  10  22  40  59  80 112 153 195 239 286 337
#     4  10  19  32  53  82 113 146 184 230 280 334
#     4  11  22  35  57  87 117 151 189 233 281 336
#     4   9  20  37  57  82 115 151 187 230 284 342
#     4   9  18  34  53  79 114 150 184 221 274 337
#
# _framework density 18.994142
#
# number of rings (size 3 to 8) (size 9 to 14) (size 15 to 20)
#    0.000    2.000    1.250    1.875    1.750    5.250 
#    0.000    0.625    0.000    2.250    0.000    0.000 
#    0.000    0.000    0.000    0.000    0.000    0.000 
#
# Total GULP energy -396820.418745 kJ/mol
# GULP energy per Si atom -12400.638086 kJ/mol
# Density = 1.895091 g / cm^3
# Si number density = 18.994142 Si / 1000 Ang^3
#
#
#
# Elastic Constant Matrix: (Units=GPa)
#
#
# Indices 1 2 3 4 5 6 
#
# 1 90.4023 45.7337 56.4500 0.0000 0.0000 0.0000
# 2 45.7337 93.9013 61.8245 0.0000 0.0000 0.0000
# 3 56.4500 61.8245 123.7790 0.0000 0.0000 0.0000
# 4 0.0000 0.0000 0.0000 29.0239 0.0000 0.0000
# 5 0.0000 0.0000 0.0000 0.0000 31.4918 0.0000
# 6 0.0000 0.0000 0.0000 0.0000 0.0000 23.9196
#
#
#
# Elastic Compliance Matrix: (Units=1/GPa)
#
#
# Indices 1 2 3 4 5 6 
#
# 1 0.016729 -0.004655 -0.005304 0.000000 0.000000 0.000000
# 2 -0.004655 0.017163 -0.006449 0.000000 0.000000 0.000000
# 3 -0.005304 -0.006449 0.013719 0.000000 0.000000 0.000000
# 4 0.000000 0.000000 0.000000 0.034454 0.000000 0.000000
# 5 0.000000 0.000000 0.000000 0.000000 0.031754 0.000000
# 6 0.000000 0.000000 0.000000 0.000000 0.000000 0.041807
#
#
# Mechanical properties :
#
#
# Convention : Reuss Voigt Hill
#
# Bulk Modulus (GPa) = 67.59775 70.67766 69.13771
# Shear Modulus (GPa) = 25.85647 26.49203 26.17425
#
# Velocity S-wave (km/s) = 3.69356 3.73868 3.71619
# Velocity P-wave (km/s) = 7.33866 7.47850 7.40891
#
# Compressibility (1/GPa) = 0.01479339
#
# Stress axis : x y z
#
# Youngs Moduli (GPa) = 59.77730 58.26429 72.89094
#
# Poissons Ratio (x) = 0.27125 0.38661
# Poissons Ratio (y) = 0.27829 0.47010
# Poissons Ratio (z) = 0.31705 0.37577
#
# Static dielectric constant tensor:
#      x y z
#    x 3.530120 0.000000 0.000000 
#    y 0.000000 3.597130 0.000000 
#    z 0.000000 0.000000 3.390470 
# 
# 
# High freq. dielectric constant tensor:
#      x y z
#    x 1.742580 0.000000 0.000000 
#    y 0.000000 1.735720 0.000000 
#    z 0.000000 0.000000 1.729620 
# 
# From -- ./inp_files/12765.got.cif
#   From: 2010.03.12/outbox.cif.g09.slc.cpg/sg38_7_cif.got.tgz:12765.got - 2010.04.14 02:38:36.
