data_PCOD8178462
_publ_section_title
;
Structure prediction by ZEFSAII (Michael W. Deem and Ramdas Pophale) SiO2 
 PCOD8178462
Probable space group: A M M 2
;
_chemical_formula_sum "Si O2"
_cell_formula_units_Z 64
_cell_length_a 14.468903
_cell_length_b 9.212122
_cell_length_c 24.878967
_cell_angle_alpha 90.000000
_cell_angle_beta 90.000000
_cell_angle_gamma 90.000000
_cell_volume 3316.100087
_symmetry_space_group_name_H-M "A M M 2"
_symmetry_group_IT_number 38
_symmetry_cell_setting 'orthorhombic'
loop_
_space_group_symop_operation_xyz
x,y,z
-x,-y,z
-x,y,z
x,-y,z
x,1/2+y,1/2+z
-x,1/2-y,1/2+z
-x,1/2+y,1/2+z
x,1/2-y,1/2+z
loop_
_atom_site_type_symbol
_atom_site_label
_atom_site_fract_x
_atom_site_fract_y
_atom_site_fract_z
Si Si1 0.844971 0.663825 0.072950
Si Si2 0.362269 0.162530 0.536972
Si Si3 0.400184 0.666840 0.640198
Si Si4 0.796798 0.672617 0.677589
Si Si5 0.108113 0.169896 0.775827
Si Si6 0.395762 0.669418 0.917393
Si Si7 0.899007 0.837255 0.976402
Si Si8 0.774660 0.829131 0.879655
O O1 0.878065 0.500000 0.086176
O O2 0.746136 0.664533 0.045381
O O3 0.848873 0.758895 0.126725
O O4 0.909872 0.737227 0.028809
O O5 0.409885 0.254875 0.583232
O O6 0.385996 0.228404 0.478499
O O7 0.402361 0.000000 0.540666
O O8 0.500000 0.690036 0.670229
O O9 0.383065 0.500000 0.626580
O O10 0.312483 0.720171 0.675719
O O11 0.809039 0.500000 0.677167
O O12 0.844196 0.736900 0.729739
O O13 0.161661 0.215458 0.829656
O O14 0.000000 0.210324 0.781231
O O15 0.120204 0.000000 0.763036
O O16 0.500000 0.698737 0.896818
O O17 0.371038 0.500000 0.915696
O O18 0.325112 0.751526 0.877601
O O19 0.826919 0.774750 0.933212
O O20 0.000000 0.841428 0.948699
O O21 0.868901 0.000000 0.993769
O O22 0.758342 0.000000 0.880391
#
# Coordination Sequence:
#
# PCOD8178462 Si02
#       8
#     8   8   8   8   8   8   8   8
#     4  10  19  33  54  80 113 151 186 226 275 329
#     4   9  17  30  49  75 110 150 188 224 264 317
#     4   9  18  32  51  78 112 148 185 224 268 322
#     4  10  21  37  58  84 114 146 185 233 281 332
#     4  10  22  42  65  85 106 139 186 238 290 341
#     4  10  20  34  53  80 116 154 189 227 275 329
#     4  10  20  34  54  81 112 146 182 224 281 343
#     4  10  21  38  60  83 111 144 185 236 284 333
#
# _framework density 19.299779000000001
#
# number of rings (size 3 to 8) (size 9 to 14) (size 15 to 20)
#    0.000    2.250    1.250    1.500    0.000    5.500 
#    0.000    0.625    0.000    4.500    0.000    0.000 
#    0.000    0.000    0.000    0.000    0.000    0.000 
#
# Total GULP energy -396676.924730 kJ/mol
# GULP energy per Si atom -12396.153898 kJ/mol
# Density = 1.925585 g / cm^3
# Si number density = 19.299779 Si / 1000 Ang^3
#
#
#
# Elastic Constant Matrix: (Units=GPa)
#
#
# Indices 1 2 3 4 5 6 
#
# 1 126.4892 47.6390 63.0573 0.0000 0.0000 0.0000
# 2 47.6390 72.2470 56.7706 0.0000 0.0000 0.0000
# 3 63.0573 56.7706 114.2076 0.0000 0.0000 0.0000
# 4 0.0000 0.0000 0.0000 31.2482 0.0000 0.0000
# 5 0.0000 0.0000 0.0000 0.0000 21.4369 0.0000
# 6 0.0000 0.0000 0.0000 0.0000 0.0000 21.8154
#
#
#
# Elastic Compliance Matrix: (Units=1/GPa)
#
#
# Indices 1 2 3 4 5 6 
#
# 1 0.011676 -0.004321 -0.004299 0.000000 0.000000 0.000000
# 2 -0.004321 0.024312 -0.009699 0.000000 0.000000 0.000000
# 3 -0.004299 -0.009699 0.015951 0.000000 0.000000 0.000000
# 4 0.000000 0.000000 0.000000 0.032002 0.000000 0.000000
# 5 0.000000 0.000000 0.000000 0.000000 0.046649 0.000000
# 6 0.000000 0.000000 0.000000 0.000000 0.000000 0.045839
#
#
# Mechanical properties :
#
#
# Convention : Reuss Voigt Hill
#
# Bulk Modulus (GPa) = 65.35655 71.98638 68.67146
# Shear Modulus (GPa) = 22.91806 24.59855 23.75831
#
# Velocity S-wave (km/s) = 3.44972 3.57396 3.51239
# Velocity P-wave (km/s) = 7.05725 7.37638 7.21858
#
# Compressibility (1/GPa) = 0.01530069
#
# Stress axis : x y z
#
# Youngs Moduli (GPa) = 85.64297 41.13116 62.69267
#
# Poissons Ratio (x) = 0.17774 0.26950
# Poissons Ratio (y) = 0.37010 0.60808
# Poissons Ratio (z) = 0.36816 0.39894
#
# Static dielectric constant tensor:
#      x y z
#    x 3.707190 0.000000 0.000000 
#    y 0.000000 3.503140 0.000000 
#    z 0.000000 0.000000 3.322750 
# 
# 
# High freq. dielectric constant tensor:
#      x y z
#    x 1.765510 0.000000 0.000000 
#    y 0.000000 1.744670 0.000000 
#    z 0.000000 0.000000 1.725730 
# 
# From -- ./inp_files/22964.got.cif
#   From: 2010.03.12/outbox.cif.g09.slc.cpg/sg38_12_cif.got.tgz:22964.got - 2010.04.14 02:38:36.
