data_PCOD8178759
_publ_section_title
;
Structure prediction by ZEFSAII (Michael W. Deem and Ramdas Pophale) SiO2 
 PCOD8178759
Probable space group: A M M 2
;
_chemical_formula_sum "Si O2"
_cell_formula_units_Z 64
_cell_length_a 14.700238
_cell_length_b 22.199304
_cell_length_c 9.605206
_cell_angle_alpha 90.000000
_cell_angle_beta 90.000000
_cell_angle_gamma 90.000000
_cell_volume 3134.515402
_symmetry_space_group_name_H-M "A M M 2"
_symmetry_group_IT_number 38
_symmetry_cell_setting 'orthorhombic'
loop_
_space_group_symop_operation_xyz
x,y,z
-x,-y,z
-x,y,z
x,-y,z
x,1/2+y,1/2+z
-x,1/2-y,1/2+z
-x,1/2+y,1/2+z
x,1/2-y,1/2+z
loop_
_atom_site_type_symbol
_atom_site_label
_atom_site_fract_x
_atom_site_fract_y
_atom_site_fract_z
Si Si1 0.831355 0.067598 0.856790
Si Si2 0.795580 0.635848 0.788719
Si Si3 0.674209 0.066758 0.080062
Si Si4 0.898034 0.825816 0.034291
Si Si5 0.734999 0.742229 0.961442
Si Si6 0.603539 0.148118 0.589758
Si Si7 0.595386 0.340520 0.403121
Si Si8 0.764280 0.069519 0.547962
O O1 0.803652 0.085232 0.699488
O O2 0.877663 0.000000 0.858472
O O3 0.743386 0.064312 0.951811
O O4 0.893216 0.122153 0.915088
O O5 0.716756 0.596815 0.716479
O O6 0.879973 0.642707 0.683823
O O7 0.755257 0.701290 0.827385
O O8 0.826879 0.602771 0.931437
O O9 0.592997 0.107734 0.021439
O O10 0.639642 0.000000 0.118830
O O11 0.829709 0.768667 0.022295
O O12 0.000000 0.799634 0.031943
O O13 0.667050 0.707798 0.068343
O O14 0.684335 0.801212 0.912162
O O15 0.500000 0.154517 0.526510
O O16 0.660546 0.092930 0.523827
O O17 0.595217 0.131189 0.750534
O O18 0.500000 0.304125 0.423381
O O19 0.766002 0.000000 0.515609
#
# Coordination Sequence:
#
# PCOD8178759 Si02
#       8
#     8   8   8   8   8   8   8   8
#     4   9  18  36  61  88 122 162 205 253 310 373
#     4  10  22  39  62  88 124 163 204 251 320 375
#     4  10  19  37  59  86 121 161 204 252 304 362
#     4  11  23  41  66  92 119 159 210 262 322 383
#     4  11  21  40  58  84 125 165 204 261 311 383
#     4  10  21  35  56  88 123 166 214 256 303 365
#     4  11  21  34  57  87 118 163 214 257 299 361
#     4  10  19  36  62  89 121 168 210 255 312 364
#
# _framework density 20.417829999999999
#
# number of rings (size 3 to 8) (size 9 to 14) (size 15 to 20)
#    0.000    1.750    3.750    1.500    0.000    2.750 
#    0.000    4.375    0.000    3.750    0.000    0.000 
#    0.000    0.000    0.000    0.000    0.000    0.000 
#
# Total GULP energy -396425.362058 kJ/mol
# GULP energy per Si atom -12388.292564 kJ/mol
# Density = 2.037136 g / cm^3
# Si number density = 20.417830 Si / 1000 Ang^3
#
#
#
# Elastic Constant Matrix: (Units=GPa)
#
#
# Indices 1 2 3 4 5 6 
#
# 1 113.0157 40.2316 32.8250 0.0000 0.0000 0.0000
# 2 40.2316 116.0287 40.2642 0.0000 0.0000 0.0000
# 3 32.8250 40.2642 113.5026 0.0000 0.0000 0.0000
# 4 0.0000 0.0000 0.0000 34.6931 0.0000 0.0000
# 5 0.0000 0.0000 0.0000 0.0000 15.8904 0.0000
# 6 0.0000 0.0000 0.0000 0.0000 0.0000 17.3163
#
#
#
# Elastic Compliance Matrix: (Units=1/GPa)
#
#
# Indices 1 2 3 4 5 6 
#
# 1 0.010472 -0.002942 -0.001985 0.000000 0.000000 0.000000
# 2 -0.002942 0.010655 -0.002929 0.000000 0.000000 0.000000
# 3 -0.001985 -0.002929 0.010423 0.000000 0.000000 0.000000
# 4 0.000000 0.000000 0.000000 0.028824 0.000000 0.000000
# 5 0.000000 0.000000 0.000000 0.000000 0.062931 0.000000
# 6 0.000000 0.000000 0.000000 0.000000 0.000000 0.057749
#
#
# Mechanical properties :
#
#
# Convention : Reuss Voigt Hill
#
# Bulk Modulus (GPa) = 63.13666 63.24317 63.18991
# Shear Modulus (GPa) = 24.74674 28.86172 26.80423
#
# Velocity S-wave (km/s) = 3.48518 3.76381 3.62717
# Velocity P-wave (km/s) = 6.86912 7.06612 6.96831
#
# Compressibility (1/GPa) = 0.01583866
#
# Stress axis : x y z
#
# Youngs Moduli (GPa) = 95.49065 93.85119 95.93820
#
# Poissons Ratio (x) = 0.27614 0.19042
# Poissons Ratio (y) = 0.28097 0.28099
# Poissons Ratio (z) = 0.18953 0.27488
#
# Static dielectric constant tensor:
#      x y z
#    x 3.492510 0.000000 0.000000 
#    y 0.000000 3.952320 0.000000 
#    z 0.000000 0.000000 3.850650 
# 
# 
# High freq. dielectric constant tensor:
#      x y z
#    x 1.766880 0.000000 0.000000 
#    y 0.000000 1.801590 0.000000 
#    z 0.000000 0.000000 1.802610 
# 
# From -- ./inp_files/5912.got.cif
#   From: 2010.03.12/outbox.cif.g09.slc.cpg/sg38_3_cif.got.tgz:5912.got - 2010.04.14 02:38:36.
