data_PCOD8178515
_publ_section_title
;
Structure prediction by ZEFSAII (Michael W. Deem and Ramdas Pophale) SiO2 
 PCOD8178515
Probable space group: A M M 2
;
_chemical_formula_sum "Si O2"
_cell_formula_units_Z 64
_cell_length_a 18.911984
_cell_length_b 9.189132
_cell_length_c 19.886535
_cell_angle_alpha 90.000000
_cell_angle_beta 90.000000
_cell_angle_gamma 90.000000
_cell_volume 3455.975864
_symmetry_space_group_name_H-M "A M M 2"
_symmetry_group_IT_number 38
_symmetry_cell_setting 'orthorhombic'
loop_
_space_group_symop_operation_xyz
x,y,z
-x,-y,z
-x,y,z
x,-y,z
x,1/2+y,1/2+z
-x,1/2-y,1/2+z
-x,1/2+y,1/2+z
x,1/2-y,1/2+z
loop_
_atom_site_type_symbol
_atom_site_label
_atom_site_fract_x
_atom_site_fract_y
_atom_site_fract_z
Si Si1 0.195544 0.173196 0.847830
Si Si2 0.666635 0.671773 0.033522
Si Si3 0.919231 0.671465 0.241802
Si Si4 0.657695 0.167255 0.791895
Si Si5 0.919588 0.168452 0.108169
Si Si6 0.804782 0.329158 0.500636
Si Si7 0.579830 0.826651 0.662780
Si Si8 0.580958 0.665545 0.426266
O O1 0.129290 0.227295 0.803342
O O2 0.267995 0.238424 0.815841
O O3 0.186628 0.229929 0.924326
O O4 0.198890 0.000000 0.849566
O O5 0.676951 0.500000 0.032834
O O6 0.617911 0.724313 0.094918
O O7 0.742467 0.746775 0.039410
O O8 0.629480 0.721998 0.965425
O O9 0.912099 0.500000 0.232751
O O10 0.891966 0.742836 0.172705
O O11 0.000000 0.717767 0.257514
O O12 0.625634 0.239735 0.724525
O O13 0.597554 0.184543 0.847969
O O14 0.673993 0.000000 0.776192
O O15 0.000000 0.211372 0.091465
O O16 0.911936 0.000000 0.126765
O O17 0.875689 0.207751 0.041570
O O18 0.787658 0.500000 0.500587
O O19 0.500000 0.763381 0.663775
O O20 0.576550 0.000000 0.668020
O O21 0.500000 0.705479 0.439170
O O22 0.598007 0.500000 0.448943
#
# Coordination Sequence:
#
# PCOD8178515 Si02
#       8
#     8   8   8   8   8   8   8   8
#     4   9  17  30  51  75 102 133 168 212 257 299
#     4  11  22  34  51  76 107 140 171 212 263 317
#     4   9  18  32  53  81 108 134 168 212 258 306
#     4   9  16  29  50  75  99 127 168 216 256 297
#     4   9  19  35  55  79 107 141 174 207 257 315
#     4  10  20  36  55  76 105 138 175 219 256 304
#     4   9  18  31  47  71 101 131 167 212 259 304
#     4  10  19  33  56  79 100 133 175 216 260 310
#
# _framework density 18.518647999999999
#
# number of rings (size 3 to 8) (size 9 to 14) (size 15 to 20)
#    0.000    2.500    1.250    1.125    1.750    3.250 
#    0.000    3.125    0.000    1.500    0.000    3.500 
#    0.000    0.000    0.000    0.000    0.000    0.000 
#
# Total GULP energy -396772.839111 kJ/mol
# GULP energy per Si atom -12399.151222 kJ/mol
# Density = 1.847650 g / cm^3
# Si number density = 18.518648 Si / 1000 Ang^3
#
#
#
# Elastic Constant Matrix: (Units=GPa)
#
#
# Indices 1 2 3 4 5 6 
#
# 1 123.5329 28.0139 69.9511 0.0000 0.0000 0.0000
# 2 28.0139 28.3999 26.6682 0.0000 0.0000 0.0000
# 3 69.9511 26.6682 124.1781 0.0000 0.0000 0.0000
# 4 0.0000 0.0000 0.0000 20.7467 0.0000 0.0000
# 5 0.0000 0.0000 0.0000 0.0000 39.7636 0.0000
# 6 0.0000 0.0000 0.0000 0.0000 0.0000 22.0679
#
#
#
# Elastic Compliance Matrix: (Units=1/GPa)
#
#
# Indices 1 2 3 4 5 6 
#
# 1 0.013040 -0.007472 -0.005741 0.000000 0.000000 0.000000
# 2 -0.007472 0.048387 -0.006182 0.000000 0.000000 0.000000
# 3 -0.005741 -0.006182 0.012615 0.000000 0.000000 0.000000
# 4 0.000000 0.000000 0.000000 0.048201 0.000000 0.000000
# 5 0.000000 0.000000 0.000000 0.000000 0.025149 0.000000
# 6 0.000000 0.000000 0.000000 0.000000 0.000000 0.045315
#
#
# Mechanical properties :
#
#
# Convention : Reuss Voigt Hill
#
# Bulk Modulus (GPa) = 28.36784 58.37524 43.37154
# Shear Modulus (GPa) = 20.55514 26.61415 23.58464
#
# Velocity S-wave (km/s) = 3.33524 3.79509 3.57257
# Velocity P-wave (km/s) = 5.49395 7.12703 6.36310
#
# Compressibility (1/GPa) = 0.03525119
#
# Stress axis : x y z
#
# Youngs Moduli (GPa) = 76.68455 20.66653 79.27235
#
# Poissons Ratio (x) = 0.15442 0.45511
# Poissons Ratio (y) = 0.57300 0.49010
# Poissons Ratio (z) = 0.44026 0.12777
#
# Static dielectric constant tensor:
#      x y z
#    x 3.637040 0.000000 0.000000 
#    y 0.000000 2.993960 0.000000 
#    z 0.000000 0.000000 3.545190 
# 
# 
# High freq. dielectric constant tensor:
#      x y z
#    x 1.730700 0.000000 0.000000 
#    y 0.000000 1.669030 0.000000 
#    z 0.000000 0.000000 1.726620 
# 
# From -- ./inp_files/18843.got.cif
#   From: 2010.03.12/outbox.cif.g09.slc.cpg/sg38_10_cif.got.tgz:18843.got - 2010.04.14 02:38:36.
