data_PCOD8178986
_publ_section_title
;
Structure prediction by ZEFSAII (Michael W. Deem and Ramdas Pophale) SiO2 
 PCOD8178986
Probable space group: A M M 2
;
_chemical_formula_sum "Si O2"
_cell_formula_units_Z 48
_cell_length_a 9.188644
_cell_length_b 14.986169
_cell_length_c 18.824703
_cell_angle_alpha 90.000000
_cell_angle_beta 90.000000
_cell_angle_gamma 90.000000
_cell_volume 2592.210018
_symmetry_space_group_name_H-M "A M M 2"
_symmetry_group_IT_number 38
_symmetry_cell_setting 'orthorhombic'
loop_
_space_group_symop_operation_xyz
x,y,z
-x,-y,z
-x,y,z
x,-y,z
x,1/2+y,1/2+z
-x,1/2-y,1/2+z
-x,1/2+y,1/2+z
x,1/2-y,1/2+z
loop_
_atom_site_type_symbol
_atom_site_label
_atom_site_fract_x
_atom_site_fract_y
_atom_site_fract_z
Si Si1 0.831691 0.100764 0.844330
Si Si2 0.168404 0.896196 0.166671
Si Si3 0.170883 0.238930 0.441221
Si Si4 0.672358 0.254900 0.087161
Si Si5 0.172754 0.098321 0.325875
Si Si6 0.670523 0.601412 0.202934
O O1 0.795171 0.162232 0.911817
O O2 0.745189 0.133815 0.775401
O O3 0.000000 0.109149 0.823922
O O4 0.788322 0.000000 0.865480
O O5 0.264934 0.839407 0.112744
O O6 0.224510 0.875722 0.246561
O O7 0.000000 0.869075 0.157172
O O8 0.190147 0.000000 0.148310
O O9 0.261629 0.220702 0.511353
O O10 0.229997 0.169054 0.382803
O O11 0.000000 0.225948 0.456773
O O12 0.500000 0.247557 0.080919
O O13 0.721465 0.334051 0.139817
O O14 0.000000 0.096381 0.324620
O O15 0.232490 0.000000 0.346297
O O16 0.500000 0.608185 0.215445
O O17 0.717609 0.500000 0.183992
#
# Coordination Sequence:
#
# PCOD8178986 Si02
#       6
#     8   8   8   8   8   8
#     4   9  18  33  54  78  99 123 164 215 258 298
#     4   9  18  35  59  81 101 130 168 210 257 307
#     4  10  20  33  50  73 103 136 167 204 252 304
#     4  11  23  35  49  74 108 141 172 209 251 298
#     4   8  15  30  53  78  99 123 163 213 258 300
#     4   9  19  36  55  74 100 136 174 211 254 302
#
# _framework density 18.517018
#
# number of rings (size 3 to 8) (size 9 to 14) (size 15 to 20)
#    0.000    2.667    0.000    2.500    0.000    5.000 
#    0.000    2.500    0.000    1.000    0.000    0.000 
#    0.000    0.000    0.000    0.000    0.000    0.000 
#
# Total GULP energy -297608.865360 kJ/mol
# GULP energy per Si atom -12400.369390 kJ/mol
# Density = 1.847487 g / cm^3
# Si number density = 18.517018 Si / 1000 Ang^3
#
#
#
# Elastic Constant Matrix: (Units=GPa)
#
#
# Indices 1 2 3 4 5 6 
#
# 1 38.4009 19.3683 21.0409 0.0000 0.0000 0.0000
# 2 19.3683 66.6681 21.0367 0.0000 0.0000 0.0000
# 3 21.0409 21.0367 67.9402 0.0000 0.0000 0.0000
# 4 0.0000 0.0000 0.0000 22.5599 0.0000 0.0000
# 5 0.0000 0.0000 0.0000 0.0000 18.1494 0.0000
# 6 0.0000 0.0000 0.0000 0.0000 0.0000 20.4243
#
#
#
# Elastic Compliance Matrix: (Units=1/GPa)
#
#
# Indices 1 2 3 4 5 6 
#
# 1 0.034319 -0.007333 -0.008358 0.000000 0.000000 0.000000
# 2 -0.007333 0.018191 -0.003361 0.000000 0.000000 0.000000
# 3 -0.008358 -0.003361 0.018348 0.000000 0.000000 0.000000
# 4 0.000000 0.000000 0.000000 0.044326 0.000000 0.000000
# 5 0.000000 0.000000 0.000000 0.000000 0.055098 0.000000
# 6 0.000000 0.000000 0.000000 0.000000 0.000000 0.048961
#
#
# Mechanical properties :
#
#
# Convention : Reuss Voigt Hill
#
# Bulk Modulus (GPa) = 30.53151 32.87789 31.70470
# Shear Modulus (GPa) = 18.63815 19.66426 19.15121
#
# Velocity S-wave (km/s) = 3.17605 3.26230 3.21946
# Velocity P-wave (km/s) = 5.47484 5.65546 5.56588
#
# Compressibility (1/GPa) = 0.03275304
#
# Stress axis : x y z
#
# Youngs Moduli (GPa) = 29.13819 54.97293 54.50160
#
# Poissons Ratio (x) = 0.40312 0.45552
# Poissons Ratio (y) = 0.21367 0.18321
# Poissons Ratio (z) = 0.24354 0.18479
#
# Static dielectric constant tensor:
#      x y z
#    x 3.154170 0.000000 0.000000 
#    y 0.000000 3.694780 0.000000 
#    z 0.000000 0.000000 3.382210 
# 
# 
# High freq. dielectric constant tensor:
#      x y z
#    x 1.693230 0.000000 0.000000 
#    y 0.000000 1.730360 0.000000 
#    z 0.000000 0.000000 1.715110 
# 
# From -- ./inp_files/12043.got.cif
#   From: 2010.03.12/outbox.cif.g09.slc.cpg/sg38_7_cif.got.tgz:12043.got - 2010.04.14 02:38:36.
