data_PCOD8178324
_publ_section_title
;
Structure prediction by ZEFSAII (Michael W. Deem and Ramdas Pophale) SiO2 
 PCOD8178324
Probable space group: A M M 2
;
_chemical_formula_sum "Si O2"
_cell_formula_units_Z 64
_cell_length_a 18.663706
_cell_length_b 8.885180
_cell_length_c 20.138366
_cell_angle_alpha 90.000000
_cell_angle_beta 90.000000
_cell_angle_gamma 90.000000
_cell_volume 3339.553033
_symmetry_space_group_name_H-M "A M M 2"
_symmetry_group_IT_number 38
_symmetry_cell_setting 'orthorhombic'
loop_
_space_group_symop_operation_xyz
x,y,z
-x,-y,z
-x,y,z
x,-y,z
x,1/2+y,1/2+z
-x,1/2-y,1/2+z
-x,1/2+y,1/2+z
x,1/2-y,1/2+z
loop_
_atom_site_type_symbol
_atom_site_label
_atom_site_fract_x
_atom_site_fract_y
_atom_site_fract_z
Si Si1 0.659738 0.677116 0.766760
Si Si2 0.659377 0.177304 0.525824
Si Si3 0.917041 0.825570 0.340447
Si Si4 0.814901 0.323483 0.723683
Si Si5 0.417475 0.670273 0.638944
Si Si6 0.916173 0.175638 0.976273
Si Si7 0.811398 0.320941 0.079632
Si Si8 0.581727 0.320213 0.895837
O O1 0.646687 0.500000 0.768388
O O2 0.743327 0.717706 0.764620
O O3 0.624348 0.743593 0.700540
O O4 0.619760 0.747281 0.830333
O O5 0.598003 0.226670 0.576309
O O6 0.737036 0.241336 0.547792
O O7 0.632372 0.239928 0.455142
O O8 0.663862 0.000000 0.523945
O O9 0.878204 0.772442 0.273050
O O10 0.889031 0.734938 0.404676
O O11 0.000000 0.793356 0.328043
O O12 0.900652 0.000000 0.354590
O O13 0.818462 0.500000 0.706665
O O14 0.820180 0.234655 0.654938
O O15 0.500000 0.673568 0.657132
O O16 0.391230 0.500000 0.624396
O O17 0.876316 0.259713 0.035708
O O18 0.000000 0.211351 0.984704
O O19 0.899544 0.000000 0.980899
O O20 0.813605 0.500000 0.079626
O O21 0.500000 0.259136 0.901694
O O22 0.580249 0.500000 0.895432
#
# Coordination Sequence:
#
# PCOD8178324 Si02
#       8
#     8   8   8   8   8   8   8   8
#     4   9  17  30  50  76 104 136 179 229 277 327
#     4  10  21  35  53  78 109 144 183 228 277 334
#     4   9  19  36  59  87 115 144 182 228 278 334
#     4  10  20  35  57  81 112 152 190 231 283 339
#     4  10  19  32  53  78 105 140 182 228 278 332
#     4  10  22  40  62  87 115 149 187 226 275 337
#     4  11  23  37  56  83 117 152 191 237 283 332
#     4   9  17  30  50  76 104 136 180 232 281 329
#
# _framework density 19.164241000000001
#
# number of rings (size 3 to 8) (size 9 to 14) (size 15 to 20)
#    0.000    2.250    1.250    1.500    1.750    4.500 
#    0.000    1.250    0.000    0.750    0.000    0.000 
#    0.000    0.000    0.000    0.000    0.000    0.000 
#
# Total GULP energy -396777.036606 kJ/mol
# GULP energy per Si atom -12399.282394 kJ/mol
# Density = 1.912062 g / cm^3
# Si number density = 19.164241 Si / 1000 Ang^3
#
#
#
# Elastic Constant Matrix: (Units=GPa)
#
#
# Indices 1 2 3 4 5 6 
#
# 1 93.5675 32.1754 64.1885 0.0000 0.0000 0.0000
# 2 32.1754 35.1695 36.5298 0.0000 0.0000 0.0000
# 3 64.1885 36.5298 156.7497 0.0000 0.0000 0.0000
# 4 0.0000 0.0000 0.0000 31.1046 0.0000 0.0000
# 5 0.0000 0.0000 0.0000 0.0000 42.9486 0.0000
# 6 0.0000 0.0000 0.0000 0.0000 0.0000 20.0126
#
#
#
# Elastic Compliance Matrix: (Units=1/GPa)
#
#
# Indices 1 2 3 4 5 6 
#
# 1 0.017805 -0.011500 -0.004611 0.000000 0.000000 0.000000
# 2 -0.011500 0.044942 -0.005764 0.000000 0.000000 0.000000
# 3 -0.004611 -0.005764 0.009611 0.000000 0.000000 0.000000
# 4 0.000000 0.000000 0.000000 0.032150 0.000000 0.000000
# 5 0.000000 0.000000 0.000000 0.000000 0.023284 0.000000
# 6 0.000000 0.000000 0.000000 0.000000 0.000000 0.049968
#
#
# Mechanical properties :
#
#
# Convention : Reuss Voigt Hill
#
# Bulk Modulus (GPa) = 34.95588 61.25270 48.10429
# Shear Modulus (GPa) = 21.64060 28.98601 25.31331
#
# Velocity S-wave (km/s) = 3.36403 3.89331 3.63831
# Velocity P-wave (km/s) = 5.77656 7.22785 6.54257
#
# Compressibility (1/GPa) = 0.02860749
#
# Stress axis : x y z
#
# Youngs Moduli (GPa) = 56.16277 22.25094 104.04497
#
# Poissons Ratio (x) = 0.25589 0.47978
# Poissons Ratio (y) = 0.64587 0.59975
# Poissons Ratio (z) = 0.25898 0.12826
#
# Static dielectric constant tensor:
#      x y z
#    x 3.632940 0.000000 0.000000 
#    y 0.000000 3.197800 0.000000 
#    z 0.000000 0.000000 3.685920 
# 
# 
# High freq. dielectric constant tensor:
#      x y z
#    x 1.754120 0.000000 0.000000 
#    y 0.000000 1.709690 0.000000 
#    z 0.000000 0.000000 1.758510 
# 
# From -- ./inp_files/18985.got.cif
#   From: 2010.03.12/outbox.cif.g09.slc.cpg/sg38_10_cif.got.tgz:18985.got - 2010.04.14 02:38:36.
