data_PCOD8178069
_publ_section_title
;
Structure prediction by ZEFSAII (Michael W. Deem and Ramdas Pophale) SiO2 
 PCOD8178069
Probable space group: A M M 2
;
_chemical_formula_sum "Si O2"
_cell_formula_units_Z 64
_cell_length_a 14.269418
_cell_length_b 9.114158
_cell_length_c 31.096568
_cell_angle_alpha 90.000000
_cell_angle_beta 90.000000
_cell_angle_gamma 90.000000
_cell_volume 4044.224665
_symmetry_space_group_name_H-M "A M M 2"
_symmetry_group_IT_number 38
_symmetry_cell_setting 'orthorhombic'
loop_
_space_group_symop_operation_xyz
x,y,z
-x,-y,z
-x,y,z
x,-y,z
x,1/2+y,1/2+z
-x,1/2-y,1/2+z
-x,1/2+y,1/2+z
x,1/2-y,1/2+z
loop_
_atom_site_type_symbol
_atom_site_label
_atom_site_fract_x
_atom_site_fract_y
_atom_site_fract_z
Si Si1 0.601719 0.825757 0.493190
Si Si2 0.792321 0.674277 0.956902
Si Si3 0.892672 0.326944 0.872740
Si Si4 0.888690 0.662249 0.290200
Si Si5 0.393508 0.829489 0.591467
Si Si6 0.217534 0.825955 0.119899
Si Si7 0.890528 0.670880 0.043728
Si Si8 0.109172 0.828302 0.694477
O O1 0.500000 0.765072 0.477329
O O2 0.686296 0.764690 0.463686
O O3 0.619538 0.778151 0.542220
O O4 0.599926 0.000000 0.491502
O O5 0.791779 0.500000 0.954012
O O6 0.833741 0.739390 0.912647
O O7 0.857494 0.722730 0.996616
O O8 0.884559 0.500000 0.871148
O O9 0.850237 0.266976 0.827935
O O10 0.000000 0.276853 0.878993
O O11 0.848925 0.500000 0.299131
O O12 0.857633 0.715032 0.242765
O O13 0.000000 0.659342 0.290667
O O14 0.500000 0.801005 0.606696
O O15 0.324164 0.732641 0.620377
O O16 0.367229 0.000000 0.596575
O O17 0.163040 0.764743 0.078867
O O18 0.168527 0.772297 0.163123
O O19 0.217052 0.000000 0.118508
O O20 0.866632 0.500000 0.051201
O O21 0.000000 0.701666 0.048125
O O22 0.000000 0.793086 0.687451
O O23 0.127969 0.000000 0.685547
#
# Coordination Sequence:
#
# PCOD8178069 Si02
#       8
#     8   8   8   8   8   8   8   8
#     4   8  13  23  43  67  85 106 145 196 233 254
#     4   9  15  25  42  64  89 116 151 191 225 263
#     4   9  16  25  40  64  91 117 145 180 224 271
#     4   8  15  29  47  65  85 112 147 188 230 268
#     4   9  17  32  53  70  85 114 158 199 229 265
#     4  12  23  31  43  67  98 125 148 184 237 284
#     4  10  19  31  46  61  85 126 168 196 218 256
#     4   9  18  33  51  67  86 118 160 197 227 269
#
# _framework density 15.825036000000001
#
# number of rings (size 3 to 8) (size 9 to 14) (size 15 to 20)
#    0.000    2.750    1.250    3.375    0.000    4.250 
#    0.000    1.875    0.000    1.500    0.000    0.875 
#    0.000    3.000    0.000    0.000    0.000    0.000 
#
# Total GULP energy -396632.710010 kJ/mol
# GULP energy per Si atom -12394.772188 kJ/mol
# Density = 1.578902 g / cm^3
# Si number density = 15.825036 Si / 1000 Ang^3
#
#
#
# Elastic Constant Matrix: (Units=GPa)
#
#
# Indices 1 2 3 4 5 6 
#
# 1 96.8192 42.0228 54.6379 0.0000 0.0000 0.0000
# 2 42.0228 53.6659 44.9313 0.0000 0.0000 0.0000
# 3 54.6379 44.9313 117.3049 0.0000 0.0000 0.0000
# 4 0.0000 0.0000 0.0000 21.0782 0.0000 0.0000
# 5 0.0000 0.0000 0.0000 0.0000 9.4078 0.0000
# 6 0.0000 0.0000 0.0000 0.0000 0.0000 12.5420
#
#
#
# Elastic Compliance Matrix: (Units=1/GPa)
#
#
# Indices 1 2 3 4 5 6 
#
# 1 0.016902 -0.009780 -0.004127 0.000000 0.000000 0.000000
# 2 -0.009780 0.033090 -0.008119 0.000000 0.000000 0.000000
# 3 -0.004127 -0.008119 0.013557 0.000000 0.000000 0.000000
# 4 0.000000 0.000000 0.000000 0.047442 0.000000 0.000000
# 5 0.000000 0.000000 0.000000 0.000000 0.106295 0.000000
# 6 0.000000 0.000000 0.000000 0.000000 0.000000 0.079732
#
#
# Mechanical properties :
#
#
# Convention : Reuss Voigt Hill
#
# Bulk Modulus (GPa) = 51.28972 61.21932 56.25452
# Shear Modulus (GPa) = 14.38565 17.01879 15.70222
#
# Velocity S-wave (km/s) = 3.01831 3.28294 3.15340
# Velocity P-wave (km/s) = 6.68040 7.28967 6.99168
#
# Compressibility (1/GPa) = 0.01949709
#
# Stress axis : x y z
#
# Youngs Moduli (GPa) = 59.16384 30.22085 73.76471
#
# Poissons Ratio (x) = 0.29557 0.30439
# Poissons Ratio (y) = 0.57864 0.59889
# Poissons Ratio (z) = 0.24414 0.24536
#
# Static dielectric constant tensor:
#      x y z
#    x 3.167760 0.000000 0.000000 
#    y 0.000000 2.764620 0.000000 
#    z 0.000000 0.000000 3.155470 
# 
# 
# High freq. dielectric constant tensor:
#      x y z
#    x 1.594890 0.000000 0.000000 
#    y 0.000000 1.577800 0.000000 
#    z 0.000000 0.000000 1.599830 
# 
# From -- ./inp_files/25069.got.cif
#   From: 2010.03.12/outbox.cif.g09.slc.cpg/sg38_13_cif.got.tgz:25069.got - 2010.04.14 02:38:36.
