data_PCOD8178567
_publ_section_title
;
Structure prediction by ZEFSAII (Michael W. Deem and Ramdas Pophale) SiO2 
 PCOD8178567
Probable space group: A M M 2
;
_chemical_formula_sum "Si O2"
_cell_formula_units_Z 64
_cell_length_a 18.876934
_cell_length_b 9.335727
_cell_length_c 20.438614
_cell_angle_alpha 90.000000
_cell_angle_beta 90.000000
_cell_angle_gamma 90.000000
_cell_volume 3601.894951
_symmetry_space_group_name_H-M "A M M 2"
_symmetry_group_IT_number 38
_symmetry_cell_setting 'orthorhombic'
loop_
_space_group_symop_operation_xyz
x,y,z
-x,-y,z
-x,y,z
x,-y,z
x,1/2+y,1/2+z
-x,1/2-y,1/2+z
-x,1/2+y,1/2+z
x,1/2-y,1/2+z
loop_
_atom_site_type_symbol
_atom_site_label
_atom_site_fract_x
_atom_site_fract_y
_atom_site_fract_z
Si Si1 0.703292 0.665664 0.490060
Si Si2 0.797677 0.832924 0.111825
Si Si3 0.710767 0.331323 0.740649
Si Si4 0.419666 0.334954 0.044223
Si Si5 0.781626 0.164696 0.855924
Si Si6 0.081017 0.165847 0.558261
Si Si7 0.920440 0.163373 0.927001
Si Si8 0.580662 0.332700 0.193972
O O1 0.686029 0.500000 0.498421
O O2 0.754858 0.716809 0.547862
O O3 0.629200 0.747670 0.494734
O O4 0.738575 0.701169 0.421263
O O5 0.752393 0.791380 0.174937
O O6 0.870698 0.743635 0.112588
O O7 0.816369 0.000000 0.110460
O O8 0.700656 0.500000 0.749353
O O9 0.756204 0.271045 0.800229
O O10 0.633394 0.258465 0.739317
O O11 0.500000 0.308595 0.021854
O O12 0.399047 0.500000 0.038723
O O13 0.409356 0.283536 0.118939
O O14 0.864923 0.195329 0.869016
O O15 0.769513 0.000000 0.834644
O O16 0.095030 0.233829 0.487476
O O17 0.000000 0.187851 0.580040
O O18 0.101492 0.000000 0.554192
O O19 0.000000 0.186778 0.899522
O O20 0.909471 0.000000 0.951937
O O21 0.500000 0.301909 0.216410
O O22 0.598164 0.500000 0.201980
#
# Coordination Sequence:
#
# PCOD8178567 Si02
#       8
#     8   8   8   8   8   8   8   8
#     4  10  19  34  55  80 107 138 179 221 262 314
#     4  10  20  36  55  78 108 141 179 220 266 323
#     4  11  23  37  55  81 111 143 181 226 273 319
#     4   9  18  32  52  81 112 140 174 220 273 321
#     4  10  21  37  55  78 110 146 183 221 266 324
#     4  10  20  32  51  83 114 139 176 227 275 317
#     4   9  17  33  57  80 105 142 183 221 267 323
#     4   9  18  34  56  81 109 142 179 218 266 325
#
# _framework density 17.768424
#
# number of rings (size 3 to 8) (size 9 to 14) (size 15 to 20)
#    0.000    2.250    2.500    1.500    0.000    3.750 
#    0.000    2.500    0.000    3.000    0.000    0.000 
#    0.000    0.000    0.000    0.000    0.000    0.000 
#
# Total GULP energy -396855.437331 kJ/mol
# GULP energy per Si atom -12401.732417 kJ/mol
# Density = 1.772798 g / cm^3
# Si number density = 17.768424 Si / 1000 Ang^3
#
#
#
# Elastic Constant Matrix: (Units=GPa)
#
#
# Indices 1 2 3 4 5 6 
#
# 1 126.3005 66.2482 49.2658 0.0000 0.0000 0.0000
# 2 66.2482 81.0655 45.6204 0.0000 0.0000 0.0000
# 3 49.2658 45.6204 74.3762 0.0000 0.0000 0.0000
# 4 0.0000 0.0000 0.0000 29.2757 0.0000 0.0000
# 5 0.0000 0.0000 0.0000 0.0000 26.1410 0.0000
# 6 0.0000 0.0000 0.0000 0.0000 0.0000 33.4490
#
#
#
# Elastic Compliance Matrix: (Units=1/GPa)
#
#
# Indices 1 2 3 4 5 6 
#
# 1 0.014448 -0.009807 -0.003555 0.000000 0.000000 0.000000
# 2 -0.009807 0.025495 -0.009142 0.000000 0.000000 0.000000
# 3 -0.003555 -0.009142 0.021408 0.000000 0.000000 0.000000
# 4 0.000000 0.000000 0.000000 0.034158 0.000000 0.000000
# 5 0.000000 0.000000 0.000000 0.000000 0.038254 0.000000
# 6 0.000000 0.000000 0.000000 0.000000 0.000000 0.029896
#
#
# Mechanical properties :
#
#
# Convention : Reuss Voigt Hill
#
# Bulk Modulus (GPa) = 61.18900 67.11236 64.15068
# Shear Modulus (GPa) = 23.35207 25.81366 24.58286
#
# Velocity S-wave (km/s) = 3.62918 3.81567 3.72360
# Velocity P-wave (km/s) = 7.21616 7.56737 7.39385
#
# Compressibility (1/GPa) = 0.01634281
#
# Stress axis : x y z
#
# Youngs Moduli (GPa) = 69.21250 39.22404 46.71259
#
# Poissons Ratio (x) = 0.38466 0.16607
# Poissons Ratio (y) = 0.67874 0.42704
# Poissons Ratio (z) = 0.24606 0.35858
#
# Static dielectric constant tensor:
#      x y z
#    x 3.455930 0.000000 0.000000 
#    y 0.000000 3.245170 0.000000 
#    z 0.000000 0.000000 3.037940 
# 
# 
# High freq. dielectric constant tensor:
#      x y z
#    x 1.700720 0.000000 0.000000 
#    y 0.000000 1.687320 0.000000 
#    z 0.000000 0.000000 1.656830 
# 
# From -- ./inp_files/21342.got.cif
#   From: 2010.03.12/outbox.cif.g09.slc.cpg/sg38_11_cif.got.tgz:21342.got - 2010.04.14 02:38:36.
