data_PCOD8178903
_publ_section_title
;
Structure prediction by ZEFSAII (Michael W. Deem and Ramdas Pophale) SiO2 
 PCOD8178903
Probable space group: A M M 2
;
_chemical_formula_sum "Si O2"
_cell_formula_units_Z 56
_cell_length_a 9.051481
_cell_length_b 19.671459
_cell_length_c 15.353622
_cell_angle_alpha 90.000000
_cell_angle_beta 90.000000
_cell_angle_gamma 90.000000
_cell_volume 2733.802022
_symmetry_space_group_name_H-M "A M M 2"
_symmetry_group_IT_number 38
_symmetry_cell_setting 'orthorhombic'
loop_
_space_group_symop_operation_xyz
x,y,z
-x,-y,z
-x,y,z
x,-y,z
x,1/2+y,1/2+z
-x,1/2-y,1/2+z
-x,1/2+y,1/2+z
x,1/2-y,1/2+z
loop_
_atom_site_type_symbol
_atom_site_label
_atom_site_fract_x
_atom_site_fract_y
_atom_site_fract_z
Si Si1 0.175649 0.289245 0.559150
Si Si2 0.326600 0.422070 0.503524
Si Si3 0.333058 0.580429 0.989769
Si Si4 0.335985 0.604225 0.306727
Si Si5 0.841529 0.925157 0.649431
Si Si6 0.667182 0.754380 0.234326
Si Si7 0.173865 0.693030 0.897997
O O1 0.235634 0.366996 0.559358
O O2 0.245200 0.252012 0.643183
O O3 0.224027 0.248513 0.471277
O O4 0.000000 0.290346 0.568464
O O5 0.500000 0.409496 0.518551
O O6 0.284341 0.500000 0.529139
O O7 0.281618 0.407839 0.404185
O O8 0.500000 0.606466 0.977327
O O9 0.323802 0.500000 0.975430
O O10 0.281390 0.606509 0.085692
O O11 0.223168 0.617258 0.923792
O O12 0.500000 0.573000 0.295261
O O13 0.219021 0.566396 0.246496
O O14 0.334142 0.681652 0.278909
O O15 0.000000 0.885043 0.647065
O O16 0.872885 0.000000 0.613126
O O17 0.500000 0.780891 0.218943
O O18 0.750832 0.800018 0.304373
O O19 0.000000 0.696404 0.885512
#
# Coordination Sequence:
#
# PCOD8178903 Si02
#       7
#     8   8   8   8   8   8   8
#     4  11  24  41  62  91 128 167 208 258 314 376
#     4  10  21  39  63  90 123 164 212 264 316 375
#     4  10  21  37  58  84 116 156 200 247 301 363
#     4  10  20  35  57  86 117 154 198 250 309 369
#     4  10  20  32  49  78 116 155 193 236 291 355
#     4  11  23  39  63  90 119 158 206 257 307 368
#     4  11  23  40  63  91 123 159 199 252 311 369
#
# _framework density 20.484292
#
# number of rings (size 3 to 8) (size 9 to 14) (size 15 to 20)
#    0.000    1.571    1.429    3.429    0.000    8.286 
#    0.000    0.714    0.000    4.286    0.000    0.000 
#    0.000    0.000    0.000    0.000    0.000    0.000 
#
# Total GULP energy -347048.397263 kJ/mol
# GULP energy per Si atom -12394.585617 kJ/mol
# Density = 2.043767 g / cm^3
# Si number density = 20.484292 Si / 1000 Ang^3
#
#
#
# Elastic Constant Matrix: (Units=GPa)
#
#
# Indices 1 2 3 4 5 6 
#
# 1 98.3951 26.3787 32.1969 0.0000 0.0000 0.0000
# 2 26.3787 66.2218 6.1376 0.0000 0.0000 0.0000
# 3 32.1969 6.1376 69.0723 0.0000 0.0000 0.0000
# 4 0.0000 0.0000 0.0000 33.1078 0.0000 0.0000
# 5 0.0000 0.0000 0.0000 0.0000 32.2558 0.0000
# 6 0.0000 0.0000 0.0000 0.0000 0.0000 28.9670
#
#
#
# Elastic Compliance Matrix: (Units=1/GPa)
#
#
# Indices 1 2 3 4 5 6 
#
# 1 0.013339 -0.004777 -0.005794 0.000000 0.000000 0.000000
# 2 -0.004777 0.016937 0.000722 0.000000 0.000000 0.000000
# 3 -0.005794 0.000722 0.017114 0.000000 0.000000 0.000000
# 4 0.000000 0.000000 0.000000 0.030204 0.000000 0.000000
# 5 0.000000 0.000000 0.000000 0.000000 0.031002 0.000000
# 6 0.000000 0.000000 0.000000 0.000000 0.000000 0.034522
#
#
# Mechanical properties :
#
#
# Convention : Reuss Voigt Hill
#
# Bulk Modulus (GPa) = 36.11024 40.34615 38.22820
# Shear Modulus (GPa) = 29.06185 30.13117 29.59651
#
# Velocity S-wave (km/s) = 3.77070 3.83944 3.80523
# Velocity P-wave (km/s) = 6.05179 6.27647 6.16515
#
# Compressibility (1/GPa) = 0.02769297
#
# Stress axis : x y z
#
# Youngs Moduli (GPa) = 74.96565 59.04364 58.43162
#
# Poissons Ratio (x) = 0.28203 0.33852
# Poissons Ratio (y) = 0.35809 -0.04217
# Poissons Ratio (z) = 0.43431 -0.04261
#
# Static dielectric constant tensor:
#      x y z
#    x 3.949490 0.000000 0.000000 
#    y 0.000000 3.634120 0.000000 
#    z 0.000000 0.000000 3.640840 
# 
# 
# High freq. dielectric constant tensor:
#      x y z
#    x 1.809620 0.000000 0.000000 
#    y 0.000000 1.796990 0.000000 
#    z 0.000000 0.000000 1.786280 
# 
# From -- ./inp_files/12368.got.cif
#   From: 2010.03.12/outbox.cif.g09.slc.cpg/sg38_7_cif.got.tgz:12368.got - 2010.04.14 02:38:36.
