data_PCOD8178900
_publ_section_title
;
Structure prediction by ZEFSAII (Michael W. Deem and Ramdas Pophale) SiO2 
 PCOD8178900
Probable space group: A M M 2
;
_chemical_formula_sum "Si O2"
_cell_formula_units_Z 48
_cell_length_a 9.410389
_cell_length_b 9.206437
_cell_length_c 30.324806
_cell_angle_alpha 90.000000
_cell_angle_beta 90.000000
_cell_angle_gamma 90.000000
_cell_volume 2627.224547
_symmetry_space_group_name_H-M "A M M 2"
_symmetry_group_IT_number 38
_symmetry_cell_setting 'orthorhombic'
loop_
_space_group_symop_operation_xyz
x,y,z
-x,-y,z
-x,y,z
x,-y,z
x,1/2+y,1/2+z
-x,1/2-y,1/2+z
-x,1/2+y,1/2+z
x,1/2-y,1/2+z
loop_
_atom_site_type_symbol
_atom_site_label
_atom_site_fract_x
_atom_site_fract_y
_atom_site_fract_z
Si Si1 0.662652 0.166898 0.565310
Si Si2 0.835547 0.328892 0.739514
Si Si3 0.666262 0.168201 0.814162
Si Si4 0.342818 0.172475 0.912883
Si Si5 0.160851 0.672473 0.493793
Si Si6 0.662879 0.667462 0.167273
O O1 0.500000 0.208865 0.555438
O O2 0.763822 0.268616 0.537158
O O3 0.698386 0.194387 0.616279
O O4 0.690610 0.000000 0.552875
O O5 0.814583 0.500000 0.739603
O O6 0.759089 0.265141 0.782135
O O7 0.767334 0.267070 0.695096
O O8 0.000000 0.284174 0.740768
O O9 0.500000 0.193705 0.804797
O O10 0.705589 0.218615 0.863846
O O11 0.704981 0.000000 0.806684
O O12 0.500000 0.234964 0.923024
O O13 0.348576 0.000000 0.914731
O O14 0.235502 0.234332 0.949567
O O15 0.169158 0.500000 0.495193
O O16 0.000000 0.728602 0.493155
O O17 0.500000 0.709822 0.177500
O O18 0.688191 0.500000 0.180025
#
# Coordination Sequence:
#
# PCOD8178900 Si02
#       6
#     8   8   8   8   8   8
#     4   9  19  36  56  77 101 131 170 214 256 300
#     4  11  24  37  49  73 109 141 168 203 250 305
#     4   9  18  34  57  81 101 127 170 218 257 298
#     4   8  15  30  52  76 101 131 170 214 254 294
#     4  10  20  32  49  77 110 140 170 206 250 301
#     4   9  19  37  59  79  98 126 170 218 257 299
#
# _framework density 18.270232
#
# number of rings (size 3 to 8) (size 9 to 14) (size 15 to 20)
#    0.000    2.667    0.000    3.500    0.000    7.333 
#    0.000    7.500    0.000    1.000    0.000    0.000 
#    0.000    0.000    0.000    0.000    0.000    0.000 
#
# Total GULP energy -297596.488591 kJ/mol
# GULP energy per Si atom -12399.853691 kJ/mol
# Density = 1.822865 g / cm^3
# Si number density = 18.270232 Si / 1000 Ang^3
#
#
#
# Elastic Constant Matrix: (Units=GPa)
#
#
# Indices 1 2 3 4 5 6 
#
# 1 126.6005 49.3745 82.5191 0.0000 0.0000 0.0000
# 2 49.3745 47.8210 42.7344 0.0000 0.0000 0.0000
# 3 82.5191 42.7344 124.8642 0.0000 0.0000 0.0000
# 4 0.0000 0.0000 0.0000 29.0400 0.0000 0.0000
# 5 0.0000 0.0000 0.0000 0.0000 5.9620 0.0000
# 6 0.0000 0.0000 0.0000 0.0000 0.0000 29.3106
#
#
#
# Elastic Compliance Matrix: (Units=1/GPa)
#
#
# Indices 1 2 3 4 5 6 
#
# 1 0.017061 -0.010861 -0.007558 0.000000 0.000000 0.000000
# 2 -0.010861 0.037039 -0.005499 0.000000 0.000000 0.000000
# 3 -0.007558 -0.005499 0.014885 0.000000 0.000000 0.000000
# 4 0.000000 0.000000 0.000000 0.034435 0.000000 0.000000
# 5 0.000000 0.000000 0.000000 0.000000 0.167728 0.000000
# 6 0.000000 0.000000 0.000000 0.000000 0.000000 0.034117
#
#
# Mechanical properties :
#
#
# Convention : Reuss Voigt Hill
#
# Bulk Modulus (GPa) = 47.28141 72.06019 59.67080
# Shear Modulus (GPa) = 13.88302 21.17306 17.52804
#
# Velocity S-wave (km/s) = 2.75957 3.40793 3.10074
# Velocity P-wave (km/s) = 6.00739 7.41702 6.74911
#
# Compressibility (1/GPa) = 0.02114996
#
# Stress axis : x y z
#
# Youngs Moduli (GPa) = 58.61275 26.99841 67.17989
#
# Poissons Ratio (x) = 0.29324 0.50774
# Poissons Ratio (y) = 0.63661 0.36940
# Poissons Ratio (z) = 0.44299 0.14845
#
# Static dielectric constant tensor:
#      x y z
#    x 3.510750 0.000000 0.000000 
#    y 0.000000 3.098260 0.000000 
#    z 0.000000 0.000000 3.496010 
# 
# 
# High freq. dielectric constant tensor:
#      x y z
#    x 1.708110 0.000000 0.000000 
#    y 0.000000 1.683250 0.000000 
#    z 0.000000 0.000000 1.723190 
# 
# From -- ./inp_files/24276.got.cif
#   From: 2010.03.12/outbox.cif.g09.slc.cpg/sg38_13_cif.got.tgz:24276.got - 2010.04.14 02:38:36.
