data_PCOD8178725
_publ_section_title
;
Structure prediction by ZEFSAII (Michael W. Deem and Ramdas Pophale) SiO2 
 PCOD8178725
Probable space group: A M M 2
;
_chemical_formula_sum "Si O2"
_cell_formula_units_Z 64
_cell_length_a 15.173221
_cell_length_b 18.362040
_cell_length_c 11.560761
_cell_angle_alpha 90.000000
_cell_angle_beta 90.000000
_cell_angle_gamma 90.000000
_cell_volume 3220.958546
_symmetry_space_group_name_H-M "A M M 2"
_symmetry_group_IT_number 38
_symmetry_cell_setting 'orthorhombic'
loop_
_space_group_symop_operation_xyz
x,y,z
-x,-y,z
-x,y,z
x,-y,z
x,1/2+y,1/2+z
-x,1/2-y,1/2+z
-x,1/2+y,1/2+z
x,1/2-y,1/2+z
loop_
_atom_site_type_symbol
_atom_site_label
_atom_site_fract_x
_atom_site_fract_y
_atom_site_fract_z
Si Si1 0.347981 0.082806 0.977730
Si Si2 0.244367 0.582894 0.068780
Si Si3 0.243883 0.330896 0.835662
Si Si4 0.402035 0.417219 0.727626
Si Si5 0.403282 0.586322 0.225118
Si Si6 0.098004 0.869485 0.734040
Si Si7 0.804056 0.818731 0.939462
Si Si8 0.097700 0.796766 0.165736
O O1 0.392119 0.110973 0.858580
O O2 0.266429 0.134046 0.008734
O O3 0.315951 0.000000 0.961000
O O4 0.411132 0.089868 0.088548
O O5 0.266653 0.500000 0.038309
O O6 0.326134 0.618334 0.142119
O O7 0.154708 0.586640 0.141176
O O8 0.226552 0.624997 0.951634
O O9 0.336170 0.357554 0.781180
O O10 0.245264 0.245434 0.868091
O O11 0.164322 0.344671 0.744456
O O12 0.500000 0.402724 0.778249
O O13 0.371307 0.500000 0.759554
O O14 0.500000 0.613748 0.182937
O O15 0.398589 0.500000 0.218915
O O16 0.145390 0.876229 0.857623
O O17 0.092980 0.784129 0.712377
O O18 0.000000 0.903687 0.736297
O O19 0.871973 0.788169 0.033357
O O20 0.000000 0.832485 0.171255
#
# Coordination Sequence:
#
# PCOD8178725 Si02
#       8
#     8   8   8   8   8   8   8   8
#     4  10  19  35  63  89 115 154 201 248 295 348
#     4  11  22  37  57  85 121 157 193 238 293 356
#     4  11  23  38  61  88 121 157 201 247 293 360
#     4  10  21  39  63  88 119 163 208 248 297 357
#     4   9  18  34  58  86 113 148 195 241 289 347
#     4  10  21  36  57  84 113 151 195 237 293 359
#     4  11  20  37  64  86 118 150 195 249 302 350
#     4  10  21  39  63  87 113 153 202 249 295 354
#
# _framework density 19.869861
#
# number of rings (size 3 to 8) (size 9 to 14) (size 15 to 20)
#    0.000    1.750    3.750    1.125    0.000    3.250 
#    0.000    2.500    0.000    3.750    0.000    0.000 
#    0.000    0.000    0.000    0.000    0.000    0.000 
#
# Total GULP energy -396654.067074 kJ/mol
# GULP energy per Si atom -12395.439596 kJ/mol
# Density = 1.982464 g / cm^3
# Si number density = 19.869861 Si / 1000 Ang^3
#
#
#
# Elastic Constant Matrix: (Units=GPa)
#
#
# Indices 1 2 3 4 5 6 
#
# 1 140.7102 35.8405 34.7535 0.0000 0.0000 0.0000
# 2 35.8405 42.2166 19.6727 0.0000 0.0000 0.0000
# 3 34.7535 19.6727 92.5883 0.0000 0.0000 0.0000
# 4 0.0000 0.0000 0.0000 27.4745 0.0000 0.0000
# 5 0.0000 0.0000 0.0000 0.0000 23.9577 0.0000
# 6 0.0000 0.0000 0.0000 0.0000 0.0000 31.0231
#
#
#
# Elastic Compliance Matrix: (Units=1/GPa)
#
#
# Indices 1 2 3 4 5 6 
#
# 1 0.009401 -0.007033 -0.002034 0.000000 0.000000 0.000000
# 2 -0.007033 0.031552 -0.004064 0.000000 0.000000 0.000000
# 3 -0.002034 -0.004064 0.012428 0.000000 0.000000 0.000000
# 4 0.000000 0.000000 0.000000 0.036397 0.000000 0.000000
# 5 0.000000 0.000000 0.000000 0.000000 0.041740 0.000000
# 6 0.000000 0.000000 0.000000 0.000000 0.000000 0.032234
#
#
# Mechanical properties :
#
#
# Convention : Reuss Voigt Hill
#
# Bulk Modulus (GPa) = 36.87648 50.67205 43.77427
# Shear Modulus (GPa) = 25.11886 28.84094 26.97990
#
# Velocity S-wave (km/s) = 3.55937 3.81398 3.68887
# Velocity P-wave (km/s) = 5.95747 6.70467 6.34208
#
# Compressibility (1/GPa) = 0.02711756
#
# Stress axis : x y z
#
# Youngs Moduli (GPa) = 106.37636 31.69379 80.46600
#
# Poissons Ratio (x) = 0.22290 0.16369
# Poissons Ratio (y) = 0.74813 0.32703
# Poissons Ratio (z) = 0.21640 0.12881
#
# Static dielectric constant tensor:
#      x y z
#    x 3.885060 0.000000 0.000000 
#    y 0.000000 3.293430 0.000000 
#    z 0.000000 0.000000 3.678000 
# 
# 
# High freq. dielectric constant tensor:
#      x y z
#    x 1.779560 0.000000 0.000000 
#    y 0.000000 1.741860 0.000000 
#    z 0.000000 0.000000 1.783030 
# 
# From -- ./inp_files/10245.got.cif
#   From: 2010.03.12/outbox.cif.g09.slc.cpg/sg38_6_cif.got.tgz:10245.got - 2010.04.14 02:38:36.
