data_PCOD8178205
_publ_section_title
;
Structure prediction by ZEFSAII (Michael W. Deem and Ramdas Pophale) SiO2 
 PCOD8178205
Probable space group: A M M 2
;
_chemical_formula_sum "Si O2"
_cell_formula_units_Z 40
_cell_length_a 18.871845
_cell_length_b 22.412153
_cell_length_c 5.272961
_cell_angle_alpha 90.000000
_cell_angle_beta 90.000000
_cell_angle_gamma 90.000000
_cell_volume 2230.244611
_symmetry_space_group_name_H-M "A M M 2"
_symmetry_group_IT_number 38
_symmetry_cell_setting 'orthorhombic'
loop_
_space_group_symop_operation_xyz
x,y,z
-x,-y,z
-x,y,z
x,-y,z
x,1/2+y,1/2+z
-x,1/2-y,1/2+z
-x,1/2+y,1/2+z
x,1/2-y,1/2+z
loop_
_atom_site_type_symbol
_atom_site_label
_atom_site_fract_x
_atom_site_fract_y
_atom_site_fract_z
Si Si1 0.129402 0.366870 0.044310
Si Si2 0.283674 0.181750 0.541915
Si Si3 0.917601 0.070268 0.052102
Si Si4 0.000000 0.783900 0.572436
Si Si5 0.343818 0.682815 0.541953
Si Si6 0.500000 0.785818 0.999075
O O1 0.120650 0.401191 0.308892
O O2 0.068722 0.319856 0.999329
O O3 0.199806 0.326689 0.043305
O O4 0.124954 0.412070 0.806711
O O5 0.310685 0.250278 0.539025
O O6 0.315791 0.149505 0.790706
O O7 0.315126 0.149498 0.291999
O O8 0.000000 0.090700 0.064967
O O9 0.912903 0.000000 0.020378
O O10 0.000000 0.729294 0.373143
O O11 0.428649 0.677641 0.549004
O O12 0.500000 0.767157 0.704904
#
# Coordination Sequence:
#
# PCOD8178205 Si02
#       6
#     8   8   8   4   8   4
#     4  12  23  39  54  78 107 139 182 228 268 329
#     4  10  20  30  47  66 104 134 177 203 254 308
#     4  11  22  41  62  79  96 126 180 248 298 326
#     4  12  26  36  49  74 107 148 182 210 248 298
#     4  10  19  32  45  73  98 154 177 209 248 293
#     4  12  16  30  48  68 102 140 198 224 232 286
#
# _framework density 17.935251000000001
#
# number of rings (size 3 to 8) (size 9 to 14) (size 15 to 20)
#    0.000    1.000    6.000    3.000    5.600    1.600 
#    0.000    0.000    0.000    0.000    0.000    0.000 
#    0.000    0.000    0.000  104.400    0.000    0.000 
#
# Total GULP energy -247834.162390 kJ/mol
# GULP energy per Si atom -12391.708119 kJ/mol
# Density = 1.789443 g / cm^3
# Si number density = 17.935251 Si / 1000 Ang^3
#
#
#
# Elastic Constant Matrix: (Units=GPa)
#
#
# Indices 1 2 3 4 5 6 
#
# 1 165.4707 23.3233 43.4824 0.0000 0.0000 0.0000
# 2 23.3233 33.7862 10.9200 0.0000 0.0000 0.0000
# 3 43.4824 10.9200 162.7246 0.0000 0.0000 0.0000
# 4 0.0000 0.0000 0.0000 23.2174 0.0000 0.0000
# 5 0.0000 0.0000 0.0000 0.0000 33.2523 0.0000
# 6 0.0000 0.0000 0.0000 0.0000 0.0000 35.9449
#
#
#
# Elastic Compliance Matrix: (Units=1/GPa)
#
#
# Indices 1 2 3 4 5 6 
#
# 1 0.007079 -0.004370 -0.001598 0.000000 0.000000 0.000000
# 2 -0.004370 0.032952 -0.001043 0.000000 0.000000 0.000000
# 3 -0.001598 -0.001043 0.006643 0.000000 0.000000 0.000000
# 4 0.000000 0.000000 0.000000 0.043071 0.000000 0.000000
# 5 0.000000 0.000000 0.000000 0.000000 0.030073 0.000000
# 6 0.000000 0.000000 0.000000 0.000000 0.000000 0.027820
#
#
# Mechanical properties :
#
#
# Convention : Reuss Voigt Hill
#
# Bulk Modulus (GPa) = 30.62849 57.49256 44.06052
# Shear Modulus (GPa) = 28.97769 37.43330 33.20550
#
# Velocity S-wave (km/s) = 4.02392 4.57347 4.30747
# Velocity P-wave (km/s) = 6.22122 7.74688 7.02558
#
# Compressibility (1/GPa) = 0.03264935
#
# Stress axis : x y z
#
# Youngs Moduli (GPa) = 141.25449 30.34704 150.54564
#
# Poissons Ratio (x) = 0.13263 0.24064
# Poissons Ratio (y) = 0.61734 0.15709
# Poissons Ratio (z) = 0.22579 0.03167
#
# Static dielectric constant tensor:
#      x y z
#    x 3.351270 0.000000 0.000000 
#    y 0.000000 2.777270 0.000000 
#    z 0.000000 0.000000 4.792610 
# 
# 
# High freq. dielectric constant tensor:
#      x y z
#    x 1.699970 0.000000 0.000000 
#    y 0.000000 1.619420 0.000000 
#    z 0.000000 0.000000 1.738050 
# 
# From -- ./inp_files/1596.got.cif
#   From: 2010.03.12/outbox.cif.g09.slc.cpg/sg38_1_cif.got.tgz:1596.got - 2010.04.14 02:38:36.
