data_PCOD8178651
_publ_section_title
;
Structure prediction by ZEFSAII (Michael W. Deem and Ramdas Pophale) SiO2 
 PCOD8178651
Probable space group: A M M 2
;
_chemical_formula_sum "Si O2"
_cell_formula_units_Z 64
_cell_length_a 9.055146
_cell_length_b 25.031023
_cell_length_c 15.007254
_cell_angle_alpha 90.000000
_cell_angle_beta 90.000000
_cell_angle_gamma 90.000000
_cell_volume 3401.537705
_symmetry_space_group_name_H-M "A M M 2"
_symmetry_group_IT_number 38
_symmetry_cell_setting 'orthorhombic'
loop_
_space_group_symop_operation_xyz
x,y,z
-x,-y,z
-x,y,z
x,-y,z
x,1/2+y,1/2+z
-x,1/2-y,1/2+z
-x,1/2+y,1/2+z
x,1/2-y,1/2+z
loop_
_atom_site_type_symbol
_atom_site_label
_atom_site_fract_x
_atom_site_fract_y
_atom_site_fract_z
Si Si1 0.173886 0.387820 0.779120
Si Si2 0.331709 0.758367 0.501977
Si Si3 0.825536 0.058796 0.096100
Si Si4 0.327158 0.862420 0.607583
Si Si5 0.825705 0.828824 0.773098
Si Si6 0.329399 0.720491 0.797634
Si Si7 0.670566 0.062473 0.447655
Si Si8 0.826085 0.652450 0.473652
O O1 0.215426 0.425736 0.696795
O O2 0.252372 0.331857 0.758877
O O3 0.230273 0.415939 0.868101
O O4 0.000000 0.377982 0.787682
O O5 0.500000 0.741946 0.518654
O O6 0.280746 0.805199 0.567390
O O7 0.309511 0.781179 0.403363
O O8 0.235239 0.705977 0.519399
O O9 0.000000 0.057263 0.084587
O O10 0.758520 0.000000 0.076480
O O11 0.759618 0.101115 0.025076
O O12 0.500000 0.865037 0.629141
O O13 0.235694 0.870019 0.699069
O O14 0.281604 0.909122 0.539448
O O15 0.749568 0.771862 0.755873
O O16 0.779729 0.851307 0.870092
O O17 0.000000 0.822391 0.764711
O O18 0.500000 0.721687 0.768648
O O19 0.500000 0.075997 0.425727
O O20 0.697570 0.000000 0.460585
O O21 0.000000 0.655228 0.484955
#
# Coordination Sequence:
#
# PCOD8178651 Si02
#       8
#     8   8   8   8   8   8   8   8
#     4  11  21  33  54  85 116 145 181 229 279 334
#     4   9  18  33  53  77 106 140 179 219 264 323
#     4   9  19  36  56  78 106 142 182 222 269 326
#     4  10  20  36  55  80 110 147 189 226 274 335
#     4  10  21  35  53  82 114 144 183 232 282 330
#     4  10  19  35  55  78 112 151 185 220 267 330
#     4  10  21  39  60  80 109 150 193 233 277 338
#     4   9  19  36  56  78 106 140 182 226 272 324
#
# _framework density 18.815020000000001
#
# number of rings (size 3 to 8) (size 9 to 14) (size 15 to 20)
#    0.000    2.250    1.250    1.500    1.750    2.750 
#    0.000    1.250    0.000    2.625    0.000    0.000 
#    0.000    0.000    0.000    0.000    0.000    0.000 
#
# Total GULP energy -396848.027494 kJ/mol
# GULP energy per Si atom -12401.500859 kJ/mol
# Density = 1.877220 g / cm^3
# Si number density = 18.815020 Si / 1000 Ang^3
#
#
#
# Elastic Constant Matrix: (Units=GPa)
#
#
# Indices 1 2 3 4 5 6 
#
# 1 61.7922 41.9194 40.0712 0.0000 0.0000 0.0000
# 2 41.9194 125.3515 54.9746 0.0000 0.0000 0.0000
# 3 40.0712 54.9746 89.1458 0.0000 0.0000 0.0000
# 4 0.0000 0.0000 0.0000 28.0675 0.0000 0.0000
# 5 0.0000 0.0000 0.0000 0.0000 26.1583 0.0000
# 6 0.0000 0.0000 0.0000 0.0000 0.0000 23.8702
#
#
#
# Elastic Compliance Matrix: (Units=1/GPa)
#
#
# Indices 1 2 3 4 5 6 
#
# 1 0.024666 -0.004641 -0.008225 0.000000 0.000000 0.000000
# 2 -0.004641 0.011808 -0.005196 0.000000 0.000000 0.000000
# 3 -0.008225 -0.005196 0.018119 0.000000 0.000000 0.000000
# 4 0.000000 0.000000 0.000000 0.035628 0.000000 0.000000
# 5 0.000000 0.000000 0.000000 0.000000 0.038229 0.000000
# 6 0.000000 0.000000 0.000000 0.000000 0.000000 0.041893
#
#
# Mechanical properties :
#
#
# Convention : Reuss Voigt Hill
#
# Bulk Modulus (GPa) = 54.14563 61.13553 57.64058
# Shear Modulus (GPa) = 23.51571 24.90749 24.21160
#
# Velocity S-wave (km/s) = 3.53914 3.64237 3.59112
# Velocity P-wave (km/s) = 6.74841 7.08891 6.92075
#
# Compressibility (1/GPa) = 0.01846871
#
# Stress axis : x y z
#
# Youngs Moduli (GPa) = 40.54203 84.68585 55.19114
#
# Poissons Ratio (x) = 0.39306 0.45395
# Poissons Ratio (y) = 0.18817 0.28676
# Poissons Ratio (z) = 0.33346 0.44000
#
# Static dielectric constant tensor:
#      x y z
#    x 3.313360 0.000000 0.000000 
#    y 0.000000 3.601430 0.000000 
#    z 0.000000 0.000000 3.532750 
# 
# 
# High freq. dielectric constant tensor:
#      x y z
#    x 1.717160 0.000000 0.000000 
#    y 0.000000 1.726030 0.000000 
#    z 0.000000 0.000000 1.735520 
# 
# From -- ./inp_files/12822.got.cif
#   From: 2010.03.12/outbox.cif.g09.slc.cpg/sg38_7_cif.got.tgz:12822.got - 2010.04.14 02:38:36.
