data_PCOD8178733
_publ_section_title
;
Structure prediction by ZEFSAII (Michael W. Deem and Ramdas Pophale) SiO2 
 PCOD8178733
Probable space group: A M M 2
;
_chemical_formula_sum "Si O2"
_cell_formula_units_Z 48
_cell_length_a 7.623260
_cell_length_b 34.466860
_cell_length_c 9.141454
_cell_angle_alpha 90.000000
_cell_angle_beta 90.000000
_cell_angle_gamma 90.000000
_cell_volume 2401.915532
_symmetry_space_group_name_H-M "A M M 2"
_symmetry_group_IT_number 38
_symmetry_cell_setting 'orthorhombic'
loop_
_space_group_symop_operation_xyz
x,y,z
-x,-y,z
-x,y,z
x,-y,z
x,1/2+y,1/2+z
-x,1/2-y,1/2+z
-x,1/2+y,1/2+z
x,1/2-y,1/2+z
loop_
_atom_site_type_symbol
_atom_site_label
_atom_site_fract_x
_atom_site_fract_y
_atom_site_fract_z
Si Si1 0.200151 0.076243 0.475840
Si Si2 0.500000 0.209430 0.990124
Si Si3 0.207671 0.426941 0.652247
Si Si4 0.500000 0.709400 0.148536
Si Si5 0.209001 0.500000 0.470845
Si Si6 0.698684 0.000000 0.637210
Si Si7 0.202908 0.650226 0.148640
Si Si8 0.798992 0.150734 0.989384
O O1 0.289286 0.071032 0.316263
O O2 0.279317 0.112826 0.563121
O O3 0.000000 0.086717 0.448088
O O4 0.209868 0.037872 0.572732
O O5 0.500000 0.217690 0.819350
O O6 0.674771 0.186130 0.036708
O O7 0.500000 0.250021 0.069264
O O8 0.281726 0.462486 0.556871
O O9 0.264042 0.386689 0.578965
O O10 0.000000 0.431338 0.657343
O O11 0.323997 0.686352 0.102680
O O12 0.290790 0.500000 0.310900
O O13 0.000000 0.500000 0.456419
O O14 0.500000 0.000000 0.584312
O O15 0.223988 0.640588 0.319374
O O16 0.000000 0.660014 0.110893
O O17 0.000000 0.162020 0.026117
#
# Coordination Sequence:
#
# PCOD8178733 Si02
#       8
#     8   4   8   4   4   4   8   8
#     4  10  20  37  59  82 109 143 185 232 284 332
#     4  10  22  38  56  85 108 153 178 226 285 332
#     4   9  18  34  59  85 108 140 184 237 285 329
#     4  10  22  38  58  81 118 139 188 228 275 340
#     4  10  19  36  58  78 106 148 193 232 276 328
#     4  12  25  36  50  78 114 152 191 228 272 324
#     4   9  19  36  60  83 110 150 186 227 280 333
#     4   9  18  36  57  82 113 146 189 229 273 338
#
# _framework density 19.984051000000001
#
# number of rings (size 3 to 8) (size 9 to 14) (size 15 to 20)
#    0.000    2.333    0.000    2.250    1.167    6.000 
#    6.000    0.833    0.000    0.000    0.000    0.000 
#    0.000    0.000    0.000    0.000    0.000    0.000 
#
# Total GULP energy -297594.818849 kJ/mol
# GULP energy per Si atom -12399.784119 kJ/mol
# Density = 1.993857 g / cm^3
# Si number density = 19.984051 Si / 1000 Ang^3
#
#
#
# Elastic Constant Matrix: (Units=GPa)
#
#
# Indices 1 2 3 4 5 6 
#
# 1 75.0327 52.8565 30.0689 0.0000 0.0000 0.0000
# 2 52.8565 194.2908 88.1689 0.0000 0.0000 0.0000
# 3 30.0689 88.1689 119.0855 0.0000 0.0000 0.0000
# 4 0.0000 0.0000 0.0000 39.9343 0.0000 0.0000
# 5 0.0000 0.0000 0.0000 0.0000 10.5698 0.0000
# 6 0.0000 0.0000 0.0000 0.0000 0.0000 9.2313
#
#
#
# Elastic Compliance Matrix: (Units=1/GPa)
#
#
# Indices 1 2 3 4 5 6 
#
# 1 0.016615 -0.003940 -0.001278 0.000000 0.000000 0.000000
# 2 -0.003940 0.008686 -0.005436 0.000000 0.000000 0.000000
# 3 -0.001278 -0.005436 0.012745 0.000000 0.000000 0.000000
# 4 0.000000 0.000000 0.000000 0.025041 0.000000 0.000000
# 5 0.000000 0.000000 0.000000 0.000000 0.094610 0.000000
# 6 0.000000 0.000000 0.000000 0.000000 0.000000 0.108327
#
#
# Mechanical properties :
#
#
# Convention : Reuss Voigt Hill
#
# Bulk Modulus (GPa) = 59.74637 81.17754 70.46196
# Shear Modulus (GPa) = 17.07008 26.43472 21.75240
#
# Velocity S-wave (km/s) = 2.92582 3.64097 3.30280
# Velocity P-wave (km/s) = 6.43240 7.64100 7.06260
#
# Compressibility (1/GPa) = 0.01673742
#
# Stress axis : x y z
#
# Youngs Moduli (GPa) = 60.18529 115.13314 78.46452
#
# Poissons Ratio (x) = 0.45364 0.10029
# Poissons Ratio (y) = 0.23714 0.42652
# Poissons Ratio (z) = 0.07692 0.62584
#
# Static dielectric constant tensor:
#      x y z
#    x 3.595080 0.000000 0.000000 
#    y 0.000000 3.549740 0.000000 
#    z 0.000000 0.000000 3.780710 
# 
# 
# High freq. dielectric constant tensor:
#      x y z
#    x 1.772700 0.000000 0.000000 
#    y 0.000000 1.775700 0.000000 
#    z 0.000000 0.000000 1.783310 
# 
# From -- ./inp_files/3863.got.cif
#   From: 2010.03.12/outbox.cif.g09.slc.cpg/sg38_2_cif.got.tgz:3863.got - 2010.04.14 02:38:36.
