data_PCOD8178322
_publ_section_title
;
Structure prediction by ZEFSAII (Michael W. Deem and Ramdas Pophale) SiO2 
 PCOD8178322
Probable space group: A M M 2
;
_chemical_formula_sum "Si O2"
_cell_formula_units_Z 64
_cell_length_a 20.833070
_cell_length_b 8.695745
_cell_length_c 18.710755
_cell_angle_alpha 90.000000
_cell_angle_beta 90.000000
_cell_angle_gamma 90.000000
_cell_volume 3389.622868
_symmetry_space_group_name_H-M "A M M 2"
_symmetry_group_IT_number 38
_symmetry_cell_setting 'orthorhombic'
loop_
_space_group_symop_operation_xyz
x,y,z
-x,-y,z
-x,y,z
x,-y,z
x,1/2+y,1/2+z
-x,1/2-y,1/2+z
-x,1/2+y,1/2+z
x,1/2-y,1/2+z
loop_
_atom_site_type_symbol
_atom_site_label
_atom_site_fract_x
_atom_site_fract_y
_atom_site_fract_z
Si Si1 0.707805 0.678338 0.511740
Si Si2 0.180127 0.179942 0.910499
Si Si3 0.294298 0.818134 0.667129
Si Si4 0.182404 0.821886 0.256976
Si Si5 0.432365 0.179118 0.673080
Si Si6 0.568335 0.324674 0.523795
Si Si7 0.926141 0.676718 0.168443
Si Si8 0.074061 0.823161 0.503462
O O1 0.722084 0.500000 0.522962
O O2 0.757934 0.742894 0.453925
O O3 0.719749 0.754796 0.588355
O O4 0.634868 0.707881 0.481086
O O5 0.175635 0.276330 0.838779
O O6 0.185691 0.000000 0.892625
O O7 0.116268 0.209378 0.956128
O O8 0.239846 0.772386 0.721954
O O9 0.363244 0.755535 0.699419
O O10 0.296840 0.000000 0.660163
O O11 0.115888 0.787103 0.217415
O O12 0.198323 0.000000 0.250074
O O13 0.500000 0.250676 0.705333
O O14 0.433194 0.206320 0.588510
O O15 0.434387 0.000000 0.689116
O O16 0.500000 0.304048 0.480191
O O17 0.571938 0.500000 0.553128
O O18 0.909614 0.500000 0.186085
O O19 0.911021 0.711781 0.086026
O O20 0.000000 0.711754 0.185861
O O21 0.000000 0.789097 0.486202
O O22 0.090673 0.000000 0.485727
#
# Coordination Sequence:
#
# PCOD8178322 Si02
#       8
#     8   8   8   8   8   8   8   8
#     4   9  18  32  51  77 105 133 170 213 256 306
#     4  11  23  37  53  74 103 139 176 215 257 302
#     4  10  19  32  53  78 105 137 172 213 260 310
#     4  12  25  38  53  74 104 141 179 219 259 303
#     4   8  14  25  43  70 101 130 163 205 253 304
#     4   8  13  23  42  69 100 130 160 200 251 303
#     4   9  19  38  63  87 110 136 167 206 253 306
#     4   9  19  37  60  84 108 133 163 202 249 303
#
# _framework density 18.881155
#
# number of rings (size 3 to 8) (size 9 to 14) (size 15 to 20)
#    0.000    2.500    0.000    3.375    0.000    5.000 
#    0.000    1.250    0.000    0.750    0.000    3.500 
#    0.000    0.000    0.000    0.000    0.000    0.000 
#
# Total GULP energy -396437.312912 kJ/mol
# GULP energy per Si atom -12388.666029 kJ/mol
# Density = 1.883818 g / cm^3
# Si number density = 18.881155 Si / 1000 Ang^3
#
#
#
# Elastic Constant Matrix: (Units=GPa)
#
#
# Indices 1 2 3 4 5 6 
#
# 1 138.7913 15.7230 51.4944 0.0000 0.0000 0.0000
# 2 15.7230 28.7685 13.7713 0.0000 0.0000 0.0000
# 3 51.4944 13.7713 68.2747 0.0000 0.0000 0.0000
# 4 0.0000 0.0000 0.0000 -25.1966 0.0000 0.0000
# 5 0.0000 0.0000 0.0000 0.0000 1.0254 0.0000
# 6 0.0000 0.0000 0.0000 0.0000 0.0000 21.9792
#
#
#
# Elastic Compliance Matrix: (Units=1/GPa)
#
#
# Indices 1 2 3 4 5 6 
#
# 1 0.010116 -0.002077 -0.007210 0.000000 0.000000 0.000000
# 2 -0.002077 0.038902 -0.006280 0.000000 0.000000 0.000000
# 3 -0.007210 -0.006280 0.021352 0.000000 0.000000 0.000000
# 4 0.000000 0.000000 0.000000 -0.039688 0.000000 0.000000
# 5 0.000000 0.000000 0.000000 0.000000 0.975275 0.000000
# 6 0.000000 0.000000 0.000000 0.000000 0.000000 0.045498
#
#
# Mechanical properties :
#
#
# Convention : Reuss Voigt Hill
#
# Bulk Modulus (GPa) = 25.48819 44.20132 34.84475
# Shear Modulus (GPa) = 4.56343 9.88465 7.22404
#
# Velocity S-wave (km/s) = 1.55633 2.29054 1.95815
# Velocity P-wave (km/s) = 4.09367 5.51874 4.85874
#
# Compressibility (1/GPa) = 0.03923385
#
# Stress axis : x y z
#
# Youngs Moduli (GPa) = 98.85732 25.70587 46.83451
#
# Poissons Ratio (x) = 0.05339 0.33770
# Poissons Ratio (y) = 0.20532 0.29413
# Poissons Ratio (z) = 0.71281 0.16144
#
# Static dielectric constant tensor:
#      x y z
#    x 4.121940 0.000000 0.000000 
#    y 0.000000 3.370020 0.000000 
#    z 0.000000 0.000000 3.066700 
# 
# 
# High freq. dielectric constant tensor:
#      x y z
#    x 1.767050 0.000000 0.000000 
#    y 0.000000 1.726120 0.000000 
#    z 0.000000 0.000000 1.684680 
# 
# From -- ./inp_files/18928.got.cif
#   From: 2010.03.12/outbox.cif.g09.slc.cpg/sg38_10_cif.got.tgz:18928.got - 2010.04.14 02:38:36.
