data_PCOD8178958
_publ_section_title
;
Structure prediction by ZEFSAII (Michael W. Deem and Ramdas Pophale) SiO2 
 PCOD8178958
Probable space group: A M M 2
;
_chemical_formula_sum "Si O2"
_cell_formula_units_Z 48
_cell_length_a 15.159041
_cell_length_b 8.932922
_cell_length_c 19.014029
_cell_angle_alpha 90.000000
_cell_angle_beta 90.000000
_cell_angle_gamma 90.000000
_cell_volume 2574.775817
_symmetry_space_group_name_H-M "A M M 2"
_symmetry_group_IT_number 38
_symmetry_cell_setting 'orthorhombic'
loop_
_space_group_symop_operation_xyz
x,y,z
-x,-y,z
-x,y,z
x,-y,z
x,1/2+y,1/2+z
-x,1/2-y,1/2+z
-x,1/2+y,1/2+z
x,1/2-y,1/2+z
loop_
_atom_site_type_symbol
_atom_site_label
_atom_site_fract_x
_atom_site_fract_y
_atom_site_fract_z
Si Si1 0.897391 0.325803 0.016850
Si Si2 0.402098 0.177947 0.013256
Si Si3 0.899290 0.172406 0.159675
Si Si4 0.758146 0.822379 0.920024
Si Si5 0.402070 0.822435 0.170425
Si Si6 0.752219 0.324101 0.769898
O O1 0.876423 0.500000 0.010862
O O2 0.867251 0.269638 0.093557
O O3 0.000000 0.290071 0.005191
O O4 0.845593 0.239638 0.956387
O O5 0.500000 0.232582 0.989703
O O6 0.328601 0.241083 0.960064
O O7 0.399639 0.000000 0.013713
O O8 0.381446 0.238244 0.091925
O O9 0.841029 0.212199 0.227154
O O10 0.000000 0.208717 0.180074
O O11 0.886523 0.000000 0.137850
O O12 0.755241 0.767712 0.840825
O O13 0.761140 0.000000 0.921926
O O14 0.500000 0.770495 0.194083
O O15 0.330688 0.761133 0.225417
O O16 0.396258 0.000000 0.168411
O O17 0.743673 0.500000 0.786199
#
# Coordination Sequence:
#
# PCOD8178958 Si02
#       6
#     8   8   8   8   8   8
#     4  10  21  37  57  79 103 133 170 214 263 312
#     4   8  15  30  52  76 101 132 173 217 258 303
#     4   9  18  34  56  78  99 128 169 214 258 307
#     4  11  22  34  51  77 108 142 177 213 256 305
#     4   8  14  27  49  73  95 126 171 217 257 301
#     4  10  20  33  49  73 106 140 172 209 256 307
#
# _framework density 18.642399000000001
#
# number of rings (size 3 to 8) (size 9 to 14) (size 15 to 20)
#    0.000    2.667    0.000    3.000    0.000    5.667 
#    0.000    1.667    0.000    1.500    0.000    4.667 
#    0.000    0.000    0.000    0.000    0.000    0.000 
#
# Total GULP energy -297578.446378 kJ/mol
# GULP energy per Si atom -12399.101932 kJ/mol
# Density = 1.859997 g / cm^3
# Si number density = 18.642399 Si / 1000 Ang^3
#
#
#
# Elastic Constant Matrix: (Units=GPa)
#
#
# Indices 1 2 3 4 5 6 
#
# 1 120.8473 40.4431 85.7872 0.0000 0.0000 0.0000
# 2 40.4431 50.4886 46.6969 0.0000 0.0000 0.0000
# 3 85.7872 46.6969 147.9509 0.0000 0.0000 0.0000
# 4 0.0000 0.0000 0.0000 31.5931 0.0000 0.0000
# 5 0.0000 0.0000 0.0000 0.0000 23.5980 0.0000
# 6 0.0000 0.0000 0.0000 0.0000 0.0000 15.7227
#
#
#
# Elastic Compliance Matrix: (Units=1/GPa)
#
#
# Indices 1 2 3 4 5 6 
#
# 1 0.015127 -0.005656 -0.006986 0.000000 0.000000 0.000000
# 2 -0.005656 0.030087 -0.006217 0.000000 0.000000 0.000000
# 3 -0.006986 -0.006217 0.012772 0.000000 0.000000 0.000000
# 4 0.000000 0.000000 0.000000 0.031652 0.000000 0.000000
# 5 0.000000 0.000000 0.000000 0.000000 0.042377 0.000000
# 6 0.000000 0.000000 0.000000 0.000000 0.000000 0.063602
#
#
# Mechanical properties :
#
#
# Convention : Reuss Voigt Hill
#
# Bulk Modulus (GPa) = 49.33751 73.90459 61.62105
# Shear Modulus (GPa) = 20.82551 23.94006 22.38279
#
# Velocity S-wave (km/s) = 3.34594 3.58742 3.46878
# Velocity P-wave (km/s) = 6.43815 7.54247 7.01208
#
# Compressibility (1/GPa) = 0.02026855
#
# Stress axis : x y z
#
# Youngs Moduli (GPa) = 66.10723 33.23721 78.29698
#
# Poissons Ratio (x) = 0.18798 0.54698
# Poissons Ratio (y) = 0.37389 0.48675
# Poissons Ratio (z) = 0.46183 0.20663
#
# Static dielectric constant tensor:
#      x y z
#    x 3.820340 0.000000 0.000000 
#    y 0.000000 3.087850 0.000000 
#    z 0.000000 0.000000 3.435340 
# 
# 
# High freq. dielectric constant tensor:
#      x y z
#    x 1.739500 0.000000 0.000000 
#    y 0.000000 1.688080 0.000000 
#    z 0.000000 0.000000 1.721400 
# 
# From -- ./inp_files/18154.got.cif
#   From: 2010.03.12/outbox.cif.g09.slc.cpg/sg38_10_cif.got.tgz:18154.got - 2010.04.14 02:38:36.
