data_PCOD8178248
_publ_section_title
;
Structure prediction by ZEFSAII (Michael W. Deem and Ramdas Pophale) SiO2 
 PCOD8178248
Probable space group: A M M 2
;
_chemical_formula_sum "Si O2"
_cell_formula_units_Z 64
_cell_length_a 20.007248
_cell_length_b 20.034654
_cell_length_c 8.611094
_cell_angle_alpha 90.000000
_cell_angle_beta 90.000000
_cell_angle_gamma 90.000000
_cell_volume 3451.656204
_symmetry_space_group_name_H-M "A M M 2"
_symmetry_group_IT_number 38
_symmetry_cell_setting 'orthorhombic'
loop_
_space_group_symop_operation_xyz
x,y,z
-x,-y,z
-x,y,z
x,-y,z
x,1/2+y,1/2+z
-x,1/2-y,1/2+z
-x,1/2+y,1/2+z
x,1/2-y,1/2+z
loop_
_atom_site_type_symbol
_atom_site_label
_atom_site_fract_x
_atom_site_fract_y
_atom_site_fract_z
Si Si1 0.077431 0.076505 0.948310
Si Si2 0.574396 0.574473 0.811646
Si Si3 0.922569 0.923495 0.305776
Si Si4 0.317497 0.178182 0.311422
Si Si5 0.175520 0.320563 0.308354
Si Si6 0.574395 0.925527 0.942440
Si Si7 0.824480 0.179437 0.445732
Si Si8 0.317497 0.321818 0.442664
O O1 0.119808 0.123851 0.837340
O O2 0.000000 0.089622 0.912805
O O3 0.095890 0.000000 0.911242
O O4 0.093711 0.093016 0.127043
O O5 0.500000 0.595280 0.868178
O O6 0.591460 0.500000 0.872081
O O7 0.628800 0.625721 0.879300
O O8 0.576794 0.575232 0.627043
O O9 0.880192 0.876149 0.416747
O O10 0.000000 0.910378 0.341282
O O11 0.904110 0.000000 0.342844
O O12 0.244341 0.155923 0.367119
O O13 0.337281 0.250000 0.377043
O O14 0.318441 0.180477 0.127043
O O15 0.151000 0.250000 0.377043
O O16 0.244341 0.344077 0.386968
O O17 0.187839 0.311369 0.127043
O O18 0.500000 0.904720 0.885908
O O19 0.628800 0.874279 0.874786
O O20 0.591460 0.000000 0.882005
#
# Coordination Sequence:
#
# PCOD8178248 Si02
#       8
#     8   8   8   8   8   8   8   8
#     4   9  19  37  59  81 106 136 170 209 254 306
#     4   8  15  29  49  73  99 128 166 209 250 297
#     4   9  19  37  59  81 106 136 170 209 254 306
#     4  10  19  32  51  74 101 133 168 209 256 305
#     4  11  22  36  54  76 105 139 175 216 258 304
#     4   8  15  29  49  73  99 128 166 209 250 297
#     4  11  22  36  54  76 105 139 175 216 258 304
#     4  10  19  32  51  74 101 133 168 209 256 305
#
# _framework density 18.541823000000001
#
# number of rings (size 3 to 8) (size 9 to 14) (size 15 to 20)
#    0.000    2.500    0.000    6.000    0.000    3.000 
#    0.000    3.750    0.000    4.500    0.000    7.000 
#    0.000    0.000    0.000    0.000    0.000    0.000 
#
# Total GULP energy -396792.290932 kJ/mol
# GULP energy per Si atom -12399.759092 kJ/mol
# Density = 1.849962 g / cm^3
# Si number density = 18.541823 Si / 1000 Ang^3
#
#
#
# Elastic Constant Matrix: (Units=GPa)
#
#
# Indices 1 2 3 4 5 6 
#
# 1 111.0761 87.4680 29.6288 0.0000 0.0000 0.0000
# 2 87.4680 117.3168 31.9216 0.0000 0.0000 0.0000
# 3 29.6288 31.9216 69.9916 0.0000 0.0000 0.0000
# 4 0.0000 0.0000 0.0000 28.5521 0.0000 0.0000
# 5 0.0000 0.0000 0.0000 0.0000 21.4748 0.0000
# 6 0.0000 0.0000 0.0000 0.0000 0.0000 45.9005
#
#
#
# Elastic Compliance Matrix: (Units=1/GPa)
#
#
# Indices 1 2 3 4 5 6 
#
# 1 0.022071 -0.015885 -0.002099 0.000000 0.000000 0.000000
# 2 -0.015885 0.021164 -0.002928 0.000000 0.000000 0.000000
# 3 -0.002099 -0.002928 0.016511 0.000000 0.000000 0.000000
# 4 0.000000 0.000000 0.000000 0.035024 0.000000 0.000000
# 5 0.000000 0.000000 0.000000 0.000000 0.046566 0.000000
# 6 0.000000 0.000000 0.000000 0.000000 0.000000 0.021786
#
#
# Mechanical properties :
#
#
# Convention : Reuss Voigt Hill
#
# Bulk Modulus (GPa) = 55.79203 66.26904 61.03054
# Shear Modulus (GPa) = 23.70582 29.14323 26.42452
#
# Velocity S-wave (km/s) = 3.57950 3.96884 3.77919
# Velocity P-wave (km/s) = 6.87306 7.53791 7.21315
#
# Compressibility (1/GPa) = 0.01792371
#
# Stress axis : x y z
#
# Youngs Moduli (GPa) = 45.30828 47.25078 60.56500
#
# Poissons Ratio (x) = 0.75056 0.12710
# Poissons Ratio (y) = 0.71970 0.17734
# Poissons Ratio (z) = 0.09508 0.13835
#
# Static dielectric constant tensor:
#      x y z
#    x 3.530450 0.000000 0.000000 
#    y 0.000000 3.539180 0.000000 
#    z 0.000000 0.000000 3.159530 
# 
# 
# High freq. dielectric constant tensor:
#      x y z
#    x 1.723340 0.000000 0.000000 
#    y 0.000000 1.723200 0.000000 
#    z 0.000000 0.000000 1.700940 
# 
# From -- ./inp_files/6522.got.cif
#   From: 2010.03.12/outbox.cif.g09.slc.cpg/sg38_4_cif.got.tgz:6522.got - 2010.04.14 02:38:36.
