data_PCOD8178170
_publ_section_title
;
Structure prediction by ZEFSAII (Michael W. Deem and Ramdas Pophale) SiO2 
 PCOD8178170
Probable space group: A M M 2
;
_chemical_formula_sum "Si O2"
_cell_formula_units_Z 64
_cell_length_a 13.771049
_cell_length_b 9.929356
_cell_length_c 25.425672
_cell_angle_alpha 90.000000
_cell_angle_beta 90.000000
_cell_angle_gamma 90.000000
_cell_volume 3476.646588
_symmetry_space_group_name_H-M "A M M 2"
_symmetry_group_IT_number 38
_symmetry_cell_setting 'orthorhombic'
loop_
_space_group_symop_operation_xyz
x,y,z
-x,-y,z
-x,y,z
x,-y,z
x,1/2+y,1/2+z
-x,1/2-y,1/2+z
-x,1/2+y,1/2+z
x,1/2-y,1/2+z
loop_
_atom_site_type_symbol
_atom_site_label
_atom_site_fract_x
_atom_site_fract_y
_atom_site_fract_z
Si Si1 0.233639 0.657932 0.570530
Si Si2 0.230092 0.656292 0.371022
Si Si3 0.607054 0.201343 0.732177
Si Si4 0.389732 0.157059 0.613769
Si Si5 0.110609 0.345934 0.673051
Si Si6 0.186463 0.357896 0.256951
Si Si7 0.609682 0.850557 0.334124
Si Si8 0.108837 0.159366 0.970358
O O1 0.263574 0.500000 0.567070
O O2 0.327128 0.755634 0.572519
O O3 0.171045 0.689753 0.621844
O O4 0.169856 0.704227 0.521092
O O5 0.259219 0.500000 0.379539
O O6 0.166757 0.675960 0.317998
O O7 0.327851 0.743732 0.367104
O O8 0.164488 0.711559 0.418627
O O9 0.500000 0.130918 0.739690
O O10 0.619661 0.232565 0.670222
O O11 0.698110 0.111957 0.749869
O O12 0.612656 0.331426 0.770396
O O13 0.500000 0.161485 0.593494
O O14 0.355206 0.000000 0.617930
O O15 0.123459 0.500000 0.689573
O O16 0.146964 0.261794 0.722325
O O17 0.000000 0.310636 0.660029
O O18 0.134677 0.500000 0.242322
O O19 0.500000 0.834267 0.354641
O O20 0.649505 0.000000 0.345525
O O21 0.000000 0.221720 0.972650
O O22 0.099982 0.000000 0.968926
#
# Coordination Sequence:
#
# PCOD8178170 Si02
#       8
#     8   8   8   8   8   8   8   8
#     4  10  20  35  57  81 104 135 180 228 269 313
#     4   9  19  34  54  80 106 136 178 225 271 317
#     4   9  17  29  48  74 105 142 179 210 246 304
#     4  10  20  34  53  78 111 148 179 211 261 321
#     4  10  21  35  50  72 103 137 171 210 263 323
#     4  10  19  31  50  78 108 136 169 212 261 315
#     4   9  18  32  51  77 110 147 182 216 260 315
#     4   9  18  36  61  82 101 134 183 234 277 319
#
# _framework density 18.408545
#
# number of rings (size 3 to 8) (size 9 to 14) (size 15 to 20)
#    0.000    2.500    1.250    0.750    0.000    6.500 
#    0.000    7.500    0.000    6.000    0.000    0.000 
#    0.000    0.000    0.000    0.000    0.000    0.000 
#
# Total GULP energy -396495.703769 kJ/mol
# GULP energy per Si atom -12390.490743 kJ/mol
# Density = 1.836665 g / cm^3
# Si number density = 18.408545 Si / 1000 Ang^3
#
#
#
# Elastic Constant Matrix: (Units=GPa)
#
#
# Indices 1 2 3 4 5 6 
#
# 1 99.6348 55.6001 52.4931 0.0000 0.0000 0.0000
# 2 55.6001 81.3537 47.1663 0.0000 0.0000 0.0000
# 3 52.4931 47.1663 107.3133 0.0000 0.0000 0.0000
# 4 0.0000 0.0000 0.0000 18.3894 0.0000 0.0000
# 5 0.0000 0.0000 0.0000 0.0000 24.4899 0.0000
# 6 0.0000 0.0000 0.0000 0.0000 0.0000 14.2844
#
#
#
# Elastic Compliance Matrix: (Units=1/GPa)
#
#
# Indices 1 2 3 4 5 6 
#
# 1 0.017698 -0.009496 -0.004483 0.000000 0.000000 0.000000
# 2 -0.009496 0.021591 -0.004844 0.000000 0.000000 0.000000
# 3 -0.004483 -0.004844 0.013641 0.000000 0.000000 0.000000
# 4 0.000000 0.000000 0.000000 0.054379 0.000000 0.000000
# 5 0.000000 0.000000 0.000000 0.000000 0.040833 0.000000
# 6 0.000000 0.000000 0.000000 0.000000 0.000000 0.070006
#
#
# Mechanical properties :
#
#
# Convention : Reuss Voigt Hill
#
# Bulk Modulus (GPa) = 65.43813 66.53562 65.98688
# Shear Modulus (GPa) = 19.16518 20.30222 19.73370
#
# Velocity S-wave (km/s) = 3.23011 3.32455 3.27767
# Velocity P-wave (km/s) = 7.03821 7.13857 7.08857
#
# Compressibility (1/GPa) = 0.01528161
#
# Stress axis : x y z
#
# Youngs Moduli (GPa) = 56.50382 46.31643 73.30956
#
# Poissons Ratio (x) = 0.43983 0.32867
# Poissons Ratio (y) = 0.53657 0.35514
# Poissons Ratio (z) = 0.25333 0.22438
#
# Static dielectric constant tensor:
#      x y z
#    x 3.528560 0.000000 0.000000 
#    y 0.000000 3.204800 0.000000 
#    z 0.000000 0.000000 3.337700 
# 
# 
# High freq. dielectric constant tensor:
#      x y z
#    x 1.715420 0.000000 0.000000 
#    y 0.000000 1.693270 0.000000 
#    z 0.000000 0.000000 1.699780 
# 
# From -- ./inp_files/22902.got.cif
#   From: 2010.03.12/outbox.cif.g09.slc.cpg/sg38_12_cif.got.tgz:22902.got - 2010.04.14 02:38:36.
