data_PCOD8178654
_publ_section_title
;
Structure prediction by ZEFSAII (Michael W. Deem and Ramdas Pophale) SiO2 
 PCOD8178654
Probable space group: A M M 2
;
_chemical_formula_sum "Si O2"
_cell_formula_units_Z 40
_cell_length_a 8.635861
_cell_length_b 25.542912
_cell_length_c 9.652822
_cell_angle_alpha 90.000000
_cell_angle_beta 90.000000
_cell_angle_gamma 90.000000
_cell_volume 2129.268103
_symmetry_space_group_name_H-M "A M M 2"
_symmetry_group_IT_number 38
_symmetry_cell_setting 'orthorhombic'
loop_
_space_group_symop_operation_xyz
x,y,z
-x,-y,z
-x,y,z
x,-y,z
x,1/2+y,1/2+z
-x,1/2-y,1/2+z
-x,1/2+y,1/2+z
x,1/2-y,1/2+z
loop_
_atom_site_type_symbol
_atom_site_label
_atom_site_fract_x
_atom_site_fract_y
_atom_site_fract_z
Si Si1 0.179217 0.794096 0.258450
Si Si2 0.683148 0.500000 0.257791
Si Si3 0.184213 0.410483 0.759237
Si Si4 0.317567 0.590816 0.056741
Si Si5 0.180969 0.701700 0.074363
Si Si6 0.316346 0.000000 0.070907
O O1 0.246355 0.851813 0.224874
O O2 0.255286 0.747978 0.167453
O O3 0.207997 0.780243 0.417656
O O4 0.000000 0.795210 0.220206
O O5 0.500000 0.500000 0.266477
O O6 0.740583 0.448622 0.175939
O O7 0.749878 0.500000 0.414078
O O8 0.255972 0.448407 0.646309
O O9 0.000000 0.413630 0.754083
O O10 0.235968 0.425879 0.913758
O O11 0.500000 0.586890 0.033049
O O12 0.271685 0.648576 0.107074
O O13 0.000000 0.691570 0.104921
O O14 0.500000 0.000000 0.074431
#
# Coordination Sequence:
#
# PCOD8178654 Si02
#       6
#     8   4   8   8   8   4
#     4   8  16  30  50  72  99 132 167 206 255 304
#     4   9  21  37  52  72 104 139 172 209 260 316
#     4  10  20  36  56  80 105 136 178 220 258 313
#     4  10  19  35  56  77 102 140 180 215 258 313
#     4   9  17  32  51  74 102 135 172 215 261 308
#     4  11  22  37  54  76 106 139 170 215 272 318
#
# _framework density 18.785796000000001
#
# number of rings (size 3 to 8) (size 9 to 14) (size 15 to 20)
#    0.000    2.600    0.000    3.300    0.000    2.400 
#    0.000   12.500    0.000    0.000    0.000    0.000 
#    0.000    0.000    0.000    0.000    0.000    0.000 
#
# Total GULP energy -247960.348850 kJ/mol
# GULP energy per Si atom -12398.017442 kJ/mol
# Density = 1.874304 g / cm^3
# Si number density = 18.785796 Si / 1000 Ang^3
#
#
#
# Elastic Constant Matrix: (Units=GPa)
#
#
# Indices 1 2 3 4 5 6 
#
# 1 52.4679 29.1278 30.8008 0.0000 0.0000 0.0000
# 2 29.1278 140.6062 99.1763 0.0000 0.0000 0.0000
# 3 30.8008 99.1763 140.2654 0.0000 0.0000 0.0000
# 4 0.0000 0.0000 0.0000 42.8720 0.0000 0.0000
# 5 0.0000 0.0000 0.0000 0.0000 22.5667 0.0000
# 6 0.0000 0.0000 0.0000 0.0000 0.0000 26.9904
#
#
#
# Elastic Compliance Matrix: (Units=1/GPa)
#
#
# Indices 1 2 3 4 5 6 
#
# 1 0.022253 -0.002320 -0.003246 0.000000 0.000000 0.000000
# 2 -0.002320 0.014430 -0.009693 0.000000 0.000000 0.000000
# 3 -0.003246 -0.009693 0.014696 0.000000 0.000000 0.000000
# 4 0.000000 0.000000 0.000000 0.023325 0.000000 0.000000
# 5 0.000000 0.000000 0.000000 0.000000 0.044313 0.000000
# 6 0.000000 0.000000 0.000000 0.000000 0.000000 0.037050
#
#
# Mechanical properties :
#
#
# Convention : Reuss Voigt Hill
#
# Bulk Modulus (GPa) = 47.93967 72.39437 60.16702
# Shear Modulus (GPa) = 25.83454 30.10147 27.96801
#
# Velocity S-wave (km/s) = 3.71241 4.00728 3.86266
# Velocity P-wave (km/s) = 6.62952 7.74800 7.21048
#
# Compressibility (1/GPa) = 0.02085955
#
# Stress axis : x y z
#
# Youngs Moduli (GPa) = 44.93797 69.30057 68.04653
#
# Poissons Ratio (x) = 0.16081 0.22086
# Poissons Ratio (y) = 0.10428 0.65959
# Poissons Ratio (z) = 0.14586 0.67175
#
# Static dielectric constant tensor:
#      x y z
#    x 3.204120 0.000000 0.000000 
#    y 0.000000 3.945340 0.000000 
#    z 0.000000 0.000000 3.581040 
# 
# 
# High freq. dielectric constant tensor:
#      x y z
#    x 1.705290 0.000000 0.000000 
#    y 0.000000 1.744550 0.000000 
#    z 0.000000 0.000000 1.727900 
# 
# From -- ./inp_files/3475.got.cif
#   From: 2010.03.12/outbox.cif.g09.slc.cpg/sg38_2_cif.got.tgz:3475.got - 2010.04.14 02:38:36.
