data_PCOD8178936
_publ_section_title
;
Structure prediction by ZEFSAII (Michael W. Deem and Ramdas Pophale) SiO2 
 PCOD8178936
Probable space group: A M M 2
;
_chemical_formula_sum "Si O2"
_cell_formula_units_Z 64
_cell_length_a 14.206621
_cell_length_b 8.937017
_cell_length_c 31.223681
_cell_angle_alpha 90.000000
_cell_angle_beta 90.000000
_cell_angle_gamma 90.000000
_cell_volume 3964.308832
_symmetry_space_group_name_H-M "A M M 2"
_symmetry_group_IT_number 38
_symmetry_cell_setting 'orthorhombic'
loop_
_space_group_symop_operation_xyz
x,y,z
-x,-y,z
-x,y,z
x,-y,z
x,1/2+y,1/2+z
-x,1/2-y,1/2+z
-x,1/2+y,1/2+z
x,1/2-y,1/2+z
loop_
_atom_site_type_symbol
_atom_site_label
_atom_site_fract_x
_atom_site_fract_y
_atom_site_fract_z
Si Si1 0.392797 0.174543 0.859090
Si Si2 0.395026 0.672552 0.769663
Si Si3 0.219046 0.177402 0.394605
Si Si4 0.105771 0.821788 0.311921
Si Si5 0.888299 0.831843 0.557828
Si Si6 0.792032 0.175550 0.227866
Si Si7 0.890199 0.675167 0.471692
Si Si8 0.109623 0.324705 0.643424
O O1 0.500000 0.210195 0.872488
O O2 0.373728 0.228110 0.810866
O O3 0.325469 0.261360 0.892056
O O4 0.370638 0.000000 0.861494
O O5 0.500000 0.702892 0.751496
O O6 0.382789 0.500000 0.783979
O O7 0.319350 0.712066 0.732719
O O8 0.163165 0.236216 0.352925
O O9 0.168895 0.240557 0.436138
O O10 0.220557 0.000000 0.397552
O O11 0.153041 0.756840 0.268785
O O12 0.000000 0.759240 0.315030
O O13 0.106584 0.000000 0.311253
O O14 0.854094 0.734789 0.517495
O O15 0.850450 0.757666 0.601447
O O16 0.000000 0.831973 0.559359
O O17 0.848485 0.000000 0.553832
O O18 0.832277 0.242704 0.183712
O O19 0.811535 0.000000 0.226545
O O20 0.870318 0.500000 0.469283
O O21 0.000000 0.712369 0.464802
O O22 0.127045 0.500000 0.636833
O O23 0.000000 0.290725 0.651592
#
# Coordination Sequence:
#
# PCOD8178936 Si02
#       8
#     8   8   8   8   8   8   8   8
#     4  10  20  33  48  66  90 121 158 201 246 287
#     4   9  16  28  46  66  88 116 155 201 242 279
#     4  11  20  31  48  70  95 125 161 197 235 281
#     4   9  16  25  39  62  92 124 157 189 219 261
#     4   9  17  30  47  66  90 119 153 193 235 277
#     4   9  15  25  41  65  91 119 155 191 229 275
#     4  10  20  33  49  70  98 128 158 193 234 281
#     4   9  16  26  43  65  89 118 152 189 229 276
#
# _framework density 16.14405
#
# number of rings (size 3 to 8) (size 9 to 14) (size 15 to 20)
#    0.000    2.500    1.250    2.250    0.000    5.000 
#    0.000    0.625    0.000    0.000    0.000    0.875 
#    0.000    5.000    0.000    0.000    0.000    0.000 
#
# Total GULP energy -396755.697499 kJ/mol
# GULP energy per Si atom -12398.615547 kJ/mol
# Density = 1.610731 g / cm^3
# Si number density = 16.144050 Si / 1000 Ang^3
#
#
#
# Elastic Constant Matrix: (Units=GPa)
#
#
# Indices 1 2 3 4 5 6 
#
# 1 95.8923 38.7752 60.7600 0.0000 0.0000 0.0000
# 2 38.7752 63.3213 45.8082 0.0000 0.0000 0.0000
# 3 60.7600 45.8082 134.5966 0.0000 0.0000 0.0000
# 4 0.0000 0.0000 0.0000 24.1952 0.0000 0.0000
# 5 0.0000 0.0000 0.0000 0.0000 13.2674 0.0000
# 6 0.0000 0.0000 0.0000 0.0000 0.0000 17.3049
#
#
#
# Elastic Compliance Matrix: (Units=1/GPa)
#
#
# Indices 1 2 3 4 5 6 
#
# 1 0.016233 -0.006154 -0.005233 0.000000 0.000000 0.000000
# 2 -0.006154 0.023284 -0.005146 0.000000 0.000000 0.000000
# 3 -0.005233 -0.005146 0.011544 0.000000 0.000000 0.000000
# 4 0.000000 0.000000 0.000000 0.041331 0.000000 0.000000
# 5 0.000000 0.000000 0.000000 0.000000 0.075373 0.000000
# 6 0.000000 0.000000 0.000000 0.000000 0.000000 0.057787
#
#
# Mechanical properties :
#
#
# Convention : Reuss Voigt Hill
#
# Bulk Modulus (GPa) = 55.57836 64.94411 60.26124
# Shear Modulus (GPa) = 18.89528 20.85128 19.87328
#
# Velocity S-wave (km/s) = 3.42485 3.59775 3.51236
# Velocity P-wave (km/s) = 7.08101 7.58773 7.33874
#
# Compressibility (1/GPa) = 0.01799261
#
# Stress axis : x y z
#
# Youngs Moduli (GPa) = 61.60299 42.94785 86.62878
#
# Poissons Ratio (x) = 0.26432 0.45336
# Poissons Ratio (y) = 0.37913 0.44581
# Poissons Ratio (z) = 0.32239 0.22102
#
# Static dielectric constant tensor:
#      x y z
#    x 3.089450 0.000000 0.000000 
#    y 0.000000 2.953020 0.000000 
#    z 0.000000 0.000000 3.108900 
# 
# 
# High freq. dielectric constant tensor:
#      x y z
#    x 1.603680 0.000000 0.000000 
#    y 0.000000 1.607060 0.000000 
#    z 0.000000 0.000000 1.610930 
# 
# From -- ./inp_files/25115.got.cif
#   From: 2010.03.12/outbox.cif.g09.slc.cpg/sg38_13_cif.got.tgz:25115.got - 2010.04.14 02:38:36.
