data_PCOD8178677
_publ_section_title
;
Structure prediction by ZEFSAII (Michael W. Deem and Ramdas Pophale) SiO2 
 PCOD8178677
Probable space group: A M M 2
;
_chemical_formula_sum "Si O2"
_cell_formula_units_Z 64
_cell_length_a 24.185849
_cell_length_b 8.685571
_cell_length_c 15.488481
_cell_angle_alpha 90.000000
_cell_angle_beta 90.000000
_cell_angle_gamma 90.000000
_cell_volume 3253.632812
_symmetry_space_group_name_H-M "A M M 2"
_symmetry_group_IT_number 38
_symmetry_cell_setting 'orthorhombic'
loop_
_space_group_symop_operation_xyz
x,y,z
-x,-y,z
-x,y,z
x,-y,z
x,1/2+y,1/2+z
-x,1/2-y,1/2+z
-x,1/2+y,1/2+z
x,1/2-y,1/2+z
loop_
_atom_site_type_symbol
_atom_site_label
_atom_site_fract_x
_atom_site_fract_y
_atom_site_fract_z
Si Si1 0.745307 0.672402 0.834340
Si Si2 0.938044 0.317156 0.684110
Si Si3 0.137731 0.817360 0.027513
Si Si4 0.133698 0.815770 0.344306
Si Si5 0.367022 0.178792 0.081398
Si Si6 0.255764 0.174181 0.535307
Si Si7 0.367755 0.181359 0.273496
Si Si8 0.561769 0.182256 0.431328
O O1 0.750838 0.500000 0.798419
O O2 0.805235 0.750993 0.819200
O O3 0.693929 0.755619 0.786010
O O4 0.730282 0.674397 0.934747
O O5 0.939314 0.500000 0.685685
O O6 0.905294 0.259802 0.599978
O O7 0.908714 0.258124 0.771638
O O8 0.000000 0.249059 0.681347
O O9 0.197189 0.752326 0.054397
O O10 0.141383 0.000000 0.023061
O O11 0.115774 0.752859 0.936390
O O12 0.135901 0.000000 0.353855
O O13 0.303182 0.228831 0.082254
O O14 0.390324 0.213779 0.177571
O O15 0.371336 0.000000 0.057959
O O16 0.403747 0.274109 0.015503
O O17 0.254837 0.000000 0.570987
O O18 0.409860 0.250494 0.344480
O O19 0.361604 0.000000 0.290859
O O20 0.500000 0.251807 0.437827
O O21 0.559006 0.000000 0.426040
#
# Coordination Sequence:
#
# PCOD8178677 Si02
#       8
#     8   8   8   8   8   8   8   8
#     4   8  14  28  53  77 100 135 179 219 258 316
#     4   9  19  35  55  79 109 150 195 230 271 341
#     4  10  20  34  55  83 113 143 184 237 287 330
#     4   9  18  33  55  79 106 145 186 225 272 333
#     4  11  22  34  57  90 117 141 180 236 289 326
#     4  10  19  35  58  81 113 151 187 224 273 342
#     4   9  18  33  55  82 109 143 185 221 264 331
#     4  10  21  40  62  79 106 154 199 228 267 335
#
# _framework density 19.670321000000001
#
# number of rings (size 3 to 8) (size 9 to 14) (size 15 to 20)
#    0.000    2.500    1.250    1.875    1.750    1.250 
#    0.000    3.750    0.000    2.625    0.000    0.000 
#    0.000    0.000    0.000    0.000    0.000    0.000 
#
# Total GULP energy -396678.918627 kJ/mol
# GULP energy per Si atom -12396.216207 kJ/mol
# Density = 1.962555 g / cm^3
# Si number density = 19.670321 Si / 1000 Ang^3
#
#
#
# Elastic Constant Matrix: (Units=GPa)
#
#
# Indices 1 2 3 4 5 6 
#
# 1 146.6703 14.2459 82.5174 0.0000 0.0000 0.0000
# 2 14.2459 29.3957 15.0135 0.0000 0.0000 0.0000
# 3 82.5174 15.0135 131.6390 0.0000 0.0000 0.0000
# 4 0.0000 0.0000 0.0000 25.4351 0.0000 0.0000
# 5 0.0000 0.0000 0.0000 0.0000 24.6122 0.0000
# 6 0.0000 0.0000 0.0000 0.0000 0.0000 19.2955
#
#
#
# Elastic Compliance Matrix: (Units=1/GPa)
#
#
# Indices 1 2 3 4 5 6 
#
# 1 0.010627 -0.001856 -0.006450 0.000000 0.000000 0.000000
# 2 -0.001856 0.036447 -0.002993 0.000000 0.000000 0.000000
# 3 -0.006450 -0.002993 0.011981 0.000000 0.000000 0.000000
# 4 0.000000 0.000000 0.000000 0.039316 0.000000 0.000000
# 5 0.000000 0.000000 0.000000 0.000000 0.040630 0.000000
# 6 0.000000 0.000000 0.000000 0.000000 0.000000 0.051826
#
#
# Mechanical properties :
#
#
# Convention : Reuss Voigt Hill
#
# Bulk Modulus (GPa) = 27.42994 59.02872 43.22933
# Shear Modulus (GPa) = 22.16538 26.93042 24.54790
#
# Velocity S-wave (km/s) = 3.36049 3.70413 3.53649
# Velocity P-wave (km/s) = 5.38816 6.95473 6.22096
#
# Compressibility (1/GPa) = 0.03645652
#
# Stress axis : x y z
#
# Youngs Moduli (GPa) = 94.10020 27.43721 83.46572
#
# Poissons Ratio (x) = 0.05092 0.53834
# Poissons Ratio (y) = 0.17465 0.24984
# Poissons Ratio (z) = 0.60693 0.08213
#
# Static dielectric constant tensor:
#      x y z
#    x 3.836320 0.000000 0.000000 
#    y 0.000000 3.196080 0.000000 
#    z 0.000000 0.000000 3.617950 
# 
# 
# High freq. dielectric constant tensor:
#      x y z
#    x 1.770920 0.000000 0.000000 
#    y 0.000000 1.724910 0.000000 
#    z 0.000000 0.000000 1.771540 
# 
# From -- ./inp_files/15852.got.cif
#   From: 2010.03.12/outbox.cif.g09.slc.cpg/sg38_8_cif.got.tgz:15852.got - 2010.04.14 02:38:36.
