data_PCOD8178926
_publ_section_title
;
Structure prediction by ZEFSAII (Michael W. Deem and Ramdas Pophale) SiO2 
 PCOD8178926
Probable space group: A M M 2
;
_chemical_formula_sum "Si O2"
_cell_formula_units_Z 34
_cell_length_a 7.989697
_cell_length_b 7.554630
_cell_length_c 26.956930
_cell_angle_alpha 90.000000
_cell_angle_beta 90.000000
_cell_angle_gamma 90.000000
_cell_volume 1627.098855
_symmetry_space_group_name_H-M "A M M 2"
_symmetry_group_IT_number 38
_symmetry_cell_setting 'orthorhombic'
loop_
_space_group_symop_operation_xyz
x,y,z
-x,-y,z
-x,y,z
x,-y,z
x,1/2+y,1/2+z
-x,1/2-y,1/2+z
-x,1/2+y,1/2+z
x,1/2-y,1/2+z
loop_
_atom_site_type_symbol
_atom_site_label
_atom_site_fract_x
_atom_site_fract_y
_atom_site_fract_z
Si Si1 0.697736 0.000000 0.908931
Si Si2 0.000000 0.500000 0.333651
Si Si3 0.679942 0.200546 0.192693
Si Si4 0.189053 0.206918 0.590943
Si Si5 0.304232 0.198305 0.485641
Si Si6 0.000000 0.213946 0.251447
O O1 0.741975 0.825084 0.940269
O O2 0.500000 0.000000 0.892701
O O3 0.825467 0.000000 0.863454
O O4 0.000000 0.683019 0.303109
O O5 0.500000 0.290974 0.206522
O O6 0.698583 0.205602 0.133233
O O7 0.837375 0.285786 0.221235
O O8 0.671787 0.000000 0.210242
O O9 0.228549 0.280433 0.536140
O O10 0.000000 0.254351 0.604570
O O11 0.226239 0.000000 0.590903
O O12 0.500000 0.190443 0.493686
O O13 0.233499 0.000000 0.474702
O O14 0.000000 0.000000 0.259029
#
# Coordination Sequence:
#
# PCOD8178926 Si02
#       6
#     4   2   8   8   8   4
#     4  10  24  44  64  94 124 154 208 262 305 366
#     4  12  28  44  70  94 114 154 216 260 326 372
#     4  10  21  37  59  87 121 164 204 241 301 365
#     4  10  20  32  53  88 127 164 202 240 291 359
#     4   9  19  37  59  86 126 167 200 242 298 361
#     4  10  24  46  63  87 123 153 198 268 310 361
#
# _framework density 20.896086
#
# number of rings (size 3 to 8) (size 9 to 14) (size 15 to 20)
#    0.000    2.118    1.176    0.706    4.941    3.294 
#    0.000    0.000    0.000    0.000    0.000    0.000 
#    0.000    0.000    0.000    0.000    0.000    0.000 
#
# Total GULP energy -210690.670182 kJ/mol
# GULP energy per Si atom -12393.568834 kJ/mol
# Density = 2.084853 g / cm^3
# Si number density = 20.896086 Si / 1000 Ang^3
#
#
#
# Elastic Constant Matrix: (Units=GPa)
#
#
# Indices 1 2 3 4 5 6 
#
# 1 146.8807 32.1400 76.0282 0.0000 0.0000 0.0000
# 2 32.1400 71.0139 40.4220 0.0000 0.0000 0.0000
# 3 76.0282 40.4220 127.9383 0.0000 0.0000 0.0000
# 4 0.0000 0.0000 0.0000 33.2478 0.0000 0.0000
# 5 0.0000 0.0000 0.0000 0.0000 30.6817 0.0000
# 6 0.0000 0.0000 0.0000 0.0000 0.0000 8.3514
#
#
#
# Elastic Compliance Matrix: (Units=1/GPa)
#
#
# Indices 1 2 3 4 5 6 
#
# 1 0.009943 -0.001386 -0.005471 0.000000 0.000000 0.000000
# 2 -0.001386 0.017363 -0.004662 0.000000 0.000000 0.000000
# 3 -0.005471 -0.004662 0.012540 0.000000 0.000000 0.000000
# 4 0.000000 0.000000 0.000000 0.030077 0.000000 0.000000
# 5 0.000000 0.000000 0.000000 0.000000 0.032593 0.000000
# 6 0.000000 0.000000 0.000000 0.000000 0.000000 0.119741
#
#
# Mechanical properties :
#
#
# Convention : Reuss Voigt Hill
#
# Bulk Modulus (GPa) = 59.49441 71.44591 65.47016
# Shear Modulus (GPa) = 19.92837 27.60569 23.76703
#
# Velocity S-wave (km/s) = 3.09154 3.63863 3.37618
# Velocity P-wave (km/s) = 6.42470 7.20542 6.82623
#
# Compressibility (1/GPa) = 0.01680830
#
# Stress axis : x y z
#
# Youngs Moduli (GPa) = 100.56866 57.59444 79.74203
#
# Poissons Ratio (x) = 0.07983 0.43627
# Poissons Ratio (y) = 0.13940 0.37176
# Poissons Ratio (z) = 0.55021 0.26851
#
# Static dielectric constant tensor:
#      x y z
#    x 4.180870 0.000000 0.000000 
#    y 0.000000 3.980420 0.000000 
#    z 0.000000 0.000000 3.565000 
# 
# 
# High freq. dielectric constant tensor:
#      x y z
#    x 1.832330 0.000000 0.000000 
#    y 0.000000 1.812690 0.000000 
#    z 0.000000 0.000000 1.794600 
# 
# From -- ./inp_files/19274.got.cif
#   From: 2010.03.12/outbox.cif.g09.slc.cpg/sg38_10_cif.got.tgz:19274.got - 2010.04.14 02:38:36.
