data_PCOD8178560
_publ_section_title
;
Structure prediction by ZEFSAII (Michael W. Deem and Ramdas Pophale) SiO2 
 PCOD8178560
Probable space group: A M M 2
;
_chemical_formula_sum "Si O2"
_cell_formula_units_Z 56
_cell_length_a 13.658441
_cell_length_b 13.415017
_cell_length_c 13.726137
_cell_angle_alpha 90.000000
_cell_angle_beta 90.000000
_cell_angle_gamma 90.000000
_cell_volume 2515.015625
_symmetry_space_group_name_H-M "A M M 2"
_symmetry_group_IT_number 38
_symmetry_cell_setting 'orthorhombic'
loop_
_space_group_symop_operation_xyz
x,y,z
-x,-y,z
-x,y,z
x,-y,z
x,1/2+y,1/2+z
-x,1/2-y,1/2+z
-x,1/2+y,1/2+z
x,1/2-y,1/2+z
loop_
_atom_site_type_symbol
_atom_site_label
_atom_site_fract_x
_atom_site_fract_y
_atom_site_fract_z
Si Si1 0.892863 0.799015 0.737340
Si Si2 0.889299 0.733208 0.451986
Si Si3 0.386569 0.387003 0.756071
Si Si4 0.888834 0.892431 0.132962
Si Si5 0.691598 0.193146 0.448250
Si Si6 0.612476 0.388305 0.358377
Si Si7 0.687706 0.692485 0.166591
O O1 0.888229 0.828121 0.850674
O O2 0.882444 0.678217 0.728015
O O3 0.801109 0.845016 0.678875
O O4 0.000000 0.832746 0.694560
O O5 0.845678 0.664650 0.538622
O O6 0.809803 0.822843 0.445099
O O7 0.000000 0.772917 0.473374
O O8 0.500000 0.358670 0.741455
O O9 0.366075 0.500000 0.722231
O O10 0.361687 0.377921 0.871122
O O11 0.320899 0.311643 0.691296
O O12 0.000000 0.913806 0.105019
O O13 0.836661 0.000000 0.152005
O O14 0.674622 0.309166 0.419650
O O15 0.651419 0.170648 0.556968
O O16 0.500000 0.375848 0.388215
O O17 0.649278 0.500000 0.382051
O O18 0.621606 0.368270 0.242292
#
# Coordination Sequence:
#
# PCOD8178560 Si02
#       7
#     8   8   8   8   8   8   8
#     4  10  19  34  54  81 117 154 187 225 278 331
#     4  10  19  34  54  81 117 154 187 225 278 331
#     4  10  23  42  60  83 116 148 186 240 294 344
#     4   9  18  32  52  80 110 143 188 234 274 325
#     4  11  21  37  61  88 115 150 192 233 282 340
#     4  10  23  42  60  83 116 148 186 240 294 344
#     4  11  21  37  61  88 115 150 192 233 282 340
#
# _framework density 22.266264
#
# number of rings (size 3 to 8) (size 9 to 14) (size 15 to 20)
#    0.000    1.857    4.286    1.714    0.000    4.571 
#    0.000    2.857    0.000    0.857    0.000    2.000 
#    0.000    0.000    0.000    0.000    0.000    0.000 
#
# Total GULP energy -346899.702339 kJ/mol
# GULP energy per Si atom -12389.275084 kJ/mol
# Density = 2.221559 g / cm^3
# Si number density = 22.266264 Si / 1000 Ang^3
#
#
#
# Elastic Constant Matrix: (Units=GPa)
#
#
# Indices 1 2 3 4 5 6 
#
# 1 94.3241 7.3131 3.4271 0.0000 0.0000 0.0000
# 2 7.3131 48.0420 -13.4877 0.0000 0.0000 0.0000
# 3 3.4271 -13.4877 105.3162 0.0000 0.0000 0.0000
# 4 0.0000 0.0000 0.0000 12.3329 0.0000 0.0000
# 5 0.0000 0.0000 0.0000 0.0000 18.1007 0.0000
# 6 0.0000 0.0000 0.0000 0.0000 0.0000 13.3784
#
#
#
# Elastic Compliance Matrix: (Units=1/GPa)
#
#
# Indices 1 2 3 4 5 6 
#
# 1 0.010763 -0.001801 -0.000581 0.000000 0.000000 0.000000
# 2 -0.001801 0.021893 0.002862 0.000000 0.000000 0.000000
# 3 -0.000581 0.002862 0.009881 0.000000 0.000000 0.000000
# 4 0.000000 0.000000 0.000000 0.081084 0.000000 0.000000
# 5 0.000000 0.000000 0.000000 0.000000 0.055246 0.000000
# 6 0.000000 0.000000 0.000000 0.000000 0.000000 0.074747
#
#
# Mechanical properties :
#
#
# Convention : Reuss Voigt Hill
#
# Bulk Modulus (GPa) = 22.99040 26.90967 24.95004
# Shear Modulus (GPa) = 18.71592 25.45773 22.08683
#
# Velocity S-wave (km/s) = 2.90237 3.38499 3.15293
# Velocity P-wave (km/s) = 4.64535 5.23347 4.94815
#
# Compressibility (1/GPa) = 0.04349641
#
# Stress axis : x y z
#
# Youngs Moduli (GPa) = 92.91505 45.67681 101.20730
#
# Poissons Ratio (x) = 0.08228 0.05879
# Poissons Ratio (y) = 0.16738 -0.28970
# Poissons Ratio (z) = 0.05398 -0.13075
#
# Static dielectric constant tensor:
#      x y z
#    x 4.163170 0.000000 0.000000 
#    y 0.000000 3.844490 0.000000 
#    z 0.000000 0.000000 3.942090 
# 
# 
# High freq. dielectric constant tensor:
#      x y z
#    x 1.893770 0.000000 0.000000 
#    y 0.000000 1.823150 0.000000 
#    z 0.000000 0.000000 1.874670 
# 
# From -- ./inp_files/14655.got.cif
#   From: 2010.03.12/outbox.cif.g09.slc.cpg/sg38_8_cif.got.tgz:14655.got - 2010.04.14 02:38:36.
