data_PCOD8178362
_publ_section_title
;
Structure prediction by ZEFSAII (Michael W. Deem and Ramdas Pophale) SiO2 
 PCOD8178362
Probable space group: A M M 2
;
_chemical_formula_sum "Si O2"
_cell_formula_units_Z 64
_cell_length_a 9.095945
_cell_length_b 15.284730
_cell_length_c 23.266373
_cell_angle_alpha 90.000000
_cell_angle_beta 90.000000
_cell_angle_gamma 90.000000
_cell_volume 3234.702047
_symmetry_space_group_name_H-M "A M M 2"
_symmetry_group_IT_number 38
_symmetry_cell_setting 'orthorhombic'
loop_
_space_group_symop_operation_xyz
x,y,z
-x,-y,z
-x,y,z
x,-y,z
x,1/2+y,1/2+z
-x,1/2-y,1/2+z
-x,1/2+y,1/2+z
x,1/2-y,1/2+z
loop_
_atom_site_type_symbol
_atom_site_label
_atom_site_fract_x
_atom_site_fract_y
_atom_site_fract_z
Si Si1 0.170993 0.728677 0.243500
Si Si2 0.168313 0.906340 0.191910
Si Si3 0.839370 0.598746 0.037172
Si Si4 0.332777 0.644853 0.584784
Si Si5 0.672655 0.101830 0.957513
Si Si6 0.826947 0.762311 0.873943
Si Si7 0.331791 0.165162 0.637106
Si Si8 0.673410 0.897583 0.425786
O O1 0.225152 0.828786 0.232827
O O2 0.203427 0.704824 0.309121
O O3 0.265287 0.667329 0.201238
O O4 0.000000 0.716376 0.228511
O O5 0.247925 0.912768 0.130848
O O6 0.000000 0.889423 0.177264
O O7 0.192534 0.000000 0.223518
O O8 0.868467 0.500000 0.019784
O O9 0.760860 0.597880 0.099093
O O10 0.000000 0.646828 0.038763
O O11 0.733448 0.636680 0.987523
O O12 0.500000 0.613739 0.586774
O O13 0.270645 0.626986 0.521177
O O14 0.313698 0.745349 0.602049
O O15 0.500000 0.122019 0.950897
O O16 0.761190 0.162455 0.913780
O O17 0.706724 0.000000 0.944749
O O18 0.750599 0.667034 0.880257
O O19 0.000000 0.750814 0.885629
O O20 0.500000 0.134931 0.642025
O O21 0.500000 0.881793 0.425280
O O22 0.709602 0.000000 0.412543
#
# Coordination Sequence:
#
# PCOD8178362 Si02
#       8
#     8   8   8   8   8   8   8   8
#     4   9  20  37  53  72 102 141 183 224 267 318
#     4   9  17  30  50  76 104 133 165 205 254 309
#     4  10  20  34  54  81 111 140 173 218 272 330
#     4   9  18  32  51  77 106 134 165 204 256 318
#     4  10  21  37  57  80 109 146 184 226 279 335
#     4  11  23  38  58  81 108 147 191 237 285 330
#     4  10  19  32  54  81 107 138 174 216 268 324
#     4  10  21  37  58  85 117 150 184 226 277 337
#
# _framework density 19.785439
#
# number of rings (size 3 to 8) (size 9 to 14) (size 15 to 20)
#    0.000    2.250    0.000    2.625    0.000    6.000 
#    0.000    1.875    0.000    0.750    0.000    0.000 
#    0.000    0.000    0.000    0.000    0.000    0.000 
#
# Total GULP energy -396665.545623 kJ/mol
# GULP energy per Si atom -12395.798301 kJ/mol
# Density = 1.974041 g / cm^3
# Si number density = 19.785439 Si / 1000 Ang^3
#
#
#
# Elastic Constant Matrix: (Units=GPa)
#
#
# Indices 1 2 3 4 5 6 
#
# 1 99.3951 25.4112 42.4037 0.0000 0.0000 0.0000
# 2 25.4112 51.5430 22.0932 0.0000 0.0000 0.0000
# 3 42.4037 22.0932 97.3538 0.0000 0.0000 0.0000
# 4 0.0000 0.0000 0.0000 21.0312 0.0000 0.0000
# 5 0.0000 0.0000 0.0000 0.0000 29.4846 0.0000
# 6 0.0000 0.0000 0.0000 0.0000 0.0000 26.2023
#
#
#
# Elastic Compliance Matrix: (Units=1/GPa)
#
#
# Indices 1 2 3 4 5 6 
#
# 1 0.013233 -0.004490 -0.004745 0.000000 0.000000 0.000000
# 2 -0.004490 0.023015 -0.003267 0.000000 0.000000 0.000000
# 3 -0.004745 -0.003267 0.013080 0.000000 0.000000 0.000000
# 4 0.000000 0.000000 0.000000 0.047548 0.000000 0.000000
# 5 0.000000 0.000000 0.000000 0.000000 0.033916 0.000000
# 6 0.000000 0.000000 0.000000 0.000000 0.000000 0.038165
#
#
# Mechanical properties :
#
#
# Convention : Reuss Voigt Hill
#
# Bulk Modulus (GPa) = 41.11200 47.56755 44.33978
# Shear Modulus (GPa) = 24.74389 25.90254 25.32322
#
# Velocity S-wave (km/s) = 3.54023 3.62217 3.58144
# Velocity P-wave (km/s) = 6.12658 6.44883 6.28977
#
# Compressibility (1/GPa) = 0.02432380
#
# Stress axis : x y z
#
# Youngs Moduli (GPa) = 75.56836 43.44907 76.45286
#
# Poissons Ratio (x) = 0.19510 0.36276
# Poissons Ratio (y) = 0.33932 0.24979
# Poissons Ratio (z) = 0.35856 0.14196
#
# Static dielectric constant tensor:
#      x y z
#    x 3.725680 0.000000 0.000000 
#    y 0.000000 3.513700 0.000000 
#    z 0.000000 0.000000 3.499880 
# 
# 
# High freq. dielectric constant tensor:
#      x y z
#    x 1.774610 0.000000 0.000000 
#    y 0.000000 1.761440 0.000000 
#    z 0.000000 0.000000 1.762640 
# 
# From -- ./inp_files/22170.got.cif
#   From: 2010.03.12/outbox.cif.g09.slc.cpg/sg38_12_cif.got.tgz:22170.got - 2010.04.14 02:38:36.
