data_PCOD8178357
_publ_section_title
;
Structure prediction by ZEFSAII (Michael W. Deem and Ramdas Pophale) SiO2 
 PCOD8178357
Probable space group: A M M 2
;
_chemical_formula_sum "Si O2"
_cell_formula_units_Z 52
_cell_length_a 18.890968
_cell_length_b 10.434072
_cell_length_c 13.903729
_cell_angle_alpha 90.000000
_cell_angle_beta 90.000000
_cell_angle_gamma 90.000000
_cell_volume 2740.560134
_symmetry_space_group_name_H-M "A M M 2"
_symmetry_group_IT_number 38
_symmetry_cell_setting 'orthorhombic'
loop_
_space_group_symop_operation_xyz
x,y,z
-x,-y,z
-x,y,z
x,-y,z
x,1/2+y,1/2+z
-x,1/2-y,1/2+z
-x,1/2+y,1/2+z
x,1/2-y,1/2+z
loop_
_atom_site_type_symbol
_atom_site_label
_atom_site_fract_x
_atom_site_fract_y
_atom_site_fract_z
Si Si1 0.079414 0.000000 0.001860
Si Si2 0.080316 0.775743 0.508340
Si Si3 0.309086 0.354065 0.559840
Si Si4 0.818369 0.000000 0.827810
Si Si5 0.920278 0.500000 0.154354
Si Si6 0.582019 0.145595 0.896745
Si Si7 0.333860 0.645165 0.779002
Si Si8 0.782153 0.758437 0.404191
O O1 0.095151 0.865713 0.056560
O O2 0.119776 0.000000 0.903452
O O3 0.000000 0.000000 0.966950
O O4 0.135846 0.800150 0.420383
O O5 0.000000 0.786391 0.466590
O O6 0.091899 0.874965 0.591773
O O7 0.280390 0.500000 0.555865
O O8 0.382417 0.340156 0.501508
O O9 0.319969 0.311219 0.669570
O O10 0.251033 0.261793 0.510480
O O11 0.771468 0.126721 0.843332
O O12 0.855938 0.000000 0.726262
O O13 0.000000 0.500000 0.198685
O O14 0.500000 0.175802 0.910994
O O15 0.612860 0.250709 0.823313
O O16 0.593781 0.000000 0.857316
O O17 0.365539 0.500000 0.781122
O O18 0.260872 0.639068 0.841020
#
# Coordination Sequence:
#
# PCOD8178357 Si02
#       8
#     4   8   8   4   4   8   8   8
#     4   8  15  32  54  71  94 135 179 220 278 338
#     4   9  19  34  53  77 109 145 186 235 291 345
#     4   9  18  36  57  81 113 149 188 222 269 328
#     4  10  19  32  54  79  97 141 187 236 273 326
#     4  10  21  34  52  82 110 136 182 238 299 358
#     4   9  19  38  63  88 116 150 186 220 263 327
#     4  10  22  36  56  87 116 147 184 233 279 326
#     4  10  20  35  56  80 109 148 189 237 284 336
#
# _framework density 18.974222999999999
#
# number of rings (size 3 to 8) (size 9 to 14) (size 15 to 20)
#    0.000    2.615    0.769    0.231    4.308    1.538 
#    0.000    4.615    0.000    0.000    0.000    7.538 
#    0.000    0.000    0.000    0.000    0.000    0.000 
#
# Total GULP energy -322153.655055 kJ/mol
# GULP energy per Si atom -12390.525194 kJ/mol
# Density = 1.893104 g / cm^3
# Si number density = 18.974223 Si / 1000 Ang^3
#
#
#
# Elastic Constant Matrix: (Units=GPa)
#
#
# Indices 1 2 3 4 5 6 
#
# 1 96.1938 30.5983 42.4637 0.0000 0.0000 0.0000
# 2 30.5983 96.3072 43.9403 0.0000 0.0000 0.0000
# 3 42.4637 43.9403 109.6323 0.0000 0.0000 0.0000
# 4 0.0000 0.0000 0.0000 20.6943 0.0000 0.0000
# 5 0.0000 0.0000 0.0000 0.0000 21.3560 0.0000
# 6 0.0000 0.0000 0.0000 0.0000 0.0000 31.0700
#
#
#
# Elastic Compliance Matrix: (Units=1/GPa)
#
#
# Indices 1 2 3 4 5 6 
#
# 1 0.012919 -0.002229 -0.004111 0.000000 0.000000 0.000000
# 2 -0.002229 0.013092 -0.004384 0.000000 0.000000 0.000000
# 3 -0.004111 -0.004384 0.012471 0.000000 0.000000 0.000000
# 4 0.000000 0.000000 0.000000 0.048323 0.000000 0.000000
# 5 0.000000 0.000000 0.000000 0.000000 0.046825 0.000000
# 6 0.000000 0.000000 0.000000 0.000000 0.000000 0.032185
#
#
# Mechanical properties :
#
#
# Convention : Reuss Voigt Hill
#
# Bulk Modulus (GPa) = 58.70388 59.57087 59.13738
# Shear Modulus (GPa) = 25.91480 26.96612 26.44046
#
# Velocity S-wave (km/s) = 3.69967 3.77397 3.73700
# Velocity P-wave (km/s) = 7.01826 7.10312 7.06082
#
# Compressibility (1/GPa) = 0.01703465
#
# Stress axis : x y z
#
# Youngs Moduli (GPa) = 77.40331 76.38393 80.18923
#
# Poissons Ratio (x) = 0.17028 0.32962
# Poissons Ratio (y) = 0.17255 0.35152
# Poissons Ratio (z) = 0.31817 0.33484
#
# Static dielectric constant tensor:
#      x y z
#    x 3.567410 0.000000 0.000000 
#    y 0.000000 3.802920 0.000000 
#    z 0.000000 0.000000 3.227730 
# 
# 
# High freq. dielectric constant tensor:
#      x y z
#    x 1.741370 0.000000 0.000000 
#    y 0.000000 1.741650 0.000000 
#    z 0.000000 0.000000 1.707940 
# 
# From -- ./inp_files/15414.got.cif
#   From: 2010.03.12/outbox.cif.g09.slc.cpg/sg38_8_cif.got.tgz:15414.got - 2010.04.14 02:38:36.
