data_PCOD8178827
_publ_section_title
;
Structure prediction by ZEFSAII (Michael W. Deem and Ramdas Pophale) SiO2 
 PCOD8178827
Probable space group: A M M 2
;
_chemical_formula_sum "Si O2"
_cell_formula_units_Z 64
_cell_length_a 8.978425
_cell_length_b 18.390810
_cell_length_c 26.123620
_cell_angle_alpha 90.000000
_cell_angle_beta 90.000000
_cell_angle_gamma 90.000000
_cell_volume 4313.545412
_symmetry_space_group_name_H-M "A M M 2"
_symmetry_group_IT_number 38
_symmetry_cell_setting 'orthorhombic'
loop_
_space_group_symop_operation_xyz
x,y,z
-x,-y,z
-x,y,z
x,-y,z
x,1/2+y,1/2+z
-x,1/2-y,1/2+z
-x,1/2+y,1/2+z
x,1/2-y,1/2+z
loop_
_atom_site_type_symbol
_atom_site_label
_atom_site_fract_x
_atom_site_fract_y
_atom_site_fract_z
Si Si1 0.824709 0.161238 0.600670
Si Si2 0.823269 0.338121 0.801893
Si Si3 0.335157 0.213735 0.147130
Si Si4 0.673368 0.584593 0.894468
Si Si5 0.667549 0.793071 0.755339
Si Si6 0.171481 0.415733 0.999194
Si Si7 0.325544 0.582791 0.709324
Si Si8 0.824005 0.083256 0.703074
O O1 0.771251 0.244697 0.607394
O O2 0.764443 0.129301 0.547396
O O3 0.767287 0.111579 0.647696
O O4 0.000000 0.160566 0.599657
O O5 0.770175 0.367485 0.856293
O O6 0.757973 0.256994 0.795035
O O7 0.767545 0.393619 0.758598
O O8 0.000000 0.333989 0.800025
O O9 0.500000 0.214340 0.123160
O O10 0.332929 0.253195 0.201376
O O11 0.282329 0.131036 0.159212
O O12 0.500000 0.603546 0.888426
O O13 0.703991 0.500000 0.883006
O O14 0.726135 0.604900 0.951340
O O15 0.500000 0.804868 0.775850
O O16 0.747174 0.871096 0.748639
O O17 0.185637 0.500000 0.013661
O O18 0.000000 0.395921 0.986851
O O19 0.500000 0.594103 0.722559
O O20 0.287831 0.500000 0.695632
O O21 0.000000 0.093180 0.707889
O O22 0.774933 0.000000 0.709162
#
# Coordination Sequence:
#
# PCOD8178827 Si02
#       8
#     8   8   8   8   8   8   8   8
#     4   9  16  26  41  59  81 111 141 169 204 242
#     4  11  20  29  43  61  81 107 139 172 207 246
#     4   8  15  26  39  56  78 105 136 169 202 238
#     4  10  20  32  44  59  81 108 137 170 207 244
#     4   9  17  29  42  57  80 109 140 172 205 242
#     4   9  17  29  43  59  80 106 138 173 204 236
#     4   9  17  29  43  59  82 111 140 170 205 244
#     4   9  16  26  41  62  87 113 141 172 206 244
#
# _framework density 14.836983999999999
#
# number of rings (size 3 to 8) (size 9 to 14) (size 15 to 20)
#    0.000    2.750    0.000    3.375    0.000    7.750 
#    0.000    0.000    0.000    2.250    0.000    0.000 
#    0.000    1.000    0.000    6.500    0.000    4.250 
#
# Total GULP energy -396716.496967 kJ/mol
# GULP energy per Si atom -12397.390530 kJ/mol
# Density = 1.480321 g / cm^3
# Si number density = 14.836984 Si / 1000 Ang^3
#
#
#
# Elastic Constant Matrix: (Units=GPa)
#
#
# Indices 1 2 3 4 5 6 
#
# 1 65.0851 40.7914 34.0398 0.0000 0.0000 0.0000
# 2 40.7914 110.9894 49.9597 0.0000 0.0000 0.0000
# 3 34.0398 49.9597 69.6502 0.0000 0.0000 0.0000
# 4 0.0000 0.0000 0.0000 25.2148 0.0000 0.0000
# 5 0.0000 0.0000 0.0000 0.0000 20.3701 0.0000
# 6 0.0000 0.0000 0.0000 0.0000 0.0000 24.2696
#
#
#
# Elastic Compliance Matrix: (Units=1/GPa)
#
#
# Indices 1 2 3 4 5 6 
#
# 1 0.022281 -0.004855 -0.007407 0.000000 0.000000 0.000000
# 2 -0.004855 0.014364 -0.007931 0.000000 0.000000 0.000000
# 3 -0.007407 -0.007931 0.023666 0.000000 0.000000 0.000000
# 4 0.000000 0.000000 0.000000 0.039659 0.000000 0.000000
# 5 0.000000 0.000000 0.000000 0.000000 0.049091 0.000000
# 6 0.000000 0.000000 0.000000 0.000000 0.000000 0.041204
#
#
# Mechanical properties :
#
#
# Convention : Reuss Voigt Hill
#
# Bulk Modulus (GPa) = 50.18474 55.03404 52.60939
# Shear Modulus (GPa) = 21.07108 22.03316 21.55212
#
# Velocity S-wave (km/s) = 3.77261 3.85777 3.81543
# Velocity P-wave (km/s) = 7.27147 7.55091 7.41251
#
# Compressibility (1/GPa) = 0.01992638
#
# Stress axis : x y z
#
# Youngs Moduli (GPa) = 44.88120 69.61912 42.25477
#
# Poissons Ratio (x) = 0.33798 0.31298
# Poissons Ratio (y) = 0.21789 0.33510
# Poissons Ratio (z) = 0.33244 0.55212
#
# Static dielectric constant tensor:
#      x y z
#    x 2.917380 0.000000 0.000000 
#    y 0.000000 3.031710 0.000000 
#    z 0.000000 0.000000 2.694960 
# 
# 
# High freq. dielectric constant tensor:
#      x y z
#    x 1.572370 0.000000 0.000000 
#    y 0.000000 1.559240 0.000000 
#    z 0.000000 0.000000 1.532310 
# 
# From -- ./inp_files/22257.got.cif
#   From: 2010.03.12/outbox.cif.g09.slc.cpg/sg38_12_cif.got.tgz:22257.got - 2010.04.14 02:38:36.
