data_PCOD8178273
_publ_section_title
;
Structure prediction by ZEFSAII (Michael W. Deem and Ramdas Pophale) SiO2 
 PCOD8178273
Probable space group: A M M 2
;
_chemical_formula_sum "Si O2"
_cell_formula_units_Z 56
_cell_length_a 8.827404
_cell_length_b 14.430772
_cell_length_c 22.984462
_cell_angle_alpha 90.000000
_cell_angle_beta 90.000000
_cell_angle_gamma 90.000000
_cell_volume 2927.904525
_symmetry_space_group_name_H-M "A M M 2"
_symmetry_group_IT_number 38
_symmetry_cell_setting 'orthorhombic'
loop_
_space_group_symop_operation_xyz
x,y,z
-x,-y,z
-x,y,z
x,-y,z
x,1/2+y,1/2+z
-x,1/2-y,1/2+z
-x,1/2+y,1/2+z
x,1/2-y,1/2+z
loop_
_atom_site_type_symbol
_atom_site_label
_atom_site_fract_x
_atom_site_fract_y
_atom_site_fract_z
Si Si1 0.320141 0.105078 0.992520
Si Si2 0.678798 0.289505 0.604634
Si Si3 0.829030 0.392470 0.708039
Si Si4 0.820510 0.101184 0.337816
Si Si5 0.319876 0.899115 0.651265
Si Si6 0.177068 0.708362 0.385509
Si Si7 0.327603 0.607350 0.282701
O O1 0.500000 0.102852 0.994841
O O2 0.271697 0.158987 0.935233
O O3 0.256161 0.000000 0.991976
O O4 0.251044 0.159187 0.048356
O O5 0.500000 0.290344 0.598890
O O6 0.720897 0.340757 0.663547
O O7 0.737994 0.182608 0.608457
O O8 0.826659 0.500000 0.692128
O O9 0.760935 0.376504 0.772725
O O10 0.000000 0.353536 0.702531
O O11 0.773720 0.182840 0.382293
O O12 0.000000 0.095616 0.332360
O O13 0.758589 0.000000 0.359122
O O14 0.500000 0.903549 0.651940
O O15 0.267381 0.877614 0.717129
O O16 0.256101 0.000000 0.630835
O O17 0.213999 0.662950 0.323743
O O18 0.000000 0.697589 0.398768
O O19 0.500000 0.643614 0.290319
O O20 0.320640 0.500000 0.300094
#
# Coordination Sequence:
#
# PCOD8178273 Si02
#       7
#     8   8   8   8   8   8   8
#     4  10  22  38  51  66  96 134 163 193 242 295
#     4  10  19  32  52  74  96 127 166 203 236 277
#     4   9  17  30  50  75 102 130 156 188 239 297
#     4   8  16  32  51  72 100 130 156 188 241 301
#     4   8  15  29  50  76 102 127 157 193 237 290
#     4  11  21  32  51  75  95 123 167 210 238 271
#     4   9  17  30  49  73 103 135 158 184 237 300
#
# _framework density 19.126308000000002
#
# number of rings (size 3 to 8) (size 9 to 14) (size 15 to 20)
#    0.000    2.714    0.000    3.857    0.000    3.714 
#    0.000    1.429    0.000    5.571    0.000    0.000 
#    0.000    0.000    0.000    0.000    0.000    0.000 
#
# Total GULP energy -347043.582908 kJ/mol
# GULP energy per Si atom -12394.413675 kJ/mol
# Density = 1.908278 g / cm^3
# Si number density = 19.126308 Si / 1000 Ang^3
#
#
#
# Elastic Constant Matrix: (Units=GPa)
#
#
# Indices 1 2 3 4 5 6 
#
# 1 7.9364 13.4351 7.6241 0.0000 0.0000 0.0000
# 2 13.4351 151.0168 85.3387 0.0000 0.0000 0.0000
# 3 7.6241 85.3387 85.0952 0.0000 0.0000 0.0000
# 4 0.0000 0.0000 0.0000 33.3475 0.0000 0.0000
# 5 0.0000 0.0000 0.0000 0.0000 17.2189 0.0000
# 6 0.0000 0.0000 0.0000 0.0000 0.0000 20.2968
#
#
#
# Elastic Compliance Matrix: (Units=1/GPa)
#
#
# Indices 1 2 3 4 5 6 
#
# 1 0.148342 -0.013125 -0.000129 0.000000 0.000000 0.000000
# 2 -0.013125 0.016444 -0.015315 0.000000 0.000000 0.000000
# 3 -0.000129 -0.015315 0.027122 0.000000 0.000000 0.000000
# 4 0.000000 0.000000 0.000000 0.029987 0.000000 0.000000
# 5 0.000000 0.000000 0.000000 0.000000 0.058076 0.000000
# 6 0.000000 0.000000 0.000000 0.000000 0.000000 0.049269
#
#
# Mechanical properties :
#
#
# Convention : Reuss Voigt Hill
#
# Bulk Modulus (GPa) = 7.41995 50.76047 29.09021
# Shear Modulus (GPa) = 11.59285 23.34932 17.47109
#
# Velocity S-wave (km/s) = 2.46462 3.49778 3.02563
# Velocity P-wave (km/s) = 3.46223 6.55056 5.23912
#
# Compressibility (1/GPa) = 0.13477189
#
# Stress axis : x y z
#
# Youngs Moduli (GPa) = 6.74116 60.81325 36.87062
#
# Poissons Ratio (x) = 0.79814 0.00474
# Poissons Ratio (y) = 0.08847 0.56467
# Poissons Ratio (z) = 0.00087 0.93135
#
# Static dielectric constant tensor:
#      x y z
#    x 3.086410 0.000000 0.000000 
#    y 0.000000 4.101900 0.000000 
#    z 0.000000 0.000000 3.403330 
# 
# 
# High freq. dielectric constant tensor:
#      x y z
#    x 1.704120 0.000000 0.000000 
#    y 0.000000 1.762670 0.000000 
#    z 0.000000 0.000000 1.725350 
# 
# From -- ./inp_files/19774.got.cif
#   From: 2010.03.12/outbox.cif.g09.slc.cpg/sg38_10_cif.got.tgz:19774.got - 2010.04.14 02:38:36.
