data_PCOD8178613
_publ_section_title
;
Structure prediction by ZEFSAII (Michael W. Deem and Ramdas Pophale) SiO2 
 PCOD8178613
Probable space group: A M M 2
;
_chemical_formula_sum "Si O2"
_cell_formula_units_Z 48
_cell_length_a 9.236202
_cell_length_b 7.768468
_cell_length_c 34.183410
_cell_angle_alpha 90.000000
_cell_angle_beta 90.000000
_cell_angle_gamma 90.000000
_cell_volume 2452.698626
_symmetry_space_group_name_H-M "A M M 2"
_symmetry_group_IT_number 38
_symmetry_cell_setting 'orthorhombic'
loop_
_space_group_symop_operation_xyz
x,y,z
-x,-y,z
-x,y,z
x,-y,z
x,1/2+y,1/2+z
-x,1/2-y,1/2+z
-x,1/2+y,1/2+z
x,1/2-y,1/2+z
loop_
_atom_site_type_symbol
_atom_site_label
_atom_site_fract_x
_atom_site_fract_y
_atom_site_fract_z
Si Si1 0.658605 0.803137 0.282770
Si Si2 0.334756 0.203258 0.429912
Si Si3 0.672657 0.000000 0.568654
Si Si4 0.671739 0.691881 0.515034
Si Si5 0.162249 0.803310 0.855322
Si Si6 0.168080 0.198771 0.208580
Si Si7 0.168250 0.500000 0.149866
O O1 0.500000 0.713017 0.286307
O O2 0.743373 0.794398 0.323376
O O3 0.748203 0.726366 0.246440
O O4 0.634895 0.000000 0.272697
O O5 0.500000 0.266792 0.424088
O O6 0.271886 0.263307 0.471675
O O7 0.234408 0.288415 0.397545
O O8 0.326038 0.000000 0.426564
O O9 0.731467 0.830537 0.546053
O O10 0.735401 0.000000 0.611627
O O11 0.500000 0.000000 0.571038
O O12 0.500000 0.704424 0.514290
O O13 0.724013 0.500000 0.527065
O O14 0.000000 0.725078 0.856705
O O15 0.156228 0.000000 0.842451
O O16 0.208338 0.325498 0.173109
O O17 0.000000 0.213019 0.219180
O O18 0.208177 0.000000 0.197736
O O19 0.000000 0.500000 0.138451
#
# Coordination Sequence:
#
# PCOD8178613 Si02
#       7
#     8   8   4   8   8   8   4
#     4  10  21  37  57  82 110 141 183 234 286 337
#     4  10  19  34  57  82 108 141 187 238 285 336
#     4  10  20  36  56  84 114 144 188 232 278 340
#     4   9  17  32  56  83 112 146 182 228 283 334
#     4  11  24  37  50  75 112 151 191 232 276 333
#     4   9  19  37  59  81 110 149 187 228 280 338
#     4  10  22  38  58  84 114 148 188 230 282 344
#
# _framework density 19.570281999999999
#
# number of rings (size 3 to 8) (size 9 to 14) (size 15 to 20)
#    0.000    2.167    0.833    2.000    1.167    6.667 
#    0.000    0.833    0.000    1.000    0.000    0.000 
#    0.000    0.000    0.000    0.000    0.000    0.000 
#
# Total GULP energy -297564.899536 kJ/mol
# GULP energy per Si atom -12398.537481 kJ/mol
# Density = 1.952574 g / cm^3
# Si number density = 19.570282 Si / 1000 Ang^3
#
#
#
# Elastic Constant Matrix: (Units=GPa)
#
#
# Indices 1 2 3 4 5 6 
#
# 1 91.6802 29.1967 63.2552 0.0000 0.0000 0.0000
# 2 29.1967 91.3490 47.8941 0.0000 0.0000 0.0000
# 3 63.2552 47.8941 152.9625 0.0000 0.0000 0.0000
# 4 0.0000 0.0000 0.0000 25.1726 0.0000 0.0000
# 5 0.0000 0.0000 0.0000 0.0000 0.4704 0.0000
# 6 0.0000 0.0000 0.0000 0.0000 0.0000 14.7998
#
#
#
# Elastic Compliance Matrix: (Units=1/GPa)
#
#
# Indices 1 2 3 4 5 6 
#
# 1 0.015536 -0.001911 -0.005826 0.000000 0.000000 0.000000
# 2 -0.001911 0.013332 -0.003384 0.000000 0.000000 0.000000
# 3 -0.005826 -0.003384 0.010007 0.000000 0.000000 0.000000
# 4 0.000000 0.000000 0.000000 0.039726 0.000000 0.000000
# 5 0.000000 0.000000 0.000000 0.000000 2.125928 0.000000
# 6 0.000000 0.000000 0.000000 0.000000 0.000000 0.067569
#
#
# Mechanical properties :
#
#
# Convention : Reuss Voigt Hill
#
# Bulk Modulus (GPa) = 60.12565 68.52042 64.32304
# Shear Modulus (GPa) = 2.17402 21.13159 11.65281
#
# Velocity S-wave (km/s) = 1.05513 3.28956 2.44280
# Velocity P-wave (km/s) = 5.68102 7.03682 6.39495
#
# Compressibility (1/GPa) = 0.01663184
#
# Stress axis : x y z
#
# Youngs Moduli (GPa) = 64.36699 75.00696 99.93431
#
# Poissons Ratio (x) = 0.14332 0.58225
# Poissons Ratio (y) = 0.12299 0.33820
# Poissons Ratio (z) = 0.37502 0.25384
#
# Static dielectric constant tensor:
#      x y z
#    x 3.622320 0.000000 0.000000 
#    y 0.000000 3.751050 0.000000 
#    z 0.000000 0.000000 3.470970 
# 
# 
# High freq. dielectric constant tensor:
#      x y z
#    x 1.742340 0.000000 0.000000 
#    y 0.000000 1.770260 0.000000 
#    z 0.000000 0.000000 1.759600 
# 
# From -- ./inp_files/24308.got.cif
#   From: 2010.03.12/outbox.cif.g09.slc.cpg/sg38_13_cif.got.tgz:24308.got - 2010.04.14 02:38:36.
