data_PCOD8178868
_publ_section_title
;
Structure prediction by ZEFSAII (Michael W. Deem and Ramdas Pophale) SiO2 
 PCOD8178868
Probable space group: A M M 2
;
_chemical_formula_sum "Si O2"
_cell_formula_units_Z 64
_cell_length_a 14.884617
_cell_length_b 14.077277
_cell_length_c 17.361878
_cell_angle_alpha 90.000000
_cell_angle_beta 90.000000
_cell_angle_gamma 90.000000
_cell_volume 3637.918963
_symmetry_space_group_name_H-M "A M M 2"
_symmetry_group_IT_number 38
_symmetry_cell_setting 'orthorhombic'
loop_
_space_group_symop_operation_xyz
x,y,z
-x,-y,z
-x,y,z
x,-y,z
x,1/2+y,1/2+z
-x,1/2-y,1/2+z
-x,1/2+y,1/2+z
x,1/2-y,1/2+z
loop_
_atom_site_type_symbol
_atom_site_label
_atom_site_fract_x
_atom_site_fract_y
_atom_site_fract_z
Si Si1 0.400104 0.107904 0.719010
Si Si2 0.093809 0.606089 0.533305
Si Si3 0.238572 0.769080 0.963500
Si Si4 0.605446 0.608426 0.395242
Si Si5 0.103288 0.777765 0.335740
Si Si6 0.171337 0.392113 0.694644
Si Si7 0.102501 0.891126 0.724366
Si Si8 0.749035 0.712144 0.131853
O O1 0.500000 0.148927 0.713499
O O2 0.365900 0.115250 0.806321
O O3 0.342091 0.169079 0.661840
O O4 0.396447 0.000000 0.690817
O O5 0.086445 0.500000 0.504721
O O6 0.177339 0.643796 0.487367
O O7 0.100145 0.611893 0.625565
O O8 0.000000 0.658995 0.510960
O O9 0.333912 0.812353 0.937007
O O10 0.180878 0.709351 0.900706
O O11 0.255119 0.706012 0.039319
O O12 0.500000 0.633250 0.407121
O O13 0.623027 0.500000 0.424524
O O14 0.122292 0.858259 0.272115
O O15 0.115143 0.671710 0.301157
O O16 0.000000 0.791294 0.365577
O O17 0.209055 0.500000 0.705350
O O18 0.249270 0.318680 0.668114
O O19 0.164543 0.849165 0.657039
O O20 0.000000 0.885251 0.694955
O O21 0.130098 0.000000 0.743009
#
# Coordination Sequence:
#
# PCOD8178868 Si02
#       8
#     8   8   8   8   8   8   8   8
#     4   9  18  35  60  83  98 120 161 209 254 302
#     4   9  17  29  46  67  92 126 166 205 244 286
#     4  11  21  30  44  71 105 134 157 195 251 306
#     4   9  18  33  53  75  97 123 158 203 257 310
#     4  10  20  32  48  72 100 132 169 208 251 297
#     4   9  18  33  51  68  91 132 181 215 235 266
#     4   9  18  33  53  75  99 131 172 215 256 297
#     4  10  20  32  51  75 102 134 165 202 247 296
#
# _framework density 17.592476000000001
#
# number of rings (size 3 to 8) (size 9 to 14) (size 15 to 20)
#    0.000    2.500    0.000    3.750    0.000    7.250 
#    0.000    2.500    0.000    0.375    0.000    0.000 
#    0.000    0.000    0.000    0.000    0.000    0.000 
#
# Total GULP energy -396509.997926 kJ/mol
# GULP energy per Si atom -12390.937435 kJ/mol
# Density = 1.755243 g / cm^3
# Si number density = 17.592476 Si / 1000 Ang^3
#
#
#
# Elastic Constant Matrix: (Units=GPa)
#
#
# Indices 1 2 3 4 5 6 
#
# 1 87.3268 24.0744 36.9877 0.0000 0.0000 0.0000
# 2 24.0744 74.7177 27.3822 0.0000 0.0000 0.0000
# 3 36.9877 27.3822 76.8307 0.0000 0.0000 0.0000
# 4 0.0000 0.0000 0.0000 19.8827 0.0000 0.0000
# 5 0.0000 0.0000 0.0000 0.0000 85.8792 0.0000
# 6 0.0000 0.0000 0.0000 0.0000 0.0000 23.1963
#
#
#
# Elastic Compliance Matrix: (Units=1/GPa)
#
#
# Indices 1 2 3 4 5 6 
#
# 1 0.014772 -0.002477 -0.006229 0.000000 0.000000 0.000000
# 2 -0.002477 0.015810 -0.004442 0.000000 0.000000 0.000000
# 3 -0.006229 -0.004442 0.017597 0.000000 0.000000 0.000000
# 4 0.000000 0.000000 0.000000 0.050295 0.000000 0.000000
# 5 0.000000 0.000000 0.000000 0.000000 0.011644 0.000000
# 6 0.000000 0.000000 0.000000 0.000000 0.000000 0.043110
#
#
# Mechanical properties :
#
#
# Convention : Reuss Voigt Hill
#
# Bulk Modulus (GPa) = 45.69620 46.19598 45.94609
# Shear Modulus (GPa) = 26.76376 35.82036 31.29206
#
# Velocity S-wave (km/s) = 3.90464 4.51723 4.22206
# Velocity P-wave (km/s) = 6.80878 7.31595 7.06692
#
# Compressibility (1/GPa) = 0.02188366
#
# Stress axis : x y z
#
# Youngs Moduli (GPa) = 67.69389 63.25227 56.82630
#
# Poissons Ratio (x) = 0.15667 0.35397
# Poissons Ratio (y) = 0.16768 0.25243
# Poissons Ratio (z) = 0.42166 0.28097
#
# Static dielectric constant tensor:
#      x y z
#    x 3.092750 0.000000 0.000000 
#    y 0.000000 3.277250 0.000000 
#    z 0.000000 0.000000 3.243260 
# 
# 
# High freq. dielectric constant tensor:
#      x y z
#    x 1.678060 0.000000 0.000000 
#    y 0.000000 1.663230 0.000000 
#    z 0.000000 0.000000 1.670920 
# 
# From -- ./inp_files/18503.got.cif
#   From: 2010.03.12/outbox.cif.g09.slc.cpg/sg38_10_cif.got.tgz:18503.got - 2010.04.14 02:38:36.
