data_PCOD8178534
_publ_section_title
;
Structure prediction by ZEFSAII (Michael W. Deem and Ramdas Pophale) SiO2 
 PCOD8178534
Probable space group: A M M 2
;
_chemical_formula_sum "Si O2"
_cell_formula_units_Z 56
_cell_length_a 8.936412
_cell_length_b 14.192224
_cell_length_c 22.716422
_cell_angle_alpha 90.000000
_cell_angle_beta 90.000000
_cell_angle_gamma 90.000000
_cell_volume 2881.068394
_symmetry_space_group_name_H-M "A M M 2"
_symmetry_group_IT_number 38
_symmetry_cell_setting 'orthorhombic'
loop_
_space_group_symop_operation_xyz
x,y,z
-x,-y,z
-x,y,z
x,-y,z
x,1/2+y,1/2+z
-x,1/2-y,1/2+z
-x,1/2+y,1/2+z
x,1/2-y,1/2+z
loop_
_atom_site_type_symbol
_atom_site_label
_atom_site_fract_x
_atom_site_fract_y
_atom_site_fract_z
Si Si1 0.676657 0.896519 0.163380
Si Si2 0.323700 0.773847 0.056048
Si Si3 0.176540 0.786402 0.834306
Si Si4 0.826826 0.892952 0.605161
Si Si5 0.324461 0.107602 0.296349
Si Si6 0.671616 0.609255 0.228454
Si Si7 0.674236 0.890615 0.941183
O O1 0.500000 0.903928 0.156206
O O2 0.739264 0.825206 0.114690
O O3 0.717127 0.863334 0.229279
O O4 0.746182 0.000000 0.151992
O O5 0.500000 0.755565 0.058482
O O6 0.237698 0.673877 0.053478
O O7 0.279697 0.836459 0.000294
O O8 0.238058 0.679263 0.839384
O O9 0.233227 0.832103 0.774363
O O10 0.231080 0.848520 0.888407
O O11 0.000000 0.783866 0.834472
O O12 0.734200 0.871340 0.663904
O O13 0.000000 0.872264 0.617399
O O14 0.802043 0.000000 0.584204
O O15 0.500000 0.118022 0.307683
O O16 0.274111 0.000000 0.309206
O O17 0.500000 0.643873 0.230199
O O18 0.684520 0.500000 0.245490
O O19 0.500000 0.877362 0.926451
O O20 0.714244 0.000000 0.949730
#
# Coordination Sequence:
#
# PCOD8178534 Si02
#       7
#     8   8   8   8   8   8   8
#     4   8  14  27  51  83 112 135 164 208 263 319
#     4  10  19  33  57  84 108 140 182 225 269 320
#     4  12  24  36  54  80 112 149 186 229 283 338
#     4  10  21  36  54  80 115 149 180 220 274 333
#     4   9  18  34  57  83 111 144 181 221 268 327
#     4  10  20  35  57  83 111 145 186 232 279 329
#     4  10  22  40  60  82 109 143 186 233 276 324
#
# _framework density 19.437234
#
# number of rings (size 3 to 8) (size 9 to 14) (size 15 to 20)
#    0.000    2.143    0.000    4.714    0.000    7.429 
#    0.000    0.714    0.000    3.000    0.000    0.000 
#    0.000    0.000    0.000    0.000    0.000    0.000 
#
# Total GULP energy -347221.788489 kJ/mol
# GULP energy per Si atom -12400.778160 kJ/mol
# Density = 1.939299 g / cm^3
# Si number density = 19.437234 Si / 1000 Ang^3
#
#
#
# Elastic Constant Matrix: (Units=GPa)
#
#
# Indices 1 2 3 4 5 6 
#
# 1 82.4179 64.3174 42.2953 0.0000 0.0000 0.0000
# 2 64.3174 135.8850 67.9569 0.0000 0.0000 0.0000
# 3 42.2953 67.9569 64.2428 0.0000 0.0000 0.0000
# 4 0.0000 0.0000 0.0000 33.7932 0.0000 0.0000
# 5 0.0000 0.0000 0.0000 0.0000 17.2949 0.0000
# 6 0.0000 0.0000 0.0000 0.0000 0.0000 20.4857
#
#
#
# Elastic Compliance Matrix: (Units=1/GPa)
#
#
# Indices 1 2 3 4 5 6 
#
# 1 0.020583 -0.006296 -0.006891 0.000000 0.000000 0.000000
# 2 -0.006296 0.017551 -0.014421 0.000000 0.000000 0.000000
# 3 -0.006891 -0.014421 0.035357 0.000000 0.000000 0.000000
# 4 0.000000 0.000000 0.000000 0.029592 0.000000 0.000000
# 5 0.000000 0.000000 0.000000 0.000000 0.057820 0.000000
# 6 0.000000 0.000000 0.000000 0.000000 0.000000 0.048815
#
#
# Mechanical properties :
#
#
# Convention : Reuss Voigt Hill
#
# Bulk Modulus (GPa) = 54.71767 70.18721 62.45244
# Shear Modulus (GPa) = 18.44845 21.51316 19.98080
#
# Velocity S-wave (km/s) = 3.08414 3.33047 3.20967
# Velocity P-wave (km/s) = 6.39489 7.13985 6.77761
#
# Compressibility (1/GPa) = 0.01827563
#
# Stress axis : x y z
#
# Youngs Moduli (GPa) = 48.58364 56.97641 28.28288
#
# Poissons Ratio (x) = 0.35873 0.19490
# Poissons Ratio (y) = 0.30589 0.40786
# Poissons Ratio (z) = 0.33479 0.82163
#
# Static dielectric constant tensor:
#      x y z
#    x 3.309610 0.000000 0.000000 
#    y 0.000000 3.901700 0.000000 
#    z 0.000000 0.000000 3.441330 
# 
# 
# High freq. dielectric constant tensor:
#      x y z
#    x 1.735470 0.000000 0.000000 
#    y 0.000000 1.777840 0.000000 
#    z 0.000000 0.000000 1.737410 
# 
# From -- ./inp_files/19741.got.cif
#   From: 2010.03.12/outbox.cif.g09.slc.cpg/sg38_10_cif.got.tgz:19741.got - 2010.04.14 02:38:36.
