data_PCOD8178469
_publ_section_title
;
Structure prediction by ZEFSAII (Michael W. Deem and Ramdas Pophale) SiO2 
 PCOD8178469
Probable space group: A M M 2
;
_chemical_formula_sum "Si O2"
_cell_formula_units_Z 48
_cell_length_a 9.020588
_cell_length_b 14.523867
_cell_length_c 20.339387
_cell_angle_alpha 90.000000
_cell_angle_beta 90.000000
_cell_angle_gamma 90.000000
_cell_volume 2664.740795
_symmetry_space_group_name_H-M "A M M 2"
_symmetry_group_IT_number 38
_symmetry_cell_setting 'orthorhombic'
loop_
_space_group_symop_operation_xyz
x,y,z
-x,-y,z
-x,y,z
x,-y,z
x,1/2+y,1/2+z
-x,1/2-y,1/2+z
-x,1/2+y,1/2+z
x,1/2-y,1/2+z
loop_
_atom_site_type_symbol
_atom_site_label
_atom_site_fract_x
_atom_site_fract_y
_atom_site_fract_z
Si Si1 0.825130 0.195686 0.093540
Si Si2 0.823342 0.000000 0.285362
Si Si3 0.826067 0.500000 0.029238
Si Si4 0.328303 0.698224 0.210160
Si Si5 0.670696 0.500000 0.168350
Si Si6 0.825284 0.308194 0.967181
Si Si7 0.824273 0.000000 0.135589
Si Si8 0.674896 0.817037 0.334372
O O1 0.761368 0.256512 0.151598
O O2 0.764274 0.090987 0.098719
O O3 0.000000 0.198617 0.102503
O O4 0.777989 0.236339 0.023536
O O5 0.760205 0.911295 0.321343
O O6 0.766688 0.000000 0.210400
O O7 0.000000 0.000000 0.291606
O O8 0.759931 0.500000 0.101330
O O9 0.000000 0.500000 0.039788
O O10 0.775332 0.410317 0.989012
O O11 0.500000 0.716526 0.195988
O O12 0.290707 0.589537 0.212114
O O13 0.281202 0.742031 0.279508
O O14 0.500000 0.500000 0.147596
O O15 0.732877 0.277878 0.903532
O O16 0.000000 0.304076 0.952356
O O17 0.000000 0.000000 0.135869
O O18 0.500000 0.835043 0.336650
#
# Coordination Sequence:
#
# PCOD8178469 Si02
#       8
#     8   4   4   8   4   8   4   8
#     4  10  19  35  58  82 109 143 182 225 272 325
#     4  11  20  34  59  85 112 143 180 225 280 334
#     4  10  19  33  54  82 110 134 174 227 274 321
#     4  10  21  36  55  80 109 143 183 227 271 323
#     4  10  20  35  56  81 109 141 177 222 275 323
#     4  10  21  35  54  80 112 147 182 224 275 328
#     4   9  18  32  55  86 111 138 177 224 275 324
#     4  11  23  37  54  80 115 149 185 226 272 329
#
# _framework density 18.013009
#
# number of rings (size 3 to 8) (size 9 to 14) (size 15 to 20)
#    0.000    1.833    3.333    1.250    0.000    2.667 
#    0.000    1.250    0.000    0.000    0.000    0.000 
#    0.000    0.000    0.000    0.000    0.000    0.000 
#
# Total GULP energy -297642.322473 kJ/mol
# GULP energy per Si atom -12401.763436 kJ/mol
# Density = 1.797201 g / cm^3
# Si number density = 18.013009 Si / 1000 Ang^3
#
#
#
# Elastic Constant Matrix: (Units=GPa)
#
#
# Indices 1 2 3 4 5 6 
#
# 1 44.7733 31.7496 48.3815 0.0000 0.0000 0.0000
# 2 31.7496 134.5770 72.1876 0.0000 0.0000 0.0000
# 3 48.3815 72.1876 149.3001 0.0000 0.0000 0.0000
# 4 0.0000 0.0000 0.0000 108.6997 0.0000 0.0000
# 5 0.0000 0.0000 0.0000 0.0000 31.1289 0.0000
# 6 0.0000 0.0000 0.0000 0.0000 0.0000 8.7415
#
#
#
# Elastic Compliance Matrix: (Units=1/GPa)
#
#
# Indices 1 2 3 4 5 6 
#
# 1 0.035218 -0.002953 -0.009985 0.000000 0.000000 0.000000
# 2 -0.002953 0.010280 -0.004014 0.000000 0.000000 0.000000
# 3 -0.009985 -0.004014 0.011874 0.000000 0.000000 0.000000
# 4 0.000000 0.000000 0.000000 0.009200 0.000000 0.000000
# 5 0.000000 0.000000 0.000000 0.000000 0.032124 0.000000
# 6 0.000000 0.000000 0.000000 0.000000 0.000000 0.114397
#
#
# Mechanical properties :
#
#
# Convention : Reuss Voigt Hill
#
# Bulk Modulus (GPa) = 42.60781 70.36530 56.48655
# Shear Modulus (GPa) = 19.62164 41.46947 30.54556
#
# Velocity S-wave (km/s) = 3.30404 4.80333 4.12242
# Velocity P-wave (km/s) = 6.18554 8.36128 7.35431
#
# Compressibility (1/GPa) = 0.02346988
#
# Stress axis : x y z
#
# Youngs Moduli (GPa) = 28.39435 97.27358 84.21572
#
# Poissons Ratio (x) = 0.28723 0.84089
# Poissons Ratio (y) = 0.08384 0.33802
# Poissons Ratio (z) = 0.28352 0.39043
#
# Static dielectric constant tensor:
#      x y z
#    x 3.237540 0.000000 0.000000 
#    y 0.000000 4.039550 0.000000 
#    z 0.000000 0.000000 3.390400 
# 
# 
# High freq. dielectric constant tensor:
#      x y z
#    x 1.687790 0.000000 0.000000 
#    y 0.000000 1.703640 0.000000 
#    z 0.000000 0.000000 1.697520 
# 
# From -- ./inp_files/16711.got.cif
#   From: 2010.03.12/outbox.cif.g09.slc.cpg/sg38_9_cif.got.tgz:16711.got - 2010.04.14 02:38:36.
