data_PCOD8178400
_publ_section_title
;
Structure prediction by ZEFSAII (Michael W. Deem and Ramdas Pophale) SiO2 
 PCOD8178400
Probable space group: A M M 2
;
_chemical_formula_sum "Si O2"
_cell_formula_units_Z 64
_cell_length_a 8.947666
_cell_length_b 23.030287
_cell_length_c 18.852625
_cell_angle_alpha 90.000000
_cell_angle_beta 90.000000
_cell_angle_gamma 90.000000
_cell_volume 3884.909833
_symmetry_space_group_name_H-M "A M M 2"
_symmetry_group_IT_number 38
_symmetry_cell_setting 'orthorhombic'
loop_
_space_group_symop_operation_xyz
x,y,z
-x,-y,z
-x,y,z
x,-y,z
x,1/2+y,1/2+z
-x,1/2-y,1/2+z
-x,1/2+y,1/2+z
x,1/2-y,1/2+z
loop_
_atom_site_type_symbol
_atom_site_label
_atom_site_fract_x
_atom_site_fract_y
_atom_site_fract_z
Si Si1 0.826524 0.660489 0.232800
Si Si2 0.674898 0.758487 0.958599
Si Si3 0.328787 0.275073 0.114094
Si Si4 0.672253 0.433065 0.322940
Si Si5 0.176246 0.116821 0.959073
Si Si6 0.673517 0.339017 0.699256
Si Si7 0.827887 0.932486 0.110257
Si Si8 0.825710 0.224536 0.321099
O O1 0.773483 0.677988 0.154004
O O2 0.737571 0.604162 0.258158
O O3 0.792107 0.712708 0.287054
O O4 0.000000 0.645314 0.230076
O O5 0.500000 0.770461 0.948583
O O6 0.758997 0.819123 0.959618
O O7 0.738100 0.719458 0.895007
O O8 0.706936 0.723087 0.030706
O O9 0.500000 0.290928 0.130254
O O10 0.292335 0.210358 0.141181
O O11 0.500000 0.416491 0.334105
O O12 0.692759 0.500000 0.302123
O O13 0.758952 0.420744 0.395275
O O14 0.000000 0.121341 0.948351
O O15 0.221633 0.084383 0.031074
O O16 0.500000 0.342725 0.718484
O O17 0.727330 0.399825 0.667667
O O18 0.764727 0.326142 0.770700
O O19 0.000000 0.915283 0.122345
O O20 0.799541 0.000000 0.121831
O O21 0.000000 0.214776 0.334147
#
# Coordination Sequence:
#
# PCOD8178400 Si02
#       8
#     8   8   8   8   8   8   8   8
#     4  10  20  33  51  74  98 130 169 210 253 296
#     4  11  20  32  51  76 104 135 168 205 251 302
#     4   9  19  33  50  72 101 132 164 205 254 301
#     4  11  23  36  51  71  99 137 176 213 252 294
#     4  11  21  33  49  71 102 138 175 211 245 291
#     4  10  19  33  51  73  98 131 170 211 254 296
#     4  10  21  35  50  70 100 138 175 212 253 296
#     4  10  20  33  50  74 101 132 167 206 255 302
#
# _framework density 16.473997000000001
#
# number of rings (size 3 to 8) (size 9 to 14) (size 15 to 20)
#    0.000    1.750    2.500    2.625    0.000    4.750 
#    0.000    0.000    0.000    0.000    0.000    0.875 
#    0.000    1.000    0.000    0.000    0.000    0.000 
#
# Total GULP energy -396954.633921 kJ/mol
# GULP energy per Si atom -12404.832310 kJ/mol
# Density = 1.643650 g / cm^3
# Si number density = 16.473997 Si / 1000 Ang^3
#
#
#
# Elastic Constant Matrix: (Units=GPa)
#
#
# Indices 1 2 3 4 5 6 
#
# 1 79.4736 39.9529 52.9494 0.0000 0.0000 0.0000
# 2 39.9529 72.0775 45.3412 0.0000 0.0000 0.0000
# 3 52.9494 45.3412 106.5414 0.0000 0.0000 0.0000
# 4 0.0000 0.0000 0.0000 17.2814 0.0000 0.0000
# 5 0.0000 0.0000 0.0000 0.0000 31.7420 0.0000
# 6 0.0000 0.0000 0.0000 0.0000 0.0000 25.4295
#
#
#
# Elastic Compliance Matrix: (Units=1/GPa)
#
#
# Indices 1 2 3 4 5 6 
#
# 1 0.021093 -0.006961 -0.007520 0.000000 0.000000 0.000000
# 2 -0.006961 0.021243 -0.005581 0.000000 0.000000 0.000000
# 3 -0.007520 -0.005581 0.015499 0.000000 0.000000 0.000000
# 4 0.000000 0.000000 0.000000 0.057866 0.000000 0.000000
# 5 0.000000 0.000000 0.000000 0.000000 0.031504 0.000000
# 6 0.000000 0.000000 0.000000 0.000000 0.000000 0.039324
#
#
# Mechanical properties :
#
#
# Convention : Reuss Voigt Hill
#
# Bulk Modulus (GPa) = 56.46577 59.39771 57.93174
# Shear Modulus (GPa) = 21.50014 22.88053 22.19034
#
# Velocity S-wave (km/s) = 3.61653 3.73082 3.67412
# Velocity P-wave (km/s) = 7.19647 7.39543 7.29663
#
# Compressibility (1/GPa) = 0.01770984
#
# Stress axis : x y z
#
# Youngs Moduli (GPa) = 47.40992 47.07355 64.52177
#
# Poissons Ratio (x) = 0.32768 0.48522
# Poissons Ratio (y) = 0.33002 0.36010
# Poissons Ratio (z) = 0.35654 0.26272
#
# Static dielectric constant tensor:
#      x y z
#    x 3.232060 0.000000 0.000000 
#    y 0.000000 2.866010 0.000000 
#    z 0.000000 0.000000 3.193870 
# 
# 
# High freq. dielectric constant tensor:
#      x y z
#    x 1.650890 0.000000 0.000000 
#    y 0.000000 1.605360 0.000000 
#    z 0.000000 0.000000 1.630580 
# 
# From -- ./inp_files/17152.got.cif
#   From: 2010.03.12/outbox.cif.g09.slc.cpg/sg38_9_cif.got.tgz:17152.got - 2010.04.14 02:38:36.
