data_PCOD8178434
_publ_section_title
;
Structure prediction by ZEFSAII (Michael W. Deem and Ramdas Pophale) SiO2 
 PCOD8178434
Probable space group: A M M 2
;
_chemical_formula_sum "Si O2"
_cell_formula_units_Z 64
_cell_length_a 9.196242
_cell_length_b 32.378322
_cell_length_c 11.716449
_cell_angle_alpha 90.000000
_cell_angle_beta 90.000000
_cell_angle_gamma 90.000000
_cell_volume 3488.676786
_symmetry_space_group_name_H-M "A M M 2"
_symmetry_group_IT_number 38
_symmetry_cell_setting 'orthorhombic'
loop_
_space_group_symop_operation_xyz
x,y,z
-x,-y,z
-x,y,z
x,-y,z
x,1/2+y,1/2+z
-x,1/2-y,1/2+z
-x,1/2+y,1/2+z
x,1/2-y,1/2+z
loop_
_atom_site_type_symbol
_atom_site_label
_atom_site_fract_x
_atom_site_fract_y
_atom_site_fract_z
Si Si1 0.840353 0.951691 0.627680
Si Si2 0.663255 0.182371 0.668286
Si Si3 0.827334 0.045909 0.375914
Si Si4 0.830036 0.276656 0.358984
Si Si5 0.168492 0.359867 0.490075
Si Si6 0.335796 0.402032 0.299550
Si Si7 0.171638 0.372481 0.751130
Si Si8 0.329335 0.807005 0.409377
O O1 0.772952 0.940858 0.502776
O O2 0.736523 0.939034 0.730575
O O3 0.000000 0.930620 0.642234
O O4 0.859850 0.000000 0.635037
O O5 0.500000 0.200263 0.684167
O O6 0.777247 0.212155 0.731476
O O7 0.675848 0.137231 0.719001
O O8 0.704021 0.177817 0.536632
O O9 0.777141 0.081204 0.286728
O O10 0.000000 0.043175 0.380113
O O11 0.766586 0.000000 0.341372
O O12 0.795004 0.313730 0.446869
O O13 0.739641 0.237936 0.400694
O O14 0.000000 0.266029 0.354357
O O15 0.255695 0.394009 0.418919
O O16 0.215868 0.364591 0.620757
O O17 0.000000 0.369741 0.472804
O O18 0.500000 0.414317 0.328322
O O19 0.255144 0.338617 0.823791
O O20 0.000000 0.366723 0.770693
O O21 0.500000 0.804679 0.382386
#
# Coordination Sequence:
#
# PCOD8178434 Si02
#       8
#     8   8   8   8   8   8   8   8
#     4   9  17  30  51  79 109 139 173 217 270 324
#     4   9  20  37  53  74 102 135 173 214 266 323
#     4   8  15  30  54  83 112 141 176 222 273 324
#     4  10  21  36  54  75 102 138 180 224 268 315
#     4   9  20  37  54  75 106 142 180 223 267 319
#     4  10  19  33  54  76 102 137 177 218 263 318
#     4  10  20  35  56  82 109 142 186 228 269 322
#     4  11  23  36  53  78 108 138 174 221 274 330
#
# _framework density 18.345064000000001
#
# number of rings (size 3 to 8) (size 9 to 14) (size 15 to 20)
#    0.000    2.500    0.000    2.625    1.750    2.750 
#    0.000    0.625    0.000    3.375    0.000    0.000 
#    0.000    0.000    0.000    0.000    0.000    0.000 
#
# Total GULP energy -396758.179940 kJ/mol
# GULP energy per Si atom -12398.693123 kJ/mol
# Density = 1.830331 g / cm^3
# Si number density = 18.345064 Si / 1000 Ang^3
#
#
#
# Elastic Constant Matrix: (Units=GPa)
#
#
# Indices 1 2 3 4 5 6 
#
# 1 73.5145 36.0649 61.7187 0.0000 0.0000 0.0000
# 2 36.0649 70.6662 58.3004 0.0000 0.0000 0.0000
# 3 61.7187 58.3004 150.8505 0.0000 0.0000 0.0000
# 4 0.0000 0.0000 0.0000 22.4710 0.0000 0.0000
# 5 0.0000 0.0000 0.0000 0.0000 26.0230 0.0000
# 6 0.0000 0.0000 0.0000 0.0000 0.0000 19.7311
#
#
#
# Elastic Compliance Matrix: (Units=1/GPa)
#
#
# Indices 1 2 3 4 5 6 
#
# 1 0.022141 -0.005617 -0.006888 0.000000 0.000000 0.000000
# 2 -0.005617 0.022200 -0.006282 0.000000 0.000000 0.000000
# 3 -0.006888 -0.006282 0.011875 0.000000 0.000000 0.000000
# 4 0.000000 0.000000 0.000000 0.044502 0.000000 0.000000
# 5 0.000000 0.000000 0.000000 0.000000 0.038427 0.000000
# 6 0.000000 0.000000 0.000000 0.000000 0.000000 0.050681
#
#
# Mechanical properties :
#
#
# Convention : Reuss Voigt Hill
#
# Bulk Modulus (GPa) = 53.64033 67.46658 60.55345
# Shear Modulus (GPa) = 21.40277 22.90820 22.15548
#
# Velocity S-wave (km/s) = 3.41937 3.53758 3.47898
# Velocity P-wave (km/s) = 6.70019 7.31726 7.01551
#
# Compressibility (1/GPa) = 0.01864269
#
# Stress axis : x y z
#
# Youngs Moduli (GPa) = 45.16480 45.04442 84.21152
#
# Poissons Ratio (x) = 0.25303 0.58003
# Poissons Ratio (y) = 0.25371 0.52899
# Poissons Ratio (z) = 0.31109 0.28295
#
# Static dielectric constant tensor:
#      x y z
#    x 3.365730 0.000000 0.000000 
#    y 0.000000 3.407290 0.000000 
#    z 0.000000 0.000000 3.519890 
# 
# 
# High freq. dielectric constant tensor:
#      x y z
#    x 1.701440 0.000000 0.000000 
#    y 0.000000 1.706510 0.000000 
#    z 0.000000 0.000000 1.712900 
# 
# From -- ./inp_files/8619.got.cif
#   From: 2010.03.12/outbox.cif.g09.slc.cpg/sg38_5_cif.got.tgz:8619.got - 2010.04.14 02:38:36.
