data_PCOD8178166
_publ_section_title
;
Structure prediction by ZEFSAII (Michael W. Deem and Ramdas Pophale) SiO2 
 PCOD8178166
Probable space group: A M M 2
;
_chemical_formula_sum "Si O2"
_cell_formula_units_Z 64
_cell_length_a 18.572510
_cell_length_b 14.432384
_cell_length_c 12.387481
_cell_angle_alpha 90.000000
_cell_angle_beta 90.000000
_cell_angle_gamma 90.000000
_cell_volume 3320.409730
_symmetry_space_group_name_H-M "A M M 2"
_symmetry_group_IT_number 38
_symmetry_cell_setting 'orthorhombic'
loop_
_space_group_symop_operation_xyz
x,y,z
-x,-y,z
-x,y,z
x,-y,z
x,1/2+y,1/2+z
-x,1/2-y,1/2+z
-x,1/2+y,1/2+z
x,1/2-y,1/2+z
loop_
_atom_site_type_symbol
_atom_site_label
_atom_site_fract_x
_atom_site_fract_y
_atom_site_fract_z
Si Si1 0.578315 0.281781 0.944960
Si Si2 0.171323 0.773702 0.205088
Si Si3 0.917685 0.106049 0.353493
Si Si4 0.730350 0.393255 0.557141
Si Si5 0.424140 0.604068 0.571440
Si Si6 0.699859 0.297781 0.330774
Si Si7 0.333396 0.894154 0.610958
Si Si8 0.828480 0.894233 0.565578
O O1 0.500000 0.321919 0.908057
O O2 0.638542 0.281570 0.851288
O O3 0.568401 0.173809 0.972283
O O4 0.605293 0.336341 0.050496
O O5 0.104103 0.829523 0.253139
O O6 0.207384 0.832441 0.109260
O O7 0.228139 0.756819 0.300121
O O8 0.142713 0.675987 0.157437
O O9 0.868160 0.129672 0.455166
O O10 0.000000 0.126279 0.384897
O O11 0.906588 0.000000 0.317663
O O12 0.754889 0.500000 0.558152
O O13 0.654766 0.378493 0.626171
O O14 0.716724 0.360263 0.435079
O O15 0.500000 0.614424 0.641655
O O16 0.420943 0.500000 0.523710
O O17 0.673333 0.363406 0.234446
O O18 0.257127 0.878564 0.550240
O O19 0.357529 0.000000 0.606917
O O20 0.844459 0.000000 0.602726
#
# Coordination Sequence:
#
# PCOD8178166 Si02
#       8
#     8   8   8   8   8   8   8   8
#     4  10  20  33  49  72 104 139 175 220 271 319
#     4  11  20  34  55  82 109 137 174 217 264 314
#     4  10  21  37  57  81 109 142 178 213 255 314
#     4  10  19  31  50  76 105 136 170 214 265 314
#     4   8  14  26  44  65  91 126 167 208 250 296
#     4  10  19  34  53  77 104 137 176 220 266 318
#     4  10  20  35  56  79 105 139 180 225 271 321
#     4   9  19  36  57  80 107 141 180 222 265 311
#
# _framework density 19.274730000000002
#
# number of rings (size 3 to 8) (size 9 to 14) (size 15 to 20)
#    0.000    2.250    0.000    5.250    0.000    2.250 
#    0.000    1.250    0.000    2.250    0.000    1.750 
#    0.000    0.000    0.000    0.000    0.000    0.000 
#
# Total GULP energy -396442.263467 kJ/mol
# GULP energy per Si atom -12388.820733 kJ/mol
# Density = 1.923086 g / cm^3
# Si number density = 19.274730 Si / 1000 Ang^3
#
#
#
# Elastic Constant Matrix: (Units=GPa)
#
#
# Indices 1 2 3 4 5 6 
#
# 1 81.9194 38.9307 52.1550 0.0000 0.0000 0.0000
# 2 38.9307 90.4180 50.1528 0.0000 0.0000 0.0000
# 3 52.1550 50.1528 81.5530 0.0000 0.0000 0.0000
# 4 0.0000 0.0000 0.0000 25.7329 0.0000 0.0000
# 5 0.0000 0.0000 0.0000 0.0000 12.9851 0.0000
# 6 0.0000 0.0000 0.0000 0.0000 0.0000 19.2241
#
#
#
# Elastic Compliance Matrix: (Units=1/GPa)
#
#
# Indices 1 2 3 4 5 6 
#
# 1 0.020931 -0.002409 -0.011904 0.000000 0.000000 0.000000
# 2 -0.002409 0.017063 -0.008952 0.000000 0.000000 0.000000
# 3 -0.011904 -0.008952 0.025381 0.000000 0.000000 0.000000
# 4 0.000000 0.000000 0.000000 0.038861 0.000000 0.000000
# 5 0.000000 0.000000 0.000000 0.000000 0.077011 0.000000
# 6 0.000000 0.000000 0.000000 0.000000 0.000000 0.052018
#
#
# Mechanical properties :
#
#
# Convention : Reuss Voigt Hill
#
# Bulk Modulus (GPa) = 59.37330 59.59639 59.48484
# Shear Modulus (GPa) = 17.64227 19.09855 18.37041
#
# Velocity S-wave (km/s) = 3.02868 3.15121 3.09055
# Velocity P-wave (km/s) = 6.56515 6.65032 6.60787
#
# Compressibility (1/GPa) = 0.01684259
#
# Stress axis : x y z
#
# Youngs Moduli (GPa) = 47.77595 58.60725 39.40024
#
# Poissons Ratio (x) = 0.14119 0.46903
# Poissons Ratio (y) = 0.11510 0.35273
# Poissons Ratio (z) = 0.56874 0.52468
#
# Static dielectric constant tensor:
#      x y z
#    x 3.702660 0.000000 0.000000 
#    y 0.000000 3.670900 0.000000 
#    z 0.000000 0.000000 3.163890 
# 
# 
# High freq. dielectric constant tensor:
#      x y z
#    x 1.744910 0.000000 0.000000 
#    y 0.000000 1.760760 0.000000 
#    z 0.000000 0.000000 1.718030 
# 
# From -- ./inp_files/10609.got.cif
#   From: 2010.03.12/outbox.cif.g09.slc.cpg/sg38_6_cif.got.tgz:10609.got - 2010.04.14 02:38:36.
