data_PCOD8178964
_publ_section_title
;
Structure prediction by ZEFSAII (Michael W. Deem and Ramdas Pophale) SiO2 
 PCOD8178964
Probable space group: A M M 2
;
_chemical_formula_sum "Si O2"
_cell_formula_units_Z 64
_cell_length_a 9.412305
_cell_length_b 15.885860
_cell_length_c 23.052896
_cell_angle_alpha 90.000000
_cell_angle_beta 90.000000
_cell_angle_gamma 90.000000
_cell_volume 3446.928014
_symmetry_space_group_name_H-M "A M M 2"
_symmetry_group_IT_number 38
_symmetry_cell_setting 'orthorhombic'
loop_
_space_group_symop_operation_xyz
x,y,z
-x,-y,z
-x,y,z
x,-y,z
x,1/2+y,1/2+z
-x,1/2-y,1/2+z
-x,1/2+y,1/2+z
x,1/2-y,1/2+z
loop_
_atom_site_type_symbol
_atom_site_label
_atom_site_fract_x
_atom_site_fract_y
_atom_site_fract_z
Si Si1 0.332342 0.096123 0.116760
Si Si2 0.332612 0.595383 0.080376
Si Si3 0.666885 0.734230 0.525603
Si Si4 0.332247 0.252186 0.896488
Si Si5 0.154760 0.403543 0.186827
Si Si6 0.162515 0.407421 0.856819
Si Si7 0.839052 0.360367 0.730848
Si Si8 0.161303 0.187962 0.793912
O O1 0.500000 0.107811 0.123992
O O2 0.264043 0.114787 0.178919
O O3 0.296513 0.000000 0.097461
O O4 0.270151 0.162189 0.068603
O O5 0.500000 0.593441 0.086812
O O6 0.280160 0.500000 0.062519
O O7 0.271322 0.628692 0.141620
O O8 0.280761 0.669047 0.036667
O O9 0.500000 0.732698 0.534368
O O10 0.707138 0.713316 0.459168
O O11 0.500000 0.259543 0.887510
O O12 0.266196 0.345104 0.890739
O O13 0.266604 0.190531 0.848332
O O14 0.134888 0.500000 0.174433
O O15 0.201953 0.391560 0.253923
O O16 0.000000 0.358717 0.177274
O O17 0.181867 0.500000 0.884192
O O18 0.199334 0.413433 0.788498
O O19 0.000000 0.374806 0.863565
O O20 0.816895 0.263934 0.748747
O O21 0.000000 0.378876 0.710673
O O22 0.000000 0.185144 0.817808
#
# Coordination Sequence:
#
# PCOD8178964 Si02
#       8
#     8   8   8   8   8   8   8   8
#     4  10  20  33  50  71  95 126 163 201 241 285
#     4   9  17  30  50  74  99 127 156 189 236 294
#     4   9  19  35  50  67  96 130 162 200 245 285
#     4  10  20  33  50  70  92 124 168 209 238 274
#     4   9  17  30  49  73  99 124 153 194 243 294
#     4   9  18  33  51  72 102 134 156 184 237 297
#     4   9  17  30  49  72  98 126 153 186 235 292
#     4   9  18  33  50  69  97 130 158 191 245 301
#
# _framework density 18.567257000000001
#
# number of rings (size 3 to 8) (size 9 to 14) (size 15 to 20)
#    0.000    2.750    0.000    2.250    0.000    4.000 
#    0.000    4.375    0.000    2.250    0.000    0.000 
#    0.000    0.000    0.000    0.000    0.000    0.000 
#
# Total GULP energy -396465.551357 kJ/mol
# GULP energy per Si atom -12389.548480 kJ/mol
# Density = 1.852500 g / cm^3
# Si number density = 18.567257 Si / 1000 Ang^3
#
#
#
# Elastic Constant Matrix: (Units=GPa)
#
#
# Indices 1 2 3 4 5 6 
#
# 1 53.8485 22.6834 39.5317 0.0000 0.0000 0.0000
# 2 22.6834 54.9079 38.9336 0.0000 0.0000 0.0000
# 3 39.5317 38.9336 99.5906 0.0000 0.0000 0.0000
# 4 0.0000 0.0000 0.0000 15.0665 0.0000 0.0000
# 5 0.0000 0.0000 0.0000 0.0000 9.5888 0.0000
# 6 0.0000 0.0000 0.0000 0.0000 0.0000 18.5931
#
#
#
# Elastic Compliance Matrix: (Units=1/GPa)
#
#
# Indices 1 2 3 4 5 6 
#
# 1 0.027144 -0.004944 -0.008842 0.000000 0.000000 0.000000
# 2 -0.004944 0.026098 -0.008240 0.000000 0.000000 0.000000
# 3 -0.008842 -0.008240 0.016772 0.000000 0.000000 0.000000
# 4 0.000000 0.000000 0.000000 0.066373 0.000000 0.000000
# 5 0.000000 0.000000 0.000000 0.000000 0.104289 0.000000
# 6 0.000000 0.000000 0.000000 0.000000 0.000000 0.053783
#
#
# Mechanical properties :
#
#
# Convention : Reuss Voigt Hill
#
# Bulk Modulus (GPa) = 38.51787 45.62714 42.07251
# Shear Modulus (GPa) = 14.40238 15.79623 15.09931
#
# Velocity S-wave (km/s) = 2.78814 2.91994 2.85480
# Velocity P-wave (km/s) = 5.58167 5.99962 5.79441
#
# Compressibility (1/GPa) = 0.02596197
#
# Stress axis : x y z
#
# Youngs Moduli (GPa) = 36.84001 38.31779 59.62300
#
# Poissons Ratio (x) = 0.18946 0.52718
# Poissons Ratio (y) = 0.18215 0.49129
# Poissons Ratio (z) = 0.32573 0.31573
#
# Static dielectric constant tensor:
#      x y z
#    x 3.461010 0.000000 0.000000 
#    y 0.000000 3.714720 0.000000 
#    z 0.000000 0.000000 3.361260 
# 
# 
# High freq. dielectric constant tensor:
#      x y z
#    x 1.702640 0.000000 0.000000 
#    y 0.000000 1.717810 0.000000 
#    z 0.000000 0.000000 1.710540 
# 
# From -- ./inp_files/20077.got.cif
#   From: 2010.03.12/outbox.cif.g09.slc.cpg/sg38_11_cif.got.tgz:20077.got - 2010.04.14 02:38:36.
