data_PCOD8178775
_publ_section_title
;
Structure prediction by ZEFSAII (Michael W. Deem and Ramdas Pophale) SiO2 
 PCOD8178775
Probable space group: A M M 2
;
_chemical_formula_sum "Si O2"
_cell_formula_units_Z 52
_cell_length_a 7.751033
_cell_length_b 14.172210
_cell_length_c 21.853169
_cell_angle_alpha 90.000000
_cell_angle_beta 90.000000
_cell_angle_gamma 90.000000
_cell_volume 2400.554605
_symmetry_space_group_name_H-M "A M M 2"
_symmetry_group_IT_number 38
_symmetry_cell_setting 'orthorhombic'
loop_
_space_group_symop_operation_xyz
x,y,z
-x,-y,z
-x,y,z
x,-y,z
x,1/2+y,1/2+z
-x,1/2-y,1/2+z
-x,1/2+y,1/2+z
x,1/2-y,1/2+z
loop_
_atom_site_type_symbol
_atom_site_label
_atom_site_fract_x
_atom_site_fract_y
_atom_site_fract_z
Si Si1 0.000000 0.785538 0.336581
Si Si2 0.799831 0.389048 0.632211
Si Si3 0.692139 0.887988 0.548586
Si Si4 0.690482 0.219069 0.249562
Si Si5 0.307636 0.611172 0.500509
Si Si6 0.204101 0.893792 0.681532
Si Si7 0.000000 0.387368 0.964592
Si Si8 0.000000 0.611333 0.412979
O O1 0.831033 0.814757 0.298509
O O2 0.000000 0.847027 0.397172
O O3 0.000000 0.673028 0.351093
O O4 0.763735 0.500000 0.635479
O O5 0.701109 0.341145 0.687785
O O6 0.731308 0.346136 0.567719
O O7 0.000000 0.364733 0.638067
O O8 0.500000 0.854467 0.529247
O O9 0.735873 0.851484 0.616464
O O10 0.829975 0.848538 0.499773
O O11 0.706407 0.000000 0.550122
O O12 0.500000 0.205086 0.277936
O O13 0.717209 0.329464 0.234664
O O14 0.500000 0.641070 0.479245
O O15 0.288897 0.500000 0.506845
O O16 0.168280 0.644285 0.450809
O O17 0.000000 0.889563 0.684510
O O18 0.272758 0.000000 0.691569
O O19 0.000000 0.500000 0.961527
O O20 0.000000 0.500000 0.396597
#
# Coordination Sequence:
#
# PCOD8178775 Si02
#       8
#     4   8   8   8   8   8   4   4
#     4  12  28  44  58  82 112 158 220 258 280 338
#     4  10  19  37  66  95 125 157 188 237 307 369
#     4   9  17  33  61  95 123 148 185 234 296 367
#     4  12  26  43  61  86 121 159 205 254 296 349
#     4   9  17  33  61  95 123 148 185 234 296 367
#     4  10  19  37  66  95 125 157 188 237 307 369
#     4  10  22  41  61  83 117 158 195 244 298 344
#     4  10  22  41  61  83 117 158 195 244 298 344
#
# _framework density 21.661663000000001
#
# number of rings (size 3 to 8) (size 9 to 14) (size 15 to 20)
#    0.000    1.846    3.077    0.923    0.000    5.538 
#    0.000    1.538    0.000    0.000    0.000    0.000 
#    0.000    0.000    0.000    0.000    0.000    0.000 
#
# Total GULP energy -322429.038299 kJ/mol
# GULP energy per Si atom -12401.116858 kJ/mol
# Density = 2.161236 g / cm^3
# Si number density = 21.661663 Si / 1000 Ang^3
#
#
#
# Elastic Constant Matrix: (Units=GPa)
#
#
# Indices 1 2 3 4 5 6 
#
# 1 170.4026 2.9309 42.3986 0.0000 0.0000 0.0000
# 2 2.9309 15.0074 -9.0575 0.0000 0.0000 0.0000
# 3 42.3986 -9.0575 71.0745 0.0000 0.0000 0.0000
# 4 0.0000 0.0000 0.0000 34.1737 0.0000 0.0000
# 5 0.0000 0.0000 0.0000 0.0000 11.5225 0.0000
# 6 0.0000 0.0000 0.0000 0.0000 0.0000 11.6117
#
#
#
# Elastic Compliance Matrix: (Units=1/GPa)
#
#
# Indices 1 2 3 4 5 6 
#
# 1 0.007138 -0.004294 -0.004805 0.000000 0.000000 0.000000
# 2 -0.004294 0.074769 0.012090 0.000000 0.000000 0.000000
# 3 -0.004805 0.012090 0.018477 0.000000 0.000000 0.000000
# 4 0.000000 0.000000 0.000000 0.029262 0.000000 0.000000
# 5 0.000000 0.000000 0.000000 0.000000 0.086786 0.000000
# 6 0.000000 0.000000 0.000000 0.000000 0.000000 0.086120
#
#
# Mechanical properties :
#
#
# Convention : Reuss Voigt Hill
#
# Bulk Modulus (GPa) = 9.40154 36.55871 22.98012
# Shear Modulus (GPa) = 15.05902 26.14244 20.60073
#
# Velocity S-wave (km/s) = 2.63951 3.47775 3.08721
# Velocity P-wave (km/s) = 3.69310 5.74805 4.83110
#
# Compressibility (1/GPa) = 0.10636552
#
# Stress axis : x y z
#
# Youngs Moduli (GPa) = 140.09657 13.37445 54.12139
#
# Poissons Ratio (x) = 0.05743 0.26007
# Poissons Ratio (y) = 0.60160 -0.65433
# Poissons Ratio (z) = 0.67320 -0.16170
#
# Static dielectric constant tensor:
#      x y z
#    x 4.123600 0.000000 0.000000 
#    y 0.000000 3.874730 0.000000 
#    z 0.000000 0.000000 3.704110 
# 
# 
# High freq. dielectric constant tensor:
#      x y z
#    x 1.862820 0.000000 0.000000 
#    y 0.000000 1.848160 0.000000 
#    z 0.000000 0.000000 1.827340 
# 
# From -- ./inp_files/19730.got.cif
#   From: 2010.03.12/outbox.cif.g09.slc.cpg/sg38_10_cif.got.tgz:19730.got - 2010.04.14 02:38:36.
