data_PCOD8178242
_publ_section_title
;
Structure prediction by ZEFSAII (Michael W. Deem and Ramdas Pophale) SiO2 
 PCOD8178242
Probable space group: A M M 2
;
_chemical_formula_sum "Si O2"
_cell_formula_units_Z 40
_cell_length_a 8.879431
_cell_length_b 13.594547
_cell_length_c 18.570020
_cell_angle_alpha 90.000000
_cell_angle_beta 90.000000
_cell_angle_gamma 90.000000
_cell_volume 2241.621321
_symmetry_space_group_name_H-M "A M M 2"
_symmetry_group_IT_number 38
_symmetry_cell_setting 'orthorhombic'
loop_
_space_group_symop_operation_xyz
x,y,z
-x,-y,z
-x,y,z
x,-y,z
x,1/2+y,1/2+z
-x,1/2-y,1/2+z
-x,1/2+y,1/2+z
x,1/2-y,1/2+z
loop_
_atom_site_type_symbol
_atom_site_label
_atom_site_fract_x
_atom_site_fract_y
_atom_site_fract_z
Si Si1 0.822441 0.293169 0.462090
Si Si2 0.675636 0.884235 0.823493
Si Si3 0.674678 0.610215 0.596326
Si Si4 0.675814 0.199459 0.675076
Si Si5 0.678168 0.388877 0.027165
O O1 0.769910 0.338097 0.387420
O O2 0.769507 0.364804 0.525784
O O3 0.754854 0.183708 0.470045
O O4 0.000000 0.285889 0.463482
O O5 0.500000 0.858660 0.834161
O O6 0.745141 0.837080 0.750268
O O7 0.702159 0.000000 0.820513
O O8 0.500000 0.620963 0.574510
O O9 0.713170 0.500000 0.622505
O O10 0.713013 0.685087 0.661490
O O11 0.500000 0.179094 0.680618
O O12 0.738336 0.136818 0.607427
O O13 0.500000 0.372703 0.023170
O O14 0.724001 0.500000 0.007713
#
# Coordination Sequence:
#
# PCOD8178242 Si02
#       5
#     8   8   8   8   8
#     4  11  22  33  47  71 104 136 166 202 242 289
#     4  10  19  32  51  73  99 131 165 204 249 294
#     4   9  17  32  54  76  98 127 165 208 249 290
#     4   8  15  29  51  78 101 121 156 206 253 293
#     4   9  17  33  57  79  98 124 161 204 247 293
#
# _framework density 17.844228000000001
#
# number of rings (size 3 to 8) (size 9 to 14) (size 15 to 20)
#    0.000    2.600    0.000    4.200    0.000    6.000 
#    0.000    5.000    0.000    8.400    0.000    0.000 
#    0.000    0.000    0.000    0.000    0.000    0.000 
#
# Total GULP energy -247954.834024 kJ/mol
# GULP energy per Si atom -12397.741701 kJ/mol
# Density = 1.780361 g / cm^3
# Si number density = 17.844228 Si / 1000 Ang^3
#
#
#
# Elastic Constant Matrix: (Units=GPa)
#
#
# Indices 1 2 3 4 5 6 
#
# 1 61.7366 46.9721 33.7401 0.0000 0.0000 0.0000
# 2 46.9721 149.2182 53.8680 0.0000 0.0000 0.0000
# 3 33.7401 53.8680 100.1993 0.0000 0.0000 0.0000
# 4 0.0000 0.0000 0.0000 23.9604 0.0000 0.0000
# 5 0.0000 0.0000 0.0000 0.0000 -0.7401 0.0000
# 6 0.0000 0.0000 0.0000 0.0000 0.0000 11.1107
#
#
#
# Elastic Compliance Matrix: (Units=1/GPa)
#
#
# Indices 1 2 3 4 5 6 
#
# 1 0.023008 -0.005517 -0.004782 0.000000 0.000000 0.000000
# 2 -0.005517 0.009638 -0.003324 0.000000 0.000000 0.000000
# 3 -0.004782 -0.003324 0.013377 0.000000 0.000000 0.000000
# 4 0.000000 0.000000 0.000000 0.041736 0.000000 0.000000
# 5 0.000000 0.000000 0.000000 0.000000 -1.351136 0.000000
# 6 0.000000 0.000000 0.000000 0.000000 0.000000 0.090003
#
#
# Mechanical properties :
#
#
# Convention : Reuss Voigt Hill
#
# Bulk Modulus (GPa) = 53.25063 64.47937 58.86500
# Shear Modulus (GPa) = -4.38647 18.63780 7.12566
#
# Velocity S-wave (km/s) = -1.56957 3.23534 2.00048
# Velocity P-wave (km/s) = 5.15965 7.08305 6.19643
#
# Compressibility (1/GPa) = 0.01877912
#
# Stress axis : x y z
#
# Youngs Moduli (GPa) = 43.46226 103.75515 74.75355
#
# Poissons Ratio (x) = 0.57237 0.35746
# Poissons Ratio (y) = 0.23976 0.24848
# Poissons Ratio (z) = 0.20783 0.34488
#
# Static dielectric constant tensor:
#      x y z
#    x 3.001250 0.000000 0.000000 
#    y 0.000000 3.544410 0.000000 
#    z 0.000000 0.000000 3.338990 
# 
# 
# High freq. dielectric constant tensor:
#      x y z
#    x 1.658950 0.000000 0.000000 
#    y 0.000000 1.702930 0.000000 
#    z 0.000000 0.000000 1.679310 
# 
# From -- ./inp_files/11662.got.cif
#   From: 2010.03.12/outbox.cif.g09.slc.cpg/sg38_6_cif.got.tgz:11662.got - 2010.04.14 02:38:36.
