data_PCOD8178209
_publ_section_title
;
Structure prediction by ZEFSAII (Michael W. Deem and Ramdas Pophale) SiO2 
 PCOD8178209
Probable space group: A M M 2
;
_chemical_formula_sum "Si O2"
_cell_formula_units_Z 56
_cell_length_a 9.111870
_cell_length_b 16.234899
_cell_length_c 22.841034
_cell_angle_alpha 90.000000
_cell_angle_beta 90.000000
_cell_angle_gamma 90.000000
_cell_volume 3378.880764
_symmetry_space_group_name_H-M "A M M 2"
_symmetry_group_IT_number 38
_symmetry_cell_setting 'orthorhombic'
loop_
_space_group_symop_operation_xyz
x,y,z
-x,-y,z
-x,y,z
x,-y,z
x,1/2+y,1/2+z
-x,1/2-y,1/2+z
-x,1/2+y,1/2+z
x,1/2-y,1/2+z
loop_
_atom_site_type_symbol
_atom_site_label
_atom_site_fract_x
_atom_site_fract_y
_atom_site_fract_z
Si Si1 0.833042 0.500000 0.630821
Si Si2 0.831728 0.000000 0.992565
Si Si3 0.171600 0.908372 0.545463
Si Si4 0.669428 0.857477 0.195371
Si Si5 0.172163 0.904309 0.308558
Si Si6 0.326348 0.332206 0.481915
Si Si7 0.828761 0.315590 0.928126
Si Si8 0.332967 0.264819 0.096624
O O1 0.823625 0.500000 0.561909
O O2 0.752079 0.421114 0.654753
O O3 0.000000 0.500000 0.653754
O O4 0.750152 0.080790 0.968539
O O5 0.000000 0.000000 0.970720
O O6 0.210424 0.877309 0.480643
O O7 0.240825 0.848569 0.593914
O O8 0.000000 0.908805 0.556327
O O9 0.236740 0.000000 0.552905
O O10 0.500000 0.883093 0.201319
O O11 0.742009 0.853438 0.259045
O O12 0.686357 0.770501 0.162038
O O13 0.216854 0.863384 0.369626
O O14 0.000000 0.896475 0.296880
O O15 0.220570 0.000000 0.307768
O O16 0.500000 0.342946 0.475121
O O17 0.266558 0.267324 0.433999
O O18 0.281211 0.300634 0.546957
O O19 0.000000 0.291680 0.928524
O O20 0.500000 0.287836 0.083166
#
# Coordination Sequence:
#
# PCOD8178209 Si02
#       8
#     4   4   8   8   8   8   8   8
#     4  11  21  31  47  71 101 133 167 200 237 290
#     4  11  21  31  49  75 101 131 165 200 245 298
#     4   9  17  30  50  74  97 125 161 200 242 289
#     4  11  21  33  48  70 102 135 166 200 242 290
#     4  10  20  33  50  73 100 133 170 204 241 287
#     4  10  19  32  49  71 100 131 165 202 245 294
#     4   9  18  33  50  70 100 132 164 202 244 288
#     4   9  19  32  46  68  99 132 161 196 244 292
#
# _framework density 16.573535
#
# number of rings (size 3 to 8) (size 9 to 14) (size 15 to 20)
#    0.000    2.143    2.143    1.714    0.000    4.857 
#    0.000    0.000    0.000    2.571    1.857    0.000 
#    0.000    0.000    0.000    0.000    0.000    0.000 
#
# Total GULP energy -347219.275830 kJ/mol
# GULP energy per Si atom -12400.688423 kJ/mol
# Density = 1.653581 g / cm^3
# Si number density = 16.573535 Si / 1000 Ang^3
#
#
#
# Elastic Constant Matrix: (Units=GPa)
#
#
# Indices 1 2 3 4 5 6 
#
# 1 75.3894 58.1379 39.2019 0.0000 0.0000 0.0000
# 2 58.1379 129.3097 44.2112 0.0000 0.0000 0.0000
# 3 39.2019 44.2112 82.1970 0.0000 0.0000 0.0000
# 4 0.0000 0.0000 0.0000 31.6497 0.0000 0.0000
# 5 0.0000 0.0000 0.0000 0.0000 24.4678 0.0000
# 6 0.0000 0.0000 0.0000 0.0000 0.0000 47.1534
#
#
#
# Elastic Compliance Matrix: (Units=1/GPa)
#
#
# Indices 1 2 3 4 5 6 
#
# 1 0.022892 -0.008038 -0.006595 0.000000 0.000000 0.000000
# 2 -0.008038 0.012298 -0.002781 0.000000 0.000000 0.000000
# 3 -0.006595 -0.002781 0.016807 0.000000 0.000000 0.000000
# 4 0.000000 0.000000 0.000000 0.031596 0.000000 0.000000
# 5 0.000000 0.000000 0.000000 0.000000 0.040870 0.000000
# 6 0.000000 0.000000 0.000000 0.000000 0.000000 0.021207
#
#
# Mechanical properties :
#
#
# Convention : Reuss Voigt Hill
#
# Bulk Modulus (GPa) = 58.24150 63.33312 60.78731
# Shear Modulus (GPa) = 26.84987 30.34386 28.59686
#
# Velocity S-wave (km/s) = 4.02934 4.28350 4.15836
# Velocity P-wave (km/s) = 7.54089 7.92218 7.73388
#
# Compressibility (1/GPa) = 0.01716989
#
# Stress axis : x y z
#
# Youngs Moduli (GPa) = 43.68357 81.31373 59.49873
#
# Poissons Ratio (x) = 0.65356 0.39237
# Poissons Ratio (y) = 0.35111 0.16549
# Poissons Ratio (z) = 0.28808 0.22617
#
# Static dielectric constant tensor:
#      x y z
#    x 3.167090 0.000000 0.000000 
#    y 0.000000 3.111010 0.000000 
#    z 0.000000 0.000000 2.977560 
# 
# 
# High freq. dielectric constant tensor:
#      x y z
#    x 1.644740 0.000000 0.000000 
#    y 0.000000 1.633120 0.000000 
#    z 0.000000 0.000000 1.613610 
# 
# From -- ./inp_files/19870.got.cif
#   From: 2010.03.12/outbox.cif.g09.slc.cpg/sg38_10_cif.got.tgz:19870.got - 2010.04.14 02:38:36.
