data_PCOD8178500
_publ_section_title
;
Structure prediction by ZEFSAII (Michael W. Deem and Ramdas Pophale) SiO2 
 PCOD8178500
Probable space group: A M M 2
;
_chemical_formula_sum "Si O2"
_cell_formula_units_Z 64
_cell_length_a 19.163980
_cell_length_b 8.960266
_cell_length_c 20.449799
_cell_angle_alpha 90.000000
_cell_angle_beta 90.000000
_cell_angle_gamma 90.000000
_cell_volume 3511.524115
_symmetry_space_group_name_H-M "A M M 2"
_symmetry_group_IT_number 38
_symmetry_cell_setting 'orthorhombic'
loop_
_space_group_symop_operation_xyz
x,y,z
-x,-y,z
-x,y,z
x,-y,z
x,1/2+y,1/2+z
-x,1/2-y,1/2+z
-x,1/2+y,1/2+z
x,1/2-y,1/2+z
loop_
_atom_site_type_symbol
_atom_site_label
_atom_site_fract_x
_atom_site_fract_y
_atom_site_fract_z
Si Si1 0.783501 0.828827 0.198260
Si Si2 0.282309 0.827276 0.819287
Si Si3 0.422941 0.824548 0.125644
Si Si4 0.079019 0.175362 0.896890
Si Si5 0.211328 0.824071 0.440945
Si Si6 0.577275 0.328608 0.260143
Si Si7 0.077365 0.669422 0.762908
Si Si8 0.283009 0.325756 0.561474
O O1 0.746609 0.718842 0.248760
O O2 0.867239 0.807355 0.204763
O O3 0.762511 0.785120 0.125064
O O4 0.761518 0.000000 0.213141
O O5 0.249647 0.726215 0.875115
O O6 0.366185 0.800523 0.817395
O O7 0.264182 0.000000 0.833166
O O8 0.500000 0.766222 0.103641
O O9 0.401714 0.763329 0.196216
O O10 0.363902 0.779247 0.073260
O O11 0.423408 0.000000 0.133678
O O12 0.133511 0.255016 0.945326
O O13 0.096444 0.222458 0.822756
O O14 0.000000 0.223040 0.915585
O O15 0.089284 0.000000 0.903139
O O16 0.256151 0.772405 0.502260
O O17 0.204770 0.000000 0.440939
O O18 0.500000 0.282880 0.285918
O O19 0.578634 0.500000 0.238410
O O20 0.081055 0.500000 0.789831
O O21 0.000000 0.705464 0.735323
O O22 0.276246 0.500000 0.543631
#
# Coordination Sequence:
#
# PCOD8178500 Si02
#       8
#     8   8   8   8   8   8   8   8
#     4  10  19  33  55  82 111 144 181 225 275 329
#     4  11  21  34  56  82 110 143 182 228 278 330
#     4   9  17  31  54  82 110 143 182 224 273 332
#     4  10  20  35  57  84 111 141 180 226 276 331
#     4  12  25  39  56  79 111 150 192 233 278 329
#     4   9  18  32  52  81 113 143 178 224 278 333
#     4   9  17  30  51  81 114 146 180 220 268 323
#     4  10  21  37  55  79 114 150 188 230 276 331
#
# _framework density 18.225705999999999
#
# number of rings (size 3 to 8) (size 9 to 14) (size 15 to 20)
#    0.000    2.000    2.500    1.875    0.000    2.250 
#    0.000    1.250    0.000    6.000    0.000    0.000 
#    0.000    0.000    0.000    0.000    0.000    0.000 
#
# Total GULP energy -396746.419312 kJ/mol
# GULP energy per Si atom -12398.325604 kJ/mol
# Density = 1.818422 g / cm^3
# Si number density = 18.225706 Si / 1000 Ang^3
#
#
#
# Elastic Constant Matrix: (Units=GPa)
#
#
# Indices 1 2 3 4 5 6 
#
# 1 134.1516 46.2069 50.8203 0.0000 0.0000 0.0000
# 2 46.2069 69.0819 31.9116 0.0000 0.0000 0.0000
# 3 50.8203 31.9116 67.3480 0.0000 0.0000 0.0000
# 4 0.0000 0.0000 0.0000 29.4165 0.0000 0.0000
# 5 0.0000 0.0000 0.0000 0.0000 25.7024 0.0000
# 6 0.0000 0.0000 0.0000 0.0000 0.0000 24.2797
#
#
#
# Elastic Compliance Matrix: (Units=1/GPa)
#
#
# Indices 1 2 3 4 5 6 
#
# 1 0.011530 -0.004728 -0.006460 0.000000 0.000000 0.000000
# 2 -0.004728 0.020470 -0.006132 0.000000 0.000000 0.000000
# 3 -0.006460 -0.006132 0.022629 0.000000 0.000000 0.000000
# 4 0.000000 0.000000 0.000000 0.033995 0.000000 0.000000
# 5 0.000000 0.000000 0.000000 0.000000 0.038907 0.000000
# 6 0.000000 0.000000 0.000000 0.000000 0.000000 0.041187
#
#
# Mechanical properties :
#
#
# Convention : Reuss Voigt Hill
#
# Bulk Modulus (GPa) = 50.02757 58.71769 54.37263
# Shear Modulus (GPa) = 23.80721 25.32256 24.56489
#
# Velocity S-wave (km/s) = 3.61812 3.73149 3.67524
# Velocity P-wave (km/s) = 6.70544 7.13108 6.92153
#
# Compressibility (1/GPa) = 0.01998898
#
# Stress axis : x y z
#
# Youngs Moduli (GPa) = 86.73009 48.85085 44.19179
#
# Poissons Ratio (x) = 0.23096 0.28549
# Poissons Ratio (y) = 0.41005 0.27098
# Poissons Ratio (z) = 0.56030 0.29955
#
# Static dielectric constant tensor:
#      x y z
#    x 3.998270 0.000000 0.000000 
#    y 0.000000 3.351650 0.000000 
#    z 0.000000 0.000000 3.036670 
# 
# 
# High freq. dielectric constant tensor:
#      x y z
#    x 1.731340 0.000000 0.000000 
#    y 0.000000 1.706290 0.000000 
#    z 0.000000 0.000000 1.665870 
# 
# From -- ./inp_files/18855.got.cif
#   From: 2010.03.12/outbox.cif.g09.slc.cpg/sg38_10_cif.got.tgz:18855.got - 2010.04.14 02:38:36.
