data_PCOD8178260
_publ_section_title
;
Structure prediction by ZEFSAII (Michael W. Deem and Ramdas Pophale) SiO2 
 PCOD8178260
Probable space group: A M M 2
;
_chemical_formula_sum "Si O2"
_cell_formula_units_Z 64
_cell_length_a 8.814109
_cell_length_b 20.598478
_cell_length_c 19.680946
_cell_angle_alpha 90.000000
_cell_angle_beta 90.000000
_cell_angle_gamma 90.000000
_cell_volume 3573.218046
_symmetry_space_group_name_H-M "A M M 2"
_symmetry_group_IT_number 38
_symmetry_cell_setting 'orthorhombic'
loop_
_space_group_symop_operation_xyz
x,y,z
-x,-y,z
-x,y,z
x,-y,z
x,1/2+y,1/2+z
-x,1/2-y,1/2+z
-x,1/2+y,1/2+z
x,1/2-y,1/2+z
loop_
_atom_site_type_symbol
_atom_site_label
_atom_site_fract_x
_atom_site_fract_y
_atom_site_fract_z
Si Si1 0.679401 0.811460 0.142280
Si Si2 0.324708 0.366860 0.279731
Si Si3 0.820995 0.619095 0.415955
Si Si4 0.178887 0.765780 0.423143
Si Si5 0.326427 0.573604 0.137538
Si Si6 0.674695 0.927677 0.047350
Si Si7 0.820364 0.728521 0.774432
Si Si8 0.821335 0.690240 0.066042
O O1 0.500000 0.807841 0.145452
O O2 0.736221 0.874746 0.101108
O O3 0.742857 0.817826 0.218811
O O4 0.739684 0.745756 0.108916
O O5 0.500000 0.347787 0.290273
O O6 0.260109 0.403199 0.346348
O O7 0.302773 0.416043 0.217619
O O8 0.229205 0.302601 0.262824
O O9 0.764334 0.692051 0.432036
O O10 0.769732 0.574354 0.478001
O O11 0.000000 0.613628 0.405811
O O12 0.233687 0.794233 0.350190
O O13 0.236848 0.807058 0.487578
O O14 0.000000 0.764723 0.422098
O O15 0.500000 0.588492 0.117543
O O16 0.281767 0.500000 0.119873
O O17 0.218419 0.619612 0.093725
O O18 0.500000 0.913043 0.030025
O O19 0.694552 0.000000 0.078430
O O20 0.000000 0.724397 0.765798
O O21 0.000000 0.702664 0.071102
#
# Coordination Sequence:
#
# PCOD8178260 Si02
#       8
#     8   8   8   8   8   8   8   8
#     4  11  21  34  54  81 108 139 180 225 272 321
#     4  10  19  32  51  76 108 146 182 217 260 315
#     4  10  19  33  52  77 109 143 179 220 265 317
#     4   8  17  32  51  78 108 134 167 213 267 314
#     4  10  22  38  53  74 108 145 179 219 265 314
#     4  10  22  38  54  75 107 146 185 225 271 324
#     4  10  19  33  54  80 109 140 174 222 271 317
#     4  11  20  34  57  81 105 137 177 223 269 317
#
# _framework density 17.911026
#
# number of rings (size 3 to 8) (size 9 to 14) (size 15 to 20)
#    0.000    2.000    2.500    2.625    0.000    2.000 
#    0.000    3.125    0.000    0.750    0.000    3.500 
#    0.000    0.000    0.000    0.000    0.000    0.000 
#
# Total GULP energy -396763.450659 kJ/mol
# GULP energy per Si atom -12398.857833 kJ/mol
# Density = 1.787026 g / cm^3
# Si number density = 17.911026 Si / 1000 Ang^3
#
#
#
# Elastic Constant Matrix: (Units=GPa)
#
#
# Indices 1 2 3 4 5 6 
#
# 1 60.4002 22.5130 35.9158 0.0000 0.0000 0.0000
# 2 22.5130 80.7740 49.1765 0.0000 0.0000 0.0000
# 3 35.9158 49.1765 126.8101 0.0000 0.0000 0.0000
# 4 0.0000 0.0000 0.0000 23.2729 0.0000 0.0000
# 5 0.0000 0.0000 0.0000 0.0000 28.7393 0.0000
# 6 0.0000 0.0000 0.0000 0.0000 0.0000 16.7378
#
#
#
# Elastic Compliance Matrix: (Units=1/GPa)
#
#
# Indices 1 2 3 4 5 6 
#
# 1 0.020394 -0.002838 -0.004676 0.000000 0.000000 0.000000
# 2 -0.002838 0.016601 -0.005634 0.000000 0.000000 0.000000
# 3 -0.004676 -0.005634 0.011395 0.000000 0.000000 0.000000
# 4 0.000000 0.000000 0.000000 0.042968 0.000000 0.000000
# 5 0.000000 0.000000 0.000000 0.000000 0.034796 0.000000
# 6 0.000000 0.000000 0.000000 0.000000 0.000000 0.059745
#
#
# Mechanical properties :
#
#
# Convention : Reuss Voigt Hill
#
# Bulk Modulus (GPa) = 45.25815 53.68832 49.47324
# Shear Modulus (GPa) = 22.77283 24.44194 23.60738
#
# Velocity S-wave (km/s) = 3.56960 3.69810 3.63442
# Velocity P-wave (km/s) = 6.50481 6.94800 6.73005
#
# Compressibility (1/GPa) = 0.02209547
#
# Stress axis : x y z
#
# Youngs Moduli (GPa) = 49.03346 60.23620 87.75731
#
# Poissons Ratio (x) = 0.17092 0.41034
# Poissons Ratio (y) = 0.13913 0.49445
# Poissons Ratio (z) = 0.22927 0.33939
#
# Static dielectric constant tensor:
#      x y z
#    x 3.280810 0.000000 0.000000 
#    y 0.000000 3.109880 0.000000 
#    z 0.000000 0.000000 3.755790 
# 
# 
# High freq. dielectric constant tensor:
#      x y z
#    x 1.693500 0.000000 0.000000 
#    y 0.000000 1.661550 0.000000 
#    z 0.000000 0.000000 1.702070 
# 
# From -- ./inp_files/17217.got.cif
#   From: 2010.03.12/outbox.cif.g09.slc.cpg/sg38_9_cif.got.tgz:17217.got - 2010.04.14 02:38:36.
