data_PCOD8178825
_publ_section_title
;
Structure prediction by ZEFSAII (Michael W. Deem and Ramdas Pophale) SiO2 
 PCOD8178825
Probable space group: A M M 2
;
_chemical_formula_sum "Si O2"
_cell_formula_units_Z 64
_cell_length_a 14.696080
_cell_length_b 15.221698
_cell_length_c 15.305598
_cell_angle_alpha 90.000000
_cell_angle_beta 90.000000
_cell_angle_gamma 90.000000
_cell_volume 3423.851429
_symmetry_space_group_name_H-M "A M M 2"
_symmetry_group_IT_number 38
_symmetry_cell_setting 'orthorhombic'
loop_
_space_group_symop_operation_xyz
x,y,z
-x,-y,z
-x,y,z
x,-y,z
x,1/2+y,1/2+z
-x,1/2-y,1/2+z
-x,1/2+y,1/2+z
x,1/2-y,1/2+z
loop_
_atom_site_type_symbol
_atom_site_label
_atom_site_fract_x
_atom_site_fract_y
_atom_site_fract_z
Si Si1 0.223896 0.252627 0.419430
Si Si2 0.896665 0.400934 0.992836
Si Si3 0.276104 0.752627 0.220430
Si Si4 0.104475 0.900443 0.866937
Si Si5 0.100834 0.678177 0.176852
Si Si6 0.395525 0.099557 0.272923
Si Si7 0.396665 0.900934 0.647024
Si Si8 0.600835 0.821825 0.463007
O O1 0.166744 0.166024 0.441514
O O2 0.250000 0.250001 0.319930
O O3 0.164008 0.340334 0.433374
O O4 0.319491 0.252181 0.473619
O O5 0.865193 0.500000 0.971027
O O6 0.889869 0.388851 0.096998
O O7 0.000000 0.385376 0.961182
O O8 0.180509 0.752182 0.166241
O O9 0.335993 0.840333 0.206486
O O10 0.333254 0.666024 0.198346
O O11 0.117698 0.875600 0.765534
O O12 0.000000 0.888236 0.894566
O O13 0.136943 0.000000 0.880037
O O14 0.000000 0.722423 0.177251
O O15 0.500000 0.111769 0.245296
O O16 0.382299 0.124396 0.374326
O O17 0.363061 0.000000 0.259818
O O18 0.500000 0.885372 0.678678
O O19 0.389869 0.888852 0.542862
O O20 0.365196 0.000000 0.668834
O O21 0.500000 0.777580 0.462606
#
# Coordination Sequence:
#
# PCOD8178825 Si02
#       8
#     8   8   8   8   8   8   8   8
#     4  10  20  31  48  73 104 137 168 201 244 300
#     4  10  20  34  54  80 106 129 158 203 258 309
#     4  10  20  31  48  73 104 137 168 201 244 300
#     4   9  17  31  51  74 101 134 173 212 247 290
#     4   9  18  32  51  75 103 134 165 203 254 305
#     4   9  17  31  51  74 101 134 173 212 247 290
#     4  10  20  34  54  80 106 129 158 203 258 309
#     4   9  18  32  51  75 103 134 165 203 254 305
#
# _framework density 18.692399000000002
#
# number of rings (size 3 to 8) (size 9 to 14) (size 15 to 20)
#    0.000    2.500    0.000    2.250    0.000   10.000 
#    0.000    0.000    0.000    3.750    0.000    3.500 
#    0.000    4.000    0.000    0.000    0.000    0.000 
#
# Total GULP energy -396544.069292 kJ/mol
# GULP energy per Si atom -12392.002165 kJ/mol
# Density = 1.864985 g / cm^3
# Si number density = 18.692399 Si / 1000 Ang^3
#
#
#
# Elastic Constant Matrix: (Units=GPa)
#
#
# Indices 1 2 3 4 5 6 
#
# 1 151.1106 97.5387 38.7354 0.0000 0.0000 0.0000
# 2 97.5387 142.9764 40.4132 0.0000 0.0000 0.0000
# 3 38.7354 40.4132 39.0388 0.0000 0.0000 0.0000
# 4 0.0000 0.0000 0.0000 26.2845 0.0000 0.0000
# 5 0.0000 0.0000 0.0000 0.0000 30.9889 0.0000
# 6 0.0000 0.0000 0.0000 0.0000 0.0000 25.7882
#
#
#
# Elastic Compliance Matrix: (Units=1/GPa)
#
#
# Indices 1 2 3 4 5 6 
#
# 1 0.012491 -0.007094 -0.005050 0.000000 0.000000 0.000000
# 2 -0.007094 0.013916 -0.007367 0.000000 0.000000 0.000000
# 3 -0.005050 -0.007367 0.038253 0.000000 0.000000 0.000000
# 4 0.000000 0.000000 0.000000 0.038045 0.000000 0.000000
# 5 0.000000 0.000000 0.000000 0.000000 0.032270 0.000000
# 6 0.000000 0.000000 0.000000 0.000000 0.000000 0.038777
#
#
# Mechanical properties :
#
#
# Convention : Reuss Voigt Hill
#
# Bulk Modulus (GPa) = 39.00552 76.27783 57.64167
# Shear Modulus (GPa) = 22.59152 27.04155 24.81653
#
# Velocity S-wave (km/s) = 3.48026 3.80762 3.64761
# Velocity P-wave (km/s) = 6.08785 7.76055 6.97453
#
# Compressibility (1/GPa) = 0.02563740
#
# Stress axis : x y z
#
# Youngs Moduli (GPa) = 80.05517 71.85921 26.14164
#
# Poissons Ratio (x) = 0.50978 0.13203
# Poissons Ratio (y) = 0.56792 0.19259
# Poissons Ratio (z) = 0.40432 0.52939
#
# Static dielectric constant tensor:
#      x y z
#    x 4.568710 0.000000 0.000000 
#    y 0.000000 3.529020 0.000000 
#    z 0.000000 0.000000 3.269390 
# 
# 
# High freq. dielectric constant tensor:
#      x y z
#    x 1.751270 0.000000 0.000000 
#    y 0.000000 1.699700 0.000000 
#    z 0.000000 0.000000 1.699310 
# 
# From -- ./inp_files/18498.got.cif
#   From: 2010.03.12/outbox.cif.g09.slc.cpg/sg38_10_cif.got.tgz:18498.got - 2010.04.14 02:38:36.
