data_PCOD8178832
_publ_section_title
;
Structure prediction by ZEFSAII (Michael W. Deem and Ramdas Pophale) SiO2 
 PCOD8178832
Probable space group: A M M 2
;
_chemical_formula_sum "Si O2"
_cell_formula_units_Z 56
_cell_length_a 14.138234
_cell_length_b 25.931114
_cell_length_c 8.906142
_cell_angle_alpha 90.000000
_cell_angle_beta 90.000000
_cell_angle_gamma 90.000000
_cell_volume 3265.171184
_symmetry_space_group_name_H-M "A M M 2"
_symmetry_group_IT_number 38
_symmetry_cell_setting 'orthorhombic'
loop_
_space_group_symop_operation_xyz
x,y,z
-x,-y,z
-x,y,z
x,-y,z
x,1/2+y,1/2+z
-x,1/2-y,1/2+z
-x,1/2+y,1/2+z
x,1/2-y,1/2+z
loop_
_atom_site_type_symbol
_atom_site_label
_atom_site_fract_x
_atom_site_fract_y
_atom_site_fract_z
Si Si1 0.888987 0.559246 0.308240
Si Si2 0.773474 0.173946 0.296379
Si Si3 0.220603 0.640249 0.467541
Si Si4 0.606501 0.817341 0.821649
Si Si5 0.106869 0.364882 0.048885
Si Si6 0.606408 0.213248 0.485655
Si Si7 0.109472 0.721680 0.286523
O O1 0.859266 0.500000 0.294069
O O2 0.831828 0.585621 0.444325
O O3 0.859337 0.588797 0.156328
O O4 0.000000 0.566121 0.340158
O O5 0.753752 0.145546 0.140967
O O6 0.832295 0.134476 0.398644
O O7 0.673330 0.181337 0.376590
O O8 0.830567 0.226646 0.271696
O O9 0.316975 0.639736 0.367801
O O10 0.151200 0.686966 0.420482
O O11 0.500000 0.840413 0.817946
O O12 0.634846 0.793817 0.659767
O O13 0.614750 0.773568 0.948786
O O14 0.118293 0.309553 0.130801
O O15 0.000000 0.374514 0.999881
O O16 0.500000 0.193511 0.456266
O O17 0.000000 0.734469 0.323587
#
# Coordination Sequence:
#
# PCOD8178832 Si02
#       7
#     8   8   8   8   8   8   8
#     4   9  19  38  59  74  95 131 173 217 259 301
#     4  12  21  29  47  75 108 138 165 204 249 299
#     4  11  21  32  51  76 101 134 172 207 253 304
#     4  10  20  34  50  71 101 137 176 212 246 291
#     4   9  19  33  49  71  99 133 175 208 244 299
#     4  10  20  32  47  69 101 141 178 207 241 290
#     4  10  20  32  45  66 102 143 173 198 236 294
#
# _framework density 17.150708000000002
#
# number of rings (size 3 to 8) (size 9 to 14) (size 15 to 20)
#    0.000    1.857    1.429    5.143    0.000    5.143 
#    0.000    0.714    0.000    2.143    0.000    0.000 
#    0.000    1.143    0.000    0.000    0.000    0.000 
#
# Total GULP energy -347237.244454 kJ/mol
# GULP energy per Si atom -12401.330159 kJ/mol
# Density = 1.711167 g / cm^3
# Si number density = 17.150708 Si / 1000 Ang^3
#
#
#
# Elastic Constant Matrix: (Units=GPa)
#
#
# Indices 1 2 3 4 5 6 
#
# 1 96.5871 36.3055 46.9052 0.0000 0.0000 0.0000
# 2 36.3055 90.0459 34.4080 0.0000 0.0000 0.0000
# 3 46.9052 34.4080 102.1829 0.0000 0.0000 0.0000
# 4 0.0000 0.0000 0.0000 9.9463 0.0000 0.0000
# 5 0.0000 0.0000 0.0000 0.0000 26.4500 0.0000
# 6 0.0000 0.0000 0.0000 0.0000 0.0000 16.8143
#
#
#
# Elastic Compliance Matrix: (Units=1/GPa)
#
#
# Indices 1 2 3 4 5 6 
#
# 1 0.014348 -0.003751 -0.005323 0.000000 0.000000 0.000000
# 2 -0.003751 0.013726 -0.002900 0.000000 0.000000 0.000000
# 3 -0.005323 -0.002900 0.013207 0.000000 0.000000 0.000000
# 4 0.000000 0.000000 0.000000 0.100539 0.000000 0.000000
# 5 0.000000 0.000000 0.000000 0.000000 0.037807 0.000000
# 6 0.000000 0.000000 0.000000 0.000000 0.000000 0.059473
#
#
# Mechanical properties :
#
#
# Convention : Reuss Voigt Hill
#
# Bulk Modulus (GPa) = 57.69658 58.22816 57.96237
# Shear Modulus (GPa) = 18.59932 22.05526 20.32729
#
# Velocity S-wave (km/s) = 3.29669 3.58993 3.44643
# Velocity P-wave (km/s) = 6.94297 7.15598 7.05028
#
# Compressibility (1/GPa) = 0.01733205
#
# Stress axis : x y z
#
# Youngs Moduli (GPa) = 69.69402 72.85447 75.72028
#
# Poissons Ratio (x) = 0.27328 0.40308
# Poissons Ratio (y) = 0.26142 0.21960
# Poissons Ratio (z) = 0.37100 0.21129
#
# Static dielectric constant tensor:
#      x y z
#    x 3.423820 0.000000 0.000000 
#    y 0.000000 2.872340 0.000000 
#    z 0.000000 0.000000 3.230420 
# 
# 
# High freq. dielectric constant tensor:
#      x y z
#    x 1.675300 0.000000 0.000000 
#    y 0.000000 1.606080 0.000000 
#    z 0.000000 0.000000 1.667040 
# 
# From -- ./inp_files/5960.got.cif
#   From: 2010.03.12/outbox.cif.g09.slc.cpg/sg38_3_cif.got.tgz:5960.got - 2010.04.14 02:38:36.
