data_PCOD8178192
_publ_section_title
;
Structure prediction by ZEFSAII (Michael W. Deem and Ramdas Pophale) SiO2 
 PCOD8178192
Probable space group: A M M 2
;
_chemical_formula_sum "Si O2"
_cell_formula_units_Z 64
_cell_length_a 9.035904
_cell_length_b 24.707804
_cell_length_c 15.304623
_cell_angle_alpha 90.000000
_cell_angle_beta 90.000000
_cell_angle_gamma 90.000000
_cell_volume 3416.869497
_symmetry_space_group_name_H-M "A M M 2"
_symmetry_group_IT_number 38
_symmetry_cell_setting 'orthorhombic'
loop_
_space_group_symop_operation_xyz
x,y,z
-x,-y,z
-x,y,z
x,-y,z
x,1/2+y,1/2+z
-x,1/2-y,1/2+z
-x,1/2+y,1/2+z
x,1/2-y,1/2+z
loop_
_atom_site_type_symbol
_atom_site_label
_atom_site_fract_x
_atom_site_fract_y
_atom_site_fract_z
Si Si1 0.326291 0.785191 0.346070
Si Si2 0.328580 0.647289 0.564967
Si Si3 0.327927 0.937625 0.211655
Si Si4 0.824332 0.940210 0.561006
Si Si5 0.824876 0.389905 0.881363
Si Si6 0.670293 0.163282 0.871971
Si Si7 0.826563 0.767571 0.169757
Si Si8 0.826713 0.354881 0.198460
O O1 0.500000 0.796269 0.347927
O O2 0.243323 0.830885 0.402038
O O3 0.283267 0.726272 0.382553
O O4 0.267677 0.793099 0.247991
O O5 0.500000 0.663590 0.577084
O O6 0.285223 0.595937 0.624497
O O7 0.297957 0.632713 0.463276
O O8 0.227482 0.699653 0.585164
O O9 0.500000 0.930264 0.234296
O O10 0.234927 0.916471 0.293124
O O11 0.288165 0.000000 0.192792
O O12 0.774519 0.926573 0.462716
O O13 0.757102 0.898291 0.631398
O O14 0.000000 0.937447 0.566029
O O15 0.765315 0.000000 0.584163
O O16 0.000000 0.384544 0.873873
O O17 0.500000 0.159986 0.844507
O O18 0.760926 0.135167 0.794620
O O19 0.788058 0.704274 0.160279
O O20 0.000000 0.776622 0.186609
O O21 0.000000 0.362892 0.207986
#
# Coordination Sequence:
#
# PCOD8178192 Si02
#       8
#     8   8   8   8   8   8   8   8
#     4  10  19  33  51  75 110 147 180 215 262 323
#     4  10  20  35  54  77 109 146 181 217 267 325
#     4  10  21  37  56  77 107 147 185 221 266 324
#     4   9  19  36  56  78 107 144 183 223 273 326
#     4  11  21  33  54  82 110 142 180 225 273 325
#     4   9  20  36  54  78 110 147 182 219 269 326
#     4  10  19  31  51  80 109 138 175 220 270 319
#     4   9  19  36  56  79 106 139 181 228 273 319
#
# _framework density 18.730594
#
# number of rings (size 3 to 8) (size 9 to 14) (size 15 to 20)
#    0.000    2.250    1.250    1.500    1.750    2.250 
#    0.000    1.875    0.000    2.625    0.000    0.000 
#    0.000    0.000    0.000    0.000    0.000    0.000 
#
# Total GULP energy -396794.081129 kJ/mol
# GULP energy per Si atom -12399.815035 kJ/mol
# Density = 1.868796 g / cm^3
# Si number density = 18.730594 Si / 1000 Ang^3
#
#
#
# Elastic Constant Matrix: (Units=GPa)
#
#
# Indices 1 2 3 4 5 6 
#
# 1 54.1376 38.7412 41.6072 0.0000 0.0000 0.0000
# 2 38.7412 119.2040 72.6217 0.0000 0.0000 0.0000
# 3 41.6072 72.6217 129.6660 0.0000 0.0000 0.0000
# 4 0.0000 0.0000 0.0000 30.8789 0.0000 0.0000
# 5 0.0000 0.0000 0.0000 0.0000 26.0793 0.0000
# 6 0.0000 0.0000 0.0000 0.0000 0.0000 19.5447
#
#
#
# Elastic Compliance Matrix: (Units=1/GPa)
#
#
# Indices 1 2 3 4 5 6 
#
# 1 0.026489 -0.005207 -0.005583 0.000000 0.000000 0.000000
# 2 -0.005207 0.013758 -0.006034 0.000000 0.000000 0.000000
# 3 -0.005583 -0.006034 0.012883 0.000000 0.000000 0.000000
# 4 0.000000 0.000000 0.000000 0.032385 0.000000 0.000000
# 5 0.000000 0.000000 0.000000 0.000000 0.038345 0.000000
# 6 0.000000 0.000000 0.000000 0.000000 0.000000 0.051165
#
#
# Mechanical properties :
#
#
# Convention : Reuss Voigt Hill
#
# Bulk Modulus (GPa) = 51.33488 67.66088 59.49788
# Shear Modulus (GPa) = 23.23778 25.30306 24.27042
#
# Velocity S-wave (km/s) = 3.52608 3.67944 3.60358
# Velocity P-wave (km/s) = 6.63658 7.36564 7.01059
#
# Compressibility (1/GPa) = 0.01947993
#
# Stress axis : x y z
#
# Youngs Moduli (GPa) = 37.75166 72.68728 77.62032
#
# Poissons Ratio (x) = 0.37851 0.43337
# Poissons Ratio (y) = 0.19659 0.46838
# Poissons Ratio (z) = 0.21078 0.43861
#
# Static dielectric constant tensor:
#      x y z
#    x 3.295970 0.000000 0.000000 
#    y 0.000000 3.591450 0.000000 
#    z 0.000000 0.000000 3.439860 
# 
# 
# High freq. dielectric constant tensor:
#      x y z
#    x 1.714380 0.000000 0.000000 
#    y 0.000000 1.722240 0.000000 
#    z 0.000000 0.000000 1.724960 
# 
# From -- ./inp_files/12844.got.cif
#   From: 2010.03.12/outbox.cif.g09.slc.cpg/sg38_7_cif.got.tgz:12844.got - 2010.04.14 02:38:36.
