data_PCOD8178145
_publ_section_title
;
Structure prediction by ZEFSAII (Michael W. Deem and Ramdas Pophale) SiO2 
 PCOD8178145
Probable space group: A M M 2
;
_chemical_formula_sum "Si O2"
_cell_formula_units_Z 48
_cell_length_a 8.597065
_cell_length_b 13.674115
_cell_length_c 23.696223
_cell_angle_alpha 90.000000
_cell_angle_beta 90.000000
_cell_angle_gamma 90.000000
_cell_volume 2785.662941
_symmetry_space_group_name_H-M "A M M 2"
_symmetry_group_IT_number 38
_symmetry_cell_setting 'orthorhombic'
loop_
_space_group_symop_operation_xyz
x,y,z
-x,-y,z
-x,y,z
x,-y,z
x,1/2+y,1/2+z
-x,1/2-y,1/2+z
-x,1/2+y,1/2+z
x,1/2-y,1/2+z
loop_
_atom_site_type_symbol
_atom_site_label
_atom_site_fract_x
_atom_site_fract_y
_atom_site_fract_z
Si Si1 0.180945 0.707917 0.614600
Si Si2 0.317650 0.111162 0.560396
Si Si3 0.317747 0.111263 0.007836
Si Si4 0.817740 0.707913 0.953185
Si Si5 0.819954 0.112311 0.337734
Si Si6 0.319597 0.612919 0.720490
O O1 0.226923 0.820863 0.604863
O O2 0.275626 0.638681 0.571988
O O3 0.219918 0.678794 0.678285
O O4 0.000000 0.693808 0.602410
O O5 0.500000 0.126686 0.568923
O O6 0.274380 0.139553 0.496604
O O7 0.267671 0.000000 0.572157
O O8 0.500000 0.127572 0.999245
O O9 0.225052 0.178854 0.963629
O O10 0.268916 0.000000 0.995956
O O11 0.767413 0.678979 0.890157
O O12 0.000000 0.690620 0.962586
O O13 0.719712 0.145873 0.284017
O O14 0.000000 0.127902 0.322862
O O15 0.785845 0.000000 0.353694
O O16 0.500000 0.630298 0.708455
O O17 0.272155 0.500000 0.711944
#
# Coordination Sequence:
#
# PCOD8178145 Si02
#       6
#     8   8   8   8   8   8
#     4  11  21  32  50  73  98 128 160 198 242 287
#     4  10  20  33  50  72  99 130 162 197 237 283
#     4  10  20  33  49  70  98 130 163 200 240 284
#     4  10  19  31  50  74 100 129 160 198 241 284
#     4   9  18  32  49  71  99 128 158 194 238 287
#     4  10  20  33  50  72  98 128 161 198 240 286
#
# _framework density 17.231086000000001
#
# number of rings (size 3 to 8) (size 9 to 14) (size 15 to 20)
#    0.000    2.000    0.000    6.500    0.000    7.667 
#    0.000    1.667    0.000    1.000    0.000    4.667 
#    0.000    0.000    0.000    0.000    0.000    0.000 
#
# Total GULP energy -297680.119305 kJ/mol
# GULP energy per Si atom -12403.338304 kJ/mol
# Density = 1.719187 g / cm^3
# Si number density = 17.231086 Si / 1000 Ang^3
#
#
#
# Elastic Constant Matrix: (Units=GPa)
#
#
# Indices 1 2 3 4 5 6 
#
# 1 43.6085 26.6576 18.5687 0.0000 0.0000 0.0000
# 2 26.6576 102.8034 54.7904 0.0000 0.0000 0.0000
# 3 18.5687 54.7904 106.1240 0.0000 0.0000 0.0000
# 4 0.0000 0.0000 0.0000 26.2223 0.0000 0.0000
# 5 0.0000 0.0000 0.0000 0.0000 27.4290 0.0000
# 6 0.0000 0.0000 0.0000 0.0000 0.0000 25.4649
#
#
#
# Elastic Compliance Matrix: (Units=1/GPa)
#
#
# Indices 1 2 3 4 5 6 
#
# 1 0.027436 -0.006285 -0.001555 0.000000 0.000000 0.000000
# 2 -0.006285 0.014860 -0.006572 0.000000 0.000000 0.000000
# 3 -0.001555 -0.006572 0.013088 0.000000 0.000000 0.000000
# 4 0.000000 0.000000 0.000000 0.038135 0.000000 0.000000
# 5 0.000000 0.000000 0.000000 0.000000 0.036458 0.000000
# 6 0.000000 0.000000 0.000000 0.000000 0.000000 0.039270
#
#
# Mechanical properties :
#
#
# Convention : Reuss Voigt Hill
#
# Bulk Modulus (GPa) = 37.65349 50.28547 43.96948
# Shear Modulus (GPa) = 24.16332 25.99121 25.07726
#
# Velocity S-wave (km/s) = 3.74880 3.88801 3.81904
# Velocity P-wave (km/s) = 6.37476 7.02865 6.70967
#
# Compressibility (1/GPa) = 0.02655796
#
# Stress axis : x y z
#
# Youngs Moduli (GPa) = 36.44881 67.29545 76.40447
#
# Poissons Ratio (x) = 0.42297 0.11885
# Poissons Ratio (y) = 0.22909 0.50215
# Poissons Ratio (z) = 0.05670 0.44228
#
# Static dielectric constant tensor:
#      x y z
#    x 3.264810 0.000000 0.000000 
#    y 0.000000 3.250710 0.000000 
#    z 0.000000 0.000000 3.111400 
# 
# 
# High freq. dielectric constant tensor:
#      x y z
#    x 1.678580 0.000000 0.000000 
#    y 0.000000 1.655370 0.000000 
#    z 0.000000 0.000000 1.653190 
# 
# From -- ./inp_files/21921.got.cif
#   From: 2010.03.12/outbox.cif.g09.slc.cpg/sg38_11_cif.got.tgz:21921.got - 2010.04.14 02:38:36.
