data_PCOD8178922
_publ_section_title
;
Structure prediction by ZEFSAII (Michael W. Deem and Ramdas Pophale) SiO2 
 PCOD8178922
Probable space group: A M M 2
;
_chemical_formula_sum "Si O2"
_cell_formula_units_Z 40
_cell_length_a 9.488871
_cell_length_b 16.933518
_cell_length_c 12.763111
_cell_angle_alpha 90.000000
_cell_angle_beta 90.000000
_cell_angle_gamma 90.000000
_cell_volume 2050.776266
_symmetry_space_group_name_H-M "A M M 2"
_symmetry_group_IT_number 38
_symmetry_cell_setting 'orthorhombic'
loop_
_space_group_symop_operation_xyz
x,y,z
-x,-y,z
-x,y,z
x,-y,z
x,1/2+y,1/2+z
-x,1/2-y,1/2+z
-x,1/2+y,1/2+z
x,1/2-y,1/2+z
loop_
_atom_site_type_symbol
_atom_site_label
_atom_site_fract_x
_atom_site_fract_y
_atom_site_fract_z
Si Si1 0.666798 0.589779 0.341280
Si Si2 0.155247 0.909261 0.443062
Si Si3 0.333820 0.656142 0.117996
Si Si4 0.666500 0.829867 0.050308
Si Si5 0.657061 0.407021 0.759279
O O1 0.500000 0.584692 0.351919
O O2 0.727342 0.500000 0.335967
O O3 0.708228 0.639860 0.238361
O O4 0.731499 0.636483 0.441740
O O5 0.245681 0.904891 0.548857
O O6 0.241811 0.868794 0.347483
O O7 0.000000 0.869574 0.454240
O O8 0.134270 0.000000 0.414989
O O9 0.500000 0.642401 0.100455
O O10 0.282675 0.742051 0.079296
O O11 0.500000 0.830853 0.040008
O O12 0.716638 0.886442 0.144624
O O13 0.500000 0.369932 0.773987
O O14 0.648020 0.500000 0.772079
#
# Coordination Sequence:
#
# PCOD8178922 Si02
#       5
#     8   8   8   8   8
#     4   9  17  30  49  76 109 141 172 211 264 321
#     4  10  21  36  53  74 104 141 177 216 263 313
#     4  10  20  32  53  80 105 135 176 221 264 312
#     4   9  18  30  50  79 110 137 168 216 268 313
#     4   9  17  31  54  81 106 135 173 214 258 314
#
# _framework density 19.504809000000002
#
# number of rings (size 3 to 8) (size 9 to 14) (size 15 to 20)
#    0.000    2.600    0.000    1.800    2.800    4.400 
#    0.000    1.000    0.000    1.200    0.000    2.800 
#    0.000    0.000    0.000    0.000    0.000    0.000 
#
# Total GULP energy -247896.237444 kJ/mol
# GULP energy per Si atom -12394.811872 kJ/mol
# Density = 1.946042 g / cm^3
# Si number density = 19.504809 Si / 1000 Ang^3
#
#
#
# Elastic Constant Matrix: (Units=GPa)
#
#
# Indices 1 2 3 4 5 6 
#
# 1 69.0416 15.7230 56.3490 0.0000 0.0000 0.0000
# 2 15.7230 75.5799 49.4948 0.0000 0.0000 0.0000
# 3 56.3490 49.4948 189.1876 0.0000 0.0000 0.0000
# 4 0.0000 0.0000 0.0000 34.7126 0.0000 0.0000
# 5 0.0000 0.0000 0.0000 0.0000 2.3413 0.0000
# 6 0.0000 0.0000 0.0000 0.0000 0.0000 9.5417
#
#
#
# Elastic Compliance Matrix: (Units=1/GPa)
#
#
# Indices 1 2 3 4 5 6 
#
# 1 0.019141 -0.000300 -0.005623 0.000000 0.000000 0.000000
# 2 -0.000300 0.015971 -0.004089 0.000000 0.000000 0.000000
# 3 -0.005623 -0.004089 0.008030 0.000000 0.000000 0.000000
# 4 0.000000 0.000000 0.000000 0.028808 0.000000 0.000000
# 5 0.000000 0.000000 0.000000 0.000000 0.427119 0.000000
# 6 0.000000 0.000000 0.000000 0.000000 0.000000 0.104803
#
#
# Mechanical properties :
#
#
# Convention : Reuss Voigt Hill
#
# Bulk Modulus (GPa) = 43.25351 64.10476 53.67913
# Shear Modulus (GPa) = 7.91637 23.46861 15.69249
#
# Velocity S-wave (km/s) = 2.01680 3.47251 2.83953
# Velocity P-wave (km/s) = 5.25807 7.00109 6.19123
#
# Compressibility (1/GPa) = 0.02311951
#
# Stress axis : x y z
#
# Youngs Moduli (GPa) = 52.24286 62.61281 124.52922
#
# Poissons Ratio (x) = 0.01877 0.70020
# Poissons Ratio (y) = 0.01567 0.50920
# Poissons Ratio (z) = 0.29375 0.25603
#
# Static dielectric constant tensor:
#      x y z
#    x 3.324340 0.000000 0.000000 
#    y 0.000000 3.481700 0.000000 
#    z 0.000000 0.000000 3.810270 
# 
# 
# High freq. dielectric constant tensor:
#      x y z
#    x 1.702310 0.000000 0.000000 
#    y 0.000000 1.749040 0.000000 
#    z 0.000000 0.000000 1.776650 
# 
# From -- ./inp_files/7767.got.cif
#   From: 2010.03.12/outbox.cif.g09.slc.cpg/sg38_4_cif.got.tgz:7767.got - 2010.04.14 02:38:36.
