data_PCOD8178588
_publ_section_title
;
Structure prediction by ZEFSAII (Michael W. Deem and Ramdas Pophale) SiO2 
 PCOD8178588
Probable space group: A M M 2
;
_chemical_formula_sum "Si O2"
_cell_formula_units_Z 64
_cell_length_a 8.864622
_cell_length_b 19.456049
_cell_length_c 20.705808
_cell_angle_alpha 90.000000
_cell_angle_beta 90.000000
_cell_angle_gamma 90.000000
_cell_volume 3571.141473
_symmetry_space_group_name_H-M "A M M 2"
_symmetry_group_IT_number 38
_symmetry_cell_setting 'orthorhombic'
loop_
_space_group_symop_operation_xyz
x,y,z
-x,-y,z
-x,y,z
x,-y,z
x,1/2+y,1/2+z
-x,1/2-y,1/2+z
-x,1/2+y,1/2+z
x,1/2-y,1/2+z
loop_
_atom_site_type_symbol
_atom_site_label
_atom_site_fract_x
_atom_site_fract_y
_atom_site_fract_z
Si Si1 0.325983 0.292308 0.876780
Si Si2 0.174145 0.077848 0.170188
Si Si3 0.677491 0.922426 0.034896
Si Si4 0.177719 0.292310 0.488574
Si Si5 0.674347 0.781847 0.609106
Si Si6 0.325733 0.698272 0.732525
Si Si7 0.672047 0.575645 0.057983
Si Si8 0.174730 0.077792 0.423822
O O1 0.500000 0.285516 0.896994
O O2 0.298518 0.268572 0.802931
O O3 0.275802 0.371730 0.881030
O O4 0.227415 0.245707 0.923689
O O5 0.271867 0.095526 0.107294
O O6 0.226878 0.129050 0.226412
O O7 0.000000 0.090005 0.152941
O O8 0.202229 0.000000 0.193875
O O9 0.500000 0.912968 0.030305
O O10 0.756108 0.869533 0.986045
O O11 0.726769 0.000000 0.016482
O O12 0.232216 0.252588 0.551959
O O13 0.000000 0.296440 0.490132
O O14 0.500000 0.764545 0.595950
O O15 0.726173 0.753451 0.678653
O O16 0.702993 0.864276 0.610045
O O17 0.500000 0.677884 0.724054
O O18 0.500000 0.580798 0.032318
O O19 0.700471 0.500000 0.089341
O O20 0.783777 0.587330 0.998616
O O21 0.000000 0.097016 0.415458
O O22 0.207345 0.000000 0.400934
#
# Coordination Sequence:
#
# PCOD8178588 Si02
#       8
#     8   8   8   8   8   8   8   8
#     4  11  23  38  54  75 107 149 191 231 271 325
#     4  10  20  33  51  78 112 147 182 222 269 323
#     4  10  20  35  57  83 111 143 180 224 272 323
#     4  12  23  35  56  84 110 142 182 228 279 327
#     4  10  19  34  56  80 107 140 179 226 273 326
#     4  10  22  37  54  76 106 146 188 228 274 322
#     4   9  17  30  52  80 107 136 171 215 269 326
#     4  10  20  33  50  75 108 142 178 223 273 324
#
# _framework density 17.921441000000002
#
# number of rings (size 3 to 8) (size 9 to 14) (size 15 to 20)
#    0.000    1.750    2.500    2.625    0.000    3.750 
#    0.000    2.500    0.000    0.750    0.000    3.500 
#    0.000    0.000    0.000    0.000    0.000    0.000 
#
# Total GULP energy -396820.623158 kJ/mol
# GULP energy per Si atom -12400.644474 kJ/mol
# Density = 1.788065 g / cm^3
# Si number density = 17.921441 Si / 1000 Ang^3
#
#
#
# Elastic Constant Matrix: (Units=GPa)
#
#
# Indices 1 2 3 4 5 6 
#
# 1 79.4762 40.5960 35.5315 0.0000 0.0000 0.0000
# 2 40.5960 114.8003 54.7430 0.0000 0.0000 0.0000
# 3 35.5315 54.7430 93.8749 0.0000 0.0000 0.0000
# 4 0.0000 0.0000 0.0000 23.2387 0.0000 0.0000
# 5 0.0000 0.0000 0.0000 0.0000 6.5724 0.0000
# 6 0.0000 0.0000 0.0000 0.0000 0.0000 27.2792
#
#
#
# Elastic Compliance Matrix: (Units=1/GPa)
#
#
# Indices 1 2 3 4 5 6 
#
# 1 0.016324 -0.003915 -0.003896 0.000000 0.000000 0.000000
# 2 -0.003915 0.013005 -0.006102 0.000000 0.000000 0.000000
# 3 -0.003896 -0.006102 0.015685 0.000000 0.000000 0.000000
# 4 0.000000 0.000000 0.000000 0.043032 0.000000 0.000000
# 5 0.000000 0.000000 0.000000 0.000000 0.152152 0.000000
# 6 0.000000 0.000000 0.000000 0.000000 0.000000 0.036658
#
#
# Mechanical properties :
#
#
# Convention : Reuss Voigt Hill
#
# Bulk Modulus (GPa) = 58.17648 61.09914 59.63781
# Shear Modulus (GPa) = 16.10774 21.90346 19.00560
#
# Velocity S-wave (km/s) = 3.00125 3.49978 3.26006
# Velocity P-wave (km/s) = 6.67401 7.10620 6.89349
#
# Compressibility (1/GPa) = 0.01718908
#
# Stress axis : x y z
#
# Youngs Moduli (GPa) = 61.26092 76.89388 63.75377
#
# Poissons Ratio (x) = 0.30102 0.24836
# Poissons Ratio (y) = 0.23982 0.38903
# Poissons Ratio (z) = 0.23865 0.46921
#
# Static dielectric constant tensor:
#      x y z
#    x 3.356830 0.000000 0.000000 
#    y 0.000000 3.630780 0.000000 
#    z 0.000000 0.000000 3.092740 
# 
# 
# High freq. dielectric constant tensor:
#      x y z
#    x 1.701460 0.000000 0.000000 
#    y 0.000000 1.700670 0.000000 
#    z 0.000000 0.000000 1.660180 
# 
# From -- ./inp_files/17189.got.cif
#   From: 2010.03.12/outbox.cif.g09.slc.cpg/sg38_9_cif.got.tgz:17189.got - 2010.04.14 02:38:36.
