data_PCOD8178193
_publ_section_title
;
Structure prediction by ZEFSAII (Michael W. Deem and Ramdas Pophale) SiO2 
 PCOD8178193
Probable space group: A M M 2
;
_chemical_formula_sum "Si O2"
_cell_formula_units_Z 48
_cell_length_a 17.626053
_cell_length_b 24.175734
_cell_length_c 5.146788
_cell_angle_alpha 90.000000
_cell_angle_beta 90.000000
_cell_angle_gamma 90.000000
_cell_volume 2193.163553
_symmetry_space_group_name_H-M "A M M 2"
_symmetry_group_IT_number 38
_symmetry_cell_setting 'orthorhombic'
loop_
_space_group_symop_operation_xyz
x,y,z
-x,-y,z
-x,y,z
x,-y,z
x,1/2+y,1/2+z
-x,1/2-y,1/2+z
-x,1/2+y,1/2+z
x,1/2-y,1/2+z
loop_
_atom_site_type_symbol
_atom_site_label
_atom_site_fract_x
_atom_site_fract_y
_atom_site_fract_z
Si Si1 0.167452 0.564355 0.581790
Si Si2 0.756628 0.786239 0.146684
Si Si3 0.331775 0.393622 0.618048
Si Si4 0.588000 0.935676 0.625026
Si Si5 0.918279 0.713824 0.546668
Si Si6 0.914706 0.066031 0.582913
O O1 0.147428 0.500000 0.577415
O O2 0.257364 0.570400 0.564183
O O3 0.124653 0.592138 0.337275
O O4 0.132570 0.590552 0.842564
O O5 0.749698 0.762547 0.436809
O O6 0.688428 0.828992 0.106891
O O7 0.838435 0.818564 0.105089
O O8 0.393589 0.407439 0.399917
O O9 0.363762 0.407275 0.900534
O O10 0.500000 0.926855 0.564083
O O11 0.609225 0.000000 0.639603
O O12 0.915627 0.735143 0.250740
O O13 0.000000 0.682041 0.587913
O O14 0.000000 0.088623 0.567297
O O15 0.912841 0.000000 0.587492
#
# Coordination Sequence:
#
# PCOD8178193 Si02
#       6
#     8   8   8   8   8   8
#     4  10  19  31  51  80 111 145 190 243 295 347
#     4  10  21  38  60  87 121 162 206 252 301 350
#     4  12  23  39  65  93 123 157 200 249 305 368
#     4  11  24  43  68  97 127 157 191 240 306 377
#     4   8  14  27  49  75 106 148 197 251 305 345
#     4   9  17  30  47  69 107 157 197 232 281 342
#
# _framework density 21.886194
#
# number of rings (size 3 to 8) (size 9 to 14) (size 15 to 20)
#    0.000    2.000    0.000    4.500    0.000    4.667 
#    0.000    1.667    0.000   18.000    0.000    0.000 
#    0.000    0.000    0.000    0.000    0.000    0.000 
#
# Total GULP energy -297536.589551 kJ/mol
# GULP energy per Si atom -12397.357898 kJ/mol
# Density = 2.183638 g / cm^3
# Si number density = 21.886194 Si / 1000 Ang^3
#
#
#
# Elastic Constant Matrix: (Units=GPa)
#
#
# Indices 1 2 3 4 5 6 
#
# 1 100.0556 28.7794 23.4325 0.0000 0.0000 0.0000
# 2 28.7794 47.2075 15.4224 0.0000 0.0000 0.0000
# 3 23.4325 15.4224 134.1029 0.0000 0.0000 0.0000
# 4 0.0000 0.0000 0.0000 24.7751 0.0000 0.0000
# 5 0.0000 0.0000 0.0000 0.0000 43.1699 0.0000
# 6 0.0000 0.0000 0.0000 0.0000 0.0000 8.5160
#
#
#
# Elastic Compliance Matrix: (Units=1/GPa)
#
#
# Indices 1 2 3 4 5 6 
#
# 1 0.012348 -0.007089 -0.001342 0.000000 0.000000 0.000000
# 2 -0.007089 0.026080 -0.001761 0.000000 0.000000 0.000000
# 3 -0.001342 -0.001761 0.007894 0.000000 0.000000 0.000000
# 4 0.000000 0.000000 0.000000 0.040363 0.000000 0.000000
# 5 0.000000 0.000000 0.000000 0.000000 0.023164 0.000000
# 6 0.000000 0.000000 0.000000 0.000000 0.000000 0.117426
#
#
# Mechanical properties :
#
#
# Convention : Reuss Voigt Hill
#
# Bulk Modulus (GPa) = 38.55387 46.29275 42.42331
# Shear Modulus (GPa) = 19.50797 29.54096 24.52446
#
# Velocity S-wave (km/s) = 2.98877 3.67788 3.35109
# Velocity P-wave (km/s) = 5.43729 6.26365 5.86504
#
# Compressibility (1/GPa) = 0.02593774
#
# Stress axis : x y z
#
# Youngs Moduli (GPa) = 80.98537 38.34340 126.67865
#
# Poissons Ratio (x) = 0.27182 0.17004
# Poissons Ratio (y) = 0.57412 0.22303
# Poissons Ratio (z) = 0.10871 0.06751
#
# Static dielectric constant tensor:
#      x y z
#    x 3.995710 0.000000 0.000000 
#    y 0.000000 3.457310 0.000000 
#    z 0.000000 0.000000 4.176650 
# 
# 
# High freq. dielectric constant tensor:
#      x y z
#    x 1.857650 0.000000 0.000000 
#    y 0.000000 1.835670 0.000000 
#    z 0.000000 0.000000 1.884180 
# 
# From -- ./inp_files/1329.got.cif
#   From: 2010.03.12/outbox.cif.g09.slc.cpg/sg38_1_cif.got.tgz:1329.got - 2010.04.14 02:38:36.
