data_PCOD8178448
_publ_section_title
;
Structure prediction by ZEFSAII (Michael W. Deem and Ramdas Pophale) SiO2 
 PCOD8178448
Probable space group: A M M 2
;
_chemical_formula_sum "Si O2"
_cell_formula_units_Z 32
_cell_length_a 12.147240
_cell_length_b 7.616687
_cell_length_c 18.412931
_cell_angle_alpha 90.000000
_cell_angle_beta 90.000000
_cell_angle_gamma 90.000000
_cell_volume 1703.596138
_symmetry_space_group_name_H-M "A M M 2"
_symmetry_group_IT_number 38
_symmetry_cell_setting 'orthorhombic'
loop_
_space_group_symop_operation_xyz
x,y,z
-x,-y,z
-x,y,z
x,-y,z
x,1/2+y,1/2+z
-x,1/2-y,1/2+z
-x,1/2+y,1/2+z
x,1/2-y,1/2+z
loop_
_atom_site_type_symbol
_atom_site_label
_atom_site_fract_x
_atom_site_fract_y
_atom_site_fract_z
Si Si1 0.621911 0.500000 0.336360
Si Si2 0.785881 0.203677 0.336636
Si Si3 0.377312 0.500000 0.508451
Si Si4 0.000000 0.791782 0.087605
Si Si5 0.000000 0.292667 0.752563
Si Si6 0.218055 0.196216 0.505071
O O1 0.500000 0.500000 0.301594
O O2 0.683692 0.322963 0.310645
O O3 0.612722 0.500000 0.422547
O O4 0.810487 0.234751 0.421359
O O5 0.891670 0.275426 0.293547
O O6 0.758699 0.000000 0.319514
O O7 0.500000 0.500000 0.543047
O O8 0.311105 0.328079 0.535104
O O9 0.000000 0.724380 0.170324
O O10 0.106962 0.714592 0.049835
O O11 0.000000 0.000000 0.081869
O O12 0.000000 0.500000 0.755716
O O13 0.265260 0.000000 0.514242
#
# Coordination Sequence:
#
# PCOD8178448 Si02
#       6
#     4   8   4   4   4   8
#     4   9  18  31  51  81 105 130 171 210 252 303
#     4   9  18  34  53  75 105 136 168 210 256 305
#     4   9  18  33  53  79 107 134 171 214 254 303
#     4  11  20  33  53  77 105 141 170 213 263 312
#     4   9  19  34  52  77 102 138 172 208 258 314
#     4  10  19  33  54  78 106 137 170 212 260 308
#
# _framework density 18.783794
#
# number of rings (size 3 to 8) (size 9 to 14) (size 15 to 20)
#    0.000    2.500    1.250    1.125    0.000    3.500 
#    4.500    5.000    0.000    1.500    0.000    0.000 
#    0.000    0.000    0.000    0.000    0.000    0.000 
#
# Total GULP energy -198388.786893 kJ/mol
# GULP energy per Si atom -12399.299181 kJ/mol
# Density = 1.874104 g / cm^3
# Si number density = 18.783794 Si / 1000 Ang^3
#
#
#
# Elastic Constant Matrix: (Units=GPa)
#
#
# Indices 1 2 3 4 5 6 
#
# 1 186.5744 75.8593 50.6218 0.0000 0.0000 0.0000
# 2 75.8593 122.0880 33.3054 0.0000 0.0000 0.0000
# 3 50.6218 33.3054 63.1942 0.0000 0.0000 0.0000
# 4 0.0000 0.0000 0.0000 13.4627 0.0000 0.0000
# 5 0.0000 0.0000 0.0000 0.0000 -2.9187 0.0000
# 6 0.0000 0.0000 0.0000 0.0000 0.0000 25.6845
#
#
#
# Elastic Compliance Matrix: (Units=1/GPa)
#
#
# Indices 1 2 3 4 5 6 
#
# 1 0.008138 -0.003828 -0.004501 0.000000 0.000000 0.000000
# 2 -0.003828 0.011367 -0.002924 0.000000 0.000000 0.000000
# 3 -0.004501 -0.002924 0.020971 0.000000 0.000000 0.000000
# 4 0.000000 0.000000 0.000000 0.074279 0.000000 0.000000
# 5 0.000000 0.000000 0.000000 0.000000 -0.342615 0.000000
# 6 0.000000 0.000000 0.000000 0.000000 0.000000 0.038934
#
#
# Mechanical properties :
#
#
# Convention : Reuss Voigt Hill
#
# Bulk Modulus (GPa) = 55.65234 76.82552 66.23893
# Shear Modulus (GPa) = -31.16638 21.38371 -4.89133
#
# Velocity S-wave (km/s) = -4.07777 3.37770 -1.61545
# Velocity P-wave (km/s) = 2.74249 7.49670 5.64454
#
# Compressibility (1/GPa) = 0.01796870
#
# Stress axis : x y z
#
# Youngs Moduli (GPa) = 122.88632 87.97150 47.68530
#
# Poissons Ratio (x) = 0.33679 0.21463
# Poissons Ratio (y) = 0.47046 0.13944
# Poissons Ratio (z) = 0.55310 0.25724
#
# Static dielectric constant tensor:
#      x y z
#    x 3.671820 0.000000 0.000000 
#    y 0.000000 3.593290 0.000000 
#    z 0.000000 0.000000 3.233340 
# 
# 
# High freq. dielectric constant tensor:
#      x y z
#    x 1.726180 0.000000 0.000000 
#    y 0.000000 1.741020 0.000000 
#    z 0.000000 0.000000 1.693600 
# 
# From -- ./inp_files/17437.got.cif
#   From: 2010.03.12/outbox.cif.g09.slc.cpg/sg38_9_cif.got.tgz:17437.got - 2010.04.14 02:38:36.
