data_PCOD8178029
_publ_section_title
;
Structure prediction by ZEFSAII (Michael W. Deem and Ramdas Pophale) SiO2 
 PCOD8178029
Probable space group: A M M 2
;
_chemical_formula_sum "Si O2"
_cell_formula_units_Z 48
_cell_length_a 8.657627
_cell_length_b 23.501657
_cell_length_c 13.776945
_cell_angle_alpha 90.000000
_cell_angle_beta 90.000000
_cell_angle_gamma 90.000000
_cell_volume 2803.175438
_symmetry_space_group_name_H-M "A M M 2"
_symmetry_group_IT_number 38
_symmetry_cell_setting 'orthorhombic'
loop_
_space_group_symop_operation_xyz
x,y,z
-x,-y,z
-x,y,z
x,-y,z
x,1/2+y,1/2+z
-x,1/2-y,1/2+z
-x,1/2+y,1/2+z
x,1/2-y,1/2+z
loop_
_atom_site_type_symbol
_atom_site_label
_atom_site_fract_x
_atom_site_fract_y
_atom_site_fract_z
Si Si1 0.820713 0.065444 0.618960
Si Si2 0.678831 0.564385 0.915456
Si Si3 0.319676 0.332086 0.787220
Si Si4 0.179832 0.731758 0.619566
Si Si5 0.180428 0.269927 0.398625
Si Si6 0.319363 0.334581 0.230536
O O1 0.778247 0.081633 0.508891
O O2 0.724275 0.102786 0.694414
O O3 0.000000 0.078034 0.634442
O O4 0.778105 0.000000 0.639638
O O5 0.500000 0.572082 0.944019
O O6 0.715056 0.500000 0.882171
O O7 0.724136 0.605399 0.826501
O O8 0.500000 0.326466 0.765252
O O9 0.228039 0.321274 0.687280
O O10 0.273458 0.286206 0.868303
O O11 0.220586 0.715329 0.509544
O O12 0.271991 0.788179 0.650055
O O13 0.000000 0.744951 0.632969
O O14 0.232260 0.322776 0.331981
O O15 0.000000 0.258064 0.383688
O O16 0.500000 0.330764 0.249511
#
# Coordination Sequence:
#
# PCOD8178029 Si02
#       6
#     8   8   8   8   8   8
#     4  10  20  33  50  72  98 128 160 195 236 282
#     4   9  18  32  49  71  99 129 161 197 237 281
#     4  10  19  30  48  72  97 126 158 195 239 285
#     4  10  20  33  50  71  97 128 160 197 239 283
#     4  10  20  33  49  69  95 126 159 196 238 284
#     4  11  21  32  50  73  98 127 158 196 239 284
#
# _framework density 17.123438
#
# number of rings (size 3 to 8) (size 9 to 14) (size 15 to 20)
#    0.000    2.000    0.000    6.500    0.000    7.667 
#    0.000    0.000    0.000    1.000    0.000    4.667 
#    0.000    0.000    0.000    0.000    0.000    0.000 
#
# Total GULP energy -297660.998671 kJ/mol
# GULP energy per Si atom -12402.541611 kJ/mol
# Density = 1.708446 g / cm^3
# Si number density = 17.123438 Si / 1000 Ang^3
#
#
#
# Elastic Constant Matrix: (Units=GPa)
#
#
# Indices 1 2 3 4 5 6 
#
# 1 49.6827 17.2535 26.6781 0.0000 0.0000 0.0000
# 2 17.2535 87.5663 51.9800 0.0000 0.0000 0.0000
# 3 26.6781 51.9800 123.9684 0.0000 0.0000 0.0000
# 4 0.0000 0.0000 0.0000 27.1889 0.0000 0.0000
# 5 0.0000 0.0000 0.0000 0.0000 19.7096 0.0000
# 6 0.0000 0.0000 0.0000 0.0000 0.0000 24.8634
#
#
#
# Elastic Compliance Matrix: (Units=1/GPa)
#
#
# Indices 1 2 3 4 5 6 
#
# 1 0.023051 -0.002126 -0.004069 0.000000 0.000000 0.000000
# 2 -0.002126 0.015400 -0.006000 0.000000 0.000000 0.000000
# 3 -0.004069 -0.006000 0.011458 0.000000 0.000000 0.000000
# 4 0.000000 0.000000 0.000000 0.036780 0.000000 0.000000
# 5 0.000000 0.000000 0.000000 0.000000 0.050737 0.000000
# 6 0.000000 0.000000 0.000000 0.000000 0.000000 0.040220
#
#
# Mechanical properties :
#
#
# Convention : Reuss Voigt Hill
#
# Bulk Modulus (GPa) = 39.18649 50.33784 44.76216
# Shear Modulus (GPa) = 23.74818 25.37277 24.56048
#
# Velocity S-wave (km/s) = 3.72813 3.85354 3.79135
# Velocity P-wave (km/s) = 6.43943 7.01858 6.73524
#
# Compressibility (1/GPa) = 0.02551900
#
# Stress axis : x y z
#
# Youngs Moduli (GPa) = 43.38186 64.93323 87.27571
#
# Poissons Ratio (x) = 0.13808 0.35512
# Poissons Ratio (y) = 0.09225 0.52364
# Poissons Ratio (z) = 0.17652 0.38959
#
# Static dielectric constant tensor:
#      x y z
#    x 3.316980 0.000000 0.000000 
#    y 0.000000 3.184770 0.000000 
#    z 0.000000 0.000000 3.201880 
# 
# 
# High freq. dielectric constant tensor:
#      x y z
#    x 1.676600 0.000000 0.000000 
#    y 0.000000 1.647760 0.000000 
#    z 0.000000 0.000000 1.651250 
# 
# From -- ./inp_files/12245.got.cif
#   From: 2010.03.12/outbox.cif.g09.slc.cpg/sg38_7_cif.got.tgz:12245.got - 2010.04.14 02:38:36.
