data_PCOD8178002
_publ_section_title
;
Structure prediction by ZEFSAII (Michael W. Deem and Ramdas Pophale) SiO2 
 PCOD8178002
Probable space group: A M M 2
;
_chemical_formula_sum "Si O2"
_cell_formula_units_Z 48
_cell_length_a 14.101791
_cell_length_b 9.471713
_cell_length_c 20.865156
_cell_angle_alpha 90.000000
_cell_angle_beta 90.000000
_cell_angle_gamma 90.000000
_cell_volume 2786.919601
_symmetry_space_group_name_H-M "A M M 2"
_symmetry_group_IT_number 38
_symmetry_cell_setting 'orthorhombic'
loop_
_space_group_symop_operation_xyz
x,y,z
-x,-y,z
-x,y,z
x,-y,z
x,1/2+y,1/2+z
-x,1/2-y,1/2+z
-x,1/2+y,1/2+z
x,1/2-y,1/2+z
loop_
_atom_site_type_symbol
_atom_site_label
_atom_site_fract_x
_atom_site_fract_y
_atom_site_fract_z
Si Si1 0.105072 0.835938 0.671750
Si Si2 0.295584 0.334252 0.114281
Si Si3 0.297946 0.664614 0.857426
Si Si4 0.894554 0.337912 0.797874
Si Si5 0.611635 0.161519 0.744051
Si Si6 0.607771 0.168154 0.487396
O O1 0.182843 0.798826 0.617402
O O2 0.130756 0.754180 0.736258
O O3 0.000000 0.794968 0.646237
O O4 0.110666 0.000000 0.689676
O O5 0.314179 0.500000 0.111269
O O6 0.345307 0.275137 0.178322
O O7 0.341416 0.266446 0.050498
O O8 0.322296 0.500000 0.849742
O O9 0.184444 0.691886 0.852239
O O10 0.353705 0.745995 0.802811
O O11 0.333608 0.722114 0.925872
O O12 0.890436 0.500000 0.775764
O O13 0.000000 0.300511 0.824590
O O14 0.500000 0.172386 0.738594
O O15 0.644923 0.000000 0.754517
O O16 0.500000 0.224524 0.483846
O O17 0.609009 0.000000 0.489881
#
# Coordination Sequence:
#
# PCOD8178002 Si02
#       6
#     8   8   8   8   8   8
#     4   9  16  27  46  71  94 116 148 192 237 276
#     4   9  16  28  45  67  93 120 153 190 229 274
#     4  10  19  31  48  70  94 122 158 195 232 275
#     4   9  17  29  45  67  95 124 152 185 232 284
#     4  10  19  30  47  70  93 119 155 198 238 276
#     4   9  17  29  45  65  92 126 158 188 228 279
#
# _framework density 17.223317000000002
#
# number of rings (size 3 to 8) (size 9 to 14) (size 15 to 20)
#    0.000    2.667    1.667    1.000    0.000    3.000 
#    0.000    0.833    0.000    7.000    0.000    0.000 
#    0.000    5.333    0.000    0.000    0.000    0.000 
#
# Total GULP energy -297486.095944 kJ/mol
# GULP energy per Si atom -12395.253998 kJ/mol
# Density = 1.718412 g / cm^3
# Si number density = 17.223317 Si / 1000 Ang^3
#
#
#
# Elastic Constant Matrix: (Units=GPa)
#
#
# Indices 1 2 3 4 5 6 
#
# 1 137.3234 24.0632 81.2856 0.0000 0.0000 0.0000
# 2 24.0632 25.4906 27.5053 0.0000 0.0000 0.0000
# 3 81.2856 27.5053 146.8689 0.0000 0.0000 0.0000
# 4 0.0000 0.0000 0.0000 18.1088 0.0000 0.0000
# 5 0.0000 0.0000 0.0000 0.0000 32.6855 0.0000
# 6 0.0000 0.0000 0.0000 0.0000 0.0000 18.2794
#
#
#
# Elastic Compliance Matrix: (Units=1/GPa)
#
#
# Indices 1 2 3 4 5 6 
#
# 1 0.011300 -0.004911 -0.005334 0.000000 0.000000 0.000000
# 2 -0.004911 0.051300 -0.006889 0.000000 0.000000 0.000000
# 3 -0.005334 -0.006889 0.011051 0.000000 0.000000 0.000000
# 4 0.000000 0.000000 0.000000 0.055222 0.000000 0.000000
# 5 0.000000 0.000000 0.000000 0.000000 0.030595 0.000000
# 6 0.000000 0.000000 0.000000 0.000000 0.000000 0.054706
#
#
# Mechanical properties :
#
#
# Convention : Reuss Voigt Hill
#
# Bulk Modulus (GPa) = 25.39238 63.93233 44.66236
# Shear Modulus (GPa) = 19.11520 25.60333 22.35927
#
# Velocity S-wave (km/s) = 3.33505 3.85976 3.60696
# Velocity P-wave (km/s) = 5.44106 7.55407 6.58289
#
# Compressibility (1/GPa) = 0.03938189
#
# Stress axis : x y z
#
# Youngs Moduli (GPa) = 88.49309 19.49308 90.48673
#
# Poissons Ratio (x) = 0.09574 0.48269
# Poissons Ratio (y) = 0.43463 0.62337
# Poissons Ratio (z) = 0.47206 0.13429
#
# Static dielectric constant tensor:
#      x y z
#    x 3.607840 0.000000 0.000000 
#    y 0.000000 2.925150 0.000000 
#    z 0.000000 0.000000 3.252690 
# 
# 
# High freq. dielectric constant tensor:
#      x y z
#    x 1.688420 0.000000 0.000000 
#    y 0.000000 1.624400 0.000000 
#    z 0.000000 0.000000 1.646750 
# 
# From -- ./inp_files/14485.got.cif
#   From: 2010.03.12/outbox.cif.g09.slc.cpg/sg38_8_cif.got.tgz:14485.got - 2010.04.14 02:38:36.
