data_PCOD8178683
_publ_section_title
;
Structure prediction by ZEFSAII (Michael W. Deem and Ramdas Pophale) SiO2 
 PCOD8178683
Probable space group: A M M 2
;
_chemical_formula_sum "Si O2"
_cell_formula_units_Z 48
_cell_length_a 14.521947
_cell_length_b 32.020871
_cell_length_c 5.049720
_cell_angle_alpha 90.000000
_cell_angle_beta 90.000000
_cell_angle_gamma 90.000000
_cell_volume 2348.147026
_symmetry_space_group_name_H-M "A M M 2"
_symmetry_group_IT_number 38
_symmetry_cell_setting 'orthorhombic'
loop_
_space_group_symop_operation_xyz
x,y,z
-x,-y,z
-x,y,z
x,-y,z
x,1/2+y,1/2+z
-x,1/2-y,1/2+z
-x,1/2+y,1/2+z
x,1/2-y,1/2+z
loop_
_atom_site_type_symbol
_atom_site_label
_atom_site_fract_x
_atom_site_fract_y
_atom_site_fract_z
Si Si1 0.648539 0.841979 0.277700
Si Si2 0.197379 0.279092 0.763420
Si Si3 0.500000 0.724002 0.757200
Si Si4 0.895429 0.950346 0.211879
Si Si5 0.606621 0.605267 0.277875
Si Si6 0.220914 0.549447 0.211456
Si Si7 0.000000 0.274922 0.864822
O O1 0.749927 0.822853 0.289441
O O2 0.588456 0.802868 0.187676
O O3 0.617088 0.858105 0.563920
O O4 0.636843 0.878728 0.065965
O O5 0.218360 0.254758 0.491918
O O6 0.093808 0.297789 0.781015
O O7 0.500000 0.763765 0.565345
O O8 0.837000 0.934241 0.461198
O O9 0.000000 0.932207 0.214039
O O10 0.901574 0.000000 0.214391
O O11 0.839121 0.934550 0.958134
O O12 0.500000 0.589706 0.283727
O O13 0.675702 0.567700 0.205555
O O14 0.233034 0.500000 0.211855
O O15 0.000000 0.232859 0.680404
#
# Coordination Sequence:
#
# PCOD8178683 Si02
#       7
#     8   8   4   8   8   8   4
#     4  12  23  39  58  83 118 158 190 237 302 355
#     4  10  19  35  58  86 110 144 190 236 281 342
#     4  12  22  36  58  86 113 146 199 250 284 344
#     4   9  17  33  60  92 121 147 184 243 303 346
#     4  12  24  42  59  80 118 165 196 239 306 352
#     4  10  21  37  62  91 116 154 206 247 282 347
#     4   8  16  30  54  80 106 138 179 226 277 328
#
# _framework density 20.441649999999999
#
# number of rings (size 3 to 8) (size 9 to 14) (size 15 to 20)
#    0.000    1.500    1.667    4.500    0.000    2.333 
#    0.000    0.000   11.000    5.000    0.000    0.000 
#    0.000    0.000    0.000    0.000    0.000    0.000 
#
# Total GULP energy -297515.339361 kJ/mol
# GULP energy per Si atom -12396.472473 kJ/mol
# Density = 2.039512 g / cm^3
# Si number density = 20.441650 Si / 1000 Ang^3
#
#
#
# Elastic Constant Matrix: (Units=GPa)
#
#
# Indices 1 2 3 4 5 6 
#
# 1 187.1851 43.7446 44.1841 0.0000 0.0000 0.0000
# 2 43.7446 43.2627 17.1798 0.0000 0.0000 0.0000
# 3 44.1841 17.1798 126.3404 0.0000 0.0000 0.0000
# 4 0.0000 0.0000 0.0000 20.4374 0.0000 0.0000
# 5 0.0000 0.0000 0.0000 0.0000 31.7613 0.0000
# 6 0.0000 0.0000 0.0000 0.0000 0.0000 43.5001
#
#
#
# Elastic Compliance Matrix: (Units=1/GPa)
#
#
# Indices 1 2 3 4 5 6 
#
# 1 0.007303 -0.006733 -0.001638 0.000000 0.000000 0.000000
# 2 -0.006733 0.030642 -0.001812 0.000000 0.000000 0.000000
# 3 -0.001638 -0.001812 0.008734 0.000000 0.000000 0.000000
# 4 0.000000 0.000000 0.000000 0.048930 0.000000 0.000000
# 5 0.000000 0.000000 0.000000 0.000000 0.031485 0.000000
# 6 0.000000 0.000000 0.000000 0.000000 0.000000 0.022988
#
#
# Mechanical properties :
#
#
# Convention : Reuss Voigt Hill
#
# Bulk Modulus (GPa) = 38.00500 63.00058 50.50279
# Shear Modulus (GPa) = 27.89856 35.91839 31.90848
#
# Velocity S-wave (km/s) = 3.69831 4.19635 3.95518
# Velocity P-wave (km/s) = 6.07199 7.37331 6.75406
#
# Compressibility (1/GPa) = 0.02631233
#
# Stress axis : x y z
#
# Youngs Moduli (GPa) = 136.93796 32.63446 114.48903
#
# Poissons Ratio (x) = 0.21974 0.18756
# Poissons Ratio (y) = 0.92205 0.20745
# Poissons Ratio (z) = 0.22434 0.05913
#
# Static dielectric constant tensor:
#      x y z
#    x 3.974680 0.000000 0.000000 
#    y 0.000000 3.170210 0.000000 
#    z 0.000000 0.000000 3.875410 
# 
# 
# High freq. dielectric constant tensor:
#      x y z
#    x 1.821470 0.000000 0.000000 
#    y 0.000000 1.751010 0.000000 
#    z 0.000000 0.000000 1.818010 
# 
# From -- ./inp_files/1335.got.cif
#   From: 2010.03.12/outbox.cif.g09.slc.cpg/sg38_1_cif.got.tgz:1335.got - 2010.04.14 02:38:36.
