data_PCOD8178505
_publ_section_title
;
Structure prediction by ZEFSAII (Michael W. Deem and Ramdas Pophale) SiO2 
 PCOD8178505
Probable space group: A M M 2
;
_chemical_formula_sum "Si O2"
_cell_formula_units_Z 56
_cell_length_a 8.960494
_cell_length_b 23.705119
_cell_length_c 13.497961
_cell_angle_alpha 90.000000
_cell_angle_beta 90.000000
_cell_angle_gamma 90.000000
_cell_volume 2867.096181
_symmetry_space_group_name_H-M "A M M 2"
_symmetry_group_IT_number 38
_symmetry_cell_setting 'orthorhombic'
loop_
_space_group_symop_operation_xyz
x,y,z
-x,-y,z
-x,y,z
x,-y,z
x,1/2+y,1/2+z
-x,1/2-y,1/2+z
-x,1/2+y,1/2+z
x,1/2-y,1/2+z
loop_
_atom_site_type_symbol
_atom_site_label
_atom_site_fract_x
_atom_site_fract_y
_atom_site_fract_z
Si Si1 0.327067 0.564342 0.175140
Si Si2 0.175396 0.728427 0.268958
Si Si3 0.326319 0.171890 0.367690
Si Si4 0.326560 0.128410 0.873069
Si Si5 0.670701 0.063416 0.249514
Si Si6 0.174676 0.336631 0.071700
Si Si7 0.827221 0.065049 0.046905
O O1 0.500000 0.572598 0.147969
O O2 0.276079 0.500000 0.163292
O O3 0.295252 0.582611 0.287709
O O4 0.231242 0.601038 0.099046
O O5 0.252539 0.788750 0.283994
O O6 0.237568 0.685459 0.350882
O O7 0.216138 0.706833 0.159125
O O8 0.000000 0.734134 0.284081
O O9 0.500000 0.185744 0.373858
O O10 0.296024 0.106852 0.338234
O O11 0.253925 0.185358 0.473297
O O12 0.500000 0.143341 0.881532
O O13 0.270349 0.103713 0.975931
O O14 0.500000 0.069387 0.212780
O O15 0.778774 0.077841 0.158783
O O16 0.701181 0.000000 0.289431
O O17 0.000000 0.339478 0.052418
O O18 0.000000 0.080697 0.034581
O O19 0.796516 0.000000 0.020441
#
# Coordination Sequence:
#
# PCOD8178505 Si02
#       7
#     8   8   8   8   8   8   8
#     4   9  18  33  54  81 113 149 189 233 279 327
#     4  10  22  40  59  81 112 147 184 229 278 329
#     4  11  23  39  62  87 110 143 185 228 276 330
#     4  10  19  33  55  82 113 150 191 234 279 329
#     4   9  20  39  59  80 109 145 187 233 277 326
#     4  10  22  39  58  82 113 148 185 228 277 329
#     4  10  20  33  52  81 116 152 189 232 282 333
#
# _framework density 19.531957999999999
#
# number of rings (size 3 to 8) (size 9 to 14) (size 15 to 20)
#    0.000    2.143    0.000    2.571    0.000    6.857 
#    0.000    4.286    0.000    0.000    0.000    0.000 
#    0.000    0.000    0.000    0.000    0.000    0.000 
#
# Total GULP energy -347328.680684 kJ/mol
# GULP energy per Si atom -12404.595739 kJ/mol
# Density = 1.948750 g / cm^3
# Si number density = 19.531958 Si / 1000 Ang^3
#
#
#
# Elastic Constant Matrix: (Units=GPa)
#
#
# Indices 1 2 3 4 5 6 
#
# 1 87.9433 52.0854 46.2048 0.0000 0.0000 0.0000
# 2 52.0854 115.2374 51.8267 0.0000 0.0000 0.0000
# 3 46.2048 51.8267 91.2657 0.0000 0.0000 0.0000
# 4 0.0000 0.0000 0.0000 24.9667 0.0000 0.0000
# 5 0.0000 0.0000 0.0000 0.0000 34.2452 0.0000
# 6 0.0000 0.0000 0.0000 0.0000 0.0000 33.0501
#
#
#
# Elastic Compliance Matrix: (Units=1/GPa)
#
#
# Indices 1 2 3 4 5 6 
#
# 1 0.017616 -0.005307 -0.005905 0.000000 0.000000 0.000000
# 2 -0.005307 0.013253 -0.004839 0.000000 0.000000 0.000000
# 3 -0.005905 -0.004839 0.016695 0.000000 0.000000 0.000000
# 4 0.000000 0.000000 0.000000 0.040053 0.000000 0.000000
# 5 0.000000 0.000000 0.000000 0.000000 0.029201 0.000000
# 6 0.000000 0.000000 0.000000 0.000000 0.000000 0.030257
#
#
# Mechanical properties :
#
#
# Convention : Reuss Voigt Hill
#
# Bulk Modulus (GPa) = 64.67552 66.07556 65.37554
# Shear Modulus (GPa) = 27.12516 28.07438 27.59977
#
# Velocity S-wave (km/s) = 3.73065 3.79536 3.76314
# Velocity P-wave (km/s) = 7.19316 7.28761 7.24054
#
# Compressibility (1/GPa) = 0.01546180
#
# Stress axis : x y z
#
# Youngs Moduli (GPa) = 56.76551 75.45715 59.89955
#
# Poissons Ratio (x) = 0.40041 0.35372
# Poissons Ratio (y) = 0.30123 0.28986
# Poissons Ratio (z) = 0.33521 0.36515
#
# Static dielectric constant tensor:
#      x y z
#    x 3.612200 0.000000 0.000000 
#    y 0.000000 3.634410 0.000000 
#    z 0.000000 0.000000 3.402130 
# 
# 
# High freq. dielectric constant tensor:
#      x y z
#    x 1.769040 0.000000 0.000000 
#    y 0.000000 1.762190 0.000000 
#    z 0.000000 0.000000 1.752900 
# 
# From -- ./inp_files/12450.got.cif
#   From: 2010.03.12/outbox.cif.g09.slc.cpg/sg38_7_cif.got.tgz:12450.got - 2010.04.14 02:38:36.
