data_PCOD8178467
_publ_section_title
;
Structure prediction by ZEFSAII (Michael W. Deem and Ramdas Pophale) SiO2 
 PCOD8178467
Probable space group: A M M 2
;
_chemical_formula_sum "Si O2"
_cell_formula_units_Z 48
_cell_length_a 8.725545
_cell_length_b 31.235646
_cell_length_c 9.016385
_cell_angle_alpha 90.000000
_cell_angle_beta 90.000000
_cell_angle_gamma 90.000000
_cell_volume 2457.398013
_symmetry_space_group_name_H-M "A M M 2"
_symmetry_group_IT_number 38
_symmetry_cell_setting 'orthorhombic'
loop_
_space_group_symop_operation_xyz
x,y,z
-x,-y,z
-x,y,z
x,-y,z
x,1/2+y,1/2+z
-x,1/2-y,1/2+z
-x,1/2+y,1/2+z
x,1/2-y,1/2+z
loop_
_atom_site_type_symbol
_atom_site_label
_atom_site_fract_x
_atom_site_fract_y
_atom_site_fract_z
Si Si1 0.178909 0.132188 0.556160
Si Si2 0.327319 0.953768 0.201045
Si Si3 0.327059 0.046866 0.553230
Si Si4 0.179542 0.867992 0.216087
Si Si5 0.679587 0.291355 0.226295
Si Si6 0.181149 0.284365 0.544122
O O1 0.213284 0.083779 0.611917
O O2 0.233637 0.137771 0.385866
O O3 0.281277 0.163295 0.654073
O O4 0.000000 0.142631 0.576509
O O5 0.500000 0.949563 0.143080
O O6 0.321387 0.953749 0.377092
O O7 0.237162 0.912307 0.141597
O O8 0.259602 0.000000 0.145292
O O9 0.500000 0.056589 0.606928
O O10 0.274375 0.000000 0.613231
O O11 0.239949 0.828011 0.121074
O O12 0.000000 0.870195 0.210331
O O13 0.500000 0.289110 0.263973
O O14 0.781549 0.285865 0.371683
O O15 0.724699 0.254491 0.112263
O O16 0.000000 0.277140 0.567143
#
# Coordination Sequence:
#
# PCOD8178467 Si02
#       6
#     8   8   8   8   8   8
#     4  10  19  33  54  81 112 146 183 224 272 325
#     4   8  14  25  44  72 106 142 177 215 261 310
#     4   8  14  26  45  72 107 144 181 223 269 316
#     4   9  19  33  53  80 108 141 180 220 264 316
#     4  12  25  40  59  84 110 140 181 226 273 327
#     4  11  23  41  61  81 109 144 180 222 275 330
#
# _framework density 19.532855999999999
#
# number of rings (size 3 to 8) (size 9 to 14) (size 15 to 20)
#    0.000    2.333    0.000    4.500    0.000    4.000 
#    0.000    3.333    0.000    1.000    0.000    4.667 
#    0.000    0.000    0.000    0.000    0.000    0.000 
#
# Total GULP energy -297508.202335 kJ/mol
# GULP energy per Si atom -12396.175097 kJ/mol
# Density = 1.948840 g / cm^3
# Si number density = 19.532856 Si / 1000 Ang^3
#
#
#
# Elastic Constant Matrix: (Units=GPa)
#
#
# Indices 1 2 3 4 5 6 
#
# 1 49.9577 27.7970 10.0527 0.0000 0.0000 0.0000
# 2 27.7970 147.1074 34.7278 0.0000 0.0000 0.0000
# 3 10.0527 34.7278 52.8608 0.0000 0.0000 0.0000
# 4 0.0000 0.0000 0.0000 21.5347 0.0000 0.0000
# 5 0.0000 0.0000 0.0000 0.0000 20.0153 0.0000
# 6 0.0000 0.0000 0.0000 0.0000 0.0000 39.3027
#
#
#
# Elastic Compliance Matrix: (Units=1/GPa)
#
#
# Indices 1 2 3 4 5 6 
#
# 1 0.022506 -0.003837 -0.001759 0.000000 0.000000 0.000000
# 2 -0.003837 0.008700 -0.004986 0.000000 0.000000 0.000000
# 3 -0.001759 -0.004986 0.022528 0.000000 0.000000 0.000000
# 4 0.000000 0.000000 0.000000 0.046437 0.000000 0.000000
# 5 0.000000 0.000000 0.000000 0.000000 0.049962 0.000000
# 6 0.000000 0.000000 0.000000 0.000000 0.000000 0.025444
#
#
# Mechanical properties :
#
#
# Convention : Reuss Voigt Hill
#
# Bulk Modulus (GPa) = 30.70387 43.89790 37.30088
# Shear Modulus (GPa) = 24.08522 27.99377 26.03949
#
# Velocity S-wave (km/s) = 3.51531 3.78982 3.65514
# Velocity P-wave (km/s) = 5.67712 6.45546 6.07876
#
# Compressibility (1/GPa) = 0.03256918
#
# Stress axis : x y z
#
# Youngs Moduli (GPa) = 44.43248 114.94437 44.39001
#
# Poissons Ratio (x) = 0.44109 0.07808
# Poissons Ratio (y) = 0.17051 0.22132
# Poissons Ratio (z) = 0.07816 0.57308
#
# Static dielectric constant tensor:
#      x y z
#    x 3.487990 0.000000 0.000000 
#    y 0.000000 4.310360 0.000000 
#    z 0.000000 0.000000 3.278490 
# 
# 
# High freq. dielectric constant tensor:
#      x y z
#    x 1.753470 0.000000 0.000000 
#    y 0.000000 1.786470 0.000000 
#    z 0.000000 0.000000 1.716740 
# 
# From -- ./inp_files/3785.got.cif
#   From: 2010.03.12/outbox.cif.g09.slc.cpg/sg38_2_cif.got.tgz:3785.got - 2010.04.14 02:38:36.
