data_PCOD8178358
_publ_section_title
;
Structure prediction by ZEFSAII (Michael W. Deem and Ramdas Pophale) SiO2 
 PCOD8178358
Probable space group: A M M 2
;
_chemical_formula_sum "Si O2"
_cell_formula_units_Z 56
_cell_length_a 23.723835
_cell_length_b 8.658501
_cell_length_c 14.458367
_cell_angle_alpha 90.000000
_cell_angle_beta 90.000000
_cell_angle_gamma 90.000000
_cell_volume 2969.934358
_symmetry_space_group_name_H-M "A M M 2"
_symmetry_group_IT_number 38
_symmetry_cell_setting 'orthorhombic'
loop_
_space_group_symop_operation_xyz
x,y,z
-x,-y,z
-x,y,z
x,-y,z
x,1/2+y,1/2+z
-x,1/2-y,1/2+z
-x,1/2+y,1/2+z
x,1/2-y,1/2+z
loop_
_atom_site_type_symbol
_atom_site_label
_atom_site_fract_x
_atom_site_fract_y
_atom_site_fract_z
Si Si1 0.063900 0.816814 0.877880
Si Si2 0.364032 0.820864 0.887638
Si Si3 0.435448 0.322443 0.735468
Si Si4 0.765144 0.818299 0.876165
Si Si5 0.850668 0.683023 0.737634
Si Si6 0.436412 0.323982 0.043678
Si Si7 0.149840 0.317888 0.529814
O O1 0.093806 0.745950 0.788185
O O2 0.000000 0.756444 0.881906
O O3 0.067134 0.000000 0.868600
O O4 0.095088 0.761654 0.971899
O O5 0.393008 0.715063 0.963754
O O6 0.369086 0.000000 0.914590
O O7 0.394527 0.790620 0.790810
O O8 0.299534 0.767938 0.879955
O O9 0.500000 0.284894 0.761949
O O10 0.420894 0.500000 0.757195
O O11 0.424828 0.290695 0.627998
O O12 0.793886 0.735142 0.789145
O O13 0.772623 0.000000 0.860736
O O14 0.794641 0.766472 0.972328
O O15 0.853283 0.500000 0.736186
O O16 0.849670 0.752794 0.633073
O O17 0.500000 0.300690 0.005834
O O18 0.427292 0.500000 0.076099
O O19 0.148608 0.500000 0.539598
#
# Coordination Sequence:
#
# PCOD8178358 Si02
#       7
#     8   8   8   8   8   8   8
#     4   9  18  34  54  75 104 142 176 206 250 312
#     4  11  22  35  55  81 107 139 178 222 272 322
#     4  10  21  37  56  78 106 141 179 219 265 321
#     4   9  20  38  54  72 102 138 175 212 253 310
#     4  10  19  32  54  80 103 132 171 218 264 299
#     4  10  21  37  56  79 108 140 175 219 271 326
#     4   8  16  33  54  73  98 135 174 207 247 303
#
# _framework density 18.855637000000002
#
# number of rings (size 3 to 8) (size 9 to 14) (size 15 to 20)
#    0.000    2.429    0.000    3.000    0.000    6.571 
#    0.000    8.571    0.000    0.000    0.000    0.000 
#    0.000    0.000    0.000    0.000    0.000    0.000 
#
# Total GULP energy -347211.845171 kJ/mol
# GULP energy per Si atom -12400.423042 kJ/mol
# Density = 1.881272 g / cm^3
# Si number density = 18.855637 Si / 1000 Ang^3
#
#
#
# Elastic Constant Matrix: (Units=GPa)
#
#
# Indices 1 2 3 4 5 6 
#
# 1 156.4083 34.1909 76.6065 0.0000 0.0000 0.0000
# 2 34.1909 40.9293 25.1599 0.0000 0.0000 0.0000
# 3 76.6065 25.1599 147.4166 0.0000 0.0000 0.0000
# 4 0.0000 0.0000 0.0000 30.3515 0.0000 0.0000
# 5 0.0000 0.0000 0.0000 0.0000 27.7373 0.0000
# 6 0.0000 0.0000 0.0000 0.0000 0.0000 27.8058
#
#
#
# Elastic Compliance Matrix: (Units=1/GPa)
#
#
# Indices 1 2 3 4 5 6 
#
# 1 0.009576 -0.005520 -0.004034 0.000000 0.000000 0.000000
# 2 -0.005520 0.030478 -0.002333 0.000000 0.000000 0.000000
# 3 -0.004034 -0.002333 0.009278 0.000000 0.000000 0.000000
# 4 0.000000 0.000000 0.000000 0.032947 0.000000 0.000000
# 5 0.000000 0.000000 0.000000 0.000000 0.036053 0.000000
# 6 0.000000 0.000000 0.000000 0.000000 0.000000 0.035964
#
#
# Mechanical properties :
#
#
# Convention : Reuss Voigt Hill
#
# Bulk Modulus (GPa) = 39.12760 68.51876 53.82318
# Shear Modulus (GPa) = 26.79689 31.09870 28.94780
#
# Velocity S-wave (km/s) = 3.77392 4.06557 3.92246
# Velocity P-wave (km/s) = 6.30763 7.64565 7.00864
#
# Compressibility (1/GPa) = 0.02555741
#
# Stress axis : x y z
#
# Youngs Moduli (GPa) = 104.42773 32.81103 107.77979
#
# Poissons Ratio (x) = 0.18110 0.43481
# Poissons Ratio (y) = 0.57639 0.25149
# Poissons Ratio (z) = 0.42129 0.07656
#
# Static dielectric constant tensor:
#      x y z
#    x 3.538330 0.000000 0.000000 
#    y 0.000000 3.321520 0.000000 
#    z 0.000000 0.000000 3.588800 
# 
# 
# High freq. dielectric constant tensor:
#      x y z
#    x 1.732620 0.000000 0.000000 
#    y 0.000000 1.721130 0.000000 
#    z 0.000000 0.000000 1.736880 
# 
# From -- ./inp_files/15442.got.cif
#   From: 2010.03.12/outbox.cif.g09.slc.cpg/sg38_8_cif.got.tgz:15442.got - 2010.04.14 02:38:36.
