data_PCOD8178809
_publ_section_title
;
Structure prediction by ZEFSAII (Michael W. Deem and Ramdas Pophale) SiO2 
 PCOD8178809
Probable space group: A M M 2
;
_chemical_formula_sum "Si O2"
_cell_formula_units_Z 64
_cell_length_a 13.364462
_cell_length_b 30.200724
_cell_length_c 8.975574
_cell_angle_alpha 90.000000
_cell_angle_beta 90.000000
_cell_angle_gamma 90.000000
_cell_volume 3622.689120
_symmetry_space_group_name_H-M "A M M 2"
_symmetry_group_IT_number 38
_symmetry_cell_setting 'orthorhombic'
loop_
_space_group_symop_operation_xyz
x,y,z
-x,-y,z
-x,y,z
x,-y,z
x,1/2+y,1/2+z
-x,1/2-y,1/2+z
-x,1/2+y,1/2+z
x,1/2-y,1/2+z
loop_
_atom_site_type_symbol
_atom_site_label
_atom_site_fract_x
_atom_site_fract_y
_atom_site_fract_z
Si Si1 0.797770 0.629980 0.438770
Si Si2 0.118242 0.048420 0.438630
Si Si3 0.610932 0.235660 0.151839
Si Si4 0.116133 0.448698 0.597619
Si Si5 0.883863 0.370647 0.121875
Si Si6 0.886372 0.216827 0.474573
Si Si7 0.185701 0.295716 0.658584
Si Si8 0.610727 0.187268 0.854030
O O1 0.806115 0.579448 0.496238
O O2 0.868973 0.633458 0.297012
O O3 0.841806 0.658849 0.575357
O O4 0.687438 0.647201 0.390538
O O5 0.143662 0.060999 0.268903
O O6 0.165529 0.085052 0.550218
O O7 0.000000 0.045606 0.458207
O O8 0.163994 0.000000 0.478074
O O9 0.500000 0.221780 0.211369
O O10 0.699328 0.204707 0.219422
O O11 0.631659 0.287346 0.196933
O O12 0.616019 0.227415 0.974011
O O13 0.133229 0.500000 0.558185
O O14 0.000000 0.435836 0.565109
O O15 0.837797 0.327676 0.041847
O O16 0.000000 0.372100 0.083653
O O17 0.821849 0.257724 0.532805
O O18 0.887253 0.213583 0.295497
O O19 0.000000 0.223668 0.528422
O O20 0.500000 0.165485 0.853284
#
# Coordination Sequence:
#
# PCOD8178809 Si02
#       8
#     8   8   8   8   8   8   8   8
#     4  11  21  31  48  72  98 124 155 200 246 291
#     4   8  15  30  50  69  91 120 154 194 238 281
#     4   9  17  31  50  69  89 117 155 201 248 284
#     4   9  18  33  52  73  97 126 161 200 243 291
#     4  10  20  31  44  66  95 126 159 192 233 286
#     4  11  22  33  44  61  92 132 167 194 224 277
#     4  11  21  33  48  67  92 125 164 201 240 287
#     4   9  18  32  50  71  96 127 163 203 245 290
#
# _framework density 17.666433999999999
#
# number of rings (size 3 to 8) (size 9 to 14) (size 15 to 20)
#    0.000    2.250    0.000    5.250    0.000    4.500 
#    0.000    1.250    0.000    0.375    0.000    0.000 
#    0.000    1.000    0.000    0.000    0.000    0.000 
#
# Total GULP energy -396506.105912 kJ/mol
# GULP energy per Si atom -12390.815810 kJ/mol
# Density = 1.762622 g / cm^3
# Si number density = 17.666434 Si / 1000 Ang^3
#
#
#
# Elastic Constant Matrix: (Units=GPa)
#
#
# Indices 1 2 3 4 5 6 
#
# 1 52.1852 34.8374 17.4957 0.0000 0.0000 0.0000
# 2 34.8374 104.0654 43.9373 0.0000 0.0000 0.0000
# 3 17.4957 43.9373 74.9183 0.0000 0.0000 0.0000
# 4 0.0000 0.0000 0.0000 34.1377 0.0000 0.0000
# 5 0.0000 0.0000 0.0000 0.0000 16.9024 0.0000
# 6 0.0000 0.0000 0.0000 0.0000 0.0000 21.2231
#
#
#
# Elastic Compliance Matrix: (Units=1/GPa)
#
#
# Indices 1 2 3 4 5 6 
#
# 1 0.024762 -0.007772 -0.001224 0.000000 0.000000 0.000000
# 2 -0.007772 0.015211 -0.007106 0.000000 0.000000 0.000000
# 3 -0.001224 -0.007106 0.017801 0.000000 0.000000 0.000000
# 4 0.000000 0.000000 0.000000 0.029293 0.000000 0.000000
# 5 0.000000 0.000000 0.000000 0.000000 0.059163 0.000000
# 6 0.000000 0.000000 0.000000 0.000000 0.000000 0.047119
#
#
# Mechanical properties :
#
#
# Convention : Reuss Voigt Hill
#
# Bulk Modulus (GPa) = 39.10994 47.07885 43.09440
# Shear Modulus (GPa) = 21.36044 23.44586 22.40315
#
# Velocity S-wave (km/s) = 3.48098 3.64695 3.56493
# Velocity P-wave (km/s) = 6.19212 6.66635 6.43361
#
# Compressibility (1/GPa) = 0.02556895
#
# Stress axis : x y z
#
# Youngs Moduli (GPa) = 40.38505 65.73982 56.17595
#
# Poissons Ratio (x) = 0.51096 0.06878
# Poissons Ratio (y) = 0.31389 0.39918
# Poissons Ratio (z) = 0.04944 0.46715
#
# Static dielectric constant tensor:
#      x y z
#    x 3.153890 0.000000 0.000000 
#    y 0.000000 3.401960 0.000000 
#    z 0.000000 0.000000 3.275460 
# 
# 
# High freq. dielectric constant tensor:
#      x y z
#    x 1.652700 0.000000 0.000000 
#    y 0.000000 1.666980 0.000000 
#    z 0.000000 0.000000 1.688850 
# 
# From -- ./inp_files/6004.got.cif
#   From: 2010.03.12/outbox.cif.g09.slc.cpg/sg38_4_cif.got.tgz:6004.got - 2010.04.14 02:38:36.
