data_PCOD8178996
_publ_section_title
;
Structure prediction by ZEFSAII (Michael W. Deem and Ramdas Pophale) SiO2 
 PCOD8178996
Probable space group: A M M 2
;
_chemical_formula_sum "Si O2"
_cell_formula_units_Z 64
_cell_length_a 19.752875
_cell_length_b 8.884946
_cell_length_c 20.177300
_cell_angle_alpha 90.000000
_cell_angle_beta 90.000000
_cell_angle_gamma 90.000000
_cell_volume 3541.181277
_symmetry_space_group_name_H-M "A M M 2"
_symmetry_group_IT_number 38
_symmetry_cell_setting 'orthorhombic'
loop_
_space_group_symop_operation_xyz
x,y,z
-x,-y,z
-x,y,z
x,-y,z
x,1/2+y,1/2+z
-x,1/2-y,1/2+z
-x,1/2+y,1/2+z
x,1/2-y,1/2+z
loop_
_atom_site_type_symbol
_atom_site_label
_atom_site_fract_x
_atom_site_fract_y
_atom_site_fract_z
Si Si1 0.819121 0.822929 0.340750
Si Si2 0.075023 0.179157 0.086900
Si Si3 0.920975 0.327071 0.437682
Si Si4 0.420505 0.172541 0.590706
Si Si5 0.422301 0.825474 0.955485
Si Si6 0.179921 0.177150 0.191893
Si Si7 0.331382 0.322279 0.700095
Si Si8 0.677807 0.677527 0.338878
O O1 0.879728 0.778913 0.388762
O O2 0.839680 0.772791 0.266287
O O3 0.750132 0.741134 0.362038
O O4 0.805786 0.000000 0.343744
O O5 0.128331 0.251355 0.138887
O O6 0.000000 0.241474 0.103886
O O7 0.073539 0.000000 0.090902
O O8 0.095801 0.225843 0.012459
O O9 0.899354 0.500000 0.426886
O O10 0.000000 0.305874 0.422555
O O11 0.500000 0.194524 0.600399
O O12 0.398008 0.230405 0.518716
O O13 0.385229 0.271006 0.646557
O O14 0.398376 0.000000 0.598186
O O15 0.500000 0.789875 0.937263
O O16 0.376960 0.775947 0.893732
O O17 0.412184 0.000000 0.973089
O O18 0.256532 0.228481 0.176137
O O19 0.173621 0.000000 0.184698
O O20 0.334920 0.500000 0.709889
O O21 0.348130 0.247293 0.770301
O O22 0.683349 0.500000 0.330545
#
# Coordination Sequence:
#
# PCOD8178996 Si02
#       8
#     8   8   8   8   8   8   8   8
#     4  10  20  33  50  74 103 134 169 211 257 307
#     4   8  14  27  48  71  94 123 162 205 245 290
#     4   9  18  32  50  73 100 130 166 209 257 310
#     4  10  21  36  54  77 105 136 171 212 258 311
#     4   9  19  36  56  77 101 131 170 215 261 311
#     4   8  16  30  47  70  98 126 162 206 246 288
#     4  10  20  34  52  76 107 139 173 215 258 305
#     4  10  20  35  55  77 104 139 175 214 262 314
#
# _framework density 18.073063999999999
#
# number of rings (size 3 to 8) (size 9 to 14) (size 15 to 20)
#    0.000    2.750    0.000    3.000    0.000    4.000 
#    0.000    5.000    0.000    3.750    0.000    0.000 
#    0.000    0.000    0.000    0.000    0.000    0.000 
#
# Total GULP energy -396785.604509 kJ/mol
# GULP energy per Si atom -12399.550141 kJ/mol
# Density = 1.803193 g / cm^3
# Si number density = 18.073064 Si / 1000 Ang^3
#
#
#
# Elastic Constant Matrix: (Units=GPa)
#
#
# Indices 1 2 3 4 5 6 
#
# 1 84.6729 36.8637 79.4694 0.0000 0.0000 0.0000
# 2 36.8637 61.6580 46.0462 0.0000 0.0000 0.0000
# 3 79.4694 46.0462 127.7132 0.0000 0.0000 0.0000
# 4 0.0000 0.0000 0.0000 30.4447 0.0000 0.0000
# 5 0.0000 0.0000 0.0000 0.0000 39.8582 0.0000
# 6 0.0000 0.0000 0.0000 0.0000 0.0000 25.5177
#
#
#
# Elastic Compliance Matrix: (Units=1/GPa)
#
#
# Indices 1 2 3 4 5 6 
#
# 1 0.029650 -0.005404 -0.016502 0.000000 0.000000 0.000000
# 2 -0.005404 0.023179 -0.004995 0.000000 0.000000 0.000000
# 3 -0.016502 -0.004995 0.019899 0.000000 0.000000 0.000000
# 4 0.000000 0.000000 0.000000 0.032846 0.000000 0.000000
# 5 0.000000 0.000000 0.000000 0.000000 0.025089 0.000000
# 6 0.000000 0.000000 0.000000 0.000000 0.000000 0.039188
#
#
# Mechanical properties :
#
#
# Convention : Reuss Voigt Hill
#
# Bulk Modulus (GPa) = 52.83036 66.53363 59.68199
# Shear Modulus (GPa) = 21.74276 26.60845 24.17560
#
# Velocity S-wave (km/s) = 3.47226 3.84118 3.66137
# Velocity P-wave (km/s) = 6.73576 7.52107 7.13922
#
# Compressibility (1/GPa) = 0.01892851
#
# Stress axis : x y z
#
# Youngs Moduli (GPa) = 33.72656 43.14199 50.25395
#
# Poissons Ratio (x) = 0.23313 0.82927
# Poissons Ratio (y) = 0.18225 0.25100
# Poissons Ratio (z) = 0.55654 0.21548
#
# Static dielectric constant tensor:
#      x y z
#    x 3.476210 0.000000 0.000000 
#    y 0.000000 3.151000 0.000000 
#    z 0.000000 0.000000 3.463880 
# 
# 
# High freq. dielectric constant tensor:
#      x y z
#    x 1.701070 0.000000 0.000000 
#    y 0.000000 1.682420 0.000000 
#    z 0.000000 0.000000 1.705910 
# 
# From -- ./inp_files/18971.got.cif
#   From: 2010.03.12/outbox.cif.g09.slc.cpg/sg38_10_cif.got.tgz:18971.got - 2010.04.14 02:38:36.
