data_PCOD8178181
_publ_section_title
;
Structure prediction by ZEFSAII (Michael W. Deem and Ramdas Pophale) SiO2 
 PCOD8178181
Probable space group: A M M 2
;
_chemical_formula_sum "Si O2"
_cell_formula_units_Z 64
_cell_length_a 9.008114
_cell_length_b 14.220881
_cell_length_c 28.204011
_cell_angle_alpha 90.000000
_cell_angle_beta 90.000000
_cell_angle_gamma 90.000000
_cell_volume 3613.027368
_symmetry_space_group_name_H-M "A M M 2"
_symmetry_group_IT_number 38
_symmetry_cell_setting 'orthorhombic'
loop_
_space_group_symop_operation_xyz
x,y,z
-x,-y,z
-x,y,z
x,-y,z
x,1/2+y,1/2+z
-x,1/2-y,1/2+z
-x,1/2+y,1/2+z
x,1/2-y,1/2+z
loop_
_atom_site_type_symbol
_atom_site_label
_atom_site_fract_x
_atom_site_fract_y
_atom_site_fract_z
Si Si1 0.174855 0.226972 0.565340
Si Si2 0.325968 0.891706 0.378357
Si Si3 0.171507 0.107870 0.655471
Si Si4 0.170445 0.108659 0.474989
Si Si5 0.171624 0.608120 0.425260
Si Si6 0.175552 0.774682 0.834070
Si Si7 0.326215 0.608296 0.252765
Si Si8 0.325322 0.892576 0.021689
O O1 0.225804 0.173883 0.612736
O O2 0.226323 0.165767 0.520386
O O3 0.255227 0.328026 0.562845
O O4 0.000000 0.242567 0.565250
O O5 0.500000 0.873246 0.376048
O O6 0.268187 0.861460 0.430109
O O7 0.244596 0.829458 0.338448
O O8 0.285771 0.000000 0.367917
O O9 0.272785 0.133378 0.700112
O O10 0.000000 0.126524 0.668521
O O11 0.194041 0.000000 0.639636
O O12 0.000000 0.132045 0.462410
O O13 0.191251 0.000000 0.487750
O O14 0.203198 0.500000 0.413012
O O15 0.225232 0.666842 0.380167
O O16 0.263619 0.641146 0.470861
O O17 0.000000 0.626560 0.436926
O O18 0.239131 0.824797 0.788102
O O19 0.000000 0.767916 0.829002
O O20 0.500000 0.628294 0.256769
O O21 0.288050 0.500000 0.264738
O O22 0.500000 0.880621 0.021513
O O23 0.277614 0.000000 0.031805
#
# Coordination Sequence:
#
# PCOD8178181 Si02
#       8
#     8   8   8   8   8   8   8   8
#     4  10  19  31  51  76  99 129 168 206 246 291
#     4  10  21  35  49  69 101 138 173 210 252 296
#     4   9  18  34  55  78 104 131 160 198 245 297
#     4   9  17  30  48  72 103 135 167 203 244 294
#     4   9  18  32  49  71 100 132 166 204 246 293
#     4  11  21  33  53  77 100 131 171 211 251 297
#     4  10  21  36  54  78 107 135 162 197 246 302
#     4  10  21  34  47  67  98 135 171 207 248 291
#
# _framework density 17.713677000000001
#
# number of rings (size 3 to 8) (size 9 to 14) (size 15 to 20)
#    0.000    2.250    0.000    3.000    0.000    9.250 
#    0.000    1.250    0.000    4.500    0.000    3.500 
#    0.000    0.000    0.000    0.000    0.000    0.000 
#
# Total GULP energy -396914.927996 kJ/mol
# GULP energy per Si atom -12403.591500 kJ/mol
# Density = 1.767336 g / cm^3
# Si number density = 17.713677 Si / 1000 Ang^3
#
#
#
# Elastic Constant Matrix: (Units=GPa)
#
#
# Indices 1 2 3 4 5 6 
#
# 1 70.0310 47.8479 51.9282 0.0000 0.0000 0.0000
# 2 47.8479 95.5092 72.4367 0.0000 0.0000 0.0000
# 3 51.9282 72.4367 105.0710 0.0000 0.0000 0.0000
# 4 0.0000 0.0000 0.0000 33.3107 0.0000 0.0000
# 5 0.0000 0.0000 0.0000 0.0000 2.1652 0.0000
# 6 0.0000 0.0000 0.0000 0.0000 0.0000 28.1502
#
#
#
# Elastic Compliance Matrix: (Units=1/GPa)
#
#
# Indices 1 2 3 4 5 6 
#
# 1 0.024283 -0.006420 -0.007575 0.000000 0.000000 0.000000
# 2 -0.006420 0.023641 -0.013126 0.000000 0.000000 0.000000
# 3 -0.007575 -0.013126 0.022310 0.000000 0.000000 0.000000
# 4 0.000000 0.000000 0.000000 0.030020 0.000000 0.000000
# 5 0.000000 0.000000 0.000000 0.000000 0.461852 0.000000
# 6 0.000000 0.000000 0.000000 0.000000 0.000000 0.035524
#
#
# Mechanical properties :
#
#
# Convention : Reuss Voigt Hill
#
# Bulk Modulus (GPa) = 62.52828 68.33744 65.43286
# Shear Modulus (GPa) = 7.60801 19.28511 13.44656
#
# Velocity S-wave (km/s) = 2.07468 3.30314 2.75818
# Velocity P-wave (km/s) = 6.41211 7.29454 6.86751
#
# Compressibility (1/GPa) = 0.01599276
#
# Stress axis : x y z
#
# Youngs Moduli (GPa) = 41.18168 42.29901 44.82300
#
# Poissons Ratio (x) = 0.27156 0.33954
# Poissons Ratio (y) = 0.26438 0.58833
# Poissons Ratio (z) = 0.31195 0.55520
#
# Static dielectric constant tensor:
#      x y z
#    x 3.242930 0.000000 0.000000 
#    y 0.000000 3.420210 0.000000 
#    z 0.000000 0.000000 3.155900 
# 
# 
# High freq. dielectric constant tensor:
#      x y z
#    x 1.686410 0.000000 0.000000 
#    y 0.000000 1.689420 0.000000 
#    z 0.000000 0.000000 1.665690 
# 
# From -- ./inp_files/22146.got.cif
#   From: 2010.03.12/outbox.cif.g09.slc.cpg/sg38_12_cif.got.tgz:22146.got - 2010.04.14 02:38:36.
