data_PCOD8178118
_publ_section_title
;
Structure prediction by ZEFSAII (Michael W. Deem and Ramdas Pophale) SiO2 
 PCOD8178118
Probable space group: A M M 2
;
_chemical_formula_sum "Si O2"
_cell_formula_units_Z 64
_cell_length_a 9.110944
_cell_length_b 29.962939
_cell_length_c 14.303767
_cell_angle_alpha 90.000000
_cell_angle_beta 90.000000
_cell_angle_gamma 90.000000
_cell_volume 3904.794784
_symmetry_space_group_name_H-M "A M M 2"
_symmetry_group_IT_number 38
_symmetry_cell_setting 'orthorhombic'
loop_
_space_group_symop_operation_xyz
x,y,z
-x,-y,z
-x,y,z
x,-y,z
x,1/2+y,1/2+z
-x,1/2-y,1/2+z
-x,1/2+y,1/2+z
x,1/2-y,1/2+z
loop_
_atom_site_type_symbol
_atom_site_label
_atom_site_fract_x
_atom_site_fract_y
_atom_site_fract_z
Si Si1 0.672218 0.367401 0.413980
Si Si2 0.833970 0.674830 0.245382
Si Si3 0.827709 0.050397 0.861538
Si Si4 0.833639 0.222260 0.236108
Si Si5 0.330976 0.798385 0.415233
Si Si6 0.332140 0.450523 0.169387
Si Si7 0.672710 0.284941 0.540845
Si Si8 0.333080 0.361002 0.077815
O O1 0.500000 0.374990 0.410586
O O2 0.725042 0.350969 0.313204
O O3 0.750651 0.415081 0.433537
O O4 0.716776 0.331425 0.491780
O O5 0.826621 0.726739 0.267770
O O6 0.778692 0.667099 0.140540
O O7 0.000000 0.656879 0.257009
O O8 0.771780 0.060045 0.756735
O O9 0.000000 0.058450 0.863562
O O10 0.787051 0.000000 0.892101
O O11 0.758850 0.194933 0.320028
O O12 0.750863 0.214594 0.139809
O O13 0.000000 0.205714 0.223699
O O14 0.500000 0.789894 0.388695
O O15 0.273412 0.756585 0.477471
O O16 0.308837 0.844681 0.471764
O O17 0.500000 0.447546 0.204735
O O18 0.298632 0.500000 0.128677
O O19 0.302107 0.414117 0.087974
O O20 0.500000 0.281095 0.557920
O O21 0.500000 0.349615 0.108519
#
# Coordination Sequence:
#
# PCOD8178118 Si02
#       8
#     8   8   8   8   8   8   8   8
#     4  11  21  33  50  72  97 132 172 204 242 294
#     4  11  21  30  45  70 101 133 163 202 247 291
#     4  10  20  32  47  71 102 132 162 199 247 297
#     4  11  23  35  49  71 100 132 166 208 253 293
#     4  10  20  34  51  70  96 131 170 205 242 295
#     4   9  17  29  46  70  99 129 163 202 243 290
#     4  10  21  35  52  72  96 130 168 207 248 291
#     4  10  19  31  49  71  95 132 171 201 239 289
#
# _framework density 16.390107
#
# number of rings (size 3 to 8) (size 9 to 14) (size 15 to 20)
#    0.000    1.750    3.750    1.500    0.000    3.750 
#    0.000    0.000    0.000    0.000    0.000    0.875 
#    0.000    5.000    0.000    0.000    0.000    0.000 
#
# Total GULP energy -396780.902745 kJ/mol
# GULP energy per Si atom -12399.403211 kJ/mol
# Density = 1.635280 g / cm^3
# Si number density = 16.390107 Si / 1000 Ang^3
#
#
#
# Elastic Constant Matrix: (Units=GPa)
#
#
# Indices 1 2 3 4 5 6 
#
# 1 60.7837 38.3718 35.3491 0.0000 0.0000 0.0000
# 2 38.3718 99.0361 33.3619 0.0000 0.0000 0.0000
# 3 35.3491 33.3619 79.6244 0.0000 0.0000 0.0000
# 4 0.0000 0.0000 0.0000 23.9509 0.0000 0.0000
# 5 0.0000 0.0000 0.0000 0.0000 7.8881 0.0000
# 6 0.0000 0.0000 0.0000 0.0000 0.0000 22.3029
#
#
#
# Elastic Compliance Matrix: (Units=1/GPa)
#
#
# Indices 1 2 3 4 5 6 
#
# 1 0.025931 -0.007183 -0.008502 0.000000 0.000000 0.000000
# 2 -0.007183 0.013746 -0.002571 0.000000 0.000000 0.000000
# 3 -0.008502 -0.002571 0.017411 0.000000 0.000000 0.000000
# 4 0.000000 0.000000 0.000000 0.041752 0.000000 0.000000
# 5 0.000000 0.000000 0.000000 0.000000 0.126774 0.000000
# 6 0.000000 0.000000 0.000000 0.000000 0.000000 0.044837
#
#
# Mechanical properties :
#
#
# Convention : Reuss Voigt Hill
#
# Bulk Modulus (GPa) = 48.60063 50.40110 49.50087
# Shear Modulus (GPa) = 15.93262 19.65247 17.79254
#
# Velocity S-wave (km/s) = 3.12121 3.46648 3.29837
# Velocity P-wave (km/s) = 6.53499 6.84395 6.69125
#
# Compressibility (1/GPa) = 0.02057587
#
# Stress axis : x y z
#
# Youngs Moduli (GPa) = 38.56415 72.74661 57.43576
#
# Poissons Ratio (x) = 0.52252 0.48834
# Poissons Ratio (y) = 0.27700 0.14766
# Poissons Ratio (z) = 0.32789 0.18702
#
# Static dielectric constant tensor:
#      x y z
#    x 3.173910 0.000000 0.000000 
#    y 0.000000 3.341330 0.000000 
#    z 0.000000 0.000000 2.814470 
# 
# 
# High freq. dielectric constant tensor:
#      x y z
#    x 1.639200 0.000000 0.000000 
#    y 0.000000 1.629070 0.000000 
#    z 0.000000 0.000000 1.595310 
# 
# From -- ./inp_files/13054.got.cif
#   From: 2010.03.12/outbox.cif.g09.slc.cpg/sg38_7_cif.got.tgz:13054.got - 2010.04.14 02:38:36.
