data_PCOD8178702
_publ_section_title
;
Structure prediction by ZEFSAII (Michael W. Deem and Ramdas Pophale) SiO2 
 PCOD8178702
Probable space group: A M M 2
;
_chemical_formula_sum "Si O2"
_cell_formula_units_Z 56
_cell_length_a 17.894057
_cell_length_b 17.212269
_cell_length_c 9.596963
_cell_angle_alpha 90.000000
_cell_angle_beta 90.000000
_cell_angle_gamma 90.000000
_cell_volume 2955.838909
_symmetry_space_group_name_H-M "A M M 2"
_symmetry_group_IT_number 38
_symmetry_cell_setting 'orthorhombic'
loop_
_space_group_symop_operation_xyz
x,y,z
-x,-y,z
-x,y,z
x,-y,z
x,1/2+y,1/2+z
-x,1/2-y,1/2+z
-x,1/2+y,1/2+z
x,1/2-y,1/2+z
loop_
_atom_site_type_symbol
_atom_site_label
_atom_site_fract_x
_atom_site_fract_y
_atom_site_fract_z
Si Si1 0.240831 0.160880 0.036320
Si Si2 0.302849 0.410425 0.813490
Si Si3 0.297858 0.092162 0.766282
Si Si4 0.915694 0.586370 0.913395
Si Si5 0.916163 0.908672 0.092146
Si Si6 0.416903 0.407902 0.039348
Si Si7 0.208036 0.161759 0.542458
O O1 0.280886 0.141724 0.182015
O O2 0.155231 0.130944 0.017239
O O3 0.239601 0.252902 0.018050
O O4 0.297622 0.124943 0.922612
O O5 0.306008 0.500000 0.765535
O O6 0.380005 0.383664 0.890471
O O7 0.240599 0.399553 0.930849
O O8 0.369184 0.120694 0.674022
O O9 0.224752 0.130256 0.696329
O O10 0.292528 0.000000 0.770508
O O11 0.881137 0.500000 0.933191
O O12 0.907892 0.612570 0.753582
O O13 0.000000 0.584198 0.961712
O O14 0.879832 0.652454 0.013243
O O15 0.000000 0.881496 0.040416
O O16 0.909181 0.000000 0.067169
O O17 0.500000 0.371551 0.048013
O O18 0.420347 0.500000 0.045495
#
# Coordination Sequence:
#
# PCOD8178702 Si02
#       7
#     8   8   8   8   8   8   8
#     4  12  22  33  53  83 116 141 180 233 276 319
#     4  10  19  35  60  80 102 144 190 223 257 323
#     4  10  21  35  54  80 111 145 175 214 276 334
#     4   9  17  32  56  79  99 137 195 242 273 319
#     4   9  18  33  54  76 102 142 188 231 275 323
#     4   8  16  34  60  86 109 138 181 227 270 321
#     4  11  21  34  53  78 110 142 179 227 276 322
#
# _framework density 18.945553
#
# number of rings (size 3 to 8) (size 9 to 14) (size 15 to 20)
#    0.000    2.143    1.429    5.143    0.000    0.571 
#    0.000    1.429    0.000   19.714    0.000    0.000 
#    0.000    0.000    0.000    0.000    0.000    0.143 
#
# Total GULP energy -346927.437684 kJ/mol
# GULP energy per Si atom -12390.265632 kJ/mol
# Density = 1.890243 g / cm^3
# Si number density = 18.945553 Si / 1000 Ang^3
#
#
#
# Elastic Constant Matrix: (Units=GPa)
#
#
# Indices 1 2 3 4 5 6 
#
# 1 104.6706 25.6467 45.2736 0.0000 0.0000 0.0000
# 2 25.6467 71.3431 21.6679 0.0000 0.0000 0.0000
# 3 45.2736 21.6679 78.1932 0.0000 0.0000 0.0000
# 4 0.0000 0.0000 0.0000 22.5882 0.0000 0.0000
# 5 0.0000 0.0000 0.0000 0.0000 20.5468 0.0000
# 6 0.0000 0.0000 0.0000 0.0000 0.0000 13.8221
#
#
#
# Elastic Compliance Matrix: (Units=1/GPa)
#
#
# Indices 1 2 3 4 5 6 
#
# 1 0.013187 -0.002644 -0.006903 0.000000 0.000000 0.000000
# 2 -0.002644 0.015835 -0.002857 0.000000 0.000000 0.000000
# 3 -0.006903 -0.002857 0.017577 0.000000 0.000000 0.000000
# 4 0.000000 0.000000 0.000000 0.044271 0.000000 0.000000
# 5 0.000000 0.000000 0.000000 0.000000 0.048669 0.000000
# 6 0.000000 0.000000 0.000000 0.000000 0.000000 0.072348
#
#
# Mechanical properties :
#
#
# Convention : Reuss Voigt Hill
#
# Bulk Modulus (GPa) = 45.88900 48.82037 47.35468
# Shear Modulus (GPa) = 20.49518 22.16598 21.33058
#
# Velocity S-wave (km/s) = 3.29263 3.42421 3.35907
# Velocity P-wave (km/s) = 6.22329 6.43882 6.33197
#
# Compressibility (1/GPa) = 0.02179171
#
# Stress axis : x y z
#
# Youngs Moduli (GPa) = 75.83041 63.15115 56.89191
#
# Poissons Ratio (x) = 0.16698 0.39271
# Poissons Ratio (y) = 0.20051 0.16254
# Poissons Ratio (z) = 0.52343 0.18043
#
# Static dielectric constant tensor:
#      x y z
#    x 3.849210 0.000000 0.000000 
#    y 0.000000 3.240510 0.000000 
#    z 0.000000 0.000000 3.415160 
# 
# 
# High freq. dielectric constant tensor:
#      x y z
#    x 1.731070 0.000000 0.000000 
#    y 0.000000 1.719560 0.000000 
#    z 0.000000 0.000000 1.722770 
# 
# From -- ./inp_files/6730.got.cif
#   From: 2010.03.12/outbox.cif.g09.slc.cpg/sg38_4_cif.got.tgz:6730.got - 2010.04.14 02:38:36.
