data_PCOD8178206
_publ_section_title
;
Structure prediction by ZEFSAII (Michael W. Deem and Ramdas Pophale) SiO2 
 PCOD8178206
Probable space group: A M M 2
;
_chemical_formula_sum "Si O2"
_cell_formula_units_Z 40
_cell_length_a 9.154387
_cell_length_b 12.563607
_cell_length_c 20.769354
_cell_angle_alpha 90.000000
_cell_angle_beta 90.000000
_cell_angle_gamma 90.000000
_cell_volume 2388.727447
_symmetry_space_group_name_H-M "A M M 2"
_symmetry_group_IT_number 38
_symmetry_cell_setting 'orthorhombic'
loop_
_space_group_symop_operation_xyz
x,y,z
-x,-y,z
-x,y,z
x,-y,z
x,1/2+y,1/2+z
-x,1/2-y,1/2+z
-x,1/2+y,1/2+z
x,1/2-y,1/2+z
loop_
_atom_site_type_symbol
_atom_site_label
_atom_site_fract_x
_atom_site_fract_y
_atom_site_fract_z
Si Si1 0.671673 0.321418 0.554470
Si Si2 0.172691 0.500000 0.782613
Si Si3 0.826081 0.500000 0.634321
Si Si4 0.829821 0.317013 0.873054
Si Si5 0.830891 0.620470 0.017284
Si Si6 0.330838 0.118656 0.909438
O O1 0.500000 0.323728 0.569982
O O2 0.757221 0.393697 0.605040
O O3 0.731452 0.200568 0.559122
O O4 0.707778 0.367751 0.484383
O O5 0.219138 0.500000 0.708884
O O6 0.234537 0.605343 0.818064
O O7 0.000000 0.500000 0.792151
O O8 0.000000 0.500000 0.624067
O O9 0.755528 0.201958 0.865503
O O10 0.000000 0.298435 0.863886
O O11 0.793217 0.368692 0.941967
O O12 0.795307 0.500000 0.039033
O O13 0.000000 0.648331 0.029636
O O14 0.500000 0.139633 0.897974
O O15 0.285259 0.000000 0.888194
#
# Coordination Sequence:
#
# PCOD8178206 Si02
#       6
#     8   4   4   8   8   8
#     4  10  19  32  47  68 100 132 162 199 246 291
#     4   9  18  33  51  71  99 129 158 201 242 279
#     4  11  21  33  51  71  95 131 172 205 238 283
#     4   9  16  29  48  71  97 124 157 193 238 287
#     4   9  16  28  49  75 101 126 155 197 243 293
#     4   9  17  30  46  67  99 129 152 191 244 288
#
# _framework density 16.745318000000001
#
# number of rings (size 3 to 8) (size 9 to 14) (size 15 to 20)
#    0.000    2.600    2.000    0.900    0.000    1.600 
#    0.000    2.500    0.000    1.200    0.000    2.800 
#    0.000    0.000    0.000    0.000    0.000    0.000 
#
# Total GULP energy -247980.595920 kJ/mol
# GULP energy per Si atom -12399.029796 kJ/mol
# Density = 1.670721 g / cm^3
# Si number density = 16.745318 Si / 1000 Ang^3
#
#
#
# Elastic Constant Matrix: (Units=GPa)
#
#
# Indices 1 2 3 4 5 6 
#
# 1 63.8596 60.7727 43.0059 0.0000 0.0000 0.0000
# 2 60.7727 159.6028 67.1202 0.0000 0.0000 0.0000
# 3 43.0059 67.1202 78.8142 0.0000 0.0000 0.0000
# 4 0.0000 0.0000 0.0000 21.7116 0.0000 0.0000
# 5 0.0000 0.0000 0.0000 0.0000 14.6946 0.0000
# 6 0.0000 0.0000 0.0000 0.0000 0.0000 23.8466
#
#
#
# Elastic Compliance Matrix: (Units=1/GPa)
#
#
# Indices 1 2 3 4 5 6 
#
# 1 0.028818 -0.006793 -0.009940 0.000000 0.000000 0.000000
# 2 -0.006793 0.011363 -0.005970 0.000000 0.000000 0.000000
# 3 -0.009940 -0.005970 0.023196 0.000000 0.000000 0.000000
# 4 0.000000 0.000000 0.000000 0.046058 0.000000 0.000000
# 5 0.000000 0.000000 0.000000 0.000000 0.068052 0.000000
# 6 0.000000 0.000000 0.000000 0.000000 0.000000 0.041935
#
#
# Mechanical properties :
#
#
# Convention : Reuss Voigt Hill
#
# Bulk Modulus (GPa) = 55.64512 71.56377 63.60445
# Shear Modulus (GPa) = 18.46256 20.80908 19.63582
#
# Velocity S-wave (km/s) = 3.32407 3.52899 3.42806
# Velocity P-wave (km/s) = 6.93073 7.70937 7.33040
#
# Compressibility (1/GPa) = 0.01797103
#
# Stress axis : x y z
#
# Youngs Moduli (GPa) = 34.70083 88.00549 43.11052
#
# Poissons Ratio (x) = 0.59782 0.42850
# Poissons Ratio (y) = 0.23572 0.25738
# Poissons Ratio (z) = 0.34491 0.52542
#
# Static dielectric constant tensor:
#      x y z
#    x 3.062260 0.000000 0.000000 
#    y 0.000000 3.422430 0.000000 
#    z 0.000000 0.000000 2.855190 
# 
# 
# High freq. dielectric constant tensor:
#      x y z
#    x 1.638400 0.000000 0.000000 
#    y 0.000000 1.660600 0.000000 
#    z 0.000000 0.000000 1.600630 
# 
# From -- ./inp_files/19516.got.cif
#   From: 2010.03.12/outbox.cif.g09.slc.cpg/sg38_10_cif.got.tgz:19516.got - 2010.04.14 02:38:36.
