data_PCOD8178850
_publ_section_title
;
Structure prediction by ZEFSAII (Michael W. Deem and Ramdas Pophale) SiO2 
 PCOD8178850
Probable space group: A M M 2
;
_chemical_formula_sum "Si O2"
_cell_formula_units_Z 56
_cell_length_a 9.194786
_cell_length_b 23.715857
_cell_length_c 13.776205
_cell_angle_alpha 90.000000
_cell_angle_beta 90.000000
_cell_angle_gamma 90.000000
_cell_volume 3004.069982
_symmetry_space_group_name_H-M "A M M 2"
_symmetry_group_IT_number 38
_symmetry_cell_setting 'orthorhombic'
loop_
_space_group_symop_operation_xyz
x,y,z
-x,-y,z
-x,y,z
x,-y,z
x,1/2+y,1/2+z
-x,1/2-y,1/2+z
-x,1/2+y,1/2+z
x,1/2-y,1/2+z
loop_
_atom_site_type_symbol
_atom_site_label
_atom_site_fract_x
_atom_site_fract_y
_atom_site_fract_z
Si Si1 0.171911 0.827725 0.916620
Si Si2 0.669369 0.614821 0.919406
Si Si3 0.166008 0.437392 0.749191
Si Si4 0.830778 0.827206 0.138583
Si Si5 0.670312 0.771578 0.309705
Si Si6 0.168130 0.934930 0.592795
Si Si7 0.827581 0.061654 0.810973
O O1 0.254963 0.784063 0.849447
O O2 0.224490 0.890230 0.885183
O O3 0.000000 0.820412 0.901329
O O4 0.216809 0.818186 0.027851
O O5 0.500000 0.602863 0.927297
O O6 0.734693 0.570652 0.843192
O O7 0.703729 0.678079 0.884483
O O8 0.740435 0.606203 0.024125
O O9 0.193113 0.500000 0.706358
O O10 0.203452 0.392231 0.665792
O O11 0.000000 0.430033 0.783911
O O12 0.736869 0.785289 0.204428
O O13 0.000000 0.813186 0.154134
O O14 0.500000 0.761157 0.296668
O O15 0.225482 0.924239 0.701934
O O16 0.000000 0.918182 0.582553
O O17 0.192183 0.000000 0.563258
O O18 0.000000 0.058169 0.808515
O O19 0.766403 0.000000 0.843518
#
# Coordination Sequence:
#
# PCOD8178850 Si02
#       7
#     8   8   8   8   8   8   8
#     4  10  20  35  58  83 103 130 169 211 256 303
#     4  10  20  32  47  70 100 135 174 214 255 296
#     4   9  17  30  49  74 104 136 168 204 251 306
#     4   9  19  35  54  78 106 133 167 212 256 302
#     4  10  22  38  53  72 103 140 175 212 255 304
#     4   9  17  30  49  73 102 136 169 203 250 305
#     4   8  16  32  53  78 106 132 162 203 251 305
#
# _framework density 18.641378
#
# number of rings (size 3 to 8) (size 9 to 14) (size 15 to 20)
#    0.000    2.714    0.000    2.143    0.000    6.286 
#    0.000    7.857    0.000    1.286    0.000    2.000 
#    0.000    0.000    0.000    0.000    0.000    0.000 
#
# Total GULP energy -347190.550589 kJ/mol
# GULP energy per Si atom -12399.662521 kJ/mol
# Density = 1.859895 g / cm^3
# Si number density = 18.641378 Si / 1000 Ang^3
#
#
#
# Elastic Constant Matrix: (Units=GPa)
#
#
# Indices 1 2 3 4 5 6 
#
# 1 64.7221 49.0735 51.4805 0.0000 0.0000 0.0000
# 2 49.0735 122.4392 75.0127 0.0000 0.0000 0.0000
# 3 51.4805 75.0127 128.3562 0.0000 0.0000 0.0000
# 4 0.0000 0.0000 0.0000 24.6543 0.0000 0.0000
# 5 0.0000 0.0000 0.0000 0.0000 6.8377 0.0000
# 6 0.0000 0.0000 0.0000 0.0000 0.0000 19.1665
#
#
#
# Elastic Compliance Matrix: (Units=1/GPa)
#
#
# Indices 1 2 3 4 5 6 
#
# 1 0.025324 -0.006118 -0.006582 0.000000 0.000000 0.000000
# 2 -0.006118 0.014200 -0.005845 0.000000 0.000000 0.000000
# 3 -0.006582 -0.005845 0.013847 0.000000 0.000000 0.000000
# 4 0.000000 0.000000 0.000000 0.040561 0.000000 0.000000
# 5 0.000000 0.000000 0.000000 0.000000 0.146248 0.000000
# 6 0.000000 0.000000 0.000000 0.000000 0.000000 0.052174
#
#
# Mechanical properties :
#
#
# Convention : Reuss Voigt Hill
#
# Bulk Modulus (GPa) = 61.41713 74.07233 67.74473
# Shear Modulus (GPa) = 14.93114 19.46176 17.19645
#
# Velocity S-wave (km/s) = 2.83321 3.23462 3.04054
# Velocity P-wave (km/s) = 6.61218 7.33294 6.98187
#
# Compressibility (1/GPa) = 0.01628210
#
# Stress axis : x y z
#
# Youngs Moduli (GPa) = 39.48763 70.42084 72.21995
#
# Poissons Ratio (x) = 0.43081 0.47533
# Poissons Ratio (y) = 0.24157 0.42214
# Poissons Ratio (z) = 0.25990 0.41162
#
# Static dielectric constant tensor:
#      x y z
#    x 3.217180 0.000000 0.000000 
#    y 0.000000 3.561860 0.000000 
#    z 0.000000 0.000000 3.404800 
# 
# 
# High freq. dielectric constant tensor:
#      x y z
#    x 1.701590 0.000000 0.000000 
#    y 0.000000 1.725450 0.000000 
#    z 0.000000 0.000000 1.720240 
# 
# From -- ./inp_files/12442.got.cif
#   From: 2010.03.12/outbox.cif.g09.slc.cpg/sg38_7_cif.got.tgz:12442.got - 2010.04.14 02:38:36.
