data_PCOD8179749
_publ_section_title
;
Structure prediction by ZEFSAII (Michael W. Deem and Ramdas Pophale) SiO2 
 PCOD8179749
Probable space group: A M M 2
;
_chemical_formula_sum "Si O2"
_cell_formula_units_Z 48
_cell_length_a 7.793675
_cell_length_b 9.152831
_cell_length_c 33.375878
_cell_angle_alpha 90.000000
_cell_angle_beta 90.000000
_cell_angle_gamma 90.000000
_cell_volume 2380.841227
_symmetry_space_group_name_H-M "A M M 2"
_symmetry_group_IT_number 38
_symmetry_cell_setting 'orthorhombic'
loop_
_space_group_symop_operation_xyz
x,y,z
-x,-y,z
-x,y,z
x,-y,z
x,1/2+y,1/2+z
-x,1/2-y,1/2+z
-x,1/2+y,1/2+z
x,1/2-y,1/2+z
loop_
_atom_site_type_symbol
_atom_site_label
_atom_site_fract_x
_atom_site_fract_y
_atom_site_fract_z
Si Si1 0.800878 0.833322 0.174570
Si Si2 0.309324 0.333613 0.948060
Si Si3 0.000000 0.172562 0.391702
Si Si4 0.694674 0.668629 0.762908
Si Si5 0.194205 0.663968 0.522222
Si Si6 0.302279 0.165157 0.597262
Si Si7 0.000000 0.674084 0.307318
O O1 0.703348 0.799295 0.215697
O O2 0.723698 0.728528 0.141291
O O3 0.000000 0.800187 0.181306
O O4 0.770482 0.000000 0.160988
O O5 0.500000 0.318177 0.929126
O O6 0.268123 0.500000 0.959953
O O7 0.169726 0.279690 0.916057
O O8 0.307846 0.242961 0.988973
O O9 0.000000 0.266663 0.352036
O O10 0.000000 0.000000 0.381812
O O11 0.500000 0.701366 0.777427
O O12 0.744135 0.500000 0.771479
O O13 0.827433 0.771064 0.785919
O O14 0.264078 0.500000 0.527788
O O15 0.197722 0.742806 0.564963
O O16 0.000000 0.664404 0.506588
O O17 0.500000 0.171676 0.585178
O O18 0.233082 0.000000 0.596899
O O19 0.000000 0.500000 0.307254
#
# Coordination Sequence:
#
# PCOD8179749 Si02
#       7
#     8   8   4   8   8   8   4
#     4  10  20  37  62  89 118 154 202 256 307 360
#     4  10  21  39  65  94 121 155 200 248 302 360
#     4  10  22  42  66  91 124 161 202 250 299 362
#     4  10  21  41  69  95 123 165 214 260 309 372
#     4  11  23  38  58  85 118 158 204 250 301 359
#     4  11  24  38  53  80 119 161 206 253 301 357
#     4  12  26  42  64  95 134 167 200 254 315 376
#
# _framework density 20.16094
#
# number of rings (size 3 to 8) (size 9 to 14) (size 15 to 20)
#    0.000    1.500    1.667    3.250    0.000   10.000 
#    0.000    1.667    0.000    0.000    0.000    0.000 
#    0.000    0.000    0.000    0.000    0.000    0.000 
#
# Total GULP energy -297698.014056 kJ/mol
# GULP energy per Si atom -12404.083919 kJ/mol
# Density = 2.011505 g / cm^3
# Si number density = 20.160940 Si / 1000 Ang^3
#
#
#
# Elastic Constant Matrix: (Units=GPa)
#
#
# Indices 1 2 3 4 5 6 
#
# 1 113.0015 48.5456 48.2472 0.0000 0.0000 0.0000
# 2 48.5456 132.2346 71.9882 0.0000 0.0000 0.0000
# 3 48.2472 71.9882 115.9531 0.0000 0.0000 0.0000
# 4 0.0000 0.0000 0.0000 35.5864 0.0000 0.0000
# 5 0.0000 0.0000 0.0000 0.0000 12.3013 0.0000
# 6 0.0000 0.0000 0.0000 0.0000 0.0000 165.8825
#
#
#
# Elastic Compliance Matrix: (Units=1/GPa)
#
#
# Indices 1 2 3 4 5 6 
#
# 1 0.011239 -0.002387 -0.003195 0.000000 0.000000 0.000000
# 2 -0.002387 0.011930 -0.006414 0.000000 0.000000 0.000000
# 3 -0.003195 -0.006414 0.013935 0.000000 0.000000 0.000000
# 4 0.000000 0.000000 0.000000 0.028101 0.000000 0.000000
# 5 0.000000 0.000000 0.000000 0.000000 0.081292 0.000000
# 6 0.000000 0.000000 0.000000 0.000000 0.000000 0.006028
#
#
# Mechanical properties :
#
#
# Convention : Reuss Voigt Hill
#
# Bulk Modulus (GPa) = 76.25300 77.63903 76.94601
# Shear Modulus (GPa) = 27.64165 55.58124 41.61145
#
# Velocity S-wave (km/s) = 3.70679 5.25629 4.54802
# Velocity P-wave (km/s) = 7.49831 8.68512 8.11345
#
# Compressibility (1/GPa) = 0.01311424
#
# Stress axis : x y z
#
# Youngs Moduli (GPa) = 88.97769 83.82179 71.76103
#
# Poissons Ratio (x) = 0.20007 0.22924
# Poissons Ratio (y) = 0.21238 0.46024
# Poissons Ratio (z) = 0.28424 0.53759
#
# Static dielectric constant tensor:
#      x y z
#    x 3.810190 0.000000 0.000000 
#    y 0.000000 3.680210 0.000000 
#    z 0.000000 0.000000 3.502580 
# 
# 
# High freq. dielectric constant tensor:
#      x y z
#    x 1.802180 0.000000 0.000000 
#    y 0.000000 1.781420 0.000000 
#    z 0.000000 0.000000 1.780980 
# 
# From -- ./inp_files/24401.got.cif
#   From: 2010.03.12/outbox.cif.g09.slc.cpg/sg38_13_cif.got.tgz:24401.got - 2010.04.14 02:38:36.
