data_PCOD8179714
_publ_section_title
;
Structure prediction by ZEFSAII (Michael W. Deem and Ramdas Pophale) SiO2 
 PCOD8179714
Probable space group: A M M 2
;
_chemical_formula_sum "Si O2"
_cell_formula_units_Z 40
_cell_length_a 9.172186
_cell_length_b 11.605818
_cell_length_c 19.867923
_cell_angle_alpha 90.000000
_cell_angle_beta 90.000000
_cell_angle_gamma 90.000000
_cell_volume 2114.954736
_symmetry_space_group_name_H-M "A M M 2"
_symmetry_group_IT_number 38
_symmetry_cell_setting 'orthorhombic'
loop_
_space_group_symop_operation_xyz
x,y,z
-x,-y,z
-x,y,z
x,-y,z
x,1/2+y,1/2+z
-x,1/2-y,1/2+z
-x,1/2+y,1/2+z
x,1/2-y,1/2+z
loop_
_atom_site_type_symbol
_atom_site_label
_atom_site_fract_x
_atom_site_fract_y
_atom_site_fract_z
Si Si1 0.665877 0.368299 0.220400
Si Si2 0.827596 0.249667 0.601508
Si Si3 0.168804 0.366374 0.962698
Si Si4 0.826913 0.500000 0.425729
Si Si5 0.827440 0.500000 0.578178
Si Si6 0.330029 0.784192 0.864208
O O1 0.500000 0.358937 0.196037
O O2 0.703195 0.500000 0.241121
O O3 0.765263 0.331514 0.158759
O O4 0.693021 0.283591 0.283661
O O5 0.778411 0.204952 0.528042
O O6 0.770910 0.381618 0.612781
O O7 0.000000 0.242105 0.606584
O O8 0.194532 0.500000 0.977779
O O9 0.266169 0.331507 0.898028
O O10 0.000000 0.339986 0.946469
O O11 0.773705 0.500000 0.502053
O O12 0.763169 0.611998 0.392165
O O13 0.000000 0.500000 0.418189
O O14 0.000000 0.500000 0.579858
O O15 0.500000 0.799023 0.881961
#
# Coordination Sequence:
#
# PCOD8179714 Si02
#       6
#     8   8   8   4   4   8
#     4  10  22  40  57  79 115 152 188 234 282 334
#     4  10  20  37  60  86 113 146 189 235 282 335
#     4  10  21  38  60  87 117 148 190 241 288 339
#     4  11  19  35  63  89 115 144 185 238 291 339
#     4   9  18  35  59  85 115 142 177 236 287 327
#     4  11  22  38  59  85 118 151 190 237 288 344
#
# _framework density 18.912935000000001
#
# number of rings (size 3 to 8) (size 9 to 14) (size 15 to 20)
#    0.000    1.800    3.000    1.500    0.000    4.000 
#    1.800    0.500    0.000    0.000    0.000    0.000 
#    0.000    0.000    0.000    0.000    0.000    0.000 
#
# Total GULP energy -247974.632477 kJ/mol
# GULP energy per Si atom -12398.731624 kJ/mol
# Density = 1.886989 g / cm^3
# Si number density = 18.912935 Si / 1000 Ang^3
#
#
#
# Elastic Constant Matrix: (Units=GPa)
#
#
# Indices 1 2 3 4 5 6 
#
# 1 65.8742 32.1287 44.3255 0.0000 0.0000 0.0000
# 2 32.1287 96.8583 40.4795 0.0000 0.0000 0.0000
# 3 44.3255 40.4795 99.1933 0.0000 0.0000 0.0000
# 4 0.0000 0.0000 0.0000 36.4479 0.0000 0.0000
# 5 0.0000 0.0000 0.0000 0.0000 69.4071 0.0000
# 6 0.0000 0.0000 0.0000 0.0000 0.0000 28.2448
#
#
#
# Elastic Compliance Matrix: (Units=1/GPa)
#
#
# Indices 1 2 3 4 5 6 
#
# 1 0.022929 -0.004007 -0.008611 0.000000 0.000000 0.000000
# 2 -0.004007 0.013147 -0.003575 0.000000 0.000000 0.000000
# 3 -0.008611 -0.003575 0.015388 0.000000 0.000000 0.000000
# 4 0.000000 0.000000 0.000000 0.027436 0.000000 0.000000
# 5 0.000000 0.000000 0.000000 0.000000 0.014408 0.000000
# 6 0.000000 0.000000 0.000000 0.000000 0.000000 0.035405
#
#
# Mechanical properties :
#
#
# Convention : Reuss Voigt Hill
#
# Bulk Modulus (GPa) = 52.41309 55.08811 53.75060
# Shear Modulus (GPa) = 29.85825 36.48609 33.17217
#
# Velocity S-wave (km/s) = 3.97762 4.39699 4.19255
# Velocity P-wave (km/s) = 6.99059 7.41407 7.20544
#
# Compressibility (1/GPa) = 0.01907920
#
# Stress axis : x y z
#
# Youngs Moduli (GPa) = 43.61328 76.06012 64.98606
#
# Poissons Ratio (x) = 0.30477 0.55958
# Poissons Ratio (y) = 0.17476 0.23231
# Poissons Ratio (z) = 0.37554 0.27190
#
# Static dielectric constant tensor:
#      x y z
#    x 3.264730 0.000000 0.000000 
#    y 0.000000 3.625490 0.000000 
#    z 0.000000 0.000000 3.459120 
# 
# 
# High freq. dielectric constant tensor:
#      x y z
#    x 1.723470 0.000000 0.000000 
#    y 0.000000 1.741600 0.000000 
#    z 0.000000 0.000000 1.729890 
# 
# From -- ./inp_files/19491.got.cif
#   From: 2010.03.12/outbox.cif.g09.slc.cpg/sg38_10_cif.got.tgz:19491.got - 2010.04.14 02:38:36.
