data_PCOD8179016
_publ_section_title
;
Structure prediction by ZEFSAII (Michael W. Deem and Ramdas Pophale) SiO2 
 PCOD8179016
Probable space group: A M M 2
;
_chemical_formula_sum "Si O2"
_cell_formula_units_Z 48
_cell_length_a 8.980961
_cell_length_b 16.674845
_cell_length_c 18.294385
_cell_angle_alpha 90.000000
_cell_angle_beta 90.000000
_cell_angle_gamma 90.000000
_cell_volume 2739.696346
_symmetry_space_group_name_H-M "A M M 2"
_symmetry_group_IT_number 38
_symmetry_cell_setting 'orthorhombic'
loop_
_space_group_symop_operation_xyz
x,y,z
-x,-y,z
-x,y,z
x,-y,z
x,1/2+y,1/2+z
-x,1/2-y,1/2+z
-x,1/2+y,1/2+z
x,1/2-y,1/2+z
loop_
_atom_site_type_symbol
_atom_site_label
_atom_site_fract_x
_atom_site_fract_y
_atom_site_fract_z
Si Si1 0.173551 0.345278 0.363060
Si Si2 0.676673 0.500000 0.427716
Si Si3 0.670336 0.683456 0.214255
Si Si4 0.675300 0.408848 0.067937
Si Si5 0.328590 0.672139 0.616469
Si Si6 0.675041 0.500000 0.591585
Si Si7 0.826401 0.231298 0.492412
O O1 0.266633 0.421392 0.387560
O O2 0.216885 0.327514 0.280076
O O3 0.211075 0.267211 0.412471
O O4 0.000000 0.366235 0.367805
O O5 0.500000 0.500000 0.424695
O O6 0.741418 0.500000 0.509813
O O7 0.500000 0.665953 0.238130
O O8 0.717833 0.624875 0.147943
O O9 0.689496 0.775560 0.189160
O O10 0.500000 0.403722 0.056704
O O11 0.733452 0.500000 0.061130
O O12 0.748037 0.354810 0.004245
O O13 0.500000 0.675005 0.589328
O O14 0.275182 0.580927 0.633880
O O15 0.228538 0.704531 0.551204
O O16 0.500000 0.500000 0.584312
O O17 0.000000 0.217673 0.503302
#
# Coordination Sequence:
#
# PCOD8179016 Si02
#       7
#     8   4   8   8   8   4   8
#     4  11  23  36  50  75 112 143 172 210 254 310
#     4  11  21  33  55  81 105 136 171 210 261 311
#     4   9  19  33  53  77 104 139 173 209 259 313
#     4   9  19  36  57  80 103 129 170 222 263 303
#     4   9  17  33  54  78 103 133 172 216 258 303
#     4   9  16  29  55  83 103 126 165 216 261 301
#     4  10  20  33  51  75 104 140 174 210 254 306
#
# _framework density 17.520189999999999
#
# number of rings (size 3 to 8) (size 9 to 14) (size 15 to 20)
#    0.000    2.333    1.667    2.250    1.167    5.000 
#    0.000    0.417    1.833    0.000    0.000    0.000 
#    0.000    0.000    0.000    0.000    0.000    0.000 
#
# Total GULP energy -297540.126257 kJ/mol
# GULP energy per Si atom -12397.505261 kJ/mol
# Density = 1.748031 g / cm^3
# Si number density = 17.520190 Si / 1000 Ang^3
#
#
#
# Elastic Constant Matrix: (Units=GPa)
#
#
# Indices 1 2 3 4 5 6 
#
# 1 58.5250 41.8120 39.7322 0.0000 0.0000 0.0000
# 2 41.8120 170.1282 50.8720 0.0000 0.0000 0.0000
# 3 39.7322 50.8720 70.7853 0.0000 0.0000 0.0000
# 4 0.0000 0.0000 0.0000 8.9999 0.0000 0.0000
# 5 0.0000 0.0000 0.0000 0.0000 27.2408 0.0000
# 6 0.0000 0.0000 0.0000 0.0000 0.0000 22.0958
#
#
#
# Elastic Compliance Matrix: (Units=1/GPa)
#
#
# Indices 1 2 3 4 5 6 
#
# 1 0.028647 -0.002843 -0.014036 0.000000 0.000000 0.000000
# 2 -0.002843 0.007769 -0.003987 0.000000 0.000000 0.000000
# 3 -0.014036 -0.003987 0.024872 0.000000 0.000000 0.000000
# 4 0.000000 0.000000 0.000000 0.111112 0.000000 0.000000
# 5 0.000000 0.000000 0.000000 0.000000 0.036710 0.000000
# 6 0.000000 0.000000 0.000000 0.000000 0.000000 0.045257
#
#
# Mechanical properties :
#
#
# Convention : Reuss Voigt Hill
#
# Bulk Modulus (GPa) = 51.14173 62.69677 56.91925
# Shear Modulus (GPa) = 16.52241 22.80214 19.66228
#
# Velocity S-wave (km/s) = 3.07424 3.61151 3.35365
# Velocity P-wave (km/s) = 6.46953 7.29752 6.89597
#
# Compressibility (1/GPa) = 0.01955350
#
# Stress axis : x y z
#
# Youngs Moduli (GPa) = 34.90726 128.71557 40.20636
#
# Poissons Ratio (x) = 0.36599 0.56435
# Poissons Ratio (y) = 0.09925 0.16032
# Poissons Ratio (z) = 0.48997 0.51325
#
# Static dielectric constant tensor:
#      x y z
#    x 3.162710 0.000000 0.000000 
#    y 0.000000 3.657660 0.000000 
#    z 0.000000 0.000000 3.090210 
# 
# 
# High freq. dielectric constant tensor:
#      x y z
#    x 1.671130 0.000000 0.000000 
#    y 0.000000 1.688210 0.000000 
#    z 0.000000 0.000000 1.653340 
# 
# From -- ./inp_files/12152.got.cif
#   From: 2010.03.12/outbox.cif.g09.slc.cpg/sg38_7_cif.got.tgz:12152.got - 2010.04.14 02:38:36.
