data_PCOD8179503
_publ_section_title
;
Structure prediction by ZEFSAII (Michael W. Deem and Ramdas Pophale) SiO2 
 PCOD8179503
Probable space group: A M M 2
;
_chemical_formula_sum "Si O2"
_cell_formula_units_Z 64
_cell_length_a 23.879458
_cell_length_b 8.865706
_cell_length_c 15.344417
_cell_angle_alpha 90.000000
_cell_angle_beta 90.000000
_cell_angle_gamma 90.000000
_cell_volume 3248.539733
_symmetry_space_group_name_H-M "A M M 2"
_symmetry_group_IT_number 38
_symmetry_cell_setting 'orthorhombic'
loop_
_space_group_symop_operation_xyz
x,y,z
-x,-y,z
-x,y,z
x,-y,z
x,1/2+y,1/2+z
-x,1/2-y,1/2+z
-x,1/2+y,1/2+z
x,1/2-y,1/2+z
loop_
_atom_site_type_symbol
_atom_site_label
_atom_site_fract_x
_atom_site_fract_y
_atom_site_fract_z
Si Si1 0.643060 0.324586 0.516320
Si Si2 0.435505 0.824743 0.857869
Si Si3 0.135720 0.678662 0.781046
Si Si4 0.867660 0.321820 0.455769
Si Si5 0.757868 0.173537 0.517806
Si Si6 0.937093 0.320526 0.620391
Si Si7 0.246147 0.174003 0.721652
Si Si8 0.362150 0.676690 0.715479
O O1 0.659096 0.500000 0.511452
O O2 0.594191 0.281630 0.448953
O O3 0.696970 0.228772 0.487893
O O4 0.623763 0.282405 0.614694
O O5 0.500000 0.782232 0.870216
O O6 0.412732 0.730235 0.776244
O O7 0.426892 0.000000 0.836291
O O8 0.136230 0.500000 0.783161
O O9 0.108600 0.743978 0.868923
O O10 0.097686 0.741363 0.702503
O O11 0.199072 0.736841 0.774164
O O12 0.870840 0.500000 0.446242
O O13 0.803677 0.273859 0.469776
O O14 0.906626 0.261577 0.533693
O O15 0.765195 0.198431 0.620186
O O16 0.765591 0.000000 0.490806
O O17 0.938011 0.500000 0.621664
O O18 0.000000 0.255152 0.623611
O O19 0.306311 0.239462 0.747807
O O20 0.244174 0.000000 0.749011
O O21 0.352685 0.500000 0.726702
#
# Coordination Sequence:
#
# PCOD8179503 Si02
#       8
#     8   8   8   8   8   8   8   8
#     4   9  20  38  59  83 114 154 196 236 288 352
#     4  10  22  40  60  83 115 156 199 242 291 351
#     4  11  22  37  59  88 119 154 197 244 295 349
#     4  11  22  37  59  87 119 157 197 239 294 354
#     4  10  20  35  58  87 120 152 192 244 295 349
#     4   9  20  40  63  85 116 159 202 244 291 349
#     4  10  20  36  59  86 120 156 193 240 297 356
#     4  10  21  37  59  87 117 151 194 243 293 347
#
# _framework density 19.701160999999999
#
# number of rings (size 3 to 8) (size 9 to 14) (size 15 to 20)
#    0.000    2.000    1.250    1.875    1.750    3.250 
#    0.000    1.250    0.000    5.250    0.000    0.000 
#    0.000    0.000    0.000    0.000    0.000    0.000 
#
# Total GULP energy -396932.225632 kJ/mol
# GULP energy per Si atom -12404.132051 kJ/mol
# Density = 1.965632 g / cm^3
# Si number density = 19.701161 Si / 1000 Ang^3
#
#
#
# Elastic Constant Matrix: (Units=GPa)
#
#
# Indices 1 2 3 4 5 6 
#
# 1 126.8811 36.0112 70.7013 0.0000 0.0000 0.0000
# 2 36.0112 73.1069 41.2466 0.0000 0.0000 0.0000
# 3 70.7013 41.2466 130.5987 0.0000 0.0000 0.0000
# 4 0.0000 0.0000 0.0000 33.1292 0.0000 0.0000
# 5 0.0000 0.0000 0.0000 0.0000 22.8429 0.0000
# 6 0.0000 0.0000 0.0000 0.0000 0.0000 19.3185
#
#
#
# Elastic Compliance Matrix: (Units=1/GPa)
#
#
# Indices 1 2 3 4 5 6 
#
# 1 0.011697 -0.002664 -0.005491 0.000000 0.000000 0.000000
# 2 -0.002664 0.017251 -0.004006 0.000000 0.000000 0.000000
# 3 -0.005491 -0.004006 0.011895 0.000000 0.000000 0.000000
# 4 0.000000 0.000000 0.000000 0.030185 0.000000 0.000000
# 5 0.000000 0.000000 0.000000 0.000000 0.043777 0.000000
# 6 0.000000 0.000000 0.000000 0.000000 0.000000 0.051764
#
#
# Mechanical properties :
#
#
# Convention : Reuss Voigt Hill
#
# Bulk Modulus (GPa) = 60.52934 69.61165 65.07049
# Shear Modulus (GPa) = 25.45842 27.23329 26.34585
#
# Velocity S-wave (km/s) = 3.59866 3.72199 3.66084
# Velocity P-wave (km/s) = 6.93236 7.34040 7.13929
#
# Compressibility (1/GPa) = 0.01652091
#
# Stress axis : x y z
#
# Youngs Moduli (GPa) = 85.49029 57.96753 84.06863
#
# Poissons Ratio (x) = 0.15441 0.46163
# Poissons Ratio (y) = 0.22773 0.33680
# Poissons Ratio (z) = 0.46944 0.23223
#
# Static dielectric constant tensor:
#      x y z
#    x 3.559850 0.000000 0.000000 
#    y 0.000000 3.467350 0.000000 
#    z 0.000000 0.000000 3.789640 
# 
# 
# High freq. dielectric constant tensor:
#      x y z
#    x 1.761030 0.000000 0.000000 
#    y 0.000000 1.759460 0.000000 
#    z 0.000000 0.000000 1.779570 
# 
# From -- ./inp_files/15819.got.cif
#   From: 2010.03.12/outbox.cif.g09.slc.cpg/sg38_8_cif.got.tgz:15819.got - 2010.04.14 02:38:36.
