data_PCOD8179331
_publ_section_title
;
Structure prediction by ZEFSAII (Michael W. Deem and Ramdas Pophale) SiO2 
 PCOD8179331
Probable space group: A M M 2
;
_chemical_formula_sum "Si O2"
_cell_formula_units_Z 64
_cell_length_a 23.514419
_cell_length_b 9.151914
_cell_length_c 15.469188
_cell_angle_alpha 90.000000
_cell_angle_beta 90.000000
_cell_angle_gamma 90.000000
_cell_volume 3328.999275
_symmetry_space_group_name_H-M "A M M 2"
_symmetry_group_IT_number 38
_symmetry_cell_setting 'orthorhombic'
loop_
_space_group_symop_operation_xyz
x,y,z
-x,-y,z
-x,y,z
x,-y,z
x,1/2+y,1/2+z
-x,1/2-y,1/2+z
-x,1/2+y,1/2+z
x,1/2-y,1/2+z
loop_
_atom_site_type_symbol
_atom_site_label
_atom_site_fract_x
_atom_site_fract_y
_atom_site_fract_z
Si Si1 0.563367 0.165330 0.952620
Si Si2 0.745282 0.670309 0.535271
Si Si3 0.933103 0.668055 0.394919
Si Si4 0.331962 0.671066 0.697908
Si Si5 0.435479 0.669514 0.127522
Si Si6 0.062950 0.673160 0.201202
Si Si7 0.864289 0.326286 0.041054
Si Si8 0.323006 0.667605 0.363967
O O1 0.500000 0.183312 0.912766
O O2 0.609768 0.196406 0.879074
O O3 0.572291 0.000000 0.988746
O O4 0.573029 0.276800 0.030023
O O5 0.761421 0.500000 0.537153
O O6 0.706296 0.713385 0.616187
O O7 0.801204 0.766112 0.539088
O O8 0.711672 0.712765 0.448857
O O9 0.915327 0.500000 0.410850
O O10 0.916592 0.717549 0.297408
O O11 0.899144 0.771770 0.458789
O O12 0.000000 0.688548 0.410136
O O13 0.340010 0.500000 0.706925
O O14 0.393827 0.744046 0.690761
O O15 0.302156 0.733266 0.784345
O O16 0.500000 0.698037 0.158375
O O17 0.419666 0.500000 0.131139
O O18 0.059099 0.500000 0.196439
O O19 0.106088 0.733179 0.128877
O O20 0.000000 0.738409 0.182962
O O21 0.862732 0.500000 0.038761
O O22 0.311263 0.500000 0.339906
#
# Coordination Sequence:
#
# PCOD8179331 Si02
#       8
#     8   8   8   8   8   8   8   8
#     4   9  17  33  58  84 112 146 184 229 285 345
#     4  10  23  43  59  76 112 154 193 235 284 340
#     4   9  18  35  59  85 115 152 189 225 276 341
#     4  11  23  40  61  85 112 147 190 239 291 342
#     4  10  20  34  56  86 117 148 184 229 282 343
#     4   8  16  33  56  82 114 150 185 223 271 330
#     4  11  22  35  57  86 114 147 191 239 283 326
#     4  10  21  39  60  83 111 149 190 232 290 351
#
# _framework density 19.224997999999999
#
# number of rings (size 3 to 8) (size 9 to 14) (size 15 to 20)
#    0.000    2.250    1.250    2.250    0.000    5.000 
#    0.000    6.250    0.000    1.500    0.000    0.000 
#    0.000    0.000    0.000    0.000    0.000    0.000 
#
# Total GULP energy -396817.503013 kJ/mol
# GULP energy per Si atom -12400.546969 kJ/mol
# Density = 1.918124 g / cm^3
# Si number density = 19.224998 Si / 1000 Ang^3
#
#
#
# Elastic Constant Matrix: (Units=GPa)
#
#
# Indices 1 2 3 4 5 6 
#
# 1 107.9817 58.7983 71.5372 0.0000 0.0000 0.0000
# 2 58.7983 77.6582 64.6423 0.0000 0.0000 0.0000
# 3 71.5372 64.6423 151.9712 0.0000 0.0000 0.0000
# 4 0.0000 0.0000 0.0000 32.8844 0.0000 0.0000
# 5 0.0000 0.0000 0.0000 0.0000 3.7699 0.0000
# 6 0.0000 0.0000 0.0000 0.0000 0.0000 27.7520
#
#
#
# Elastic Compliance Matrix: (Units=1/GPa)
#
#
# Indices 1 2 3 4 5 6 
#
# 1 0.017164 -0.009707 -0.003950 0.000000 0.000000 0.000000
# 2 -0.009707 0.025425 -0.006246 0.000000 0.000000 0.000000
# 3 -0.003950 -0.006246 0.011096 0.000000 0.000000 0.000000
# 4 0.000000 0.000000 0.000000 0.030410 0.000000 0.000000
# 5 0.000000 0.000000 0.000000 0.000000 0.265260 0.000000
# 6 0.000000 0.000000 0.000000 0.000000 0.000000 0.036033
#
#
# Mechanical properties :
#
#
# Convention : Reuss Voigt Hill
#
# Bulk Modulus (GPa) = 72.04944 80.84075 76.44510
# Shear Modulus (GPa) = 11.63277 22.39014 17.01146
#
# Velocity S-wave (km/s) = 2.46252 3.41638 2.97789
# Velocity P-wave (km/s) = 6.75601 7.59627 7.18843
#
# Compressibility (1/GPa) = 0.01387936
#
# Stress axis : x y z
#
# Youngs Moduli (GPa) = 58.26272 39.33100 90.11953
#
# Poissons Ratio (x) = 0.38179 0.35601
# Poissons Ratio (y) = 0.56555 0.56284
# Poissons Ratio (z) = 0.23016 0.24564
#
# Static dielectric constant tensor:
#      x y z
#    x 4.728790 0.000000 0.000000 
#    y 0.000000 3.367600 0.000000 
#    z 0.000000 0.000000 3.599220 
# 
# 
# High freq. dielectric constant tensor:
#      x y z
#    x 1.747330 0.000000 0.000000 
#    y 0.000000 1.734130 0.000000 
#    z 0.000000 0.000000 1.751840 
# 
# From -- ./inp_files/15772.got.cif
#   From: 2010.03.12/outbox.cif.g09.slc.cpg/sg38_8_cif.got.tgz:15772.got - 2010.04.14 02:38:36.
