data_PCOD8179774
_publ_section_title
;
Structure prediction by ZEFSAII (Michael W. Deem and Ramdas Pophale) SiO2 
 PCOD8179774
Probable space group: A M M 2
;
_chemical_formula_sum "Si O2"
_cell_formula_units_Z 48
_cell_length_a 10.119777
_cell_length_b 8.682887
_cell_length_c 27.473886
_cell_angle_alpha 90.000000
_cell_angle_beta 90.000000
_cell_angle_gamma 90.000000
_cell_volume 2414.099596
_symmetry_space_group_name_H-M "A M M 2"
_symmetry_group_IT_number 38
_symmetry_cell_setting 'orthorhombic'
loop_
_space_group_symop_operation_xyz
x,y,z
-x,-y,z
-x,y,z
x,-y,z
x,1/2+y,1/2+z
-x,1/2-y,1/2+z
-x,1/2+y,1/2+z
x,1/2-y,1/2+z
loop_
_atom_site_type_symbol
_atom_site_label
_atom_site_fract_x
_atom_site_fract_y
_atom_site_fract_z
Si Si1 0.852451 0.683243 0.132380
Si Si2 0.500000 0.681024 0.775166
Si Si3 0.000000 0.177070 0.903949
Si Si4 0.500000 0.821275 0.879537
Si Si5 0.000000 0.319927 0.801032
Si Si6 0.647410 0.181632 0.553831
Si Si7 0.230701 0.317214 0.238954
Si Si8 0.272971 0.822811 0.953946
O O1 0.849390 0.500000 0.131015
O O2 0.748728 0.752919 0.093425
O O3 0.813971 0.741490 0.185973
O O4 0.000000 0.743066 0.119684
O O5 0.500000 0.500000 0.767319
O O6 0.500000 0.716527 0.832196
O O7 0.374851 0.753714 0.748936
O O8 0.000000 0.290071 0.858385
O O9 0.874580 0.213091 0.937253
O O10 0.000000 0.000000 0.885739
O O11 0.370527 0.778717 0.910204
O O12 0.500000 0.000000 0.863831
O O13 0.869125 0.245374 0.779090
O O14 0.000000 0.500000 0.790433
O O15 0.500000 0.249600 0.562590
O O16 0.696541 0.218933 0.500098
O O17 0.643632 0.000000 0.559934
O O18 0.231848 0.500000 0.242299
O O19 0.293358 0.000000 0.968876
#
# Coordination Sequence:
#
# PCOD8179774 Si02
#       8
#     8   4   4   4   4   8   8   8
#     4   9  19  37  62  90 115 149 201 249 289 353
#     4  12  26  40  59  94 131 159 200 263 317 358
#     4  10  22  38  59  86 117 159 208 247 287 360
#     4  10  20  38  61  82 111 161 210 243 291 366
#     4  12  24  40  63  94 129 159 198 261 321 362
#     4  10  21  36  59  89 119 150 191 247 305 354
#     4  11  22  41  67  90 120 168 214 248 296 371
#     4  10  21  38  59  84 117 155 199 246 292 353
#
# _framework density 19.883188000000001
#
# number of rings (size 3 to 8) (size 9 to 14) (size 15 to 20)
#    0.000    1.667    1.667    3.000    2.333    2.667 
#    0.000    1.667    0.000    0.000    0.000    0.000 
#    0.000    0.000    0.000    0.000    0.000    0.000 
#
# Total GULP energy -297695.924934 kJ/mol
# GULP energy per Si atom -12403.996872 kJ/mol
# Density = 1.983793 g / cm^3
# Si number density = 19.883188 Si / 1000 Ang^3
#
#
#
# Elastic Constant Matrix: (Units=GPa)
#
#
# Indices 1 2 3 4 5 6 
#
# 1 196.0263 32.0223 69.3705 0.0000 0.0000 0.0000
# 2 32.0223 58.4603 23.4978 0.0000 0.0000 0.0000
# 3 69.3705 23.4978 110.1780 0.0000 0.0000 0.0000
# 4 0.0000 0.0000 0.0000 25.8647 0.0000 0.0000
# 5 0.0000 0.0000 0.0000 0.0000 33.5357 0.0000
# 6 0.0000 0.0000 0.0000 0.0000 0.0000 23.9456
#
#
#
# Elastic Compliance Matrix: (Units=1/GPa)
#
#
# Indices 1 2 3 4 5 6 
#
# 1 0.006812 -0.002196 -0.003821 0.000000 0.000000 0.000000
# 2 -0.002196 0.019417 -0.002759 0.000000 0.000000 0.000000
# 3 -0.003821 -0.002759 0.012070 0.000000 0.000000 0.000000
# 4 0.000000 0.000000 0.000000 0.038663 0.000000 0.000000
# 5 0.000000 0.000000 0.000000 0.000000 0.029819 0.000000
# 6 0.000000 0.000000 0.000000 0.000000 0.000000 0.041761
#
#
# Mechanical properties :
#
#
# Convention : Reuss Voigt Hill
#
# Bulk Modulus (GPa) = 48.19457 68.27175 58.23316
# Shear Modulus (GPa) = 28.90019 32.65414 30.77716
#
# Velocity S-wave (km/s) = 3.81661 4.05693 3.93860
# Velocity P-wave (km/s) = 6.61162 7.50705 7.07352
#
# Compressibility (1/GPa) = 0.02074922
#
# Stress axis : x y z
#
# Youngs Moduli (GPa) = 146.79634 51.50085 82.84839
#
# Poissons Ratio (x) = 0.11308 0.31655
# Poissons Ratio (y) = 0.32232 0.22855
# Poissons Ratio (z) = 0.56088 0.14207
#
# Static dielectric constant tensor:
#      x y z
#    x 3.615110 0.000000 0.000000 
#    y 0.000000 3.370870 0.000000 
#    z 0.000000 0.000000 3.636090 
# 
# 
# High freq. dielectric constant tensor:
#      x y z
#    x 1.799980 0.000000 0.000000 
#    y 0.000000 1.750180 0.000000 
#    z 0.000000 0.000000 1.782030 
# 
# From -- ./inp_files/24480.got.cif
#   From: 2010.03.12/outbox.cif.g09.slc.cpg/sg38_13_cif.got.tgz:24480.got - 2010.04.14 02:38:36.
