data_PCOD8179743
_publ_section_title
;
Structure prediction by ZEFSAII (Michael W. Deem and Ramdas Pophale) SiO2 
 PCOD8179743
Probable space group: A M M 2
;
_chemical_formula_sum "Si O2"
_cell_formula_units_Z 30
_cell_length_a 12.619817
_cell_length_b 7.466728
_cell_length_c 16.659476
_cell_angle_alpha 90.000000
_cell_angle_beta 90.000000
_cell_angle_gamma 90.000000
_cell_volume 1569.801448
_symmetry_space_group_name_H-M "A M M 2"
_symmetry_group_IT_number 38
_symmetry_cell_setting 'orthorhombic'
loop_
_space_group_symop_operation_xyz
x,y,z
-x,-y,z
-x,y,z
x,-y,z
x,1/2+y,1/2+z
-x,1/2-y,1/2+z
-x,1/2+y,1/2+z
x,1/2-y,1/2+z
loop_
_atom_site_type_symbol
_atom_site_label
_atom_site_fract_x
_atom_site_fract_y
_atom_site_fract_z
Si Si1 0.500000 0.000000 0.706940
Si Si2 0.121050 0.796052 0.338646
Si Si3 0.303181 0.500000 0.089454
Si Si4 0.123339 0.500000 0.212742
Si Si5 0.698369 0.710002 0.456433
Si Si6 0.500000 0.696575 0.361585
O O1 0.395169 0.000000 0.654836
O O2 0.500000 0.821640 0.764268
O O3 0.155876 0.674134 0.264009
O O4 0.188678 0.750798 0.417057
O O5 0.000000 0.754830 0.362586
O O6 0.136906 0.000000 0.311388
O O7 0.188925 0.500000 0.131150
O O8 0.313391 0.680424 0.038174
O O9 0.000000 0.500000 0.189364
O O10 0.689346 0.500000 0.476196
O O11 0.607681 0.785670 0.395159
O O12 0.500000 0.500000 0.401099
#
# Coordination Sequence:
#
# PCOD8179743 Si02
#       6
#     2   8   4   4   8   4
#     4  10  20  40  62  82 122 160 192 244 304 346
#     4  10  20  37  62  87 113 157 209 243 282 352
#     4  12  24  36  60  92 125 155 187 249 312 348
#     4  10  22  40  60  84 122 160 194 248 300 344
#     4  11  21  38  61  88 120 154 198 246 291 351
#     4   8  19  38  63  81 110 158 199 235 282 351
#
# _framework density 19.110696999999998
#
# number of rings (size 3 to 8) (size 9 to 14) (size 15 to 20)
#    0.400    1.333    2.667    2.400    0.000    2.133 
#    0.000    0.000    2.933    0.000    0.000    0.000 
#    0.000    0.000    0.000    0.000    0.000    0.000 
#
# Total GULP energy -185964.191887 kJ/mol
# GULP energy per Si atom -12397.612792 kJ/mol
# Density = 1.906720 g / cm^3
# Si number density = 19.110697 Si / 1000 Ang^3
#
#
#
# Elastic Constant Matrix: (Units=GPa)
#
#
# Indices 1 2 3 4 5 6 
#
# 1 111.8304 38.6428 73.1841 0.0000 0.0000 0.0000
# 2 38.6428 121.7635 55.9630 0.0000 0.0000 0.0000
# 3 73.1841 55.9630 142.1379 0.0000 0.0000 0.0000
# 4 0.0000 0.0000 0.0000 29.2007 0.0000 0.0000
# 5 0.0000 0.0000 0.0000 0.0000 39.6094 0.0000
# 6 0.0000 0.0000 0.0000 0.0000 0.0000 -5.6762
#
#
#
# Elastic Compliance Matrix: (Units=1/GPa)
#
#
# Indices 1 2 3 4 5 6 
#
# 1 0.013665 -0.001347 -0.006506 0.000000 0.000000 0.000000
# 2 -0.001347 0.010160 -0.003307 0.000000 0.000000 0.000000
# 3 -0.006506 -0.003307 0.011687 0.000000 0.000000 0.000000
# 4 0.000000 0.000000 0.000000 0.034246 0.000000 0.000000
# 5 0.000000 0.000000 0.000000 0.000000 0.025247 0.000000
# 6 0.000000 0.000000 0.000000 0.000000 0.000000 -0.176175
#
#
# Mechanical properties :
#
#
# Convention : Reuss Voigt Hill
#
# Bulk Modulus (GPa) = 75.79430 79.03462 77.41446
# Shear Modulus (GPa) = -91.81885 26.48958 -32.66464
#
# Velocity S-wave (km/s) = -6.93903 3.72709 -4.13877
# Velocity P-wave (km/s) = 4.94503 7.74388 4.21392
#
# Compressibility (1/GPa) = 0.01319360
#
# Stress axis : x y z
#
# Youngs Moduli (GPa) = 73.18072 98.42679 85.56559
#
# Poissons Ratio (x) = 0.13255 0.55665
# Poissons Ratio (y) = 0.09855 0.28295
# Poissons Ratio (z) = 0.47608 0.32548
#
# Static dielectric constant tensor:
#      x y z
#    x 3.720010 0.000000 0.000000 
#    y 0.000000 3.627740 0.000000 
#    z 0.000000 0.000000 3.255680 
# 
# 
# High freq. dielectric constant tensor:
#      x y z
#    x 1.762250 0.000000 0.000000 
#    y 0.000000 1.741780 0.000000 
#    z 0.000000 0.000000 1.724740 
# 
# From -- ./inp_files/13256.got.cif
#   From: 2010.03.12/outbox.cif.g09.slc.cpg/sg38_7_cif.got.tgz:13256.got - 2010.04.14 02:38:36.
