data_PCOD8179230
_publ_section_title
;
Structure prediction by ZEFSAII (Michael W. Deem and Ramdas Pophale) SiO2 
 PCOD8179230
Probable space group: A M M 2
;
_chemical_formula_sum "Si O2"
_cell_formula_units_Z 64
_cell_length_a 20.532155
_cell_length_b 8.881780
_cell_length_c 18.465014
_cell_angle_alpha 90.000000
_cell_angle_beta 90.000000
_cell_angle_gamma 90.000000
_cell_volume 3367.318427
_symmetry_space_group_name_H-M "A M M 2"
_symmetry_group_IT_number 38
_symmetry_cell_setting 'orthorhombic'
loop_
_space_group_symop_operation_xyz
x,y,z
-x,-y,z
-x,y,z
x,-y,z
x,1/2+y,1/2+z
-x,1/2-y,1/2+z
-x,1/2+y,1/2+z
x,1/2-y,1/2+z
loop_
_atom_site_type_symbol
_atom_site_label
_atom_site_fract_x
_atom_site_fract_y
_atom_site_fract_z
Si Si1 0.799487 0.327652 0.005060
Si Si2 0.208497 0.669377 0.176936
Si Si3 0.681369 0.323888 0.762949
Si Si4 0.574681 0.676575 0.169187
Si Si5 0.688240 0.824034 0.916339
Si Si6 0.928471 0.174585 0.010977
Si Si7 0.069512 0.329112 0.159929
Si Si8 0.425968 0.325308 0.521011
O O1 0.788707 0.500000 0.981652
O O2 0.793863 0.306048 0.090993
O O3 0.870522 0.273739 0.976112
O O4 0.745497 0.222334 0.969897
O O5 0.231988 0.500000 0.195752
O O6 0.257146 0.786617 0.212583
O O7 0.134672 0.698780 0.207991
O O8 0.670502 0.500000 0.763424
O O9 0.616030 0.248395 0.733251
O O10 0.695231 0.267865 0.843140
O O11 0.500000 0.723049 0.182187
O O12 0.585261 0.500000 0.171278
O O13 0.598585 0.734242 0.091043
O O14 0.693244 0.000000 0.899039
O O15 0.619109 0.783375 0.953146
O O16 0.932091 0.209249 0.095952
O O17 0.000000 0.211647 0.976410
O O18 0.911371 0.000000 0.000267
O O19 0.075839 0.500000 0.127739
O O20 0.000000 0.314909 0.203334
O O21 0.500000 0.281227 0.500372
O O22 0.419917 0.500000 0.541082
#
# Coordination Sequence:
#
# PCOD8179230 Si02
#       8
#     8   8   8   8   8   8   8   8
#     4  10  20  34  54  79 107 140 179 223 269 319
#     4   9  18  33  54  79 108 141 176 218 266 317
#     4  12  25  38  54  77 108 145 183 223 265 314
#     4  10  21  38  61  86 111 140 174 214 261 313
#     4  11  23  38  56  78 108 144 180 222 269 318
#     4   9  16  26  44  73 106 137 172 216 265 316
#     4   8  14  26  46  73 103 134 170 215 267 317
#     4   9  19  37  61  87 111 136 170 213 262 316
#
# _framework density 19.006221
#
# number of rings (size 3 to 8) (size 9 to 14) (size 15 to 20)
#    0.000    2.250    0.000    4.125    0.000    7.500 
#    0.000    1.250    0.000    0.750    0.000    1.750 
#    0.000    0.000    0.000    0.000    0.000    0.000 
#
# Total GULP energy -396672.938145 kJ/mol
# GULP energy per Si atom -12396.029317 kJ/mol
# Density = 1.896296 g / cm^3
# Si number density = 19.006221 Si / 1000 Ang^3
#
#
#
# Elastic Constant Matrix: (Units=GPa)
#
#
# Indices 1 2 3 4 5 6 
#
# 1 119.8679 32.3791 34.3491 0.0000 0.0000 0.0000
# 2 32.3791 56.3997 20.6618 0.0000 0.0000 0.0000
# 3 34.3491 20.6618 50.7424 0.0000 0.0000 0.0000
# 4 0.0000 0.0000 0.0000 20.7597 0.0000 0.0000
# 5 0.0000 0.0000 0.0000 0.0000 1.9080 0.0000
# 6 0.0000 0.0000 0.0000 0.0000 0.0000 30.8141
#
#
#
# Elastic Compliance Matrix: (Units=1/GPa)
#
#
# Indices 1 2 3 4 5 6 
#
# 1 0.011165 -0.004279 -0.005815 0.000000 0.000000 0.000000
# 2 -0.004279 0.022479 -0.006257 0.000000 0.000000 0.000000
# 3 -0.005815 -0.006257 0.026192 0.000000 0.000000 0.000000
# 4 0.000000 0.000000 0.000000 0.048170 0.000000 0.000000
# 5 0.000000 0.000000 0.000000 0.000000 0.524101 0.000000
# 6 0.000000 0.000000 0.000000 0.000000 0.000000 0.032453
#
#
# Mechanical properties :
#
#
# Convention : Reuss Voigt Hill
#
# Bulk Modulus (GPa) = 36.85500 44.64335 40.74917
# Shear Modulus (GPa) = 7.07907 20.00435 13.54171
#
# Velocity S-wave (km/s) = 1.93202 3.24777 2.67214
# Velocity P-wave (km/s) = 4.94065 6.13219 5.56839
#
# Compressibility (1/GPa) = 0.02713336
#
# Stress axis : x y z
#
# Youngs Moduli (GPa) = 89.56633 44.48510 38.18013
#
# Poissons Ratio (x) = 0.19037 0.22203
# Poissons Ratio (y) = 0.38328 0.23888
# Poissons Ratio (z) = 0.52086 0.27833
#
# Static dielectric constant tensor:
#      x y z
#    x 3.988780 0.000000 0.000000 
#    y 0.000000 3.522520 0.000000 
#    z 0.000000 0.000000 3.055820 
# 
# 
# High freq. dielectric constant tensor:
#      x y z
#    x 1.765330 0.000000 0.000000 
#    y 0.000000 1.744780 0.000000 
#    z 0.000000 0.000000 1.688890 
# 
# From -- ./inp_files/18926.got.cif
#   From: 2010.03.12/outbox.cif.g09.slc.cpg/sg38_10_cif.got.tgz:18926.got - 2010.04.14 02:38:36.
