data_PCOD8179438
_publ_section_title
;
Structure prediction by ZEFSAII (Michael W. Deem and Ramdas Pophale) SiO2 
 PCOD8179438
Probable space group: A M M 2
;
_chemical_formula_sum "Si O2"
_cell_formula_units_Z 64
_cell_length_a 8.925404
_cell_length_b 28.233753
_cell_length_c 12.639116
_cell_angle_alpha 90.000000
_cell_angle_beta 90.000000
_cell_angle_gamma 90.000000
_cell_volume 3185.027555
_symmetry_space_group_name_H-M "A M M 2"
_symmetry_group_IT_number 38
_symmetry_cell_setting 'orthorhombic'
loop_
_space_group_symop_operation_xyz
x,y,z
-x,-y,z
-x,y,z
x,-y,z
x,1/2+y,1/2+z
-x,1/2-y,1/2+z
-x,1/2+y,1/2+z
x,1/2-y,1/2+z
loop_
_atom_site_type_symbol
_atom_site_label
_atom_site_fract_x
_atom_site_fract_y
_atom_site_fract_z
Si Si1 0.666697 0.574576 0.824420
Si Si2 0.830913 0.947412 0.120112
Si Si3 0.176228 0.444965 0.248190
Si Si4 0.173446 0.204033 0.452134
Si Si5 0.322888 0.609861 0.441228
Si Si6 0.175598 0.101047 0.527556
Si Si7 0.174293 0.305046 0.534560
Si Si8 0.666237 0.818888 0.250593
O O1 0.500000 0.552179 0.826214
O O2 0.769477 0.548207 0.739189
O O3 0.657966 0.628972 0.795348
O O4 0.740169 0.569420 0.940088
O O5 0.000000 0.926530 0.120383
O O6 0.832202 0.000000 0.070596
O O7 0.723105 0.914760 0.051034
O O8 0.224133 0.500000 0.242267
O O9 0.259278 0.419403 0.343703
O O10 0.226238 0.418145 0.141601
O O11 0.000000 0.440150 0.267704
O O12 0.219531 0.156698 0.516906
O O13 0.210302 0.249518 0.523149
O O14 0.264237 0.212548 0.343995
O O15 0.000000 0.201223 0.420693
O O16 0.500000 0.611687 0.433127
O O17 0.259149 0.663481 0.445615
O O18 0.000000 0.093385 0.510649
O O19 0.226441 0.319325 0.650569
O O20 0.000000 0.315831 0.521675
O O21 0.500000 0.800249 0.220628
#
# Coordination Sequence:
#
# PCOD8179438 Si02
#       8
#     8   8   8   8   8   8   8   8
#     4  10  20  35  57  86 119 153 190 238 297 358
#     4  11  23  38  59  86 115 151 195 242 294 356
#     4  10  22  41  64  89 121 164 210 257 310 371
#     4   9  20  37  58  86 116 156 205 251 301 359
#     4  12  25  40  59  86 119 156 200 253 315 373
#     4   9  19  38  62  86 119 159 204 252 298 357
#     4  11  22  37  60  86 116 158 208 256 303 365
#     4  10  20  35  56  83 117 154 190 240 302 359
#
# _framework density 20.094018999999999
#
# number of rings (size 3 to 8) (size 9 to 14) (size 15 to 20)
#    0.000    1.750    1.250    3.000    0.000    6.750 
#    0.000    3.750    0.000    0.000    0.000    0.000 
#    0.000    0.000    0.000    0.000    0.000    0.000 
#
# Total GULP energy -396829.217180 kJ/mol
# GULP energy per Si atom -12400.913037 kJ/mol
# Density = 2.004828 g / cm^3
# Si number density = 20.094019 Si / 1000 Ang^3
#
#
#
# Elastic Constant Matrix: (Units=GPa)
#
#
# Indices 1 2 3 4 5 6 
#
# 1 89.9008 40.4055 55.6270 0.0000 0.0000 0.0000
# 2 40.4055 94.6648 52.3265 0.0000 0.0000 0.0000
# 3 55.6270 52.3265 128.4708 0.0000 0.0000 0.0000
# 4 0.0000 0.0000 0.0000 22.9386 0.0000 0.0000
# 5 0.0000 0.0000 0.0000 0.0000 23.1287 0.0000
# 6 0.0000 0.0000 0.0000 0.0000 0.0000 11.2496
#
#
#
# Elastic Compliance Matrix: (Units=1/GPa)
#
#
# Indices 1 2 3 4 5 6 
#
# 1 0.016255 -0.003933 -0.005436 0.000000 0.000000 0.000000
# 2 -0.003933 0.014585 -0.004237 0.000000 0.000000 0.000000
# 3 -0.005436 -0.004237 0.011864 0.000000 0.000000 0.000000
# 4 0.000000 0.000000 0.000000 0.043595 0.000000 0.000000
# 5 0.000000 0.000000 0.000000 0.000000 0.043236 0.000000
# 6 0.000000 0.000000 0.000000 0.000000 0.000000 0.088892
#
#
# Mechanical properties :
#
#
# Convention : Reuss Voigt Hill
#
# Bulk Modulus (GPa) = 64.55935 67.75051 66.15493
# Shear Modulus (GPa) = 19.93598 22.44186 21.18892
#
# Velocity S-wave (km/s) = 3.15323 3.34555 3.25081
# Velocity P-wave (km/s) = 6.74207 6.97951 6.86182
#
# Compressibility (1/GPa) = 0.01548962
#
# Stress axis : x y z
#
# Youngs Moduli (GPa) = 61.52024 68.56572 84.29129
#
# Poissons Ratio (x) = 0.26967 0.45823
# Poissons Ratio (y) = 0.24196 0.35717
# Poissons Ratio (z) = 0.33444 0.29054
#
# Static dielectric constant tensor:
#      x y z
#    x 3.813110 0.000000 0.000000 
#    y 0.000000 3.769390 0.000000 
#    z 0.000000 0.000000 3.656460 
# 
# 
# High freq. dielectric constant tensor:
#      x y z
#    x 1.786990 0.000000 0.000000 
#    y 0.000000 1.784910 0.000000 
#    z 0.000000 0.000000 1.781360 
# 
# From -- ./inp_files/8640.got.cif
#   From: 2010.03.12/outbox.cif.g09.slc.cpg/sg38_5_cif.got.tgz:8640.got - 2010.04.14 02:38:36.
