data_PCOD8179662
_publ_section_title
;
Structure prediction by ZEFSAII (Michael W. Deem and Ramdas Pophale) SiO2 
 PCOD8179662
Probable space group: A M M 2
;
_chemical_formula_sum "Si O2"
_cell_formula_units_Z 64
_cell_length_a 23.135593
_cell_length_b 8.819488
_cell_length_c 15.354768
_cell_angle_alpha 90.000000
_cell_angle_beta 90.000000
_cell_angle_gamma 90.000000
_cell_volume 3133.049584
_symmetry_space_group_name_H-M "A M M 2"
_symmetry_group_IT_number 38
_symmetry_cell_setting 'orthorhombic'
loop_
_space_group_symop_operation_xyz
x,y,z
-x,-y,z
-x,y,z
x,-y,z
x,1/2+y,1/2+z
-x,1/2-y,1/2+z
-x,1/2+y,1/2+z
x,1/2-y,1/2+z
loop_
_atom_site_type_symbol
_atom_site_label
_atom_site_fract_x
_atom_site_fract_y
_atom_site_fract_z
Si Si1 0.873294 0.178382 0.783120
Si Si2 0.264184 0.828513 0.121936
Si Si3 0.134126 0.824903 0.099003
Si Si4 0.366617 0.677825 0.858688
Si Si5 0.258166 0.175446 0.798861
Si Si6 0.932379 0.173945 0.441963
Si Si7 0.618100 0.325100 0.533518
Si Si8 0.433297 0.825164 0.699891
O O1 0.884683 0.235512 0.685437
O O2 0.808515 0.219436 0.814736
O O3 0.917650 0.259255 0.847470
O O4 0.884174 0.000000 0.784932
O O5 0.201966 0.801229 0.077846
O O6 0.274566 0.709894 0.199044
O O7 0.313694 0.801972 0.051082
O O8 0.267923 0.000000 0.160119
O O9 0.119142 0.000000 0.114016
O O10 0.099652 0.766075 0.016580
O O11 0.373640 0.500000 0.849283
O O12 0.298979 0.725527 0.861656
O O13 0.395526 0.756415 0.776475
O O14 0.397770 0.733442 0.946442
O O15 0.269658 0.000000 0.818721
O O16 0.000000 0.191439 0.457870
O O17 0.912601 0.000000 0.445755
O O18 0.602578 0.500000 0.518945
O O19 0.579123 0.262623 0.610975
O O20 0.500000 0.804542 0.724464
O O21 0.416446 0.000000 0.687572
#
# Coordination Sequence:
#
# PCOD8179662 Si02
#       8
#     8   8   8   8   8   8   8   8
#     4  10  22  40  63  92 124 162 206 255 311 371
#     4   9  19  36  60  91 126 161 200 250 309 372
#     4  10  21  39  63  92 125 161 205 254 309 369
#     4  12  25  40  62  94 129 168 211 255 307 368
#     4  10  20  36  61  91 127 163 203 254 311 371
#     4  11  25  43  62  88 123 164 212 260 308 367
#     4  11  23  40  64  95 129 165 207 255 310 370
#     4  11  25  46  69  93 125 165 211 262 312 366
#
# _framework density 20.427381
#
# number of rings (size 3 to 8) (size 9 to 14) (size 15 to 20)
#    0.000    1.500    1.250    3.375    1.750    5.500 
#    0.000    0.000    0.000    0.000    0.000    0.000 
#    0.000    0.000    0.000    0.000    0.000    0.000 
#
# Total GULP energy -396953.583315 kJ/mol
# GULP energy per Si atom -12404.799479 kJ/mol
# Density = 2.038089 g / cm^3
# Si number density = 20.427381 Si / 1000 Ang^3
#
#
#
# Elastic Constant Matrix: (Units=GPa)
#
#
# Indices 1 2 3 4 5 6 
#
# 1 73.3555 -24.6120 9.8275 0.0000 0.0000 0.0000
# 2 -24.6120 273.6809 31.5906 0.0000 0.0000 0.0000
# 3 9.8275 31.5906 75.2149 0.0000 0.0000 0.0000
# 4 0.0000 0.0000 0.0000 40.7829 0.0000 0.0000
# 5 0.0000 0.0000 0.0000 0.0000 49.7777 0.0000
# 6 0.0000 0.0000 0.0000 0.0000 0.0000 30.1931
#
#
#
# Elastic Compliance Matrix: (Units=1/GPa)
#
#
# Indices 1 2 3 4 5 6 
#
# 1 0.014514 0.001602 -0.002569 0.000000 0.000000 0.000000
# 2 0.001602 0.004017 -0.001896 0.000000 0.000000 0.000000
# 3 -0.002569 -0.001896 0.014427 0.000000 0.000000 0.000000
# 4 0.000000 0.000000 0.000000 0.024520 0.000000 0.000000
# 5 0.000000 0.000000 0.000000 0.000000 0.020089 0.000000
# 6 0.000000 0.000000 0.000000 0.000000 0.000000 0.033120
#
#
# Mechanical properties :
#
#
# Convention : Reuss Voigt Hill
#
# Bulk Modulus (GPa) = 36.72332 50.65149 43.68740
# Shear Modulus (GPa) = 39.84318 51.18042 45.51180
#
# Velocity S-wave (km/s) = 4.42121 5.01091 4.72527
# Velocity P-wave (km/s) = 6.63923 7.63732 7.15570
#
# Compressibility (1/GPa) = 0.02723066
#
# Stress axis : x y z
#
# Youngs Moduli (GPa) = 68.89966 248.95234 69.31251
#
# Poissons Ratio (x) = -0.39877 0.17807
# Poissons Ratio (y) = -0.11036 0.13144
# Poissons Ratio (z) = 0.17701 0.47211
#
# Static dielectric constant tensor:
#      x y z
#    x 3.708950 0.000000 0.000000 
#    y 0.000000 3.844870 0.000000 
#    z 0.000000 0.000000 3.477570 
# 
# 
# High freq. dielectric constant tensor:
#      x y z
#    x 1.796140 0.000000 0.000000 
#    y 0.000000 1.810740 0.000000 
#    z 0.000000 0.000000 1.798620 
# 
# From -- ./inp_files/15797.got.cif
#   From: 2010.03.12/outbox.cif.g09.slc.cpg/sg38_8_cif.got.tgz:15797.got - 2010.04.14 02:38:36.
