data_PCOD8179612
_publ_section_title
;
Structure prediction by ZEFSAII (Michael W. Deem and Ramdas Pophale) SiO2 
 PCOD8179612
Probable space group: A M M 2
;
_chemical_formula_sum "Si O2"
_cell_formula_units_Z 56
_cell_length_a 9.210951
_cell_length_b 16.577246
_cell_length_c 17.574852
_cell_angle_alpha 90.000000
_cell_angle_beta 90.000000
_cell_angle_gamma 90.000000
_cell_volume 2683.542827
_symmetry_space_group_name_H-M "A M M 2"
_symmetry_group_IT_number 38
_symmetry_cell_setting 'orthorhombic'
loop_
_space_group_symop_operation_xyz
x,y,z
-x,-y,z
-x,y,z
x,-y,z
x,1/2+y,1/2+z
-x,1/2-y,1/2+z
-x,1/2+y,1/2+z
x,1/2-y,1/2+z
loop_
_atom_site_type_symbol
_atom_site_label
_atom_site_fract_x
_atom_site_fract_y
_atom_site_fract_z
Si Si1 0.657719 0.090826 0.981430
Si Si2 0.842427 0.408924 0.349158
Si Si3 0.169757 0.595104 0.908022
Si Si4 0.833180 0.144911 0.114773
Si Si5 0.333774 0.353597 0.217159
Si Si6 0.668685 0.829579 0.264936
Si Si7 0.834492 0.671722 0.069796
O O1 0.500000 0.133951 0.992431
O O2 0.747577 0.136190 0.914383
O O3 0.628815 0.000000 0.954573
O O4 0.748705 0.086227 0.058576
O O5 0.869960 0.500000 0.375675
O O6 0.759186 0.412298 0.269577
O O7 0.000000 0.365155 0.341654
O O8 0.207878 0.500000 0.911869
O O9 0.263780 0.639124 0.843506
O O10 0.000000 0.607921 0.890244
O O11 0.212143 0.637747 0.987674
O O12 0.758250 0.131639 0.195976
O O13 0.817215 0.232346 0.075973
O O14 0.000000 0.119136 0.123029
O O15 0.500000 0.380684 0.216149
O O16 0.313721 0.265932 0.254904
O O17 0.272914 0.364916 0.132426
O O18 0.500000 0.855259 0.260677
O O19 0.000000 0.645986 0.087969
#
# Coordination Sequence:
#
# PCOD8179612 Si02
#       7
#     8   8   8   8   8   8   8
#     4  10  21  36  54  80 115 150 185 230 282 336
#     4  10  21  36  55  81 113 150 190 230 276 335
#     4  10  22  40  61  86 117 153 194 242 295 350
#     4  10  20  36  59  85 112 149 194 238 284 340
#     4  10  21  37  58  86 116 150 190 236 289 341
#     4  10  22  39  58  84 115 150 192 238 288 342
#     4   9  20  38  58  84 114 148 191 237 284 340
#
# _framework density 20.867936
#
# number of rings (size 3 to 8) (size 9 to 14) (size 15 to 20)
#    0.000    2.143    0.000    2.143    2.000    6.000 
#    0.000    1.429    0.000    0.000    0.000    0.000 
#    0.000    0.000    0.000    0.000    0.000    0.000 
#
# Total GULP energy -347093.694997 kJ/mol
# GULP energy per Si atom -12396.203393 kJ/mol
# Density = 2.082044 g / cm^3
# Si number density = 20.867936 Si / 1000 Ang^3
#
#
#
# Elastic Constant Matrix: (Units=GPa)
#
#
# Indices 1 2 3 4 5 6 
#
# 1 189.3811 25.8664 104.1003 0.0000 0.0000 0.0000
# 2 25.8664 33.3042 31.3090 0.0000 0.0000 0.0000
# 3 104.1003 31.3090 174.6889 0.0000 0.0000 0.0000
# 4 0.0000 0.0000 0.0000 30.8037 0.0000 0.0000
# 5 0.0000 0.0000 0.0000 0.0000 36.3558 0.0000
# 6 0.0000 0.0000 0.0000 0.0000 0.0000 19.7925
#
#
#
# Elastic Compliance Matrix: (Units=1/GPa)
#
#
# Indices 1 2 3 4 5 6 
#
# 1 0.007970 -0.002075 -0.004378 0.000000 0.000000 0.000000
# 2 -0.002075 0.036651 -0.005332 0.000000 0.000000 0.000000
# 3 -0.004378 -0.005332 0.009289 0.000000 0.000000 0.000000
# 4 0.000000 0.000000 0.000000 0.032464 0.000000 0.000000
# 5 0.000000 0.000000 0.000000 0.000000 0.027506 0.000000
# 6 0.000000 0.000000 0.000000 0.000000 0.000000 0.050524
#
#
# Mechanical properties :
#
#
# Convention : Reuss Voigt Hill
#
# Bulk Modulus (GPa) = 32.95983 79.99174 56.47578
# Shear Modulus (GPa) = 25.24154 33.13031 29.18592
#
# Velocity S-wave (km/s) = 3.48168 3.98882 3.74385
# Velocity P-wave (km/s) = 5.65611 7.72203 6.76836
#
# Compressibility (1/GPa) = 0.03033996
#
# Stress axis : x y z
#
# Youngs Moduli (GPa) = 125.46927 27.28470 107.65522
#
# Poissons Ratio (x) = 0.05661 0.47128
# Poissons Ratio (y) = 0.26031 0.57406
# Poissons Ratio (z) = 0.54926 0.14549
#
# Static dielectric constant tensor:
#      x y z
#    x 4.172770 0.000000 0.000000 
#    y 0.000000 3.471560 0.000000 
#    z 0.000000 0.000000 3.725160 
# 
# 
# High freq. dielectric constant tensor:
#      x y z
#    x 1.832950 0.000000 0.000000 
#    y 0.000000 1.786820 0.000000 
#    z 0.000000 0.000000 1.825370 
# 
# From -- ./inp_files/12416.got.cif
#   From: 2010.03.12/outbox.cif.g09.slc.cpg/sg38_7_cif.got.tgz:12416.got - 2010.04.14 02:38:36.
