data_PCOD8179308
_publ_section_title
;
Structure prediction by ZEFSAII (Michael W. Deem and Ramdas Pophale) SiO2 
 PCOD8179308
Probable space group: A M M 2
;
_chemical_formula_sum "Si O2"
_cell_formula_units_Z 56
_cell_length_a 16.638235
_cell_length_b 8.722883
_cell_length_c 20.354599
_cell_angle_alpha 90.000000
_cell_angle_beta 90.000000
_cell_angle_gamma 90.000000
_cell_volume 2954.131695
_symmetry_space_group_name_H-M "A M M 2"
_symmetry_group_IT_number 38
_symmetry_cell_setting 'orthorhombic'
loop_
_space_group_symop_operation_xyz
x,y,z
-x,-y,z
-x,y,z
x,-y,z
x,1/2+y,1/2+z
-x,1/2-y,1/2+z
-x,1/2+y,1/2+z
x,1/2-y,1/2+z
loop_
_atom_site_type_symbol
_atom_site_label
_atom_site_fract_x
_atom_site_fract_y
_atom_site_fract_z
Si Si1 0.500000 0.682343 0.504801
Si Si2 0.910351 0.676710 0.146538
Si Si3 0.759104 0.680708 0.073586
Si Si4 0.340354 0.179831 0.696380
Si Si5 0.090945 0.179726 0.286032
Si Si6 0.337365 0.817923 0.451135
Si Si7 0.750570 0.320747 0.329347
Si Si8 0.500000 0.819959 0.155338
O O1 0.500000 0.500000 0.503092
O O2 0.423087 0.743421 0.465706
O O3 0.500000 0.745102 0.580211
O O4 0.893172 0.500000 0.166991
O O5 0.851471 0.729043 0.087537
O O6 0.894712 0.778683 0.210212
O O7 0.000000 0.698181 0.119112
O O8 0.751163 0.500000 0.071873
O O9 0.705735 0.745285 0.132995
O O10 0.726717 0.746018 0.004879
O O11 0.287162 0.221253 0.759248
O O12 0.425106 0.264025 0.698177
O O13 0.356230 0.000000 0.691847
O O14 0.156547 0.265158 0.331302
O O15 0.000000 0.228990 0.306861
O O16 0.102957 0.000000 0.295362
O O17 0.304035 0.767755 0.381216
O O18 0.346832 0.000000 0.453486
O O19 0.747952 0.500000 0.344714
O O20 0.500000 0.000000 0.151674
#
# Coordination Sequence:
#
# PCOD8179308 Si02
#       8
#     4   8   8   8   8   8   8   4
#     4  11  23  40  59  84 115 147 191 236 287 350
#     4   9  16  30  55  85 115 148 190 237 283 337
#     4   9  17  33  56  84 111 145 192 233 279 340
#     4  10  20  37  60  82 110 148 190 234 282 340
#     4  10  20  34  55  85 118 151 190 237 288 341
#     4  11  23  39  61  84 115 155 193 237 289 345
#     4  11  23  40  60  85 118 154 193 237 287 346
#     4  11  23  36  57  90 119 143 185 244 293 334
#
# _framework density 18.956499999999998
#
# number of rings (size 3 to 8) (size 9 to 14) (size 15 to 20)
#    0.000    1.857    2.857    1.714    0.000    3.143 
#    0.000    2.857    0.000    2.571    0.000    0.000 
#    0.000    0.000    0.000    0.000    0.000    0.000 
#
# Total GULP energy -347180.269878 kJ/mol
# GULP energy per Si atom -12399.295353 kJ/mol
# Density = 1.891335 g / cm^3
# Si number density = 18.956500 Si / 1000 Ang^3
#
#
#
# Elastic Constant Matrix: (Units=GPa)
#
#
# Indices 1 2 3 4 5 6 
#
# 1 143.9063 39.8718 32.7736 0.0000 0.0000 0.0000
# 2 39.8718 55.8886 29.3353 0.0000 0.0000 0.0000
# 3 32.7736 29.3353 61.3312 0.0000 0.0000 0.0000
# 4 0.0000 0.0000 0.0000 24.5825 0.0000 0.0000
# 5 0.0000 0.0000 0.0000 0.0000 29.4041 0.0000
# 6 0.0000 0.0000 0.0000 0.0000 0.0000 25.8810
#
#
#
# Elastic Compliance Matrix: (Units=1/GPa)
#
#
# Indices 1 2 3 4 5 6 
#
# 1 0.008896 -0.005143 -0.002294 0.000000 0.000000 0.000000
# 2 -0.005143 0.026863 -0.010101 0.000000 0.000000 0.000000
# 3 -0.002294 -0.010101 0.022362 0.000000 0.000000 0.000000
# 4 0.000000 0.000000 0.000000 0.040679 0.000000 0.000000
# 5 0.000000 0.000000 0.000000 0.000000 0.034009 0.000000
# 6 0.000000 0.000000 0.000000 0.000000 0.000000 0.038638
#
#
# Mechanical properties :
#
#
# Convention : Reuss Voigt Hill
#
# Bulk Modulus (GPa) = 43.39054 51.67639 47.53347
# Shear Modulus (GPa) = 23.34200 26.58320 24.96260
#
# Velocity S-wave (km/s) = 3.51286 3.74883 3.63276
# Velocity P-wave (km/s) = 6.27637 6.78660 6.53647
#
# Compressibility (1/GPa) = 0.02304650
#
# Stress axis : x y z
#
# Youngs Moduli (GPa) = 112.40639 37.22538 44.71826
#
# Poissons Ratio (x) = 0.19143 0.10259
# Poissons Ratio (y) = 0.57806 0.45170
# Poissons Ratio (z) = 0.25788 0.37601
#
# Static dielectric constant tensor:
#      x y z
#    x 3.761870 0.000000 0.000000 
#    y 0.000000 3.332720 0.000000 
#    z 0.000000 0.000000 3.416560 
# 
# 
# High freq. dielectric constant tensor:
#      x y z
#    x 1.755640 0.000000 0.000000 
#    y 0.000000 1.725620 0.000000 
#    z 0.000000 0.000000 1.716500 
# 
# From -- ./inp_files/21156.got.cif
#   From: 2010.03.12/outbox.cif.g09.slc.cpg/sg38_11_cif.got.tgz:21156.got - 2010.04.14 02:38:36.
