data_PCOD8179657
_publ_section_title
;
Structure prediction by ZEFSAII (Michael W. Deem and Ramdas Pophale) SiO2 
 PCOD8179657
Probable space group: A M M 2
;
_chemical_formula_sum "Si O2"
_cell_formula_units_Z 64
_cell_length_a 8.818691
_cell_length_b 30.989164
_cell_length_c 12.039504
_cell_angle_alpha 90.000000
_cell_angle_beta 90.000000
_cell_angle_gamma 90.000000
_cell_volume 3290.202146
_symmetry_space_group_name_H-M "A M M 2"
_symmetry_group_IT_number 38
_symmetry_cell_setting 'orthorhombic'
loop_
_space_group_symop_operation_xyz
x,y,z
-x,-y,z
-x,y,z
x,-y,z
x,1/2+y,1/2+z
-x,1/2-y,1/2+z
-x,1/2+y,1/2+z
x,1/2-y,1/2+z
loop_
_atom_site_type_symbol
_atom_site_label
_atom_site_fract_x
_atom_site_fract_y
_atom_site_fract_z
Si Si1 0.821558 0.373842 0.234510
Si Si2 0.821558 0.373842 0.490394
Si Si3 0.679988 0.298572 0.630835
Si Si4 0.319834 0.333695 0.862452
Si Si5 0.320361 0.429747 0.862452
Si Si6 0.323193 0.048059 0.121462
Si Si7 0.320012 0.798572 0.594069
Si Si8 0.323193 0.451941 0.103443
O O1 0.771774 0.376668 0.362452
O O2 0.748876 0.330849 0.184035
O O3 0.767119 0.417277 0.174606
O O4 0.000000 0.370445 0.220826
O O5 0.748876 0.330849 0.540869
O O6 0.767119 0.417277 0.550298
O O7 0.000000 0.370445 0.504078
O O8 0.500000 0.302386 0.621500
O O9 0.740963 0.310194 0.752978
O O10 0.736585 0.250000 0.612452
O O11 0.500000 0.334106 0.862452
O O12 0.253563 0.381668 0.862452
O O13 0.259037 0.310193 0.971926
O O14 0.500000 0.429558 0.862452
O O15 0.264606 0.452639 0.749483
O O16 0.264606 0.452639 0.975421
O O17 0.500000 0.060835 0.116906
O O18 0.295926 0.000000 0.072592
O O19 0.500000 0.802386 0.603404
O O20 0.500000 0.439165 0.107998
O O21 0.295926 0.500000 0.152312
#
# Coordination Sequence:
#
# PCOD8179657 Si02
#       8
#     8   8   8   8   8   8   8   8
#     4  11  25  42  57  78 116 160 196 234 283 341
#     4  11  25  42  57  78 116 160 196 234 283 341
#     4  10  21  37  62  91 117 147 188 239 286 334
#     4   9  16  31  56  88 119 145 178 229 292 339
#     4   9  15  30  57  88 120 144 174 229 293 345
#     4  10  20  36  61  89 114 145 189 241 292 342
#     4  10  21  37  62  91 117 147 188 239 286 334
#     4  10  20  36  61  89 114 145 189 241 292 342
#
# _framework density 19.451691
#
# number of rings (size 3 to 8) (size 9 to 14) (size 15 to 20)
#    0.000    2.000    2.500    1.125    1.750    5.000 
#    0.000    5.000    0.000    1.500    0.000    0.000 
#    0.000    0.000    0.000    0.000    0.000    0.000 
#
# Total GULP energy -396734.561001 kJ/mol
# GULP energy per Si atom -12397.955031 kJ/mol
# Density = 1.940742 g / cm^3
# Si number density = 19.451691 Si / 1000 Ang^3
#
#
#
# Elastic Constant Matrix: (Units=GPa)
#
#
# Indices 1 2 3 4 5 6 
#
# 1 37.2073 31.1626 35.0642 0.0000 0.0000 0.0000
# 2 31.1626 156.3767 67.9985 0.0000 0.0000 0.0000
# 3 35.0642 67.9985 143.0493 0.0000 0.0000 0.0000
# 4 0.0000 0.0000 0.0000 19.3251 0.0000 0.0000
# 5 0.0000 0.0000 0.0000 0.0000 20.8808 0.0000
# 6 0.0000 0.0000 0.0000 0.0000 0.0000 14.4148
#
#
#
# Elastic Compliance Matrix: (Units=1/GPa)
#
#
# Indices 1 2 3 4 5 6 
#
# 1 0.037149 -0.004341 -0.007043 0.000000 0.000000 0.000000
# 2 -0.004341 0.008568 -0.003009 0.000000 0.000000 0.000000
# 3 -0.007043 -0.003009 0.010147 0.000000 0.000000 0.000000
# 4 0.000000 0.000000 0.000000 0.051746 0.000000 0.000000
# 5 0.000000 0.000000 0.000000 0.000000 0.047891 0.000000
# 6 0.000000 0.000000 0.000000 0.000000 0.000000 0.069373
#
#
# Mechanical properties :
#
#
# Convention : Reuss Voigt Hill
#
# Bulk Modulus (GPa) = 36.92767 67.23155 52.07961
# Shear Modulus (GPa) = 19.03415 24.41799 21.72607
#
# Velocity S-wave (km/s) = 3.13155 3.54689 3.34567
# Velocity P-wave (km/s) = 5.66577 7.17023 6.46193
#
# Compressibility (1/GPa) = 0.02707996
#
# Stress axis : x y z
#
# Youngs Moduli (GPa) = 26.91872 116.71065 98.54966
#
# Poissons Ratio (x) = 0.50659 0.69405
# Poissons Ratio (y) = 0.11684 0.29653
# Poissons Ratio (z) = 0.18958 0.35117
#
# Static dielectric constant tensor:
#      x y z
#    x 3.173550 0.000000 0.000000 
#    y 0.000000 3.688310 0.000000 
#    z 0.000000 0.000000 3.810300 
# 
# 
# High freq. dielectric constant tensor:
#      x y z
#    x 1.717910 0.000000 0.000000 
#    y 0.000000 1.774240 0.000000 
#    z 0.000000 0.000000 1.767460 
# 
# From -- ./inp_files/8592.got.cif
#   From: 2010.03.12/outbox.cif.g09.slc.cpg/sg38_5_cif.got.tgz:8592.got - 2010.04.14 02:38:36.
