data_PCOD8179050
_publ_section_title
;
Structure prediction by ZEFSAII (Michael W. Deem and Ramdas Pophale) SiO2 
 PCOD8179050
Probable space group: A M M 2
;
_chemical_formula_sum "Si O2"
_cell_formula_units_Z 56
_cell_length_a 9.151843
_cell_length_b 19.742917
_cell_length_c 15.358860
_cell_angle_alpha 90.000000
_cell_angle_beta 90.000000
_cell_angle_gamma 90.000000
_cell_volume 2775.101439
_symmetry_space_group_name_H-M "A M M 2"
_symmetry_group_IT_number 38
_symmetry_cell_setting 'orthorhombic'
loop_
_space_group_symop_operation_xyz
x,y,z
-x,-y,z
-x,y,z
x,-y,z
x,1/2+y,1/2+z
-x,1/2-y,1/2+z
-x,1/2+y,1/2+z
x,1/2-y,1/2+z
loop_
_atom_site_type_symbol
_atom_site_label
_atom_site_fract_x
_atom_site_fract_y
_atom_site_fract_z
Si Si1 0.334086 0.255502 0.987080
Si Si2 0.842336 0.074444 0.902267
Si Si3 0.827613 0.689704 0.148553
Si Si4 0.166400 0.076925 0.230517
Si Si5 0.168713 0.783560 0.311167
Si Si6 0.665909 0.919649 0.743230
Si Si7 0.663920 0.394827 0.558683
O O1 0.500000 0.283079 0.981811
O O2 0.264268 0.256436 0.891161
O O3 0.238337 0.298516 0.053513
O O4 0.331118 0.181312 0.026531
O O5 0.728600 0.108504 0.835619
O O6 0.000000 0.113397 0.905437
O O7 0.872988 0.000000 0.865201
O O8 0.772544 0.064569 0.996674
O O9 0.782232 0.746128 0.221098
O O10 0.764877 0.615812 0.171120
O O11 0.000000 0.686045 0.139339
O O12 0.191967 0.134774 0.303540
O O13 0.279946 0.094508 0.155468
O O14 0.000000 0.083018 0.195313
O O15 0.194267 0.000000 0.266344
O O16 0.000000 0.766558 0.330115
O O17 0.500000 0.893905 0.737137
O O18 0.673953 0.000000 0.731443
O O19 0.500000 0.424063 0.552967
#
# Coordination Sequence:
#
# PCOD8179050 Si02
#       7
#     8   8   8   8   8   8   8
#     4  11  24  39  59  87 119 158 202 252 310 370
#     4  10  20  33  51  78 113 153 195 237 287 352
#     4  11  22  39  64  90 118 156 202 253 303 362
#     4  10  21  39  62  87 120 162 206 256 314 374
#     4  10  22  40  62  90 121 159 206 258 311 367
#     4  10  21  37  57  83 118 156 193 241 302 364
#     4  11  22  35  54  84 118 154 197 249 308 369
#
# _framework density 20.179442999999999
#
# number of rings (size 3 to 8) (size 9 to 14) (size 15 to 20)
#    0.000    1.571    1.429    3.429    0.000    9.429 
#    0.000    0.714    0.000    2.571    0.000    0.000 
#    0.000    0.000    0.000    0.000    0.000    0.000 
#
# Total GULP energy -347042.167254 kJ/mol
# GULP energy per Si atom -12394.363116 kJ/mol
# Density = 2.013351 g / cm^3
# Si number density = 20.179443 Si / 1000 Ang^3
#
#
#
# Elastic Constant Matrix: (Units=GPa)
#
#
# Indices 1 2 3 4 5 6 
#
# 1 123.6503 26.0693 40.2027 0.0000 0.0000 0.0000
# 2 26.0693 62.3961 6.0416 0.0000 0.0000 0.0000
# 3 40.2027 6.0416 69.4283 0.0000 0.0000 0.0000
# 4 0.0000 0.0000 0.0000 33.5466 0.0000 0.0000
# 5 0.0000 0.0000 0.0000 0.0000 25.6390 0.0000
# 6 0.0000 0.0000 0.0000 0.0000 0.0000 10.3860
#
#
#
# Elastic Compliance Matrix: (Units=1/GPa)
#
#
# Indices 1 2 3 4 5 6 
#
# 1 0.010853 -0.003959 -0.005940 0.000000 0.000000 0.000000
# 2 -0.003959 0.017607 0.000761 0.000000 0.000000 0.000000
# 3 -0.005940 0.000761 0.017777 0.000000 0.000000 0.000000
# 4 0.000000 0.000000 0.000000 0.029809 0.000000 0.000000
# 5 0.000000 0.000000 0.000000 0.000000 0.039003 0.000000
# 6 0.000000 0.000000 0.000000 0.000000 0.000000 0.096284
#
#
# Mechanical properties :
#
#
# Convention : Reuss Voigt Hill
#
# Bulk Modulus (GPa) = 35.76608 44.45576 40.11092
# Shear Modulus (GPa) = 20.92649 26.12506 23.52578
#
# Velocity S-wave (km/s) = 3.22377 3.60201 3.41813
# Velocity P-wave (km/s) = 5.62312 6.27514 5.95805
#
# Compressibility (1/GPa) = 0.02795945
#
# Stress axis : x y z
#
# Youngs Moduli (GPa) = 92.13669 56.79471 56.25295
#
# Poissons Ratio (x) = 0.22488 0.33415
# Poissons Ratio (y) = 0.36481 -0.04278
# Poissons Ratio (z) = 0.54731 -0.04320
#
# Static dielectric constant tensor:
#      x y z
#    x 4.008090 0.000000 0.000000 
#    y 0.000000 3.714420 0.000000 
#    z 0.000000 0.000000 3.521870 
# 
# 
# High freq. dielectric constant tensor:
#      x y z
#    x 1.801650 0.000000 0.000000 
#    y 0.000000 1.787140 0.000000 
#    z 0.000000 0.000000 1.765420 
# 
# From -- ./inp_files/12354.got.cif
#   From: 2010.03.12/outbox.cif.g09.slc.cpg/sg38_7_cif.got.tgz:12354.got - 2010.04.14 02:38:36.
