data_PCOD8179680
_publ_section_title
;
Structure prediction by ZEFSAII (Michael W. Deem and Ramdas Pophale) SiO2 
 PCOD8179680
Probable space group: A M M 2
;
_chemical_formula_sum "Si O2"
_cell_formula_units_Z 48
_cell_length_a 8.997857
_cell_length_b 16.837332
_cell_length_c 16.994421
_cell_angle_alpha 90.000000
_cell_angle_beta 90.000000
_cell_angle_gamma 90.000000
_cell_volume 2574.653177
_symmetry_space_group_name_H-M "A M M 2"
_symmetry_group_IT_number 38
_symmetry_cell_setting 'orthorhombic'
loop_
_space_group_symop_operation_xyz
x,y,z
-x,-y,z
-x,y,z
x,-y,z
x,1/2+y,1/2+z
-x,1/2-y,1/2+z
-x,1/2+y,1/2+z
x,1/2-y,1/2+z
loop_
_atom_site_type_symbol
_atom_site_label
_atom_site_fract_x
_atom_site_fract_y
_atom_site_fract_z
Si Si1 0.676659 0.588765 0.619910
Si Si2 0.325990 0.686981 0.768484
Si Si3 0.326031 0.178507 0.965620
Si Si4 0.670149 0.141012 0.442156
Si Si5 0.176384 0.651845 0.304753
Si Si6 0.823729 0.500000 0.207703
Si Si7 0.824463 0.500000 0.030114
O O1 0.500000 0.586412 0.620610
O O2 0.742706 0.500000 0.618687
O O3 0.734239 0.632657 0.697905
O O4 0.733976 0.635305 0.543400
O O5 0.500000 0.707208 0.760930
O O6 0.294849 0.639876 0.849161
O O7 0.237617 0.768973 0.764270
O O8 0.500000 0.163718 0.950697
O O9 0.294098 0.271860 0.975961
O O10 0.238470 0.141544 0.892566
O O11 0.500000 0.117176 0.457806
O O12 0.773470 0.078595 0.485334
O O13 0.233812 0.577952 0.253051
O O14 0.000000 0.655940 0.308608
O O15 0.000000 0.500000 0.205639
O O16 0.759765 0.500000 0.118873
O O17 0.000000 0.500000 0.031770
#
# Coordination Sequence:
#
# PCOD8179680 Si02
#       7
#     8   8   8   8   8   4   4
#     4   9  18  32  56  86 112 140 174 217 268 320
#     4   9  19  36  59  83 109 141 179 220 268 322
#     4   9  19  36  57  84 112 138 176 222 268 321
#     4   9  19  35  54  79 111 142 173 220 273 316
#     4  10  20  37  58  77 106 146 184 220 269 322
#     4   9  22  39  53  76 109 144 180 223 271 319
#     4  11  23  37  55  78 105 142 188 225 261 315
#
# _framework density 18.643287000000001
#
# number of rings (size 3 to 8) (size 9 to 14) (size 15 to 20)
#    0.000    2.667    0.000    1.750    4.667    2.667 
#    0.000    4.583    0.000    1.000    0.000    0.000 
#    0.000    0.000    0.000    0.000    0.000    0.000 
#
# Total GULP energy -297631.122572 kJ/mol
# GULP energy per Si atom -12401.296774 kJ/mol
# Density = 1.860085 g / cm^3
# Si number density = 18.643287 Si / 1000 Ang^3
#
#
#
# Elastic Constant Matrix: (Units=GPa)
#
#
# Indices 1 2 3 4 5 6 
#
# 1 52.7493 44.9463 42.4291 0.0000 0.0000 0.0000
# 2 44.9463 148.2369 113.5580 0.0000 0.0000 0.0000
# 3 42.4291 113.5580 171.5004 0.0000 0.0000 0.0000
# 4 0.0000 0.0000 0.0000 34.8873 0.0000 0.0000
# 5 0.0000 0.0000 0.0000 0.0000 23.3091 0.0000
# 6 0.0000 0.0000 0.0000 0.0000 0.0000 28.1752
#
#
#
# Elastic Compliance Matrix: (Units=1/GPa)
#
#
# Indices 1 2 3 4 5 6 
#
# 1 0.026066 -0.006014 -0.002467 0.000000 0.000000 0.000000
# 2 -0.006014 0.015078 -0.008496 0.000000 0.000000 0.000000
# 3 -0.002467 -0.008496 0.012067 0.000000 0.000000 0.000000
# 4 0.000000 0.000000 0.000000 0.028664 0.000000 0.000000
# 5 0.000000 0.000000 0.000000 0.000000 0.042902 0.000000
# 6 0.000000 0.000000 0.000000 0.000000 0.000000 0.035492
#
#
# Mechanical properties :
#
#
# Convention : Reuss Voigt Hill
#
# Bulk Modulus (GPa) = 51.92741 86.03926 68.98333
# Shear Modulus (GPa) = 24.92035 28.71118 26.81577
#
# Velocity S-wave (km/s) = 3.66005 3.92858 3.79669
# Velocity P-wave (km/s) = 6.76571 8.17488 7.50345
#
# Compressibility (1/GPa) = 0.01925765
#
# Stress axis : x y z
#
# Youngs Moduli (GPa) = 38.36445 66.32373 82.87343
#
# Poissons Ratio (x) = 0.39884 0.20443
# Poissons Ratio (y) = 0.23071 0.70407
# Poissons Ratio (z) = 0.09464 0.56347
#
# Static dielectric constant tensor:
#      x y z
#    x 3.100060 0.000000 0.000000 
#    y 0.000000 3.547490 0.000000 
#    z 0.000000 0.000000 3.682870 
# 
# 
# High freq. dielectric constant tensor:
#      x y z
#    x 1.693680 0.000000 0.000000 
#    y 0.000000 1.731880 0.000000 
#    z 0.000000 0.000000 1.735290 
# 
# From -- ./inp_files/12142.got.cif
#   From: 2010.03.12/outbox.cif.g09.slc.cpg/sg38_7_cif.got.tgz:12142.got - 2010.04.14 02:38:36.
