data_PCOD8179493
_publ_section_title
;
Structure prediction by ZEFSAII (Michael W. Deem and Ramdas Pophale) SiO2 
 PCOD8179493
Probable space group: A M M 2
;
_chemical_formula_sum "Si O2"
_cell_formula_units_Z 48
_cell_length_a 9.099964
_cell_length_b 7.837498
_cell_length_c 33.905888
_cell_angle_alpha 90.000000
_cell_angle_beta 90.000000
_cell_angle_gamma 90.000000
_cell_volume 2418.200131
_symmetry_space_group_name_H-M "A M M 2"
_symmetry_group_IT_number 38
_symmetry_cell_setting 'orthorhombic'
loop_
_space_group_symop_operation_xyz
x,y,z
-x,-y,z
-x,y,z
x,-y,z
x,1/2+y,1/2+z
-x,1/2-y,1/2+z
-x,1/2+y,1/2+z
x,1/2-y,1/2+z
loop_
_atom_site_type_symbol
_atom_site_label
_atom_site_fract_x
_atom_site_fract_y
_atom_site_fract_z
Si Si1 0.326079 0.500000 0.477410
Si Si2 0.665505 0.193926 0.188916
Si Si3 0.165729 0.693257 0.262840
Si Si4 0.168132 0.198912 0.613528
Si Si5 0.330824 0.310104 0.836560
Si Si6 0.328084 0.305248 0.032738
Si Si7 0.674870 0.500000 0.389457
O O1 0.500000 0.500000 0.474561
O O2 0.274122 0.672942 0.499322
O O3 0.257650 0.500000 0.433476
O O4 0.500000 0.266150 0.184919
O O5 0.752726 0.302390 0.221065
O O6 0.744583 0.200965 0.146908
O O7 0.663064 0.000000 0.203564
O O8 0.167475 0.500000 0.278234
O O9 0.244606 0.807597 0.295481
O O10 0.000000 0.760409 0.256951
O O11 0.239837 0.243135 0.571786
O O12 0.000000 0.260860 0.612898
O O13 0.180025 0.000000 0.622992
O O14 0.500000 0.269171 0.826875
O O15 0.313177 0.500000 0.854952
O O16 0.268483 0.170440 0.867244
O O17 0.500000 0.282435 0.041868
O O18 0.294108 0.500000 0.019075
O O19 0.500000 0.500000 0.391613
#
# Coordination Sequence:
#
# PCOD8179493 Si02
#       7
#     4   8   8   8   8   8   4
#     4   9  18  32  55  85 115 147 189 237 287 343
#     4  11  24  38  54  80 112 146 187 234 282 335
#     4  11  23  38  57  81 111 148 190 234 284 339
#     4  10  21  37  56  79 109 145 187 233 283 337
#     4  10  20  35  58  85 113 150 192 232 283 343
#     4   9  18  33  54  80 111 148 189 235 285 337
#     4   9  18  34  55  85 119 147 185 243 293 335
#
# _framework density 19.849475000000002
#
# number of rings (size 3 to 8) (size 9 to 14) (size 15 to 20)
#    0.000    2.000    0.833    2.500    1.167    8.333 
#    0.000    3.333    0.000    2.000    0.000    2.333 
#    0.000    0.000    0.000    0.000    0.000    0.000 
#
# Total GULP energy -297649.267600 kJ/mol
# GULP energy per Si atom -12402.052817 kJ/mol
# Density = 1.980430 g / cm^3
# Si number density = 19.849475 Si / 1000 Ang^3
#
#
#
# Elastic Constant Matrix: (Units=GPa)
#
#
# Indices 1 2 3 4 5 6 
#
# 1 102.0203 33.3867 55.3302 0.0000 0.0000 0.0000
# 2 33.3867 107.1086 59.4867 0.0000 0.0000 0.0000
# 3 55.3302 59.4867 144.0069 0.0000 0.0000 0.0000
# 4 0.0000 0.0000 0.0000 29.7086 0.0000 0.0000
# 5 0.0000 0.0000 0.0000 0.0000 -2.2563 0.0000
# 6 0.0000 0.0000 0.0000 0.0000 0.0000 15.9968
#
#
#
# Elastic Compliance Matrix: (Units=1/GPa)
#
#
# Indices 1 2 3 4 5 6 
#
# 1 0.012592 -0.001607 -0.004174 0.000000 0.000000 0.000000
# 2 -0.001607 0.012321 -0.004472 0.000000 0.000000 0.000000
# 3 -0.004174 -0.004472 0.010395 0.000000 0.000000 0.000000
# 4 0.000000 0.000000 0.000000 0.033660 0.000000 0.000000
# 5 0.000000 0.000000 0.000000 0.000000 -0.443198 0.000000
# 6 0.000000 0.000000 0.000000 0.000000 0.000000 0.062513
#
#
# Mechanical properties :
#
#
# Convention : Reuss Voigt Hill
#
# Bulk Modulus (GPa) = 67.56007 72.17145 69.86576
# Shear Modulus (GPa) = -17.46560 22.35195 2.44318
#
# Velocity S-wave (km/s) = -2.96953 3.35934 1.11064
# Velocity P-wave (km/s) = 4.72785 7.17532 6.07609
#
# Compressibility (1/GPa) = 0.01480164
#
# Stress axis : x y z
#
# Youngs Moduli (GPa) = 79.41771 81.16248 96.19652
#
# Poissons Ratio (x) = 0.13039 0.40155
# Poissons Ratio (y) = 0.12759 0.43022
# Poissons Ratio (z) = 0.33151 0.36298
#
# Static dielectric constant tensor:
#      x y z
#    x 3.502390 0.000000 0.000000 
#    y 0.000000 3.665060 0.000000 
#    z 0.000000 0.000000 3.560340 
# 
# 
# High freq. dielectric constant tensor:
#      x y z
#    x 1.756240 0.000000 0.000000 
#    y 0.000000 1.783390 0.000000 
#    z 0.000000 0.000000 1.765960 
# 
# From -- ./inp_files/24360.got.cif
#   From: 2010.03.12/outbox.cif.g09.slc.cpg/sg38_13_cif.got.tgz:24360.got - 2010.04.14 02:38:36.
