data_PCOD8179011
_publ_section_title
;
Structure prediction by ZEFSAII (Michael W. Deem and Ramdas Pophale) SiO2 
 PCOD8179011
Probable space group: A M M 2
;
_chemical_formula_sum "Si O2"
_cell_formula_units_Z 56
_cell_length_a 8.761800
_cell_length_b 20.340726
_cell_length_c 15.809623
_cell_angle_alpha 90.000000
_cell_angle_beta 90.000000
_cell_angle_gamma 90.000000
_cell_volume 2817.612719
_symmetry_space_group_name_H-M "A M M 2"
_symmetry_group_IT_number 38
_symmetry_cell_setting 'orthorhombic'
loop_
_space_group_symop_operation_xyz
x,y,z
-x,-y,z
-x,y,z
x,-y,z
x,1/2+y,1/2+z
-x,1/2-y,1/2+z
-x,1/2+y,1/2+z
x,1/2-y,1/2+z
loop_
_atom_site_type_symbol
_atom_site_label
_atom_site_fract_x
_atom_site_fract_y
_atom_site_fract_z
Si Si1 0.821610 0.382573 0.977930
Si Si2 0.333657 0.071982 0.331766
Si Si3 0.678301 0.248236 0.417938
Si Si4 0.819318 0.293097 0.242772
Si Si5 0.680000 0.698556 0.598848
Si Si6 0.819630 0.426381 0.160534
Si Si7 0.178491 0.076370 0.166975
O O1 0.774646 0.439983 0.913925
O O2 0.724044 0.326963 0.929515
O O3 0.000000 0.365615 0.980141
O O4 0.757724 0.401253 0.069785
O O5 0.500000 0.107071 0.346778
O O6 0.236967 0.105628 0.256837
O O7 0.369044 0.000000 0.296987
O O8 0.500000 0.257459 0.402628
O O9 0.762996 0.277247 0.336484
O O10 0.732925 0.281119 0.505161
O O11 0.752723 0.246212 0.169668
O O12 0.771482 0.369983 0.226999
O O13 0.000000 0.285411 0.238099
O O14 0.500000 0.703048 0.610790
O O15 0.736256 0.623216 0.600747
O O16 0.753586 0.500000 0.182371
O O17 0.000000 0.432835 0.153578
O O18 0.000000 0.088842 0.161967
O O19 0.217027 0.000000 0.148469
#
# Coordination Sequence:
#
# PCOD8179011 Si02
#       7
#     8   8   8   8   8   8   8
#     4  11  20  34  57  85 116 150 195 249 303 361
#     4  10  20  33  50  77 115 154 190 229 284 354
#     4  11  24  40  59  85 119 157 201 249 303 365
#     4  11  22  39  64  91 122 160 206 257 307 368
#     4  11  23  40  62  86 119 158 198 249 303 364
#     4   9  19  36  59  88 121 157 199 253 313 367
#     4  10  21  37  58  84 114 150 195 246 300 358
#
# _framework density 19.874981999999999
#
# number of rings (size 3 to 8) (size 9 to 14) (size 15 to 20)
#    0.000    1.571    1.429    3.857    0.000    4.000 
#    0.000    0.714    0.000    6.857    0.000    0.000 
#    0.000    0.000    0.000    0.000    0.000    0.000 
#
# Total GULP energy -346885.511909 kJ/mol
# GULP energy per Si atom -12388.768282 kJ/mol
# Density = 1.982975 g / cm^3
# Si number density = 19.874982 Si / 1000 Ang^3
#
#
#
# Elastic Constant Matrix: (Units=GPa)
#
#
# Indices 1 2 3 4 5 6 
#
# 1 74.3954 34.5724 47.0737 0.0000 0.0000 0.0000
# 2 34.5724 119.9480 64.7753 0.0000 0.0000 0.0000
# 3 47.0737 64.7753 134.8251 0.0000 0.0000 0.0000
# 4 0.0000 0.0000 0.0000 30.2680 0.0000 0.0000
# 5 0.0000 0.0000 0.0000 0.0000 19.9339 0.0000
# 6 0.0000 0.0000 0.0000 0.0000 0.0000 22.4959
#
#
#
# Elastic Compliance Matrix: (Units=1/GPa)
#
#
# Indices 1 2 3 4 5 6 
#
# 1 0.017746 -0.002389 -0.005048 0.000000 0.000000 0.000000
# 2 -0.002389 0.011579 -0.004729 0.000000 0.000000 0.000000
# 3 -0.005048 -0.004729 0.011452 0.000000 0.000000 0.000000
# 4 0.000000 0.000000 0.000000 0.033038 0.000000 0.000000
# 5 0.000000 0.000000 0.000000 0.000000 0.050166 0.000000
# 6 0.000000 0.000000 0.000000 0.000000 0.000000 0.044452
#
#
# Mechanical properties :
#
#
# Convention : Reuss Voigt Hill
#
# Bulk Modulus (GPa) = 60.80982 69.11237 64.96110
# Shear Modulus (GPa) = 25.22099 26.72271 25.97185
#
# Velocity S-wave (km/s) = 3.56614 3.67078 3.61884
# Velocity P-wave (km/s) = 6.90066 7.26740 7.08640
#
# Compressibility (1/GPa) = 0.01644471
#
# Stress axis : x y z
#
# Youngs Moduli (GPa) = 56.35045 86.36097 87.32305
#
# Poissons Ratio (x) = 0.20629 0.44084
# Poissons Ratio (y) = 0.13460 0.41297
# Poissons Ratio (z) = 0.28448 0.40842
#
# Static dielectric constant tensor:
#      x y z
#    x 3.634250 0.000000 0.000000 
#    y 0.000000 3.837610 0.000000 
#    z 0.000000 0.000000 3.641390 
# 
# 
# High freq. dielectric constant tensor:
#      x y z
#    x 1.774290 0.000000 0.000000 
#    y 0.000000 1.782760 0.000000 
#    z 0.000000 0.000000 1.767570 
# 
# From -- ./inp_files/12351.got.cif
#   From: 2010.03.12/outbox.cif.g09.slc.cpg/sg38_7_cif.got.tgz:12351.got - 2010.04.14 02:38:36.
