data_PCOD8179838
_publ_section_title
;
Structure prediction by ZEFSAII (Michael W. Deem and Ramdas Pophale) SiO2 
 PCOD8179838
Probable space group: A M M 2
;
_chemical_formula_sum "Si O2"
_cell_formula_units_Z 64
_cell_length_a 9.211011
_cell_length_b 27.926387
_cell_length_c 14.511579
_cell_angle_alpha 90.000000
_cell_angle_beta 90.000000
_cell_angle_gamma 90.000000
_cell_volume 3732.817208
_symmetry_space_group_name_H-M "A M M 2"
_symmetry_group_IT_number 38
_symmetry_cell_setting 'orthorhombic'
loop_
_space_group_symop_operation_xyz
x,y,z
-x,-y,z
-x,y,z
x,-y,z
x,1/2+y,1/2+z
-x,1/2-y,1/2+z
-x,1/2+y,1/2+z
x,1/2-y,1/2+z
loop_
_atom_site_type_symbol
_atom_site_label
_atom_site_fract_x
_atom_site_fract_y
_atom_site_fract_z
Si Si1 0.830761 0.944696 0.296360
Si Si2 0.828333 0.863344 0.628796
Si Si3 0.667617 0.362399 0.695993
Si Si4 0.172804 0.947278 0.504372
Si Si5 0.166696 0.275422 0.013138
Si Si6 0.667578 0.678397 0.501707
Si Si7 0.830176 0.827238 0.821106
Si Si8 0.835511 0.717947 0.803242
O O1 0.743908 0.911221 0.226691
O O2 0.780197 0.933030 0.400793
O O3 0.000000 0.933271 0.284729
O O4 0.797976 0.000000 0.272440
O O5 0.761357 0.910066 0.578764
O O6 0.767820 0.815612 0.580457
O O7 0.788614 0.862723 0.737099
O O8 0.000000 0.863514 0.614623
O O9 0.500000 0.365179 0.723458
O O10 0.687996 0.358328 0.585919
O O11 0.731831 0.315467 0.744263
O O12 0.000000 0.948289 0.508490
O O13 0.233686 0.000000 0.529104
O O14 0.260329 0.228402 0.029034
O O15 0.000000 0.262499 0.036675
O O16 0.178524 0.296130 0.910148
O O17 0.500000 0.687717 0.479579
O O18 0.742294 0.655973 0.410899
O O19 0.788656 0.773270 0.791030
O O20 0.000000 0.829276 0.845759
O O21 0.000000 0.710314 0.768425
#
# Coordination Sequence:
#
# PCOD8179838 Si02
#       8
#     8   8   8   8   8   8   8   8
#     4   9  18  33  53  75  97 122 152 187 230 279
#     4   9  15  25  45  70  93 119 153 188 224 272
#     4  11  22  32  46  69  95 126 160 192 233 282
#     4   8  14  26  46  73 101 122 141 175 227 280
#     4   9  17  30  48  69  94 124 156 191 232 277
#     4  10  21  34  45  62  92 127 161 195 232 274
#     4   9  18  31  47  67  90 122 162 198 232 268
#     4   9  17  29  46  68  94 124 157 192 230 274
#
# _framework density 17.145226999999998
#
# number of rings (size 3 to 8) (size 9 to 14) (size 15 to 20)
#    0.000    2.750    0.000    3.750    0.000    7.250 
#    0.000    0.625    0.000    1.500    0.000    1.750 
#    0.000    0.000    0.000    0.000    0.000    0.000 
#
# Total GULP energy -396726.742208 kJ/mol
# GULP energy per Si atom -12397.710694 kJ/mol
# Density = 1.710620 g / cm^3
# Si number density = 17.145227 Si / 1000 Ang^3
#
#
#
# Elastic Constant Matrix: (Units=GPa)
#
#
# Indices 1 2 3 4 5 6 
#
# 1 69.9160 43.2329 49.9701 0.0000 0.0000 0.0000
# 2 43.2329 87.5189 70.4638 0.0000 0.0000 0.0000
# 3 49.9701 70.4638 112.7686 0.0000 0.0000 0.0000
# 4 0.0000 0.0000 0.0000 29.7159 0.0000 0.0000
# 5 0.0000 0.0000 0.0000 0.0000 20.4579 0.0000
# 6 0.0000 0.0000 0.0000 0.0000 0.0000 8.9610
#
#
#
# Elastic Compliance Matrix: (Units=1/GPa)
#
#
# Indices 1 2 3 4 5 6 
#
# 1 0.022494 -0.006211 -0.006086 0.000000 0.000000 0.000000
# 2 -0.006211 0.024709 -0.012687 0.000000 0.000000 0.000000
# 3 -0.006086 -0.012687 0.019492 0.000000 0.000000 0.000000
# 4 0.000000 0.000000 0.000000 0.033652 0.000000 0.000000
# 5 0.000000 0.000000 0.000000 0.000000 0.048881 0.000000
# 6 0.000000 0.000000 0.000000 0.000000 0.000000 0.111594
#
#
# Mechanical properties :
#
#
# Convention : Reuss Voigt Hill
#
# Bulk Modulus (GPa) = 59.78872 66.39300 63.09086
# Shear Modulus (GPa) = 15.80444 18.92943 17.36693
#
# Velocity S-wave (km/s) = 3.03941 3.32635 3.18611
# Velocity P-wave (km/s) = 6.87495 7.31852 7.10020
#
# Compressibility (1/GPa) = 0.01672556
#
# Stress axis : x y z
#
# Youngs Moduli (GPa) = 44.45714 40.47068 51.30217
#
# Poissons Ratio (x) = 0.25137 0.31224
# Poissons Ratio (y) = 0.27613 0.65089
# Poissons Ratio (z) = 0.27058 0.51346
#
# Static dielectric constant tensor:
#      x y z
#    x 2.941290 0.000000 0.000000 
#    y 0.000000 3.187820 0.000000 
#    z 0.000000 0.000000 3.313780 
# 
# 
# High freq. dielectric constant tensor:
#      x y z
#    x 1.632700 0.000000 0.000000 
#    y 0.000000 1.643800 0.000000 
#    z 0.000000 0.000000 1.665440 
# 
# From -- ./inp_files/13082.got.cif
#   From: 2010.03.12/outbox.cif.g09.slc.cpg/sg38_7_cif.got.tgz:13082.got - 2010.04.14 02:38:36.
