data_PCOD8179109
_publ_section_title
;
Structure prediction by ZEFSAII (Michael W. Deem and Ramdas Pophale) SiO2 
 PCOD8179109
Probable space group: A M M 2
;
_chemical_formula_sum "Si O2"
_cell_formula_units_Z 64
_cell_length_a 13.877417
_cell_length_b 9.374071
_cell_length_c 25.961749
_cell_angle_alpha 90.000000
_cell_angle_beta 90.000000
_cell_angle_gamma 90.000000
_cell_volume 3377.309207
_symmetry_space_group_name_H-M "A M M 2"
_symmetry_group_IT_number 38
_symmetry_cell_setting 'orthorhombic'
loop_
_space_group_symop_operation_xyz
x,y,z
-x,-y,z
-x,y,z
x,-y,z
x,1/2+y,1/2+z
-x,1/2-y,1/2+z
-x,1/2+y,1/2+z
x,1/2-y,1/2+z
loop_
_atom_site_type_symbol
_atom_site_label
_atom_site_fract_x
_atom_site_fract_y
_atom_site_fract_z
Si Si1 0.608329 0.330573 0.600680
Si Si2 0.887302 0.833965 0.747660
Si Si3 0.890008 0.332155 0.960435
Si Si4 0.271043 0.167553 0.198581
Si Si5 0.609474 0.333992 0.799326
Si Si6 0.387642 0.335180 0.396663
Si Si7 0.279881 0.168158 0.999927
Si Si8 0.886149 0.657274 0.845467
O O1 0.500000 0.267018 0.603656
O O2 0.601940 0.500000 0.601475
O O3 0.670672 0.276809 0.649067
O O4 0.659275 0.276951 0.548666
O O5 0.829380 0.754040 0.702193
O O6 0.852453 0.769003 0.802386
O O7 0.000000 0.806946 0.737924
O O8 0.861919 0.000000 0.747899
O O9 0.878120 0.500000 0.969203
O O10 0.856050 0.290366 0.902414
O O11 0.000000 0.285029 0.970334
O O12 0.823365 0.246412 0.000291
O O13 0.333705 0.207093 0.248241
O O14 0.248201 0.000000 0.194744
O O15 0.500000 0.282989 0.790695
O O16 0.614642 0.500000 0.811256
O O17 0.655491 0.253901 0.848637
O O18 0.500000 0.302063 0.403533
O O19 0.368065 0.500000 0.385155
O O20 0.337556 0.286050 0.449137
O O21 0.262025 0.000000 0.002921
O O22 0.841508 0.500000 0.832880
O O23 0.000000 0.641670 0.845437
#
# Coordination Sequence:
#
# PCOD8179109 Si02
#       8
#     8   8   8   8   8   8   8   8
#     4   9  18  36  61  84 106 136 179 229 273 317
#     4  10  21  35  51  75 109 145 179 218 267 320
#     4   9  19  35  53  75 107 146 183 219 265 319
#     4  10  20  34  56  81 103 136 182 225 268 315
#     4   9  18  32  50  75 105 134 168 212 262 317
#     4   9  18  32  49  73 107 141 169 203 258 325
#     4  10  20  33  54  82 107 137 180 224 268 316
#     4   8  15  30  51  73 100 138 181 220 258 306
#
# _framework density 18.949997
#
# number of rings (size 3 to 8) (size 9 to 14) (size 15 to 20)
#    0.000    2.750    0.000    1.875    1.750    5.500 
#    0.000    2.500    0.000    6.750    0.000    0.000 
#    0.000    0.000    0.000    0.000    0.000    0.000 
#
# Total GULP energy -396795.837244 kJ/mol
# GULP energy per Si atom -12399.869914 kJ/mol
# Density = 1.890687 g / cm^3
# Si number density = 18.949997 Si / 1000 Ang^3
#
#
#
# Elastic Constant Matrix: (Units=GPa)
#
#
# Indices 1 2 3 4 5 6 
#
# 1 100.5051 45.5165 69.3782 0.0000 0.0000 0.0000
# 2 45.5165 56.0206 50.1479 0.0000 0.0000 0.0000
# 3 69.3782 50.1479 136.8550 0.0000 0.0000 0.0000
# 4 0.0000 0.0000 0.0000 23.3078 0.0000 0.0000
# 5 0.0000 0.0000 0.0000 0.0000 35.3769 0.0000
# 6 0.0000 0.0000 0.0000 0.0000 0.0000 26.9456
#
#
#
# Elastic Compliance Matrix: (Units=1/GPa)
#
#
# Indices 1 2 3 4 5 6 
#
# 1 0.018312 -0.009775 -0.005702 0.000000 0.000000 0.000000
# 2 -0.009775 0.031782 -0.006690 0.000000 0.000000 0.000000
# 3 -0.005702 -0.006690 0.012649 0.000000 0.000000 0.000000
# 4 0.000000 0.000000 0.000000 0.042904 0.000000 0.000000
# 5 0.000000 0.000000 0.000000 0.000000 0.028267 0.000000
# 6 0.000000 0.000000 0.000000 0.000000 0.000000 0.037112
#
#
# Mechanical properties :
#
#
# Convention : Reuss Voigt Hill
#
# Bulk Modulus (GPa) = 54.32047 69.27400 61.79724
# Shear Modulus (GPa) = 22.57376 25.68194 24.12785
#
# Velocity S-wave (km/s) = 3.45516 3.68536 3.57212
# Velocity P-wave (km/s) = 6.68168 7.39897 7.04946
#
# Compressibility (1/GPa) = 0.01840926
#
# Stress axis : x y z
#
# Youngs Moduli (GPa) = 54.60798 31.46462 79.05765
#
# Poissons Ratio (x) = 0.30756 0.45075
# Poissons Ratio (y) = 0.53378 0.52893
# Poissons Ratio (z) = 0.31135 0.21051
#
# Static dielectric constant tensor:
#      x y z
#    x 3.565860 0.000000 0.000000 
#    y 0.000000 3.219060 0.000000 
#    z 0.000000 0.000000 3.507150 
# 
# 
# High freq. dielectric constant tensor:
#      x y z
#    x 1.747310 0.000000 0.000000 
#    y 0.000000 1.711460 0.000000 
#    z 0.000000 0.000000 1.723920 
# 
# From -- ./inp_files/22913.got.cif
#   From: 2010.03.12/outbox.cif.g09.slc.cpg/sg38_12_cif.got.tgz:22913.got - 2010.04.14 02:38:36.
