data_PCOD8179976
_publ_section_title
;
Structure prediction by ZEFSAII (Michael W. Deem and Ramdas Pophale) SiO2 
 PCOD8179976
Probable space group: A M M 2
;
_chemical_formula_sum "Si O2"
_cell_formula_units_Z 64
_cell_length_a 19.564219
_cell_length_b 8.944124
_cell_length_c 19.818891
_cell_angle_alpha 90.000000
_cell_angle_beta 90.000000
_cell_angle_gamma 90.000000
_cell_volume 3468.004692
_symmetry_space_group_name_H-M "A M M 2"
_symmetry_group_IT_number 38
_symmetry_cell_setting 'orthorhombic'
loop_
_space_group_symop_operation_xyz
x,y,z
-x,-y,z
-x,y,z
x,-y,z
x,1/2+y,1/2+z
-x,1/2-y,1/2+z
-x,1/2+y,1/2+z
x,1/2-y,1/2+z
loop_
_atom_site_type_symbol
_atom_site_label
_atom_site_fract_x
_atom_site_fract_y
_atom_site_fract_z
Si Si1 0.079295 0.328926 0.451930
Si Si2 0.920879 0.171001 0.796427
Si Si3 0.321604 0.826855 0.043581
Si Si4 0.820656 0.824036 0.551596
Si Si5 0.420112 0.326698 0.940776
Si Si6 0.329092 0.670022 0.699198
Si Si7 0.826443 0.173780 0.191593
Si Si8 0.578447 0.826556 0.803769
O O1 0.098814 0.500000 0.468858
O O2 0.095542 0.293845 0.374072
O O3 0.122174 0.216154 0.497143
O O4 0.000000 0.300803 0.467226
O O5 0.876921 0.281716 0.751150
O O6 0.000000 0.200888 0.780749
O O7 0.901883 0.000000 0.779431
O O8 0.250753 0.745313 0.027479
O O9 0.343581 0.802862 0.120647
O O10 0.311020 0.000000 0.026638
O O11 0.381825 0.760860 0.999113
O O12 0.844528 0.763852 0.624146
O O13 0.812182 0.000000 0.556012
O O14 0.500000 0.296308 0.951145
O O15 0.401382 0.500000 0.945046
O O16 0.395995 0.266107 0.868316
O O17 0.346570 0.500000 0.719693
O O18 0.250491 0.708165 0.715670
O O19 0.376726 0.782634 0.739672
O O20 0.834740 0.000000 0.174098
O O21 0.500000 0.788639 0.786741
O O22 0.588598 0.000000 0.819988
#
# Coordination Sequence:
#
# PCOD8179976 Si02
#       8
#     8   8   8   8   8   8   8   8
#     4   9  19  37  58  79 108 145 182 222 269 321
#     4   9  19  36  57  81 108 139 177 220 266 317
#     4  10  21  38  58  80 109 143 180 222 268 322
#     4  11  22  36  56  81 110 142 179 225 271 318
#     4  10  21  37  57  81 110 143 180 223 268 315
#     4   9  20  37  55  77 106 140 178 220 265 315
#     4  10  21  37  56  79 108 142 180 220 265 320
#     4  10  21  36  55  80 109 142 180 220 264 317
#
# _framework density 18.454415000000001
#
# number of rings (size 3 to 8) (size 9 to 14) (size 15 to 20)
#    0.000    2.250    0.000    4.125    0.000    7.500 
#    0.000    6.250    0.000    0.000    0.000    0.000 
#    0.000    0.000    0.000    0.000    0.000    0.000 
#
# Total GULP energy -396937.282148 kJ/mol
# GULP energy per Si atom -12404.290067 kJ/mol
# Density = 1.841241 g / cm^3
# Si number density = 18.454415 Si / 1000 Ang^3
#
#
#
# Elastic Constant Matrix: (Units=GPa)
#
#
# Indices 1 2 3 4 5 6 
#
# 1 82.1976 58.2644 66.3162 0.0000 0.0000 0.0000
# 2 58.2644 123.5584 62.1533 0.0000 0.0000 0.0000
# 3 66.3162 62.1533 97.3233 0.0000 0.0000 0.0000
# 4 0.0000 0.0000 0.0000 37.7908 0.0000 0.0000
# 5 0.0000 0.0000 0.0000 0.0000 41.1797 0.0000
# 6 0.0000 0.0000 0.0000 0.0000 0.0000 35.3111
#
#
#
# Elastic Compliance Matrix: (Units=1/GPa)
#
#
# Indices 1 2 3 4 5 6 
#
# 1 0.029420 -0.005582 -0.016482 0.000000 0.000000 0.000000
# 2 -0.005582 0.012983 -0.004488 0.000000 0.000000 0.000000
# 3 -0.016482 -0.004488 0.024372 0.000000 0.000000 0.000000
# 4 0.000000 0.000000 0.000000 0.026461 0.000000 0.000000
# 5 0.000000 0.000000 0.000000 0.000000 0.024284 0.000000
# 6 0.000000 0.000000 0.000000 0.000000 0.000000 0.028320
#
#
# Mechanical properties :
#
#
# Convention : Reuss Voigt Hill
#
# Bulk Modulus (GPa) = 73.14550 75.17189 74.15869
# Shear Modulus (GPa) = 24.56995 30.61267 27.59131
#
# Velocity S-wave (km/s) = 3.65278 4.07729 3.87086
# Velocity P-wave (km/s) = 7.58368 7.93650 7.76209
#
# Compressibility (1/GPa) = 0.01367138
#
# Stress axis : x y z
#
# Youngs Moduli (GPa) = 33.99028 77.02346 41.03124
#
# Poissons Ratio (x) = 0.42997 0.67627
# Poissons Ratio (y) = 0.18974 0.18413
# Poissons Ratio (z) = 0.56022 0.34565
#
# Static dielectric constant tensor:
#      x y z
#    x 3.343480 0.000000 0.000000 
#    y 0.000000 3.401630 0.000000 
#    z 0.000000 0.000000 3.336570 
# 
# 
# High freq. dielectric constant tensor:
#      x y z
#    x 1.715140 0.000000 0.000000 
#    y 0.000000 1.724080 0.000000 
#    z 0.000000 0.000000 1.718440 
# 
# From -- ./inp_files/18949.got.cif
#   From: 2010.03.12/outbox.cif.g09.slc.cpg/sg38_10_cif.got.tgz:18949.got - 2010.04.14 02:38:36.
