data_PCOD8179407
_publ_section_title
;
Structure prediction by ZEFSAII (Michael W. Deem and Ramdas Pophale) SiO2 
 PCOD8179407
Probable space group: A M M 2
;
_chemical_formula_sum "Si O2"
_cell_formula_units_Z 64
_cell_length_a 24.479818
_cell_length_b 8.791836
_cell_length_c 14.914946
_cell_angle_alpha 90.000000
_cell_angle_beta 90.000000
_cell_angle_gamma 90.000000
_cell_volume 3210.032639
_symmetry_space_group_name_H-M "A M M 2"
_symmetry_group_IT_number 38
_symmetry_cell_setting 'orthorhombic'
loop_
_space_group_symop_operation_xyz
x,y,z
-x,-y,z
-x,y,z
x,-y,z
x,1/2+y,1/2+z
-x,1/2-y,1/2+z
-x,1/2+y,1/2+z
x,1/2-y,1/2+z
loop_
_atom_site_type_symbol
_atom_site_label
_atom_site_fract_x
_atom_site_fract_y
_atom_site_fract_z
Si Si1 0.359692 0.824229 0.288350
Si Si2 0.133519 0.680194 0.257376
Si Si3 0.062784 0.678620 0.900376
Si Si4 0.562239 0.320674 0.940610
Si Si5 0.858819 0.820798 0.554465
Si Si6 0.369124 0.320660 0.586675
Si Si7 0.241250 0.176859 0.258224
Si Si8 0.739862 0.176594 0.571168
O O1 0.399969 0.749177 0.361505
O O2 0.369768 0.755910 0.188692
O O3 0.296043 0.803148 0.318753
O O4 0.375198 0.000000 0.283065
O O5 0.140699 0.500000 0.262860
O O6 0.079820 0.733170 0.310259
O O7 0.128548 0.740607 0.154794
O O8 0.185827 0.763621 0.305289
O O9 0.073146 0.500000 0.886552
O O10 0.000000 0.714518 0.920875
O O11 0.097868 0.745801 0.983616
O O12 0.500000 0.276945 0.919320
O O13 0.570389 0.500000 0.949354
O O14 0.579138 0.246711 0.034857
O O15 0.796913 0.779356 0.521653
O O16 0.865623 0.000000 0.558856
O O17 0.372071 0.500000 0.585648
O O18 0.312784 0.269954 0.537001
O O19 0.249238 0.286925 0.174373
O O20 0.235984 0.000000 0.229375
O O21 0.726374 0.000000 0.558029
#
# Coordination Sequence:
#
# PCOD8179407 Si02
#       8
#     8   8   8   8   8   8   8   8
#     4   8  17  34  55  77 103 139 176 210 256 316
#     4  10  20  35  55  80 109 139 172 214 267 320
#     4  10  21  37  55  75 100 135 181 223 258 306
#     4  10  21  37  55  75 100 135 181 223 258 306
#     4   8  17  34  55  77 103 139 176 210 256 316
#     4  10  20  35  55  80 109 139 172 214 267 320
#     4   9  16  30  53  80 109 139 174 215 262 317
#     4   9  16  30  53  80 109 139 174 215 262 317
#
# _framework density 19.937493
#
# number of rings (size 3 to 8) (size 9 to 14) (size 15 to 20)
#    0.000    2.750    0.000    3.000    0.000    2.500 
#    0.000   15.000    0.000    0.000    0.000    0.000 
#    0.000    0.000    0.000    0.000    0.000    0.000 
#
# Total GULP energy -396578.362822 kJ/mol
# GULP energy per Si atom -12393.073838 kJ/mol
# Density = 1.989211 g / cm^3
# Si number density = 19.937493 Si / 1000 Ang^3
#
#
#
# Elastic Constant Matrix: (Units=GPa)
#
#
# Indices 1 2 3 4 5 6 
#
# 1 116.5475 36.0726 38.3325 0.0000 0.0000 0.0000
# 2 36.0726 39.7120 20.0321 0.0000 0.0000 0.0000
# 3 38.3325 20.0321 64.5133 0.0000 0.0000 0.0000
# 4 0.0000 0.0000 0.0000 21.8226 0.0000 0.0000
# 5 0.0000 0.0000 0.0000 0.0000 35.9485 0.0000
# 6 0.0000 0.0000 0.0000 0.0000 0.0000 29.0438
#
#
#
# Elastic Compliance Matrix: (Units=1/GPa)
#
#
# Indices 1 2 3 4 5 6 
#
# 1 0.013101 -0.009455 -0.004849 0.000000 0.000000 0.000000
# 2 -0.009455 0.036681 -0.005772 0.000000 0.000000 0.000000
# 3 -0.004849 -0.005772 0.020174 0.000000 0.000000 0.000000
# 4 0.000000 0.000000 0.000000 0.045824 0.000000 0.000000
# 5 0.000000 0.000000 0.000000 0.000000 0.027818 0.000000
# 6 0.000000 0.000000 0.000000 0.000000 0.000000 0.034431
#
#
# Mechanical properties :
#
#
# Convention : Reuss Voigt Hill
#
# Bulk Modulus (GPa) = 33.55102 45.51636 39.53369
# Shear Modulus (GPa) = 21.91874 25.78534 23.85204
#
# Velocity S-wave (km/s) = 3.31928 3.60016 3.46257
# Velocity P-wave (km/s) = 5.61736 6.33724 5.98813
#
# Compressibility (1/GPa) = 0.02980536
#
# Stress axis : x y z
#
# Youngs Moduli (GPa) = 76.32844 27.26187 49.56878
#
# Poissons Ratio (x) = 0.25775 0.24034
# Poissons Ratio (y) = 0.72167 0.28612
# Poissons Ratio (z) = 0.37009 0.15736
#
# Static dielectric constant tensor:
#      x y z
#    x 3.938020 0.000000 0.000000 
#    y 0.000000 3.331920 0.000000 
#    z 0.000000 0.000000 3.655660 
# 
# 
# High freq. dielectric constant tensor:
#      x y z
#    x 1.784740 0.000000 0.000000 
#    y 0.000000 1.750940 0.000000 
#    z 0.000000 0.000000 1.761910 
# 
# From -- ./inp_files/18848.got.cif
#   From: 2010.03.12/outbox.cif.g09.slc.cpg/sg38_10_cif.got.tgz:18848.got - 2010.04.14 02:38:36.
