data_PCOD8179962
_publ_section_title
;
Structure prediction by ZEFSAII (Michael W. Deem and Ramdas Pophale) SiO2 
 PCOD8179962
Probable space group: A M M 2
;
_chemical_formula_sum "Si O2"
_cell_formula_units_Z 64
_cell_length_a 19.661471
_cell_length_b 8.761241
_cell_length_c 20.109182
_cell_angle_alpha 90.000000
_cell_angle_beta 90.000000
_cell_angle_gamma 90.000000
_cell_volume 3463.985287
_symmetry_space_group_name_H-M "A M M 2"
_symmetry_group_IT_number 38
_symmetry_cell_setting 'orthorhombic'
loop_
_space_group_symop_operation_xyz
x,y,z
-x,-y,z
-x,y,z
x,-y,z
x,1/2+y,1/2+z
-x,1/2-y,1/2+z
-x,1/2+y,1/2+z
x,1/2-y,1/2+z
loop_
_atom_site_type_symbol
_atom_site_label
_atom_site_fract_x
_atom_site_fract_y
_atom_site_fract_z
Si Si1 0.705483 0.321763 0.960890
Si Si2 0.677373 0.678286 0.103812
Si Si3 0.820285 0.320800 0.635579
Si Si4 0.319962 0.318856 0.816708
Si Si5 0.148110 0.677747 0.004070
Si Si6 0.922394 0.176452 0.372088
Si Si7 0.820463 0.679293 0.271159
Si Si8 0.577223 0.679242 0.218088
O O1 0.710764 0.500000 0.949076
O O2 0.674793 0.253778 0.892618
O O3 0.781622 0.259336 0.972450
O O4 0.660101 0.283362 0.026288
O O5 0.696431 0.500000 0.111330
O O6 0.741712 0.775012 0.127089
O O7 0.612743 0.722973 0.148229
O O8 0.826770 0.500000 0.644349
O O9 0.865698 0.267724 0.572573
O O10 0.850131 0.240587 0.701422
O O11 0.317152 0.500000 0.813438
O O12 0.252456 0.255477 0.782595
O O13 0.386746 0.262267 0.779159
O O14 0.154318 0.500000 0.022255
O O15 0.089077 0.709670 0.950513
O O16 0.873610 0.281382 0.328723
O O17 0.000000 0.215886 0.354814
O O18 0.905053 0.000000 0.356950
O O19 0.809788 0.500000 0.267929
O O20 0.500000 0.737409 0.214012
O O21 0.581194 0.500000 0.230882
#
# Coordination Sequence:
#
# PCOD8179962 Si02
#       8
#     8   8   8   8   8   8   8   8
#     4   8  15  29  52  79 106 135 176 225 275 325
#     4   9  17  33  54  77 106 143 181 226 280 336
#     4  11  21  33  54  84 112 142 187 240 283 326
#     4  11  20  34  56  83 112 145 186 238 288 335
#     4   9  17  34  56  81 113 146 179 224 282 342
#     4  10  21  39  62  86 115 152 191 233 284 341
#     4  12  23  36  56  83 116 154 192 236 286 340
#     4  10  21  36  54  78 111 151 191 232 286 350
#
# _framework density 18.475829000000001
#
# number of rings (size 3 to 8) (size 9 to 14) (size 15 to 20)
#    0.000    2.000    2.500    3.375    0.000    1.000 
#    0.000    1.875    0.000    4.500    0.000    0.000 
#    0.000    0.000    0.000    0.000    0.000    0.000 
#
# Total GULP energy -396743.019604 kJ/mol
# GULP energy per Si atom -12398.219363 kJ/mol
# Density = 1.843378 g / cm^3
# Si number density = 18.475829 Si / 1000 Ang^3
#
#
#
# Elastic Constant Matrix: (Units=GPa)
#
#
# Indices 1 2 3 4 5 6 
#
# 1 63.7510 22.6596 24.9167 0.0000 0.0000 0.0000
# 2 22.6596 47.0613 24.1706 0.0000 0.0000 0.0000
# 3 24.9167 24.1706 119.5437 0.0000 0.0000 0.0000
# 4 0.0000 0.0000 0.0000 30.0974 0.0000 0.0000
# 5 0.0000 0.0000 0.0000 0.0000 26.1265 0.0000
# 6 0.0000 0.0000 0.0000 0.0000 0.0000 21.7977
#
#
#
# Elastic Compliance Matrix: (Units=1/GPa)
#
#
# Indices 1 2 3 4 5 6 
#
# 1 0.019533 -0.008162 -0.002421 0.000000 0.000000 0.000000
# 2 -0.008162 0.027121 -0.003783 0.000000 0.000000 0.000000
# 3 -0.002421 -0.003783 0.009635 0.000000 0.000000 0.000000
# 4 0.000000 0.000000 0.000000 0.033225 0.000000 0.000000
# 5 0.000000 0.000000 0.000000 0.000000 0.038275 0.000000
# 6 0.000000 0.000000 0.000000 0.000000 0.000000 0.045876
#
#
# Mechanical properties :
#
#
# Convention : Reuss Voigt Hill
#
# Bulk Modulus (GPa) = 36.28632 41.53887 38.91259
# Shear Modulus (GPa) = 23.63139 26.17827 24.90483
#
# Velocity S-wave (km/s) = 3.58025 3.76825 3.67545
# Velocity P-wave (km/s) = 6.06411 6.43930 6.25452
#
# Compressibility (1/GPa) = 0.02755859
#
# Stress axis : x y z
#
# Youngs Moduli (GPa) = 51.19475 36.87141 103.79284
#
# Poissons Ratio (x) = 0.30093 0.25130
# Poissons Ratio (y) = 0.41783 0.39260
# Poissons Ratio (z) = 0.12395 0.13947
#
# Static dielectric constant tensor:
#      x y z
#    x 3.175160 0.000000 0.000000 
#    y 0.000000 3.224460 0.000000 
#    z 0.000000 0.000000 3.866290 
# 
# 
# High freq. dielectric constant tensor:
#      x y z
#    x 1.681570 0.000000 0.000000 
#    y 0.000000 1.702200 0.000000 
#    z 0.000000 0.000000 1.738310 
# 
# From -- ./inp_files/21403.got.cif
#   From: 2010.03.12/outbox.cif.g09.slc.cpg/sg38_11_cif.got.tgz:21403.got - 2010.04.14 02:38:36.
