data_PCOD8179129
_publ_section_title
;
Structure prediction by ZEFSAII (Michael W. Deem and Ramdas Pophale) SiO2 
 PCOD8179129
Probable space group: A M M 2
;
_chemical_formula_sum "Si O2"
_cell_formula_units_Z 64
_cell_length_a 23.799127
_cell_length_b 9.361960
_cell_length_c 15.646543
_cell_angle_alpha 90.000000
_cell_angle_beta 90.000000
_cell_angle_gamma 90.000000
_cell_volume 3486.151092
_symmetry_space_group_name_H-M "A M M 2"
_symmetry_group_IT_number 38
_symmetry_cell_setting 'orthorhombic'
loop_
_space_group_symop_operation_xyz
x,y,z
-x,-y,z
-x,y,z
x,-y,z
x,1/2+y,1/2+z
-x,1/2-y,1/2+z
-x,1/2+y,1/2+z
x,1/2-y,1/2+z
loop_
_atom_site_type_symbol
_atom_site_label
_atom_site_fract_x
_atom_site_fract_y
_atom_site_fract_z
Si Si1 0.320533 0.335046 0.354170
Si Si2 0.742071 0.830196 0.502255
Si Si3 0.870323 0.669333 0.000420
Si Si4 0.438235 0.839168 0.924189
Si Si5 0.934682 0.166278 0.334091
Si Si6 0.561521 0.668511 0.093926
Si Si7 0.934599 0.833922 0.666607
Si Si8 0.324452 0.669397 0.166819
O O1 0.303684 0.500000 0.369567
O O2 0.290029 0.238356 0.423143
O O3 0.388263 0.315954 0.356564
O O4 0.302106 0.280800 0.259655
O O5 0.806252 0.778583 0.500443
O O6 0.715529 0.773225 0.591138
O O7 0.736880 0.000000 0.494116
O O8 0.875307 0.500000 0.001161
O O9 0.900681 0.727736 0.915285
O O10 0.900941 0.728184 0.085270
O O11 0.500000 0.813458 0.881320
O O12 0.435213 0.000000 0.961085
O O13 0.428486 0.730929 0.000656
O O14 0.914016 0.250072 0.250368
O O15 0.000000 0.194506 0.352318
O O16 0.922252 0.000000 0.318889
O O17 0.500000 0.714056 0.130253
O O18 0.565268 0.500000 0.083278
O O19 0.611566 0.725509 0.154175
O O20 0.000000 0.807081 0.648599
O O21 0.921520 0.000000 0.681858
O O22 0.324624 0.500000 0.165059
#
# Coordination Sequence:
#
# PCOD8179129 Si02
#       8
#     8   8   8   8   8   8   8   8
#     4  10  20  34  52  73  98 129 164 203 250 299
#     4  10  20  36  53  70  97 131 170 210 245 286
#     4   9  18  32  52  73  96 134 173 202 240 295
#     4   9  17  29  47  71  98 125 153 193 246 299
#     4   9  17  31  51  75 103 132 163 202 247 293
#     4   9  16  28  49  73  95 122 158 198 240 290
#     4   9  17  31  52  78 105 132 165 203 244 293
#     4   9  18  32  50  71  95 125 160 200 245 291
#
# _framework density 18.358357000000002
#
# number of rings (size 3 to 8) (size 9 to 14) (size 15 to 20)
#    0.000    2.750    1.250    0.375    0.000    3.000 
#    0.000    6.875    0.000    3.000    0.000    3.500 
#    0.000    0.000    0.000    0.000    0.000    0.000 
#
# Total GULP energy -396645.018251 kJ/mol
# GULP energy per Si atom -12395.156820 kJ/mol
# Density = 1.831657 g / cm^3
# Si number density = 18.358357 Si / 1000 Ang^3
#
#
#
# Elastic Constant Matrix: (Units=GPa)
#
#
# Indices 1 2 3 4 5 6 
#
# 1 115.6187 28.2179 83.1340 0.0000 0.0000 0.0000
# 2 28.2179 25.6203 33.0504 0.0000 0.0000 0.0000
# 3 83.1340 33.0504 165.0540 0.0000 0.0000 0.0000
# 4 0.0000 0.0000 0.0000 25.8206 0.0000 0.0000
# 5 0.0000 0.0000 0.0000 0.0000 13.6790 0.0000
# 6 0.0000 0.0000 0.0000 0.0000 0.0000 17.4908
#
#
#
# Elastic Compliance Matrix: (Units=1/GPa)
#
#
# Indices 1 2 3 4 5 6 
#
# 1 0.014993 -0.009129 -0.005723 0.000000 0.000000 0.000000
# 2 -0.009129 0.058185 -0.007053 0.000000 0.000000 0.000000
# 3 -0.005723 -0.007053 0.010354 0.000000 0.000000 0.000000
# 4 0.000000 0.000000 0.000000 0.038729 0.000000 0.000000
# 5 0.000000 0.000000 0.000000 0.000000 0.073104 0.000000
# 6 0.000000 0.000000 0.000000 0.000000 0.000000 0.057173
#
#
# Mechanical properties :
#
#
# Convention : Reuss Voigt Hill
#
# Bulk Modulus (GPa) = 25.17630 66.12195 45.64912
# Shear Modulus (GPa) = 16.15053 22.19080 19.17066
#
# Velocity S-wave (km/s) = 2.96925 3.48049 3.23499
# Velocity P-wave (km/s) = 5.04964 7.22823 6.23483
#
# Compressibility (1/GPa) = 0.03971990
#
# Stress axis : x y z
#
# Youngs Moduli (GPa) = 66.69994 17.18670 96.58550
#
# Poissons Ratio (x) = 0.15691 0.55279
# Poissons Ratio (y) = 0.60894 0.68117
# Poissons Ratio (z) = 0.38174 0.12121
#
# Static dielectric constant tensor:
#      x y z
#    x 3.604740 0.000000 0.000000 
#    y 0.000000 3.088140 0.000000 
#    z 0.000000 0.000000 3.501800 
# 
# 
# High freq. dielectric constant tensor:
#      x y z
#    x 1.717190 0.000000 0.000000 
#    y 0.000000 1.675510 0.000000 
#    z 0.000000 0.000000 1.711850 
# 
# From -- ./inp_files/15773.got.cif
#   From: 2010.03.12/outbox.cif.g09.slc.cpg/sg38_8_cif.got.tgz:15773.got - 2010.04.14 02:38:36.
