data_PCOD8179274
_publ_section_title
;
Structure prediction by ZEFSAII (Michael W. Deem and Ramdas Pophale) SiO2 
 PCOD8179274
Probable space group: A M M 2
;
_chemical_formula_sum "Si O2"
_cell_formula_units_Z 64
_cell_length_a 24.076510
_cell_length_b 9.063458
_cell_length_c 14.949105
_cell_angle_alpha 90.000000
_cell_angle_beta 90.000000
_cell_angle_gamma 90.000000
_cell_volume 3262.140432
_symmetry_space_group_name_H-M "A M M 2"
_symmetry_group_IT_number 38
_symmetry_cell_setting 'orthorhombic'
loop_
_space_group_symop_operation_xyz
x,y,z
-x,-y,z
-x,y,z
x,-y,z
x,1/2+y,1/2+z
-x,1/2-y,1/2+z
-x,1/2+y,1/2+z
x,1/2-y,1/2+z
loop_
_atom_site_type_symbol
_atom_site_label
_atom_site_fract_x
_atom_site_fract_y
_atom_site_fract_z
Si Si1 0.832640 0.672511 0.715160
Si Si2 0.169719 0.174199 0.417881
Si Si3 0.436006 0.829659 0.400459
Si Si4 0.564540 0.829392 0.716597
Si Si5 0.374606 0.672229 0.559105
Si Si6 0.060930 0.166281 0.922085
Si Si7 0.060280 0.665923 0.209603
Si Si8 0.755284 0.829601 0.056696
O O1 0.840698 0.500000 0.719077
O O2 0.821324 0.731080 0.815787
O O3 0.889488 0.735956 0.672400
O O4 0.782106 0.720217 0.651148
O O5 0.110651 0.230388 0.457704
O O6 0.220418 0.236509 0.475086
O O7 0.170515 0.000000 0.424076
O O8 0.500000 0.814757 0.429427
O O9 0.422931 0.729935 0.315108
O O10 0.398582 0.769579 0.479653
O O11 0.421000 0.000000 0.380481
O O12 0.500000 0.812300 0.692221
O O13 0.599472 0.727650 0.651032
O O14 0.583085 0.000000 0.710117
O O15 0.388852 0.500000 0.545174
O O16 0.309480 0.701371 0.563778
O O17 0.060536 0.171451 0.815899
O O18 0.000000 0.220494 0.956912
O O19 0.072137 0.000000 0.955643
O O20 0.069565 0.500000 0.175518
O O21 0.000000 0.724643 0.175322
O O22 0.768439 0.000000 0.037560
#
# Coordination Sequence:
#
# PCOD8179274 Si02
#       8
#     8   8   8   8   8   8   8   8
#     4   9  19  36  55  75 103 138 176 220 270 322
#     4  10  20  34  55  81 106 136 177 229 281 323
#     4  10  21  38  61  89 120 153 188 229 280 336
#     4  10  21  38  61  90 122 153 187 229 278 335
#     4  11  23  38  58  84 115 153 195 239 284 330
#     4   8  14  27  49  75 103 137 173 211 266 335
#     4   8  14  26  47  76 105 131 165 212 266 323
#     4  10  23  41  56  75 107 147 189 227 267 324
#
# _framework density 19.619021
#
# number of rings (size 3 to 8) (size 9 to 14) (size 15 to 20)
#    0.000    2.500    0.000    2.625    0.000    6.500 
#    0.000    4.375    0.000    0.750    0.000    0.000 
#    0.000    0.000    0.000    0.000    0.000    0.000 
#
# Total GULP energy -396758.162288 kJ/mol
# GULP energy per Si atom -12398.692572 kJ/mol
# Density = 1.957437 g / cm^3
# Si number density = 19.619021 Si / 1000 Ang^3
#
#
#
# Elastic Constant Matrix: (Units=GPa)
#
#
# Indices 1 2 3 4 5 6 
#
# 1 109.8855 43.2466 50.9268 0.0000 0.0000 0.0000
# 2 43.2466 62.2296 31.2533 0.0000 0.0000 0.0000
# 3 50.9268 31.2533 74.8051 0.0000 0.0000 0.0000
# 4 0.0000 0.0000 0.0000 30.3301 0.0000 0.0000
# 5 0.0000 0.0000 0.0000 0.0000 -2.9224 0.0000
# 6 0.0000 0.0000 0.0000 0.0000 0.0000 33.8256
#
#
#
# Elastic Compliance Matrix: (Units=1/GPa)
#
#
# Indices 1 2 3 4 5 6 
#
# 1 0.015291 -0.006832 -0.007556 0.000000 0.000000 0.000000
# 2 -0.006832 0.023389 -0.005121 0.000000 0.000000 0.000000
# 3 -0.007556 -0.005121 0.020651 0.000000 0.000000 0.000000
# 4 0.000000 0.000000 0.000000 0.032971 0.000000 0.000000
# 5 0.000000 0.000000 0.000000 0.000000 -0.342180 0.000000
# 6 0.000000 0.000000 0.000000 0.000000 0.000000 0.029563
#
#
# Mechanical properties :
#
#
# Convention : Reuss Voigt Hill
#
# Bulk Modulus (GPa) = 49.22516 55.30818 52.26667
# Shear Modulus (GPa) = -28.64884 20.34622 -4.15131
#
# Velocity S-wave (km/s) = -3.82548 3.22384 -1.45621
# Velocity P-wave (km/s) = 2.37331 6.48921 4.88582
#
# Compressibility (1/GPa) = 0.02031481
#
# Stress axis : x y z
#
# Youngs Moduli (GPa) = 65.39917 42.75494 48.42309
#
# Poissons Ratio (x) = 0.29209 0.36586
# Poissons Ratio (y) = 0.44679 0.24797
# Poissons Ratio (z) = 0.49413 0.21894
#
# Static dielectric constant tensor:
#      x y z
#    x 3.776320 0.000000 0.000000 
#    y 0.000000 3.648590 0.000000 
#    z 0.000000 0.000000 3.502630 
# 
# 
# High freq. dielectric constant tensor:
#      x y z
#    x 1.764990 0.000000 0.000000 
#    y 0.000000 1.764710 0.000000 
#    z 0.000000 0.000000 1.757380 
# 
# From -- ./inp_files/15867.got.cif
#   From: 2010.03.12/outbox.cif.g09.slc.cpg/sg38_8_cif.got.tgz:15867.got - 2010.04.14 02:38:36.
