data_PCOD8179142
_publ_section_title
;
Structure prediction by ZEFSAII (Michael W. Deem and Ramdas Pophale) SiO2 
 PCOD8179142
Probable space group: A M M 2
;
_chemical_formula_sum "Si O2"
_cell_formula_units_Z 40
_cell_length_a 8.840580
_cell_length_b 20.848099
_cell_length_c 12.425619
_cell_angle_alpha 90.000000
_cell_angle_beta 90.000000
_cell_angle_gamma 90.000000
_cell_volume 2290.156979
_symmetry_space_group_name_H-M "A M M 2"
_symmetry_group_IT_number 38
_symmetry_cell_setting 'orthorhombic'
loop_
_space_group_symop_operation_xyz
x,y,z
-x,-y,z
-x,y,z
x,-y,z
x,1/2+y,1/2+z
-x,1/2-y,1/2+z
-x,1/2+y,1/2+z
x,1/2-y,1/2+z
loop_
_atom_site_type_symbol
_atom_site_label
_atom_site_fract_x
_atom_site_fract_y
_atom_site_fract_z
Si Si1 0.326855 0.299474 0.139590
Si Si2 0.323170 0.835512 0.873982
Si Si3 0.175057 0.575371 0.538820
Si Si4 0.822231 0.201226 0.426194
Si Si5 0.322726 0.342367 0.718381
O O1 0.500000 0.305522 0.102735
O O2 0.296125 0.341867 0.246041
O O3 0.286013 0.225827 0.164709
O O4 0.220680 0.325982 0.044228
O O5 0.500000 0.830925 0.901734
O O6 0.247214 0.771855 0.919815
O O7 0.251379 0.896882 0.931221
O O8 0.199613 0.500000 0.536546
O O9 0.253997 0.601933 0.645645
O O10 0.000000 0.594794 0.540622
O O11 0.753240 0.154454 0.335958
O O12 0.000000 0.204388 0.411046
O O13 0.500000 0.353268 0.732381
#
# Coordination Sequence:
#
# PCOD8179142 Si02
#       5
#     8   8   8   8   8
#     4   9  18  32  51  76 106 137 172 217 265 314
#     4  10  20  34  52  75 105 141 180 217 259 315
#     4  11  23  37  54  78 109 141 177 222 267 314
#     4  11  20  30  51  79 110 139 169 217 271 318
#     4  10  20  34  53  75 105 141 179 217 259 315
#
# _framework density 17.466052999999999
#
# number of rings (size 3 to 8) (size 9 to 14) (size 15 to 20)
#    0.000    1.800    2.000    4.800    0.000    5.600 
#    0.000    0.000    0.000    1.200    0.000    5.600 
#    0.000    0.000    0.000    0.000    0.000    0.000 
#
# Total GULP energy -248054.293395 kJ/mol
# GULP energy per Si atom -12402.714670 kJ/mol
# Density = 1.742630 g / cm^3
# Si number density = 17.466053 Si / 1000 Ang^3
#
#
#
# Elastic Constant Matrix: (Units=GPa)
#
#
# Indices 1 2 3 4 5 6 
#
# 1 139.2941 47.1297 78.4176 0.0000 0.0000 0.0000
# 2 47.1297 59.5284 46.8445 0.0000 0.0000 0.0000
# 3 78.4176 46.8445 149.2828 0.0000 0.0000 0.0000
# 4 0.0000 0.0000 0.0000 25.9993 0.0000 0.0000
# 5 0.0000 0.0000 0.0000 0.0000 27.7519 0.0000
# 6 0.0000 0.0000 0.0000 0.0000 0.0000 21.6392
#
#
#
# Elastic Compliance Matrix: (Units=1/GPa)
#
#
# Indices 1 2 3 4 5 6 
#
# 1 0.011523 -0.005789 -0.004236 0.000000 0.000000 0.000000
# 2 -0.005789 0.025216 -0.004872 0.000000 0.000000 0.000000
# 3 -0.004236 -0.004872 0.010453 0.000000 0.000000 0.000000
# 4 0.000000 0.000000 0.000000 0.038463 0.000000 0.000000
# 5 0.000000 0.000000 0.000000 0.000000 0.036034 0.000000
# 6 0.000000 0.000000 0.000000 0.000000 0.000000 0.046212
#
#
# Mechanical properties :
#
#
# Convention : Reuss Voigt Hill
#
# Bulk Modulus (GPa) = 57.48078 76.98766 67.23422
# Shear Modulus (GPa) = 24.57099 26.79232 25.68166
#
# Velocity S-wave (km/s) = 3.75478 3.92084 3.83871
# Velocity P-wave (km/s) = 7.19578 8.04185 7.63055
#
# Compressibility (1/GPa) = 0.01739712
#
# Stress axis : x y z
#
# Youngs Moduli (GPa) = 86.78612 39.65800 95.66964
#
# Poissons Ratio (x) = 0.22958 0.40527
# Poissons Ratio (y) = 0.50241 0.46607
# Poissons Ratio (z) = 0.36764 0.19320
#
# Static dielectric constant tensor:
#      x y z
#    x 3.361080 0.000000 0.000000 
#    y 0.000000 2.840180 0.000000 
#    z 0.000000 0.000000 3.523420 
# 
# 
# High freq. dielectric constant tensor:
#      x y z
#    x 1.690470 0.000000 0.000000 
#    y 0.000000 1.623440 0.000000 
#    z 0.000000 0.000000 1.693040 
# 
# From -- ./inp_files/7768.got.cif
#   From: 2010.03.12/outbox.cif.g09.slc.cpg/sg38_4_cif.got.tgz:7768.got - 2010.04.14 02:38:36.
