data_PCOD8179467
_publ_section_title
;
Structure prediction by ZEFSAII (Michael W. Deem and Ramdas Pophale) SiO2 
 PCOD8179467
Probable space group: A M M 2
;
_chemical_formula_sum "Si O2"
_cell_formula_units_Z 64
_cell_length_a 9.132442
_cell_length_b 29.321685
_cell_length_c 12.622755
_cell_angle_alpha 90.000000
_cell_angle_beta 90.000000
_cell_angle_gamma 90.000000
_cell_volume 3380.103506
_symmetry_space_group_name_H-M "A M M 2"
_symmetry_group_IT_number 38
_symmetry_cell_setting 'orthorhombic'
loop_
_space_group_symop_operation_xyz
x,y,z
-x,-y,z
-x,y,z
x,-y,z
x,1/2+y,1/2+z
-x,1/2-y,1/2+z
-x,1/2+y,1/2+z
x,1/2-y,1/2+z
loop_
_atom_site_type_symbol
_atom_site_label
_atom_site_fract_x
_atom_site_fract_y
_atom_site_fract_z
Si Si1 0.671408 0.355974 0.089400
Si Si2 0.671042 0.752462 0.618842
Si Si3 0.161908 0.799487 0.956323
Si Si4 0.168769 0.553594 0.470641
Si Si5 0.173017 0.121203 0.383312
Si Si6 0.826080 0.949205 0.208311
Si Si7 0.326956 0.875934 0.828392
Si Si8 0.161231 0.219510 0.305880
O O1 0.500000 0.360548 0.068904
O O2 0.720148 0.302959 0.082518
O O3 0.713200 0.377050 0.203797
O O4 0.753917 0.384857 0.998689
O O5 0.500000 0.746648 0.603944
O O6 0.749684 0.709332 0.563679
O O7 0.716760 0.746328 0.739893
O O8 0.248815 0.832725 0.879712
O O9 0.146097 0.748810 0.911270
O O10 0.000000 0.820135 0.979254
O O11 0.190664 0.500000 0.455168
O O12 0.218823 0.567832 0.590113
O O13 0.270048 0.578349 0.384580
O O14 0.000000 0.567353 0.451735
O O15 0.234818 0.083617 0.300714
O O16 0.218847 0.169590 0.334738
O O17 0.000000 0.116903 0.398617
O O18 0.000000 0.950631 0.212443
O O19 0.763115 0.000000 0.228562
O O20 0.500000 0.870966 0.844444
O O21 0.000000 0.216940 0.249980
#
# Coordination Sequence:
#
# PCOD8179467 Si02
#       8
#     8   8   8   8   8   8   8   8
#     4  10  22  38  54  75 112 154 189 229 279 334
#     4  11  22  36  53  74 108 151 190 232 280 336
#     4  11  22  36  54  78 111 148 190 235 280 330
#     4   9  19  38  63  89 115 145 183 230 289 347
#     4  10  20  35  57  84 111 143 189 232 275 336
#     4   8  16  34  60  87 114 141 172 223 286 337
#     4  11  23  39  57  83 115 151 195 234 283 341
#     4  10  21  34  51  79 110 144 186 233 279 328
#
# _framework density 18.934332000000001
#
# number of rings (size 3 to 8) (size 9 to 14) (size 15 to 20)
#    0.000    2.000    2.500    1.875    1.750    2.750 
#    0.000    1.250    0.000    3.375    0.000    0.000 
#    0.000    0.000    0.000    0.000    0.000    0.000 
#
# Total GULP energy -396682.710389 kJ/mol
# GULP energy per Si atom -12396.334700 kJ/mol
# Density = 1.889124 g / cm^3
# Si number density = 18.934332 Si / 1000 Ang^3
#
#
#
# Elastic Constant Matrix: (Units=GPa)
#
#
# Indices 1 2 3 4 5 6 
#
# 1 71.8701 34.0607 51.3948 0.0000 0.0000 0.0000
# 2 34.0607 80.4086 43.6582 0.0000 0.0000 0.0000
# 3 51.3948 43.6582 110.6355 0.0000 0.0000 0.0000
# 4 0.0000 0.0000 0.0000 34.3039 0.0000 0.0000
# 5 0.0000 0.0000 0.0000 0.0000 29.5155 0.0000
# 6 0.0000 0.0000 0.0000 0.0000 0.0000 23.9835
#
#
#
# Elastic Compliance Matrix: (Units=1/GPa)
#
#
# Indices 1 2 3 4 5 6 
#
# 1 0.022227 -0.004848 -0.008413 0.000000 0.000000 0.000000
# 2 -0.004848 0.016885 -0.004411 0.000000 0.000000 0.000000
# 3 -0.008413 -0.004411 0.014687 0.000000 0.000000 0.000000
# 4 0.000000 0.000000 0.000000 0.029151 0.000000 0.000000
# 5 0.000000 0.000000 0.000000 0.000000 0.033880 0.000000
# 6 0.000000 0.000000 0.000000 0.000000 0.000000 0.041695
#
#
# Mechanical properties :
#
#
# Convention : Reuss Voigt Hill
#
# Bulk Modulus (GPa) = 54.18019 57.90463 56.04241
# Shear Modulus (GPa) = 24.99729 26.48060 25.73895
#
# Velocity S-wave (km/s) = 3.63741 3.74378 3.69098
# Velocity P-wave (km/s) = 6.80573 7.02396 6.91570
#
# Compressibility (1/GPa) = 0.01845693
#
# Stress axis : x y z
#
# Youngs Moduli (GPa) = 44.98971 59.22431 68.08603
#
# Poissons Ratio (x) = 0.28711 0.57277
# Poissons Ratio (y) = 0.21810 0.30033
# Poissons Ratio (z) = 0.37848 0.26124
#
# Static dielectric constant tensor:
#      x y z
#    x 3.334400 0.000000 0.000000 
#    y 0.000000 3.445990 0.000000 
#    z 0.000000 0.000000 3.519390 
# 
# 
# High freq. dielectric constant tensor:
#      x y z
#    x 1.721560 0.000000 0.000000 
#    y 0.000000 1.724890 0.000000 
#    z 0.000000 0.000000 1.739860 
# 
# From -- ./inp_files/8527.got.cif
#   From: 2010.03.12/outbox.cif.g09.slc.cpg/sg38_5_cif.got.tgz:8527.got - 2010.04.14 02:38:36.
