data_PCOD8179168
_publ_section_title
;
Structure prediction by ZEFSAII (Michael W. Deem and Ramdas Pophale) SiO2 
 PCOD8179168
Probable space group: A M M 2
;
_chemical_formula_sum "Si O2"
_cell_formula_units_Z 64
_cell_length_a 18.634742
_cell_length_b 9.601765
_cell_length_c 19.811594
_cell_angle_alpha 90.000000
_cell_angle_beta 90.000000
_cell_angle_gamma 90.000000
_cell_volume 3544.817461
_symmetry_space_group_name_H-M "A M M 2"
_symmetry_group_IT_number 38
_symmetry_cell_setting 'orthorhombic'
loop_
_space_group_symop_operation_xyz
x,y,z
-x,-y,z
-x,y,z
x,-y,z
x,1/2+y,1/2+z
-x,1/2-y,1/2+z
-x,1/2+y,1/2+z
x,1/2-y,1/2+z
loop_
_atom_site_type_symbol
_atom_site_label
_atom_site_fract_x
_atom_site_fract_y
_atom_site_fract_z
Si Si1 0.836324 0.341191 0.574320
Si Si2 0.319589 0.659620 0.871636
Si Si3 0.919091 0.342826 0.441362
Si Si4 0.839823 0.660259 0.837744
Si Si5 0.919091 0.334340 0.704704
Si Si6 0.584513 0.342113 0.277794
Si Si7 0.579481 0.165297 0.627490
Si Si8 0.702284 0.334883 0.026065
O O1 0.808312 0.500000 0.583760
O O2 0.899404 0.336767 0.519688
O O3 0.872172 0.280471 0.642114
O O4 0.771416 0.242600 0.554114
O O5 0.344875 0.500000 0.870409
O O6 0.245399 0.679136 0.831075
O O7 0.379367 0.749292 0.834874
O O8 0.311683 0.709879 0.948972
O O9 0.911308 0.500000 0.413846
O O10 0.865137 0.244190 0.402356
O O11 0.000000 0.288534 0.432209
O O12 0.860071 0.500000 0.850047
O O13 0.879247 0.719776 0.771761
O O14 0.922143 0.500000 0.703102
O O15 0.000000 0.273107 0.702800
O O16 0.500000 0.334615 0.289193
O O17 0.612298 0.500000 0.286294
O O18 0.603555 0.285200 0.202536
O O19 0.500000 0.224753 0.610103
O O20 0.634981 0.216641 0.570893
O O21 0.575356 0.000000 0.628819
O O22 0.715252 0.500000 0.031840
#
# Coordination Sequence:
#
# PCOD8179168 Si02
#       8
#     8   8   8   8   8   8   8   8
#     4  10  20  34  53  76 102 135 174 218 262 308
#     4  10  21  34  51  79 113 141 172 214 259 310
#     4  10  20  34  53  76 102 134 174 219 264 309
#     4  10  20  35  53  77 107 139 175 215 259 313
#     4   9  18  33  53  75 100 135 178 218 260 313
#     4   9  19  36  57  80 105 136 176 216 254 305
#     4   8  16  33  56  79 102 134 176 214 252 303
#     4  10  20  35  54  78 107 138 173 214 256 307
#
# _framework density 18.054525000000002
#
# number of rings (size 3 to 8) (size 9 to 14) (size 15 to 20)
#    0.000    2.500    1.250    1.500    1.750    4.000 
#    0.000    1.875    0.000    3.000    0.000    0.000 
#    0.000    0.000    0.000    0.000    0.000    0.000 
#
# Total GULP energy -396786.124238 kJ/mol
# GULP energy per Si atom -12399.566382 kJ/mol
# Density = 1.801343 g / cm^3
# Si number density = 18.054525 Si / 1000 Ang^3
#
#
#
# Elastic Constant Matrix: (Units=GPa)
#
#
# Indices 1 2 3 4 5 6 
#
# 1 91.6429 33.3607 58.4549 0.0000 0.0000 0.0000
# 2 33.3607 41.2187 33.3620 0.0000 0.0000 0.0000
# 3 58.4549 33.3620 124.6234 0.0000 0.0000 0.0000
# 4 0.0000 0.0000 0.0000 17.0759 0.0000 0.0000
# 5 0.0000 0.0000 0.0000 0.0000 39.4980 0.0000
# 6 0.0000 0.0000 0.0000 0.0000 0.0000 27.0512
#
#
#
# Elastic Compliance Matrix: (Units=1/GPa)
#
#
# Indices 1 2 3 4 5 6 
#
# 1 0.018346 -0.010064 -0.005911 0.000000 0.000000 0.000000
# 2 -0.010064 0.036492 -0.005049 0.000000 0.000000 0.000000
# 3 -0.005911 -0.005049 0.012148 0.000000 0.000000 0.000000
# 4 0.000000 0.000000 0.000000 0.058562 0.000000 0.000000
# 5 0.000000 0.000000 0.000000 0.000000 0.025318 0.000000
# 6 0.000000 0.000000 0.000000 0.000000 0.000000 0.036967
#
#
# Mechanical properties :
#
#
# Convention : Reuss Voigt Hill
#
# Bulk Modulus (GPa) = 40.09725 56.42668 48.26196
# Shear Modulus (GPa) = 20.99133 25.54553 23.26843
#
# Velocity S-wave (km/s) = 3.41348 3.76561 3.59386
# Velocity P-wave (km/s) = 6.14760 7.08715 6.63403
#
# Compressibility (1/GPa) = 0.02493937
#
# Stress axis : x y z
#
# Youngs Moduli (GPa) = 54.50813 27.40291 82.31644
#
# Poissons Ratio (x) = 0.27579 0.48657
# Poissons Ratio (y) = 0.54857 0.41558
# Poissons Ratio (z) = 0.32220 0.13834
#
# Static dielectric constant tensor:
#      x y z
#    x 3.422680 0.000000 0.000000 
#    y 0.000000 3.060020 0.000000 
#    z 0.000000 0.000000 3.482970 
# 
# 
# High freq. dielectric constant tensor:
#      x y z
#    x 1.704820 0.000000 0.000000 
#    y 0.000000 1.667100 0.000000 
#    z 0.000000 0.000000 1.709270 
# 
# From -- ./inp_files/18905.got.cif
#   From: 2010.03.12/outbox.cif.g09.slc.cpg/sg38_10_cif.got.tgz:18905.got - 2010.04.14 02:38:36.
