data_PCOD8179772
_publ_section_title
;
Structure prediction by ZEFSAII (Michael W. Deem and Ramdas Pophale) SiO2 
 PCOD8179772
Probable space group: A M M 2
;
_chemical_formula_sum "Si O2"
_cell_formula_units_Z 48
_cell_length_a 7.715035
_cell_length_b 8.907628
_cell_length_c 34.480117
_cell_angle_alpha 90.000000
_cell_angle_beta 90.000000
_cell_angle_gamma 90.000000
_cell_volume 2369.565419
_symmetry_space_group_name_H-M "A M M 2"
_symmetry_group_IT_number 38
_symmetry_cell_setting 'orthorhombic'
loop_
_space_group_symop_operation_xyz
x,y,z
-x,-y,z
-x,y,z
x,-y,z
x,1/2+y,1/2+z
-x,1/2-y,1/2+z
-x,1/2+y,1/2+z
x,1/2-y,1/2+z
loop_
_atom_site_type_symbol
_atom_site_label
_atom_site_fract_x
_atom_site_fract_y
_atom_site_fract_z
Si Si1 0.698954 0.663740 0.250000
Si Si2 0.500000 0.321557 0.954584
Si Si3 0.293896 0.668842 0.675819
Si Si4 0.192893 0.677226 0.592828
Si Si5 0.797088 0.169384 0.325898
Si Si6 0.500000 0.679175 0.538056
Si Si7 0.798881 0.176809 0.905195
O O1 0.500000 0.641372 0.239858
O O2 0.785591 0.500000 0.257445
O O3 0.785699 0.740382 0.212293
O O4 0.710214 0.767014 0.287591
O O5 0.500000 0.500000 0.951594
O O6 0.675725 0.259148 0.935566
O O7 0.500000 0.268671 0.998481
O O8 0.500000 0.668389 0.675826
O O9 0.222055 0.500000 0.679690
O O10 0.228460 0.744384 0.635684
O O11 0.216375 0.500000 0.596296
O O12 0.330886 0.735281 0.561516
O O13 0.000000 0.722538 0.578840
O O14 0.742994 0.270441 0.362411
O O15 0.000000 0.173802 0.319274
O O16 0.730898 0.000000 0.333116
O O17 0.500000 0.500000 0.530663
O O18 0.000000 0.219098 0.913749
O O19 0.768865 0.000000 0.908382
#
# Coordination Sequence:
#
# PCOD8179772 Si02
#       7
#     8   4   8   8   8   4   8
#     4  10  21  34  50  77 113 155 198 240 285 339
#     4  12  26  42  64  93 124 163 198 238 299 364
#     4   9  16  30  51  75 107 147 190 241 293 340
#     4   9  17  31  56  86 112 144 188 238 293 350
#     4  10  21  37  57  82 114 152 193 241 295 349
#     4  10  20  38  60  85 116 147 188 242 291 348
#     4  10  22  42  67  93 122 157 200 251 301 355
#
# _framework density 20.256881
#
# number of rings (size 3 to 8) (size 9 to 14) (size 15 to 20)
#    0.000    2.167    0.833    2.250    1.167    4.333 
#    0.000    4.167    0.000    1.000    0.000    0.000 
#    0.000    0.000    0.000    0.000    0.000    0.000 
#
# Total GULP energy -297560.728689 kJ/mol
# GULP energy per Si atom -12398.363695 kJ/mol
# Density = 2.021078 g / cm^3
# Si number density = 20.256881 Si / 1000 Ang^3
#
#
#
# Elastic Constant Matrix: (Units=GPa)
#
#
# Indices 1 2 3 4 5 6 
#
# 1 90.7981 40.2324 66.1912 0.0000 0.0000 0.0000
# 2 40.2324 107.8473 58.9684 0.0000 0.0000 0.0000
# 3 66.1912 58.9684 172.8332 0.0000 0.0000 0.0000
# 4 0.0000 0.0000 0.0000 35.0004 0.0000 0.0000
# 5 0.0000 0.0000 0.0000 0.0000 8.1635 0.0000
# 6 0.0000 0.0000 0.0000 0.0000 0.0000 16.6612
#
#
#
# Elastic Compliance Matrix: (Units=1/GPa)
#
#
# Indices 1 2 3 4 5 6 
#
# 1 0.016156 -0.003250 -0.005078 0.000000 0.000000 0.000000
# 2 -0.003250 0.012053 -0.002867 0.000000 0.000000 0.000000
# 3 -0.005078 -0.002867 0.008709 0.000000 0.000000 0.000000
# 4 0.000000 0.000000 0.000000 0.028571 0.000000 0.000000
# 5 0.000000 0.000000 0.000000 0.000000 0.122497 0.000000
# 6 0.000000 0.000000 0.000000 0.000000 0.000000 0.060020
#
#
# Mechanical properties :
#
#
# Convention : Reuss Voigt Hill
#
# Bulk Modulus (GPa) = 68.84411 78.02917 73.43664
# Shear Modulus (GPa) = 18.16605 25.70414 21.93509
#
# Velocity S-wave (km/s) = 2.99788 3.56604 3.29423
# Velocity P-wave (km/s) = 6.78546 7.45379 7.12746
#
# Compressibility (1/GPa) = 0.01452557
#
# Stress axis : x y z
#
# Youngs Moduli (GPa) = 61.89787 82.96886 114.82157
#
# Poissons Ratio (x) = 0.26966 0.58310
# Poissons Ratio (y) = 0.20118 0.32925
# Poissons Ratio (z) = 0.31434 0.23791
#
# Static dielectric constant tensor:
#      x y z
#    x 3.658280 0.000000 0.000000 
#    y 0.000000 3.731800 0.000000 
#    z 0.000000 0.000000 3.714210 
# 
# 
# High freq. dielectric constant tensor:
#      x y z
#    x 1.789780 0.000000 0.000000 
#    y 0.000000 1.773300 0.000000 
#    z 0.000000 0.000000 1.795300 
# 
# From -- ./inp_files/24323.got.cif
#   From: 2010.03.12/outbox.cif.g09.slc.cpg/sg38_13_cif.got.tgz:24323.got - 2010.04.14 02:38:36.
