data_PCOD8179640
_publ_section_title
;
Structure prediction by ZEFSAII (Michael W. Deem and Ramdas Pophale) SiO2 
 PCOD8179640
Probable space group: A M M 2
;
_chemical_formula_sum "Si O2"
_cell_formula_units_Z 48
_cell_length_a 9.255265
_cell_length_b 27.837447
_cell_length_c 9.684288
_cell_angle_alpha 90.000000
_cell_angle_beta 90.000000
_cell_angle_gamma 90.000000
_cell_volume 2495.088518
_symmetry_space_group_name_H-M "A M M 2"
_symmetry_group_IT_number 38
_symmetry_cell_setting 'orthorhombic'
loop_
_space_group_symop_operation_xyz
x,y,z
-x,-y,z
-x,y,z
x,-y,z
x,1/2+y,1/2+z
-x,1/2-y,1/2+z
-x,1/2+y,1/2+z
x,1/2-y,1/2+z
loop_
_atom_site_type_symbol
_atom_site_label
_atom_site_fract_x
_atom_site_fract_y
_atom_site_fract_z
Si Si1 0.828919 0.796033 0.471730
Si Si2 0.164682 0.604728 0.845575
Si Si3 0.163596 0.554554 0.121938
Si Si4 0.331444 0.554488 0.606783
Si Si5 0.828151 0.707147 0.286742
Si Si6 0.331514 0.613024 0.335815
O O1 0.770534 0.846022 0.409124
O O2 0.775603 0.753556 0.371932
O O3 0.772446 0.788379 0.628446
O O4 0.000000 0.797980 0.477830
O O5 0.255684 0.589265 0.714546
O O6 0.000000 0.612688 0.797410
O O7 0.175613 0.562748 0.958546
O O8 0.205348 0.500000 0.154723
O O9 0.275488 0.589520 0.195165
O O10 0.000000 0.566396 0.171285
O O11 0.500000 0.554868 0.639795
O O12 0.270720 0.500000 0.613341
O O13 0.298053 0.575412 0.456457
O O14 0.753844 0.662222 0.362227
O O15 0.000000 0.700676 0.294042
O O16 0.500000 0.624482 0.321951
#
# Coordination Sequence:
#
# PCOD8179640 Si02
#       6
#     8   8   8   8   8   8
#     4   9  19  35  60  88 114 145 185 233 290 343
#     4  10  20  37  60  88 116 145 187 240 291 344
#     4  10  20  36  60  87 115 148 188 239 293 346
#     4  10  23  41  57  79 116 158 196 235 283 341
#     4  10  20  38  61  87 116 149 190 239 289 346
#     4  11  23  39  58  83 117 158 196 237 286 342
#
# _framework density 19.237794000000001
#
# number of rings (size 3 to 8) (size 9 to 14) (size 15 to 20)
#    0.000    2.000    1.667    1.500    2.333    4.000 
#    0.000    1.667    0.000    0.000    0.000    0.000 
#    0.000    0.000    0.000    0.000    0.000    0.000 
#
# Total GULP energy -297650.644602 kJ/mol
# GULP energy per Si atom -12402.110192 kJ/mol
# Density = 1.919401 g / cm^3
# Si number density = 19.237794 Si / 1000 Ang^3
#
#
#
# Elastic Constant Matrix: (Units=GPa)
#
#
# Indices 1 2 3 4 5 6 
#
# 1 45.0752 36.4043 36.5560 0.0000 0.0000 0.0000
# 2 36.4043 124.0602 38.2347 0.0000 0.0000 0.0000
# 3 36.5560 38.2347 74.6666 0.0000 0.0000 0.0000
# 4 0.0000 0.0000 0.0000 37.4018 0.0000 0.0000
# 5 0.0000 0.0000 0.0000 0.0000 23.0756 0.0000
# 6 0.0000 0.0000 0.0000 0.0000 0.0000 22.3938
#
#
#
# Elastic Compliance Matrix: (Units=1/GPa)
#
#
# Indices 1 2 3 4 5 6 
#
# 1 0.041349 -0.006999 -0.016660 0.000000 0.000000 0.000000
# 2 -0.006999 0.010756 -0.002081 0.000000 0.000000 0.000000
# 3 -0.016660 -0.002081 0.022615 0.000000 0.000000 0.000000
# 4 0.000000 0.000000 0.000000 0.026737 0.000000 0.000000
# 5 0.000000 0.000000 0.000000 0.000000 0.043336 0.000000
# 6 0.000000 0.000000 0.000000 0.000000 0.000000 0.044655
#
#
# Mechanical properties :
#
#
# Convention : Reuss Voigt Hill
#
# Bulk Modulus (GPa) = 43.02988 51.79912 47.41450
# Shear Modulus (GPa) = 20.10658 25.41470 22.76064
#
# Velocity S-wave (km/s) = 3.23640 3.63861 3.44338
# Velocity P-wave (km/s) = 6.03172 6.68108 6.36469
#
# Compressibility (1/GPa) = 0.02323966
#
# Stress axis : x y z
#
# Youngs Moduli (GPa) = 24.18431 92.97346 44.21797
#
# Poissons Ratio (x) = 0.65071 0.73668
# Poissons Ratio (y) = 0.16926 0.09202
# Poissons Ratio (z) = 0.40292 0.19349
#
# Static dielectric constant tensor:
#      x y z
#    x 3.260080 0.000000 0.000000 
#    y 0.000000 3.748360 0.000000 
#    z 0.000000 0.000000 3.507380 
# 
# 
# High freq. dielectric constant tensor:
#      x y z
#    x 1.719700 0.000000 0.000000 
#    y 0.000000 1.763610 0.000000 
#    z 0.000000 0.000000 1.752190 
# 
# From -- ./inp_files/3730.got.cif
#   From: 2010.03.12/outbox.cif.g09.slc.cpg/sg38_2_cif.got.tgz:3730.got - 2010.04.14 02:38:36.
