data_PCOD8179250
_publ_section_title
;
Structure prediction by ZEFSAII (Michael W. Deem and Ramdas Pophale) SiO2 
 PCOD8179250
Probable space group: A M M 2
;
_chemical_formula_sum "Si O2"
_cell_formula_units_Z 48
_cell_length_a 13.968079
_cell_length_b 9.188486
_cell_length_c 20.242343
_cell_angle_alpha 90.000000
_cell_angle_beta 90.000000
_cell_angle_gamma 90.000000
_cell_volume 2598.013600
_symmetry_space_group_name_H-M "A M M 2"
_symmetry_group_IT_number 38
_symmetry_cell_setting 'orthorhombic'
loop_
_space_group_symop_operation_xyz
x,y,z
-x,-y,z
-x,y,z
x,-y,z
x,1/2+y,1/2+z
-x,1/2-y,1/2+z
-x,1/2+y,1/2+z
x,1/2-y,1/2+z
loop_
_atom_site_type_symbol
_atom_site_label
_atom_site_fract_x
_atom_site_fract_y
_atom_site_fract_z
Si Si1 0.393574 0.168180 0.834310
Si Si2 0.796227 0.829771 0.765361
Si Si3 0.393973 0.668861 0.967730
Si Si4 0.888939 0.335064 0.883599
Si Si5 0.799525 0.332494 0.024242
Si Si6 0.110832 0.328645 0.644218
O O1 0.500000 0.212251 0.808980
O O2 0.316308 0.203649 0.777529
O O3 0.365535 0.252183 0.900370
O O4 0.389422 0.000000 0.853446
O O5 0.857774 0.775765 0.827104
O O6 0.825693 0.746806 0.699655
O O7 0.815751 0.000000 0.755441
O O8 0.500000 0.716724 0.992844
O O9 0.391794 0.500000 0.949857
O O10 0.314951 0.701744 0.024304
O O11 0.866471 0.500000 0.860340
O O12 0.000000 0.313491 0.897650
O O13 0.835035 0.298079 0.950894
O O14 0.820121 0.500000 0.044060
O O15 0.854183 0.226782 0.073462
O O16 0.126432 0.500000 0.648105
O O17 0.000000 0.287251 0.654512
#
# Coordination Sequence:
#
# PCOD8179250 Si02
#       6
#     8   8   8   8   8   8
#     4   9  18  33  54  82 114 145 178 221 273 324
#     4  11  22  36  57  83 110 144 186 228 274 329
#     4   9  17  31  55  86 115 144 179 220 269 324
#     4  10  20  34  54  81 112 143 179 227 278 327
#     4  10  20  36  58  83 112 146 184 225 273 329
#     4  11  25  42  58  77 107 148 190 233 281 331
#
# _framework density 18.475653999999999
#
# number of rings (size 3 to 8) (size 9 to 14) (size 15 to 20)
#    0.000    2.000    1.667    2.000    0.000    6.333 
#    0.000    0.833    0.000    5.000    0.000    0.000 
#    0.000    0.000    0.000    0.000    0.000    0.000 
#
# Total GULP energy -297598.895914 kJ/mol
# GULP energy per Si atom -12399.953996 kJ/mol
# Density = 1.843360 g / cm^3
# Si number density = 18.475654 Si / 1000 Ang^3
#
#
#
# Elastic Constant Matrix: (Units=GPa)
#
#
# Indices 1 2 3 4 5 6 
#
# 1 100.7147 45.5835 31.6863 0.0000 0.0000 0.0000
# 2 45.5835 71.2254 37.7167 0.0000 0.0000 0.0000
# 3 31.6863 37.7167 58.1232 0.0000 0.0000 0.0000
# 4 0.0000 0.0000 0.0000 34.5052 0.0000 0.0000
# 5 0.0000 0.0000 0.0000 0.0000 27.1630 0.0000
# 6 0.0000 0.0000 0.0000 0.0000 0.0000 26.5577
#
#
#
# Elastic Compliance Matrix: (Units=1/GPa)
#
#
# Indices 1 2 3 4 5 6 
#
# 1 0.014276 -0.007641 -0.002824 0.000000 0.000000 0.000000
# 2 -0.007641 0.025480 -0.012369 0.000000 0.000000 0.000000
# 3 -0.002824 -0.012369 0.026771 0.000000 0.000000 0.000000
# 4 0.000000 0.000000 0.000000 0.028981 0.000000 0.000000
# 5 0.000000 0.000000 0.000000 0.000000 0.036815 0.000000
# 6 0.000000 0.000000 0.000000 0.000000 0.000000 0.037654
#
#
# Mechanical properties :
#
#
# Convention : Reuss Voigt Hill
#
# Bulk Modulus (GPa) = 47.94173 51.11515 49.52844
# Shear Modulus (GPa) = 22.46222 25.31698 23.88960
#
# Velocity S-wave (km/s) = 3.49058 3.70576 3.59978
# Velocity P-wave (km/s) = 6.50003 6.78502 6.64405
#
# Compressibility (1/GPa) = 0.02085865
#
# Stress axis : x y z
#
# Youngs Moduli (GPa) = 70.04839 39.24719 37.35434
#
# Poissons Ratio (x) = 0.29988 0.10551
# Poissons Ratio (y) = 0.53522 0.46202
# Poissons Ratio (z) = 0.19785 0.48543
#
# Static dielectric constant tensor:
#      x y z
#    x 3.894840 0.000000 0.000000 
#    y 0.000000 3.454750 0.000000 
#    z 0.000000 0.000000 3.171290 
# 
# 
# High freq. dielectric constant tensor:
#      x y z
#    x 1.738640 0.000000 0.000000 
#    y 0.000000 1.717670 0.000000 
#    z 0.000000 0.000000 1.693170 
# 
# From -- ./inp_files/18141.got.cif
#   From: 2010.03.12/outbox.cif.g09.slc.cpg/sg38_10_cif.got.tgz:18141.got - 2010.04.14 02:38:36.
