data_PCOD8179104
_publ_section_title
;
Structure prediction by ZEFSAII (Michael W. Deem and Ramdas Pophale) SiO2 
 PCOD8179104
Probable space group: A M M 2
;
_chemical_formula_sum "Si O2"
_cell_formula_units_Z 64
_cell_length_a 16.152069
_cell_length_b 9.069117
_cell_length_c 23.273891
_cell_angle_alpha 90.000000
_cell_angle_beta 90.000000
_cell_angle_gamma 90.000000
_cell_volume 3409.276006
_symmetry_space_group_name_H-M "A M M 2"
_symmetry_group_IT_number 38
_symmetry_cell_setting 'orthorhombic'
loop_
_space_group_symop_operation_xyz
x,y,z
-x,-y,z
-x,y,z
x,-y,z
x,1/2+y,1/2+z
-x,1/2-y,1/2+z
-x,1/2+y,1/2+z
x,1/2-y,1/2+z
loop_
_atom_site_type_symbol
_atom_site_label
_atom_site_fract_x
_atom_site_fract_y
_atom_site_fract_z
Si Si1 0.745764 0.173273 0.359860
Si Si2 0.403231 0.173858 0.276243
Si Si3 0.905214 0.826465 0.289979
Si Si4 0.095146 0.660140 0.177389
Si Si5 0.192760 0.171427 0.098324
Si Si6 0.734394 0.330479 0.478655
Si Si7 0.409745 0.164601 0.056620
Si Si8 0.653919 0.175734 0.659184
O O1 0.662754 0.226282 0.325540
O O2 0.834470 0.225304 0.334422
O O3 0.749840 0.231555 0.424145
O O4 0.742419 0.000000 0.362736
O O5 0.500000 0.209656 0.292998
O O6 0.377797 0.261841 0.219485
O O7 0.393628 0.000000 0.264455
O O8 0.873505 0.752086 0.231729
O O9 0.000000 0.778946 0.308085
O O10 0.903008 0.000000 0.280287
O O11 0.140249 0.500000 0.175196
O O12 0.107948 0.754026 0.119004
O O13 0.000000 0.631511 0.184631
O O14 0.259823 0.253519 0.138736
O O15 0.195191 0.000000 0.112749
O O16 0.200380 0.199663 0.030170
O O17 0.735895 0.500000 0.459138
O O18 0.646608 0.280339 0.504619
O O19 0.500000 0.155433 0.029933
O O20 0.411268 0.274982 0.110442
O O21 0.378362 0.000000 0.076256
O O22 0.659645 0.000000 0.662900
#
# Coordination Sequence:
#
# PCOD8179104 Si02
#       8
#     8   8   8   8   8   8   8   8
#     4  10  21  36  54  75 101 137 180 224 268 313
#     4  10  21  36  52  73 106 146 181 213 259 325
#     4   9  18  34  56  80 106 140 181 219 260 319
#     4  10  20  33  53  85 117 138 164 211 267 315
#     4  10  20  36  56  76 103 142 181 212 256 322
#     4   9  20  36  53  74  99 132 176 220 261 310
#     4   9  18  34  54  74 100 136 174 213 262 321
#     4  11  21  32  51  80 108 133 170 222 273 315
#
# _framework density 18.772314000000001
#
# number of rings (size 3 to 8) (size 9 to 14) (size 15 to 20)
#    0.000    2.250    0.000    3.750    0.000    7.750 
#    0.000    0.625    0.000    2.250    0.000    0.000 
#    0.000    0.000    0.000    0.000    0.000    0.000 
#
# Total GULP energy -396465.739596 kJ/mol
# GULP energy per Si atom -12389.554362 kJ/mol
# Density = 1.872959 g / cm^3
# Si number density = 18.772314 Si / 1000 Ang^3
#
#
#
# Elastic Constant Matrix: (Units=GPa)
#
#
# Indices 1 2 3 4 5 6 
#
# 1 74.7836 32.6665 61.1188 0.0000 0.0000 0.0000
# 2 32.6665 57.1186 42.5478 0.0000 0.0000 0.0000
# 3 61.1188 42.5478 127.8463 0.0000 0.0000 0.0000
# 4 0.0000 0.0000 0.0000 35.5309 0.0000 0.0000
# 5 0.0000 0.0000 0.0000 0.0000 14.5103 0.0000
# 6 0.0000 0.0000 0.0000 0.0000 0.0000 18.5213
#
#
#
# Elastic Compliance Matrix: (Units=1/GPa)
#
#
# Indices 1 2 3 4 5 6 
#
# 1 0.023794 -0.006827 -0.009103 0.000000 0.000000 0.000000
# 2 -0.006827 0.025237 -0.005135 0.000000 0.000000 0.000000
# 3 -0.009103 -0.005135 0.013883 0.000000 0.000000 0.000000
# 4 0.000000 0.000000 0.000000 0.028145 0.000000 0.000000
# 5 0.000000 0.000000 0.000000 0.000000 0.068916 0.000000
# 6 0.000000 0.000000 0.000000 0.000000 0.000000 0.053992
#
#
# Mechanical properties :
#
#
# Convention : Reuss Voigt Hill
#
# Bulk Modulus (GPa) = 48.11582 59.15719 53.63650
# Shear Modulus (GPa) = 19.00968 21.94021 20.47494
#
# Velocity S-wave (km/s) = 3.18566 3.42241 3.30616
# Velocity P-wave (km/s) = 6.26244 6.87013 6.57331
#
# Compressibility (1/GPa) = 0.02078319
#
# Stress axis : x y z
#
# Youngs Moduli (GPa) = 42.02821 39.62415 72.03232
#
# Poissons Ratio (x) = 0.27051 0.65570
# Poissons Ratio (y) = 0.28693 0.36991
# Poissons Ratio (z) = 0.38257 0.20348
#
# Static dielectric constant tensor:
#      x y z
#    x 3.746260 0.000000 0.000000 
#    y 0.000000 3.708990 0.000000 
#    z 0.000000 0.000000 3.339470 
# 
# 
# High freq. dielectric constant tensor:
#      x y z
#    x 1.735250 0.000000 0.000000 
#    y 0.000000 1.728640 0.000000 
#    z 0.000000 0.000000 1.714710 
# 
# From -- ./inp_files/21415.got.cif
#   From: 2010.03.12/outbox.cif.g09.slc.cpg/sg38_11_cif.got.tgz:21415.got - 2010.04.14 02:38:36.
