data_PCOD8179481
_publ_section_title
;
Structure prediction by ZEFSAII (Michael W. Deem and Ramdas Pophale) SiO2 
 PCOD8179481
Probable space group: A M M 2
;
_chemical_formula_sum "Si O2"
_cell_formula_units_Z 64
_cell_length_a 13.740125
_cell_length_b 16.111146
_cell_length_c 14.461779
_cell_angle_alpha 90.000000
_cell_angle_beta 90.000000
_cell_angle_gamma 90.000000
_cell_volume 3201.391868
_symmetry_space_group_name_H-M "A M M 2"
_symmetry_group_IT_number 38
_symmetry_cell_setting 'orthorhombic'
loop_
_space_group_symop_operation_xyz
x,y,z
-x,-y,z
-x,y,z
x,-y,z
x,1/2+y,1/2+z
-x,1/2-y,1/2+z
-x,1/2+y,1/2+z
x,1/2-y,1/2+z
loop_
_atom_site_type_symbol
_atom_site_label
_atom_site_fract_x
_atom_site_fract_y
_atom_site_fract_z
Si Si1 0.790605 0.675942 0.191610
Si Si2 0.884840 0.097233 0.510051
Si Si3 0.608296 0.735895 0.402526
Si Si4 0.743024 0.092536 0.862020
Si Si5 0.892327 0.401236 0.510051
Si Si6 0.790605 0.824058 0.328493
Si Si7 0.743024 0.592536 0.658083
Si Si8 0.391704 0.235895 0.117577
O O1 0.852078 0.649280 0.101370
O O2 0.778414 0.594971 0.255837
O O3 0.833106 0.750000 0.260051
O O4 0.680983 0.699316 0.163926
O O5 0.852078 0.149280 0.418733
O O6 0.000000 0.096469 0.510051
O O7 0.847507 0.000000 0.510051
O O8 0.500000 0.746348 0.360721
O O9 0.645313 0.643157 0.381834
O O10 0.680983 0.800684 0.356177
O O11 0.606247 0.754188 0.510051
O O12 0.720061 0.000000 0.893728
O O13 0.832600 0.130713 0.921330
O O14 0.902302 0.500000 0.510051
O O15 0.832600 0.369287 0.598772
O O16 0.000000 0.360574 0.510051
O O17 0.778414 0.905029 0.264265
O O18 0.720061 0.500000 0.626374
O O19 0.645313 0.643157 0.638269
O O20 0.500000 0.246348 0.159382
#
# Coordination Sequence:
#
# PCOD8179481 Si02
#       8
#     8   8   8   8   8   8   8   8
#     4  10  22  39  62  87 118 158 201 243 291 355
#     4  11  24  43  65  90 123 161 200 249 306 354
#     4  10  20  37  60  82 111 154 195 234 290 356
#     4  10  20  35  57  88 118 148 192 243 295 349
#     4   9  18  33  53  78 112 147 178 222 283 342
#     4  10  22  39  62  87 118 158 201 243 291 355
#     4  10  20  35  57  88 118 148 192 243 295 349
#     4  10  20  37  60  82 111 154 195 234 290 356
#
# _framework density 19.991305000000001
#
# number of rings (size 3 to 8) (size 9 to 14) (size 15 to 20)
#    0.000    2.000    2.500    0.750    0.000    6.500 
#    0.000   12.500    0.000    3.000    0.000    0.000 
#    0.000    0.000    0.000    0.000    0.000    0.000 
#
# Total GULP energy -396418.231945 kJ/mol
# GULP energy per Si atom -12388.069748 kJ/mol
# Density = 1.994580 g / cm^3
# Si number density = 19.991305 Si / 1000 Ang^3
#
#
#
# Elastic Constant Matrix: (Units=GPa)
#
#
# Indices 1 2 3 4 5 6 
#
# 1 123.7036 40.0665 51.7444 0.0000 0.0000 0.0000
# 2 40.0665 76.2561 41.6773 0.0000 0.0000 0.0000
# 3 51.7444 41.6773 143.5402 0.0000 0.0000 0.0000
# 4 0.0000 0.0000 0.0000 25.5359 0.0000 0.0000
# 5 0.0000 0.0000 0.0000 0.0000 1.1238 0.0000
# 6 0.0000 0.0000 0.0000 0.0000 0.0000 25.5806
#
#
#
# Elastic Compliance Matrix: (Units=1/GPa)
#
#
# Indices 1 2 3 4 5 6 
#
# 1 0.010496 -0.004097 -0.002594 0.000000 0.000000 0.000000
# 2 -0.004097 0.017186 -0.003513 0.000000 0.000000 0.000000
# 3 -0.002594 -0.003513 0.008922 0.000000 0.000000 0.000000
# 4 0.000000 0.000000 0.000000 0.039161 0.000000 0.000000
# 5 0.000000 0.000000 0.000000 0.000000 0.889832 0.000000
# 6 0.000000 0.000000 0.000000 0.000000 0.000000 0.039092
#
#
# Mechanical properties :
#
#
# Convention : Reuss Voigt Hill
#
# Bulk Modulus (GPa) = 61.74479 67.83073 64.78776
# Shear Modulus (GPa) = 4.85203 24.44884 14.65043
#
# Velocity S-wave (km/s) = 1.55960 3.50090 2.71004
# Velocity P-wave (km/s) = 5.84773 7.09546 6.50160
#
# Compressibility (1/GPa) = 0.01619570
#
# Stress axis : x y z
#
# Youngs Moduli (GPa) = 95.27532 58.18521 112.08380
#
# Poissons Ratio (x) = 0.23838 0.29075
# Poissons Ratio (y) = 0.39034 0.39378
# Poissons Ratio (z) = 0.24715 0.20442
#
# Static dielectric constant tensor:
#      x y z
#    x 3.696390 0.000000 0.000000 
#    y 0.000000 3.656690 0.000000 
#    z 0.000000 0.000000 4.003420 
# 
# 
# High freq. dielectric constant tensor:
#      x y z
#    x 1.766510 0.000000 0.000000 
#    y 0.000000 1.765630 0.000000 
#    z 0.000000 0.000000 1.805470 
# 
# From -- ./inp_files/13975.got.cif
#   From: 2010.03.12/outbox.cif.g09.slc.cpg/sg38_7_cif.got.tgz:13975.got - 2010.04.14 02:38:36.
