data_PCOD8179509
_publ_section_title
;
Structure prediction by ZEFSAII (Michael W. Deem and Ramdas Pophale) SiO2 
 PCOD8179509
Probable space group: A M M 2
;
_chemical_formula_sum "Si O2"
_cell_formula_units_Z 64
_cell_length_a 23.855154
_cell_length_b 8.634384
_cell_length_c 15.337658
_cell_angle_alpha 90.000000
_cell_angle_beta 90.000000
_cell_angle_gamma 90.000000
_cell_volume 3159.167358
_symmetry_space_group_name_H-M "A M M 2"
_symmetry_group_IT_number 38
_symmetry_cell_setting 'orthorhombic'
loop_
_space_group_symop_operation_xyz
x,y,z
-x,-y,z
-x,y,z
x,-y,z
x,1/2+y,1/2+z
-x,1/2-y,1/2+z
-x,1/2+y,1/2+z
x,1/2-y,1/2+z
loop_
_atom_site_type_symbol
_atom_site_label
_atom_site_fract_x
_atom_site_fract_y
_atom_site_fract_z
Si Si1 0.434930 0.179787 0.493090
Si Si2 0.371620 0.322879 0.332824
Si Si3 0.937235 0.316863 0.997268
Si Si4 0.744691 0.177273 0.913569
Si Si5 0.133452 0.680839 0.345434
Si Si6 0.737869 0.319067 0.096334
Si Si7 0.374795 0.320394 0.654378
Si Si8 0.859405 0.316194 0.150346
O O1 0.500000 0.221145 0.488260
O O2 0.402909 0.278469 0.421090
O O3 0.412486 0.222734 0.588298
O O4 0.423394 0.000000 0.475901
O O5 0.385445 0.500000 0.310742
O O6 0.304924 0.299251 0.344249
O O7 0.393557 0.218708 0.252931
O O8 0.939204 0.500000 0.004747
O O9 0.908523 0.273444 0.906628
O O10 0.000000 0.247636 0.000246
O O11 0.902277 0.246786 0.078743
O O12 0.802396 0.221839 0.866632
O O13 0.745601 0.000000 0.947769
O O14 0.734141 0.293056 0.993068
O O15 0.121673 0.500000 0.357503
O O16 0.121160 0.735183 0.246522
O O17 0.729680 0.500000 0.117074
O O18 0.690187 0.223300 0.144999
O O19 0.797184 0.253882 0.130560
O O20 0.384327 0.500000 0.635157
O O21 0.857789 0.500000 0.143059
#
# Coordination Sequence:
#
# PCOD8179509 Si02
#       8
#     8   8   8   8   8   8   8   8
#     4  11  25  45  67  92 123 161 208 258 307 359
#     4  11  23  41  66  94 126 162 202 249 305 366
#     4  10  21  38  57  79 111 150 197 248 295 348
#     4  10  20  35  58  90 124 155 189 241 302 361
#     4  10  20  36  59  85 116 149 191 239 289 354
#     4  11  20  35  62  89 120 157 198 243 298 365
#     4  12  25  41  63  93 128 164 205 250 303 363
#     4   9  19  36  58  85 113 152 194 236 292 354
#
# _framework density 20.258503000000001
#
# number of rings (size 3 to 8) (size 9 to 14) (size 15 to 20)
#    0.000    1.500    2.500    3.000    0.000    4.750 
#    0.000    4.375    0.000    0.000    0.000    0.000 
#    0.000    0.000    0.000    0.000    0.000    0.000 
#
# Total GULP energy -396942.608823 kJ/mol
# GULP energy per Si atom -12404.456526 kJ/mol
# Density = 2.021239 g / cm^3
# Si number density = 20.258503 Si / 1000 Ang^3
#
#
#
# Elastic Constant Matrix: (Units=GPa)
#
#
# Indices 1 2 3 4 5 6 
#
# 1 111.8516 30.6921 29.2699 0.0000 0.0000 0.0000
# 2 30.6921 36.3240 14.2291 0.0000 0.0000 0.0000
# 3 29.2699 14.2291 114.3360 0.0000 0.0000 0.0000
# 4 0.0000 0.0000 0.0000 34.6438 0.0000 0.0000
# 5 0.0000 0.0000 0.0000 0.0000 10.6631 0.0000
# 6 0.0000 0.0000 0.0000 0.0000 0.0000 17.8945
#
#
#
# Elastic Compliance Matrix: (Units=1/GPa)
#
#
# Indices 1 2 3 4 5 6 
#
# 1 0.012022 -0.009411 -0.001906 0.000000 0.000000 0.000000
# 2 -0.009411 0.036308 -0.002109 0.000000 0.000000 0.000000
# 3 -0.001906 -0.002109 0.009497 0.000000 0.000000 0.000000
# 4 0.000000 0.000000 0.000000 0.028865 0.000000 0.000000
# 5 0.000000 0.000000 0.000000 0.000000 0.093781 0.000000
# 6 0.000000 0.000000 0.000000 0.000000 0.000000 0.055883
#
#
# Mechanical properties :
#
#
# Convention : Reuss Voigt Hill
#
# Bulk Modulus (GPa) = 32.28604 45.65487 38.97046
# Shear Modulus (GPa) = 18.27931 25.19499 21.73715
#
# Velocity S-wave (km/s) = 3.00710 3.53040 3.27920
# Velocity P-wave (km/s) = 5.29419 6.26126 5.79792
#
# Compressibility (1/GPa) = 0.03097314
#
# Stress axis : x y z
#
# Youngs Moduli (GPa) = 83.18335 27.54210 105.29999
#
# Poissons Ratio (x) = 0.25920 0.20074
# Poissons Ratio (y) = 0.78283 0.22211
# Poissons Ratio (z) = 0.15858 0.05810
#
# Static dielectric constant tensor:
#      x y z
#    x 3.832380 0.000000 0.000000 
#    y 0.000000 3.519070 0.000000 
#    z 0.000000 0.000000 3.748380 
# 
# 
# High freq. dielectric constant tensor:
#      x y z
#    x 1.792190 0.000000 0.000000 
#    y 0.000000 1.774230 0.000000 
#    z 0.000000 0.000000 1.802450 
# 
# From -- ./inp_files/15744.got.cif
#   From: 2010.03.12/outbox.cif.g09.slc.cpg/sg38_8_cif.got.tgz:15744.got - 2010.04.14 02:38:36.
