data_PCOD8179504
_publ_section_title
;
Structure prediction by ZEFSAII (Michael W. Deem and Ramdas Pophale) SiO2 
 PCOD8179504
Probable space group: A M M 2
;
_chemical_formula_sum "Si O2"
_cell_formula_units_Z 48
_cell_length_a 8.802794
_cell_length_b 27.885654
_cell_length_c 10.267396
_cell_angle_alpha 90.000000
_cell_angle_beta 90.000000
_cell_angle_gamma 90.000000
_cell_volume 2520.354819
_symmetry_space_group_name_H-M "A M M 2"
_symmetry_group_IT_number 38
_symmetry_cell_setting 'orthorhombic'
loop_
_space_group_symop_operation_xyz
x,y,z
-x,-y,z
-x,y,z
x,-y,z
x,1/2+y,1/2+z
-x,1/2-y,1/2+z
-x,1/2+y,1/2+z
x,1/2-y,1/2+z
loop_
_atom_site_type_symbol
_atom_site_label
_atom_site_fract_x
_atom_site_fract_y
_atom_site_fract_z
Si Si1 0.321362 0.357529 0.700240
Si Si2 0.678437 0.800094 0.459137
Si Si3 0.676865 0.554199 0.105313
Si Si4 0.179202 0.196055 0.960267
Si Si5 0.178939 0.356279 0.196554
Si Si6 0.823341 0.054625 0.325525
O O1 0.500000 0.360025 0.676522
O O2 0.279435 0.323373 0.821060
O O3 0.240484 0.337259 0.573850
O O4 0.258045 0.410993 0.722090
O O5 0.500000 0.796371 0.480180
O O6 0.748001 0.747857 0.468546
O O7 0.747022 0.832493 0.571346
O O8 0.500000 0.566334 0.094247
O O9 0.704980 0.500000 0.153700
O O10 0.756754 0.589553 0.208483
O O11 0.748935 0.563113 0.965000
O O12 0.227745 0.172581 0.824133
O O13 0.000000 0.201194 0.974124
O O14 0.000000 0.357591 0.179231
O O15 0.000000 0.067673 0.335823
O O16 0.798876 0.000000 0.278551
#
# Coordination Sequence:
#
# PCOD8179504 Si02
#       6
#     8   8   8   8   8   8
#     4  11  23  39  61  89 119 156 197 241 293 347
#     4  11  23  39  61  88 116 152 198 245 293 347
#     4  10  20  35  58  88 119 151 192 241 290 345
#     4  11  25  41  58  84 119 158 198 243 294 348
#     4  11  23  39  61  88 118 155 197 242 294 348
#     4  10  20  35  59  89 119 152 192 240 290 343
#
# _framework density 19.044937000000001
#
# number of rings (size 3 to 8) (size 9 to 14) (size 15 to 20)
#    0.000    1.333    1.667    4.000    0.000    9.333 
#    0.000    0.833    0.000    1.000    0.000    0.000 
#    0.000    0.000    0.000    0.000    0.000    0.000 
#
# Total GULP energy -297722.571165 kJ/mol
# GULP energy per Si atom -12405.107132 kJ/mol
# Density = 1.900159 g / cm^3
# Si number density = 19.044937 Si / 1000 Ang^3
#
#
#
# Elastic Constant Matrix: (Units=GPa)
#
#
# Indices 1 2 3 4 5 6 
#
# 1 63.7072 16.0130 17.4163 0.0000 0.0000 0.0000
# 2 16.0130 86.5441 -7.5895 0.0000 0.0000 0.0000
# 3 17.4163 -7.5895 24.4467 0.0000 0.0000 0.0000
# 4 0.0000 0.0000 0.0000 -39.0988 0.0000 0.0000
# 5 0.0000 0.0000 0.0000 0.0000 27.0154 0.0000
# 6 0.0000 0.0000 0.0000 0.0000 0.0000 40.5067
#
#
#
# Elastic Compliance Matrix: (Units=1/GPa)
#
#
# Indices 1 2 3 4 5 6 
#
# 1 0.021810 -0.005549 -0.017261 0.000000 0.000000 0.000000
# 2 -0.005549 0.013290 0.008079 0.000000 0.000000 0.000000
# 3 -0.017261 0.008079 0.055711 0.000000 0.000000 0.000000
# 4 0.000000 0.000000 0.000000 -0.025576 0.000000 0.000000
# 5 0.000000 0.000000 0.000000 0.000000 0.037016 0.000000
# 6 0.000000 0.000000 0.000000 0.000000 0.000000 0.024687
#
#
# Mechanical properties :
#
#
# Convention : Reuss Voigt Hill
#
# Bulk Modulus (GPa) = 16.30009 25.15306 20.72658
# Shear Modulus (GPa) = 28.27261 15.60853 21.94057
#
# Velocity S-wave (km/s) = 3.85713 2.86591 3.39786
# Velocity P-wave (km/s) = 5.33047 4.91804 5.12840
#
# Compressibility (1/GPa) = 0.06134935
#
# Stress axis : x y z
#
# Youngs Moduli (GPa) = 45.84964 75.24414 17.94992
#
# Poissons Ratio (x) = 0.41755 0.30983
# Poissons Ratio (y) = 0.25443 -0.14502
# Poissons Ratio (z) = 0.79141 -0.60792
#
# Static dielectric constant tensor:
#      x y z
#    x 3.668890 0.000000 0.000000 
#    y 0.000000 4.000390 0.000000 
#    z 0.000000 0.000000 3.400860 
# 
# 
# High freq. dielectric constant tensor:
#      x y z
#    x 1.760670 0.000000 0.000000 
#    y 0.000000 1.760500 0.000000 
#    z 0.000000 0.000000 1.724300 
# 
# From -- ./inp_files/3726.got.cif
#   From: 2010.03.12/outbox.cif.g09.slc.cpg/sg38_2_cif.got.tgz:3726.got - 2010.04.14 02:38:36.
