data_PCOD8179001
_publ_section_title
;
Structure prediction by ZEFSAII (Michael W. Deem and Ramdas Pophale) SiO2 
 PCOD8179001
Probable space group: A M M 2
;
_chemical_formula_sum "Si O2"
_cell_formula_units_Z 48
_cell_length_a 20.838976
_cell_length_b 9.397879
_cell_length_c 14.034348
_cell_angle_alpha 90.000000
_cell_angle_beta 90.000000
_cell_angle_gamma 90.000000
_cell_volume 2748.517236
_symmetry_space_group_name_H-M "A M M 2"
_symmetry_group_IT_number 38
_symmetry_cell_setting 'orthorhombic'
loop_
_space_group_symop_operation_xyz
x,y,z
-x,-y,z
-x,y,z
x,-y,z
x,1/2+y,1/2+z
-x,1/2-y,1/2+z
-x,1/2+y,1/2+z
x,1/2-y,1/2+z
loop_
_atom_site_type_symbol
_atom_site_label
_atom_site_fract_x
_atom_site_fract_y
_atom_site_fract_z
Si Si1 0.732993 0.666147 0.066160
Si Si2 0.157705 0.835724 0.415923
Si Si3 0.179423 0.166186 0.200934
Si Si4 0.500000 0.165366 0.198621
Si Si5 0.604639 0.335043 0.546271
Si Si6 0.500000 0.337811 0.390725
Si Si7 0.072797 0.664774 0.550429
O O1 0.725452 0.500000 0.089131
O O2 0.761860 0.743765 0.158623
O O3 0.664946 0.732287 0.040818
O O4 0.778000 0.693462 0.975315
O O5 0.169479 0.782991 0.308796
O O6 0.098221 0.749989 0.459244
O O7 0.137988 0.000000 0.417751
O O8 0.114203 0.200838 0.144015
O O9 0.197523 0.000000 0.194964
O O10 0.436667 0.205944 0.139121
O O11 0.500000 0.243319 0.298006
O O12 0.500000 0.000000 0.220717
O O13 0.625973 0.500000 0.550557
O O14 0.563125 0.305318 0.452230
O O15 0.500000 0.500000 0.357171
O O16 0.077928 0.500000 0.524022
O O17 0.000000 0.710569 0.572375
#
# Coordination Sequence:
#
# PCOD8179001 Si02
#       7
#     8   8   8   4   8   4   8
#     4  10  20  33  50  75 102 127 163 209 248 284
#     4   9  19  34  51  72  98 129 165 203 244 291
#     4   9  18  34  53  71  97 133 166 198 242 297
#     4   9  19  35  54  74  98 129 165 203 242 290
#     4   9  19  36  53  71 100 136 166 195 242 300
#     4   9  19  35  54  76 102 131 165 203 244 292
#     4   9  18  32  50  73  99 127 162 202 243 290
#
# _framework density 17.463961000000001
#
# number of rings (size 3 to 8) (size 9 to 14) (size 15 to 20)
#    0.000    2.833    0.000    1.500    0.000    5.000 
#    0.000    8.333    0.000    0.000    0.000    0.000 
#    0.000    0.000    0.000    0.000    0.000    0.000 
#
# Total GULP energy -297643.792604 kJ/mol
# GULP energy per Si atom -12401.824692 kJ/mol
# Density = 1.742421 g / cm^3
# Si number density = 17.463961 Si / 1000 Ang^3
#
#
#
# Elastic Constant Matrix: (Units=GPa)
#
#
# Indices 1 2 3 4 5 6 
#
# 1 106.8932 49.2455 36.4634 0.0000 0.0000 0.0000
# 2 49.2455 59.2157 39.8307 0.0000 0.0000 0.0000
# 3 36.4634 39.8307 120.8335 0.0000 0.0000 0.0000
# 4 0.0000 0.0000 0.0000 33.1181 0.0000 0.0000
# 5 0.0000 0.0000 0.0000 0.0000 13.2884 0.0000
# 6 0.0000 0.0000 0.0000 0.0000 0.0000 33.0628
#
#
#
# Elastic Compliance Matrix: (Units=1/GPa)
#
#
# Indices 1 2 3 4 5 6 
#
# 1 0.015193 -0.012272 -0.000539 0.000000 0.000000 0.000000
# 2 -0.012272 0.031611 -0.006717 0.000000 0.000000 0.000000
# 3 -0.000539 -0.006717 0.010653 0.000000 0.000000 0.000000
# 4 0.000000 0.000000 0.000000 0.030195 0.000000 0.000000
# 5 0.000000 0.000000 0.000000 0.000000 0.075254 0.000000
# 6 0.000000 0.000000 0.000000 0.000000 0.000000 0.030246
#
#
# Mechanical properties :
#
#
# Convention : Reuss Voigt Hill
#
# Bulk Modulus (GPa) = 54.34707 59.78019 57.06363
# Shear Modulus (GPa) = 20.97841 26.65405 23.81623
#
# Velocity S-wave (km/s) = 3.46965 3.91094 3.69689
# Velocity P-wave (km/s) = 6.87302 7.39587 7.13923
#
# Compressibility (1/GPa) = 0.01840026
#
# Stress axis : x y z
#
# Youngs Moduli (GPa) = 65.82067 31.63448 93.87283
#
# Poissons Ratio (x) = 0.38822 0.05064
# Poissons Ratio (y) = 0.80775 0.63053
# Poissons Ratio (z) = 0.03551 0.21248
#
# Static dielectric constant tensor:
#      x y z
#    x 3.244660 0.000000 0.000000 
#    y 0.000000 3.213750 0.000000 
#    z 0.000000 0.000000 3.263660 
# 
# 
# High freq. dielectric constant tensor:
#      x y z
#    x 1.675900 0.000000 0.000000 
#    y 0.000000 1.673900 0.000000 
#    z 0.000000 0.000000 1.675910 
# 
# From -- ./inp_files/15014.got.cif
#   From: 2010.03.12/outbox.cif.g09.slc.cpg/sg38_8_cif.got.tgz:15014.got - 2010.04.14 02:38:36.
