data_PCOD8179096
_publ_section_title
;
Structure prediction by ZEFSAII (Michael W. Deem and Ramdas Pophale) SiO2 
 PCOD8179096
Probable space group: A M M 2
;
_chemical_formula_sum "Si O2"
_cell_formula_units_Z 64
_cell_length_a 19.105583
_cell_length_b 9.084145
_cell_length_c 20.421421
_cell_angle_alpha 90.000000
_cell_angle_beta 90.000000
_cell_angle_gamma 90.000000
_cell_volume 3544.298664
_symmetry_space_group_name_H-M "A M M 2"
_symmetry_group_IT_number 38
_symmetry_cell_setting 'orthorhombic'
loop_
_space_group_symop_operation_xyz
x,y,z
-x,-y,z
-x,y,z
x,-y,z
x,1/2+y,1/2+z
-x,1/2-y,1/2+z
-x,1/2+y,1/2+z
x,1/2-y,1/2+z
loop_
_atom_site_type_symbol
_atom_site_label
_atom_site_fract_x
_atom_site_fract_y
_atom_site_fract_z
Si Si1 0.215827 0.172202 0.619880
Si Si2 0.922490 0.169149 0.688080
Si Si3 0.779549 0.169888 0.376266
Si Si4 0.292753 0.171469 0.238879
Si Si5 0.420444 0.328695 0.197953
Si Si6 0.577949 0.668136 0.563722
Si Si7 0.280761 0.328910 0.498119
Si Si8 0.077537 0.172265 0.321649
O O1 0.133151 0.201862 0.630931
O O2 0.258431 0.244174 0.678552
O O3 0.234705 0.243908 0.551106
O O4 0.233510 0.000000 0.617676
O O5 0.902289 0.258163 0.752557
O O6 0.000000 0.212677 0.662275
O O7 0.919652 0.000000 0.709221
O O8 0.749115 0.202320 0.304784
O O9 0.739046 0.271983 0.426685
O O10 0.862492 0.212067 0.374740
O O11 0.768831 0.000000 0.396231
O O12 0.371062 0.236715 0.247026
O O13 0.295849 0.000000 0.221775
O O14 0.500000 0.298026 0.219484
O O15 0.401764 0.500000 0.201791
O O16 0.407234 0.275909 0.123857
O O17 0.500000 0.696597 0.534435
O O18 0.584472 0.500000 0.588966
O O19 0.636235 0.700099 0.508531
O O20 0.262577 0.500000 0.503257
O O21 0.000000 0.224081 0.345913
O O22 0.078572 0.000000 0.308780
#
# Coordination Sequence:
#
# PCOD8179096 Si02
#       8
#     8   8   8   8   8   8   8   8
#     4  11  21  34  56  82 111 144 180 227 276 325
#     4   9  18  32  52  81 112 142 179 225 277 327
#     4  10  22  38  55  79 112 147 184 227 275 329
#     4  11  21  35  56  82 111 144 183 226 274 328
#     4  10  20  33  53  83 113 143 182 228 275 324
#     4   9  18  34  55  78 105 139 179 225 276 329
#     4  11  23  37  56  81 110 146 186 227 275 332
#     4   9  17  32  55  80 106 140 182 226 273 326
#
# _framework density 18.057168000000001
#
# number of rings (size 3 to 8) (size 9 to 14) (size 15 to 20)
#    0.000    2.000    2.500    1.500    0.000    3.250 
#    0.000    1.250    0.000    6.000    0.000    0.000 
#    0.000    0.000    0.000    0.000    0.000    0.000 
#
# Total GULP energy -396756.979249 kJ/mol
# GULP energy per Si atom -12398.655602 kJ/mol
# Density = 1.801607 g / cm^3
# Si number density = 18.057168 Si / 1000 Ang^3
#
#
#
# Elastic Constant Matrix: (Units=GPa)
#
#
# Indices 1 2 3 4 5 6 
#
# 1 128.9676 52.8090 42.6554 0.0000 0.0000 0.0000
# 2 52.8090 85.8639 38.6040 0.0000 0.0000 0.0000
# 3 42.6554 38.6040 58.4282 0.0000 0.0000 0.0000
# 4 0.0000 0.0000 0.0000 31.7924 0.0000 0.0000
# 5 0.0000 0.0000 0.0000 0.0000 23.8882 0.0000
# 6 0.0000 0.0000 0.0000 0.0000 0.0000 27.3451
#
#
#
# Elastic Compliance Matrix: (Units=1/GPa)
#
#
# Indices 1 2 3 4 5 6 
#
# 1 0.011392 -0.004648 -0.005246 0.000000 0.000000 0.000000
# 2 -0.004648 0.018464 -0.008806 0.000000 0.000000 0.000000
# 3 -0.005246 -0.008806 0.026763 0.000000 0.000000 0.000000
# 4 0.000000 0.000000 0.000000 0.031454 0.000000 0.000000
# 5 0.000000 0.000000 0.000000 0.000000 0.041862 0.000000
# 6 0.000000 0.000000 0.000000 0.000000 0.000000 0.036570
#
#
# Mechanical properties :
#
#
# Convention : Reuss Voigt Hill
#
# Bulk Modulus (GPa) = 52.03088 60.15514 56.09301
# Shear Modulus (GPa) = 23.77427 25.88455 24.82941
#
# Velocity S-wave (km/s) = 3.63245 3.79024 3.71218
# Velocity P-wave (km/s) = 6.81689 7.24849 7.03600
#
# Compressibility (1/GPa) = 0.01921935
#
# Stress axis : x y z
#
# Youngs Moduli (GPa) = 87.77953 54.15872 37.36498
#
# Poissons Ratio (x) = 0.25173 0.19601
# Poissons Ratio (y) = 0.40800 0.32904
# Poissons Ratio (z) = 0.46048 0.47693
#
# Static dielectric constant tensor:
#      x y z
#    x 3.946990 0.000000 0.000000 
#    y 0.000000 3.418650 0.000000 
#    z 0.000000 0.000000 2.982270 
# 
# 
# High freq. dielectric constant tensor:
#      x y z
#    x 1.722070 0.000000 0.000000 
#    y 0.000000 1.707500 0.000000 
#    z 0.000000 0.000000 1.659440 
# 
# From -- ./inp_files/18895.got.cif
#   From: 2010.03.12/outbox.cif.g09.slc.cpg/sg38_10_cif.got.tgz:18895.got - 2010.04.14 02:38:36.
