data_PCOD8179429
_publ_section_title
;
Structure prediction by ZEFSAII (Michael W. Deem and Ramdas Pophale) SiO2 
 PCOD8179429
Probable space group: A M M 2
;
_chemical_formula_sum "Si O2"
_cell_formula_units_Z 64
_cell_length_a 9.447448
_cell_length_b 27.757995
_cell_length_c 12.777286
_cell_angle_alpha 90.000000
_cell_angle_beta 90.000000
_cell_angle_gamma 90.000000
_cell_volume 3350.743774
_symmetry_space_group_name_H-M "A M M 2"
_symmetry_group_IT_number 38
_symmetry_cell_setting 'orthorhombic'
loop_
_space_group_symop_operation_xyz
x,y,z
-x,-y,z
-x,y,z
x,-y,z
x,1/2+y,1/2+z
-x,1/2-y,1/2+z
-x,1/2+y,1/2+z
x,1/2-y,1/2+z
loop_
_atom_site_type_symbol
_atom_site_label
_atom_site_fract_x
_atom_site_fract_y
_atom_site_fract_z
Si Si1 0.656184 0.577877 0.823990
Si Si2 0.338532 0.946524 0.104220
Si Si3 0.166432 0.556335 0.236818
Si Si4 0.834692 0.205985 0.448834
Si Si5 0.332903 0.612703 0.413160
Si Si6 0.163257 0.097395 0.511167
Si Si7 0.663276 0.292304 0.526940
Si Si8 0.654708 0.813297 0.261086
O O1 0.500000 0.555111 0.842592
O O2 0.731831 0.556212 0.719607
O O3 0.643248 0.634165 0.807755
O O4 0.751421 0.566764 0.924833
O O5 0.500000 0.928923 0.120948
O O6 0.328728 0.000000 0.058913
O O7 0.268927 0.913078 0.016537
O O8 0.211263 0.500000 0.247728
O O9 0.250169 0.591336 0.314932
O O10 0.207794 0.576408 0.123063
O O11 0.000000 0.562085 0.258162
O O12 0.802837 0.154333 0.502153
O O13 0.762106 0.245860 0.520996
O O14 0.771367 0.213321 0.331966
O O15 0.000000 0.216214 0.441321
O O16 0.500000 0.601961 0.398858
O O17 0.304882 0.669476 0.433292
O O18 0.000000 0.087628 0.488448
O O19 0.500000 0.276174 0.520822
O O20 0.698435 0.315861 0.639611
O O21 0.500000 0.787900 0.272931
#
# Coordination Sequence:
#
# PCOD8179429 Si02
#       8
#     8   8   8   8   8   8   8   8
#     4   9  16  30  53  79 104 134 172 217 269 324
#     4   9  16  28  50  80 110 136 164 208 268 324
#     4  10  22  40  59  79 111 156 197 235 284 339
#     4  10  21  35  53  80 110 144 187 233 284 337
#     4  10  20  36  57  82 110 143 185 231 278 332
#     4   9  20  38  55  74 107 147 185 228 278 330
#     4  10  20  35  56  81 110 145 187 231 282 340
#     4   9  17  33  54  74 104 141 176 220 274 331
#
# _framework density 19.100237
#
# number of rings (size 3 to 8) (size 9 to 14) (size 15 to 20)
#    0.000    2.500    1.250    0.750    0.000    4.250 
#    0.000    3.125    0.000    0.750    0.000    0.000 
#    0.000    0.000    0.000    0.000    0.000    0.000 
#
# Total GULP energy -396597.084983 kJ/mol
# GULP energy per Si atom -12393.658906 kJ/mol
# Density = 1.905676 g / cm^3
# Si number density = 19.100237 Si / 1000 Ang^3
#
#
#
# Elastic Constant Matrix: (Units=GPa)
#
#
# Indices 1 2 3 4 5 6 
#
# 1 62.6623 29.0380 44.1356 0.0000 0.0000 0.0000
# 2 29.0380 54.2528 29.4146 0.0000 0.0000 0.0000
# 3 44.1356 29.4146 117.8017 0.0000 0.0000 0.0000
# 4 0.0000 0.0000 0.0000 25.8806 0.0000 0.0000
# 5 0.0000 0.0000 0.0000 0.0000 20.4813 0.0000
# 6 0.0000 0.0000 0.0000 0.0000 0.0000 12.1810
#
#
#
# Elastic Compliance Matrix: (Units=1/GPa)
#
#
# Indices 1 2 3 4 5 6 
#
# 1 0.025506 -0.009797 -0.007110 0.000000 0.000000 0.000000
# 2 -0.009797 0.025081 -0.002592 0.000000 0.000000 0.000000
# 3 -0.007110 -0.002592 0.011800 0.000000 0.000000 0.000000
# 4 0.000000 0.000000 0.000000 0.038639 0.000000 0.000000
# 5 0.000000 0.000000 0.000000 0.000000 0.048825 0.000000
# 6 0.000000 0.000000 0.000000 0.000000 0.000000 0.082095
#
#
# Mechanical properties :
#
#
# Convention : Reuss Voigt Hill
#
# Bulk Modulus (GPa) = 42.75452 48.87703 45.81578
# Shear Modulus (GPa) = 17.93776 20.51715 19.22745
#
# Velocity S-wave (km/s) = 3.06786 3.28103 3.17623
# Velocity P-wave (km/s) = 5.91455 6.32446 6.12294
#
# Compressibility (1/GPa) = 0.02338934
#
# Stress axis : x y z
#
# Youngs Moduli (GPa) = 39.20590 39.87024 84.74657
#
# Poissons Ratio (x) = 0.39061 0.60254
# Poissons Ratio (y) = 0.38410 0.21968
# Poissons Ratio (z) = 0.27875 0.10335
#
# Static dielectric constant tensor:
#      x y z
#    x 3.474050 0.000000 0.000000 
#    y 0.000000 3.425540 0.000000 
#    z 0.000000 0.000000 3.596080 
# 
# 
# High freq. dielectric constant tensor:
#      x y z
#    x 1.717060 0.000000 0.000000 
#    y 0.000000 1.739190 0.000000 
#    z 0.000000 0.000000 1.747800 
# 
# From -- ./inp_files/8638.got.cif
#   From: 2010.03.12/outbox.cif.g09.slc.cpg/sg38_5_cif.got.tgz:8638.got - 2010.04.14 02:38:36.
