data_PCOD8179393
_publ_section_title
;
Structure prediction by ZEFSAII (Michael W. Deem and Ramdas Pophale) SiO2 
 PCOD8179393
Probable space group: A M M 2
;
_chemical_formula_sum "Si O2"
_cell_formula_units_Z 52
_cell_length_a 14.402557
_cell_length_b 19.490575
_cell_length_c 9.588692
_cell_angle_alpha 90.000000
_cell_angle_beta 90.000000
_cell_angle_gamma 90.000000
_cell_volume 2691.681212
_symmetry_space_group_name_H-M "A M M 2"
_symmetry_group_IT_number 38
_symmetry_cell_setting 'orthorhombic'
loop_
_space_group_symop_operation_xyz
x,y,z
-x,-y,z
-x,y,z
x,-y,z
x,1/2+y,1/2+z
-x,1/2-y,1/2+z
-x,1/2+y,1/2+z
x,1/2-y,1/2+z
loop_
_atom_site_type_symbol
_atom_site_label
_atom_site_fract_x
_atom_site_fract_y
_atom_site_fract_z
Si Si1 0.296344 0.577783 0.226740
Si Si2 0.282233 0.787219 0.363930
Si Si3 0.847333 0.838517 0.873396
Si Si4 0.000000 0.691534 0.155599
Si Si5 0.000000 0.154094 0.097063
Si Si6 0.000000 0.603985 0.897596
Si Si7 0.606853 0.292947 0.142184
Si Si8 0.796506 0.573236 0.931344
O O1 0.331766 0.500000 0.254985
O O2 0.231123 0.603128 0.353774
O O3 0.381782 0.631178 0.210871
O O4 0.236834 0.584083 0.087805
O O5 0.199376 0.735347 0.403372
O O6 0.332621 0.763546 0.223317
O O7 0.359427 0.791766 0.483549
O O8 0.236950 0.862507 0.337402
O O9 0.908533 0.836172 0.733100
O O10 0.908298 0.859402 0.006113
O O11 0.000000 0.772166 0.166141
O O12 0.000000 0.673770 0.990617
O O13 0.000000 0.106164 0.230461
O O14 0.092786 0.564369 0.939024
O O15 0.500000 0.271650 0.147515
O O16 0.756737 0.500000 0.873744
#
# Coordination Sequence:
#
# PCOD8179393 Si02
#       8
#     8   8   8   4   4   4   8   8
#     4   9  19  37  59  80 107 146 190 227 271 331
#     4  10  21  36  60  83 112 144 183 227 280 337
#     4  10  21  36  53  80 111 152 191 229 274 322
#     4  11  19  34  51  79 111 151 197 236 266 312
#     4  11  23  30  50  79 118 146 187 240 276 313
#     4  12  21  32  53  78 115 151 193 234 267 315
#     4  10  21  37  61  89 112 137 175 231 292 342
#     4  10  20  35  54  80 111 150 191 227 267 316
#
# _framework density 19.318781999999999
#
# number of rings (size 3 to 8) (size 9 to 14) (size 15 to 20)
#    0.000    1.846    1.538    3.462    6.462    0.308 
#    0.000    3.077    0.000    1.385    0.000    0.000 
#    0.000    0.000    0.000    0.000    0.000    0.000 
#
# Total GULP energy -322285.356435 kJ/mol
# GULP energy per Si atom -12395.590632 kJ/mol
# Density = 1.927481 g / cm^3
# Si number density = 19.318782 Si / 1000 Ang^3
#
#
#
# Elastic Constant Matrix: (Units=GPa)
#
#
# Indices 1 2 3 4 5 6 
#
# 1 85.6201 20.0569 14.3927 0.0000 0.0000 0.0000
# 2 20.0569 119.5817 10.2574 0.0000 0.0000 0.0000
# 3 14.3927 10.2574 60.7001 0.0000 0.0000 0.0000
# 4 0.0000 0.0000 0.0000 22.3968 0.0000 0.0000
# 5 0.0000 0.0000 0.0000 0.0000 6.2346 0.0000
# 6 0.0000 0.0000 0.0000 0.0000 0.0000 12.7690
#
#
#
# Elastic Compliance Matrix: (Units=1/GPa)
#
#
# Indices 1 2 3 4 5 6 
#
# 1 0.012567 -0.001879 -0.002662 0.000000 0.000000 0.000000
# 2 -0.001879 0.008767 -0.001036 0.000000 0.000000 0.000000
# 3 -0.002662 -0.001036 0.017281 0.000000 0.000000 0.000000
# 4 0.000000 0.000000 0.000000 0.044649 0.000000 0.000000
# 5 0.000000 0.000000 0.000000 0.000000 0.160395 0.000000
# 6 0.000000 0.000000 0.000000 0.000000 0.000000 0.078315
#
#
# Mechanical properties :
#
#
# Convention : Reuss Voigt Hill
#
# Bulk Modulus (GPa) = 36.41718 39.47954 37.94836
# Shear Modulus (GPa) = 14.60786 23.02641 18.81713
#
# Velocity S-wave (km/s) = 2.75280 3.45616 3.12434
# Velocity P-wave (km/s) = 5.38474 6.03382 5.71850
#
# Compressibility (1/GPa) = 0.02745957
#
# Stress axis : x y z
#
# Youngs Moduli (GPa) = 79.57157 114.06973 57.86792
#
# Poissons Ratio (x) = 0.21439 0.15406
# Poissons Ratio (y) = 0.14955 0.05994
# Poissons Ratio (z) = 0.21184 0.11815
#
# Static dielectric constant tensor:
#      x y z
#    x 3.408600 0.000000 0.000000 
#    y 0.000000 3.651610 0.000000 
#    z 0.000000 0.000000 3.348970 
# 
# 
# High freq. dielectric constant tensor:
#      x y z
#    x 1.742860 0.000000 0.000000 
#    y 0.000000 1.746430 0.000000 
#    z 0.000000 0.000000 1.738840 
# 
# From -- ./inp_files/5675.got.cif
#   From: 2010.03.12/outbox.cif.g09.slc.cpg/sg38_3_cif.got.tgz:5675.got - 2010.04.14 02:38:36.
