data_PCOD8179688
_publ_section_title
;
Structure prediction by ZEFSAII (Michael W. Deem and Ramdas Pophale) SiO2 
 PCOD8179688
Probable space group: A M M 2
;
_chemical_formula_sum "Si O2"
_cell_formula_units_Z 64
_cell_length_a 18.899084
_cell_length_b 9.038822
_cell_length_c 19.612714
_cell_angle_alpha 90.000000
_cell_angle_beta 90.000000
_cell_angle_gamma 90.000000
_cell_volume 3350.350817
_symmetry_space_group_name_H-M "A M M 2"
_symmetry_group_IT_number 38
_symmetry_cell_setting 'orthorhombic'
loop_
_space_group_symop_operation_xyz
x,y,z
-x,-y,z
-x,y,z
x,-y,z
x,1/2+y,1/2+z
-x,1/2-y,1/2+z
-x,1/2+y,1/2+z
x,1/2-y,1/2+z
loop_
_atom_site_type_symbol
_atom_site_label
_atom_site_fract_x
_atom_site_fract_y
_atom_site_fract_z
Si Si1 0.078339 0.324227 0.468690
Si Si2 0.669643 0.329116 0.680643
Si Si3 0.336994 0.172040 0.430705
Si Si4 0.581620 0.329656 0.547017
Si Si5 0.083111 0.830656 0.121328
Si Si6 0.423030 0.172852 0.300686
Si Si7 0.807314 0.674902 0.212862
Si Si8 0.200713 0.824301 0.869598
O O1 0.074981 0.500000 0.468643
O O2 0.102193 0.274123 0.544768
O O3 0.132087 0.266431 0.411034
O O4 0.000000 0.260867 0.451933
O O5 0.691340 0.500000 0.689044
O O6 0.611743 0.307937 0.622339
O O7 0.633706 0.260072 0.748400
O O8 0.741448 0.238045 0.669353
O O9 0.367214 0.231197 0.501246
O O10 0.399078 0.202756 0.377175
O O11 0.267536 0.257200 0.407784
O O12 0.318264 0.000000 0.437308
O O13 0.500000 0.275345 0.545105
O O14 0.586504 0.500000 0.523794
O O15 0.121372 0.730771 0.177517
O O16 0.000000 0.814873 0.134062
O O17 0.107668 0.000000 0.130577
O O18 0.500000 0.247451 0.291119
O O19 0.428694 0.000000 0.284387
O O20 0.805769 0.500000 0.209948
O O21 0.804703 0.730965 0.291450
O O22 0.206966 0.000000 0.872978
#
# Coordination Sequence:
#
# PCOD8179688 Si02
#       8
#     8   8   8   8   8   8   8   8
#     4   8  16  34  60  85 106 138 188 235 271 319
#     4  10  20  37  59  80 107 147 192 235 276 333
#     4  11  22  36  56  83 116 150 184 230 283 337
#     4  10  22  39  59  83 110 143 187 238 287 337
#     4   9  19  37  61  86 111 144 190 236 275 328
#     4   9  17  32  56  81 103 137 187 233 273 322
#     4  11  23  36  54  84 121 152 183 233 288 334
#     4  10  21  37  57  82 114 151 191 232 275 332
#
# _framework density 19.102475999999999
#
# number of rings (size 3 to 8) (size 9 to 14) (size 15 to 20)
#    0.000    2.250    1.250    2.250    1.750    4.000 
#    0.000    1.250    0.000    3.000    0.000    0.000 
#    0.000    0.000    0.000    0.000    0.000    0.000 
#
# Total GULP energy -396771.644861 kJ/mol
# GULP energy per Si atom -12399.113902 kJ/mol
# Density = 1.905900 g / cm^3
# Si number density = 19.102476 Si / 1000 Ang^3
#
#
#
# Elastic Constant Matrix: (Units=GPa)
#
#
# Indices 1 2 3 4 5 6 
#
# 1 115.3189 33.3889 47.4868 0.0000 0.0000 0.0000
# 2 33.3889 40.6515 30.6499 0.0000 0.0000 0.0000
# 3 47.4868 30.6499 87.3324 0.0000 0.0000 0.0000
# 4 0.0000 0.0000 0.0000 26.9623 0.0000 0.0000
# 5 0.0000 0.0000 0.0000 0.0000 25.6053 0.0000
# 6 0.0000 0.0000 0.0000 0.0000 0.0000 25.8018
#
#
#
# Elastic Compliance Matrix: (Units=1/GPa)
#
#
# Indices 1 2 3 4 5 6 
#
# 1 0.012478 -0.006980 -0.004335 0.000000 0.000000 0.000000
# 2 -0.006980 0.037355 -0.009315 0.000000 0.000000 0.000000
# 3 -0.004335 -0.009315 0.017077 0.000000 0.000000 0.000000
# 4 0.000000 0.000000 0.000000 0.037089 0.000000 0.000000
# 5 0.000000 0.000000 0.000000 0.000000 0.039054 0.000000
# 6 0.000000 0.000000 0.000000 0.000000 0.000000 0.038757
#
#
# Mechanical properties :
#
#
# Convention : Reuss Voigt Hill
#
# Bulk Modulus (GPa) = 38.98609 51.81713 45.40161
# Shear Modulus (GPa) = 21.58714 24.45904 23.02309
#
# Velocity S-wave (km/s) = 3.36530 3.58217 3.47542
# Velocity P-wave (km/s) = 5.96268 6.65537 6.31853
#
# Compressibility (1/GPa) = 0.02565017
#
# Stress axis : x y z
#
# Youngs Moduli (GPa) = 80.14320 26.76997 58.55923
#
# Poissons Ratio (x) = 0.18685 0.25386
# Poissons Ratio (y) = 0.55940 0.54546
# Poissons Ratio (z) = 0.34742 0.24936
#
# Static dielectric constant tensor:
#      x y z
#    x 3.721010 0.000000 0.000000 
#    y 0.000000 3.197250 0.000000 
#    z 0.000000 0.000000 3.629190 
# 
# 
# High freq. dielectric constant tensor:
#      x y z
#    x 1.755330 0.000000 0.000000 
#    y 0.000000 1.710060 0.000000 
#    z 0.000000 0.000000 1.750330 
# 
# From -- ./inp_files/21387.got.cif
#   From: 2010.03.12/outbox.cif.g09.slc.cpg/sg38_11_cif.got.tgz:21387.got - 2010.04.14 02:38:36.
