data_PCOD8179348
_publ_section_title
;
Structure prediction by ZEFSAII (Michael W. Deem and Ramdas Pophale) SiO2 
 PCOD8179348
Probable space group: A M M 2
;
_chemical_formula_sum "Si O2"
_cell_formula_units_Z 64
_cell_length_a 8.760689
_cell_length_b 32.990637
_cell_length_c 11.680778
_cell_angle_alpha 90.000000
_cell_angle_beta 90.000000
_cell_angle_gamma 90.000000
_cell_volume 3375.986759
_symmetry_space_group_name_H-M "A M M 2"
_symmetry_group_IT_number 38
_symmetry_cell_setting 'orthorhombic'
loop_
_space_group_symop_operation_xyz
x,y,z
-x,-y,z
-x,y,z
x,-y,z
x,1/2+y,1/2+z
-x,1/2-y,1/2+z
-x,1/2+y,1/2+z
x,1/2-y,1/2+z
loop_
_atom_site_type_symbol
_atom_site_label
_atom_site_fract_x
_atom_site_fract_y
_atom_site_fract_z
Si Si1 0.675706 0.898071 0.741120
Si Si2 0.819049 0.356965 0.033810
Si Si3 0.824632 0.222274 0.663557
Si Si4 0.172328 0.170138 0.871680
Si Si5 0.168568 0.952515 0.908942
Si Si6 0.181197 0.546370 0.664693
Si Si7 0.680187 0.121078 0.291065
Si Si8 0.822432 0.688762 0.633275
O O1 0.500000 0.899302 0.705909
O O2 0.773952 0.891164 0.626531
O O3 0.707242 0.863472 0.834564
O O4 0.721544 0.939301 0.805651
O O5 0.740896 0.367517 0.915439
O O6 0.000000 0.356903 0.018599
O O7 0.758180 0.313095 0.080273
O O8 0.801870 0.210309 0.796012
O O9 0.748710 0.266506 0.650914
O O10 0.000000 0.227381 0.629011
O O11 0.000000 0.154150 0.849855
O O12 0.201900 0.179700 0.001608
O O13 0.000000 0.932957 0.892605
O O14 0.153992 0.000000 0.902928
O O15 0.231337 0.940770 0.035595
O O16 0.232808 0.500000 0.691876
O O17 0.257484 0.577087 0.753995
O O18 0.000000 0.549941 0.675639
O O19 0.500000 0.118591 0.294733
O O20 0.730428 0.155998 0.204602
O O21 0.000000 0.686760 0.670136
#
# Coordination Sequence:
#
# PCOD8179348 Si02
#       8
#     8   8   8   8   8   8   8   8
#     4  11  21  34  54  80 113 146 178 222 278 341
#     4  10  21  40  63  80 104 147 197 243 282 331
#     4   8  17  33  57  83 103 134 188 245 285 318
#     4   9  18  33  53  78 106 140 186 231 271 321
#     4   9  18  34  58  86 114 144 184 233 279 328
#     4   9  19  38  63  88 114 149 195 243 286 330
#     4  12  25  38  54  84 121 154 188 231 290 356
#     4  10  20  34  57  83 109 144 191 241 279 326
#
# _framework density 18.957421
#
# number of rings (size 3 to 8) (size 9 to 14) (size 15 to 20)
#    0.000    2.250    0.000    4.875    1.750    4.500 
#    0.000    5.000    0.000    3.750    0.000    0.000 
#    0.000    0.000    0.000    0.000    0.000    0.000 
#
# Total GULP energy -396686.299049 kJ/mol
# GULP energy per Si atom -12396.446845 kJ/mol
# Density = 1.891427 g / cm^3
# Si number density = 18.957421 Si / 1000 Ang^3
#
#
#
# Elastic Constant Matrix: (Units=GPa)
#
#
# Indices 1 2 3 4 5 6 
#
# 1 70.1561 36.5497 42.9179 0.0000 0.0000 0.0000
# 2 36.5497 97.6018 66.3373 0.0000 0.0000 0.0000
# 3 42.9179 66.3373 124.6964 0.0000 0.0000 0.0000
# 4 0.0000 0.0000 0.0000 4.9933 0.0000 0.0000
# 5 0.0000 0.0000 0.0000 0.0000 18.4852 0.0000
# 6 0.0000 0.0000 0.0000 0.0000 0.0000 -7.9994
#
#
#
# Elastic Compliance Matrix: (Units=1/GPa)
#
#
# Indices 1 2 3 4 5 6 
#
# 1 0.019097 -0.004204 -0.004336 0.000000 0.000000 0.000000
# 2 -0.004204 0.016974 -0.007583 0.000000 0.000000 0.000000
# 3 -0.004336 -0.007583 0.013546 0.000000 0.000000 0.000000
# 4 0.000000 0.000000 0.000000 0.200269 0.000000 0.000000
# 5 0.000000 0.000000 0.000000 0.000000 0.054097 0.000000
# 6 0.000000 0.000000 0.000000 0.000000 0.000000 -0.125009
#
#
# Mechanical properties :
#
#
# Convention : Reuss Voigt Hill
#
# Bulk Modulus (GPa) = 57.57004 64.89600 61.23302
# Shear Modulus (GPa) = 23.04032 12.87244 17.95638
#
# Velocity S-wave (km/s) = 3.49000 2.60862 3.08099
# Velocity P-wave (km/s) = 6.83185 6.58635 6.71022
#
# Compressibility (1/GPa) = 0.01737015
#
# Stress axis : x y z
#
# Youngs Moduli (GPa) = 52.36471 58.91329 73.82251
#
# Poissons Ratio (x) = 0.24768 0.32010
# Poissons Ratio (y) = 0.22015 0.55980
# Poissons Ratio (z) = 0.22706 0.44674
#
# Static dielectric constant tensor:
#      x y z
#    x 3.376010 0.000000 0.000000 
#    y 0.000000 3.648970 0.000000 
#    z 0.000000 0.000000 3.650250 
# 
# 
# High freq. dielectric constant tensor:
#      x y z
#    x 1.712440 0.000000 0.000000 
#    y 0.000000 1.740820 0.000000 
#    z 0.000000 0.000000 1.740220 
# 
# From -- ./inp_files/8672.got.cif
#   From: 2010.03.12/outbox.cif.g09.slc.cpg/sg38_5_cif.got.tgz:8672.got - 2010.04.14 02:38:36.
