data_PCOD8179006
_publ_section_title
;
Structure prediction by ZEFSAII (Michael W. Deem and Ramdas Pophale) SiO2 
 PCOD8179006
Probable space group: A M M 2
;
_chemical_formula_sum "Si O2"
_cell_formula_units_Z 64
_cell_length_a 13.484992
_cell_length_b 27.555896
_cell_length_c 9.400367
_cell_angle_alpha 90.000000
_cell_angle_beta 90.000000
_cell_angle_gamma 90.000000
_cell_volume 3493.092123
_symmetry_space_group_name_H-M "A M M 2"
_symmetry_group_IT_number 38
_symmetry_cell_setting 'orthorhombic'
loop_
_space_group_symop_operation_xyz
x,y,z
-x,-y,z
-x,y,z
x,-y,z
x,1/2+y,1/2+z
-x,1/2-y,1/2+z
-x,1/2+y,1/2+z
x,1/2-y,1/2+z
loop_
_atom_site_type_symbol
_atom_site_label
_atom_site_fract_x
_atom_site_fract_y
_atom_site_fract_z
Si Si1 0.612095 0.103047 0.844380
Si Si2 0.884994 0.444106 0.454940
Si Si3 0.223905 0.444719 0.175714
Si Si4 0.228197 0.770661 0.105631
Si Si5 0.115702 0.284532 0.875106
Si Si6 0.269418 0.618044 0.613013
Si Si7 0.384338 0.188300 0.635254
Si Si8 0.252228 0.371831 0.930687
O O1 0.500000 0.086499 0.832621
O O2 0.670684 0.063972 0.750605
O O3 0.628846 0.157008 0.779530
O O4 0.642961 0.099803 0.009906
O O5 0.853139 0.500000 0.482312
O O6 0.859461 0.429747 0.291760
O O7 0.831381 0.408803 0.566370
O O8 0.000000 0.436077 0.480563
O O9 0.213309 0.500000 0.128504
O O10 0.212637 0.414068 0.032426
O O11 0.136670 0.768549 0.214748
O O12 0.266098 0.824776 0.088971
O O13 0.321892 0.737654 0.153605
O O14 0.180036 0.753967 0.960689
O O15 0.156398 0.338384 0.904307
O O16 0.000000 0.282302 0.910834
O O17 0.290303 0.606589 0.779434
O O18 0.500000 0.200664 0.607408
O O19 0.342770 0.157846 0.501016
#
# Coordination Sequence:
#
# PCOD8179006 Si02
#       8
#     8   8   8   8   8   8   8   8
#     4   9  18  33  53  76 101 134 175 212 252 305
#     4   9  19  36  56  76  99 132 173 213 256 308
#     4   9  18  35  57  77  99 130 170 216 259 304
#     4  10  20  34  50  75 103 135 179 213 252 309
#     4  10  20  34  50  69 101 139 174 213 255 303
#     4  10  20  33  50  76 109 135 163 211 261 307
#     4   9  18  35  55  74 103 141 179 220 257 296
#     4   9  20  34  50  77 108 136 170 210 262 321
#
# _framework density 18.321876
#
# number of rings (size 3 to 8) (size 9 to 14) (size 15 to 20)
#    0.000    2.625    0.000    1.125    0.000    5.750 
#    0.000    7.500    0.000    1.500    0.000    3.500 
#    0.000    0.000    0.000    0.000    0.000    0.000 
#
# Total GULP energy -396711.163811 kJ/mol
# GULP energy per Si atom -12397.223869 kJ/mol
# Density = 1.828017 g / cm^3
# Si number density = 18.321876 Si / 1000 Ang^3
#
#
#
# Elastic Constant Matrix: (Units=GPa)
#
#
# Indices 1 2 3 4 5 6 
#
# 1 87.7539 16.5727 11.5542 0.0000 0.0000 0.0000
# 2 16.5727 70.5753 30.4795 0.0000 0.0000 0.0000
# 3 11.5542 30.4795 105.9439 0.0000 0.0000 0.0000
# 4 0.0000 0.0000 0.0000 23.6594 0.0000 0.0000
# 5 0.0000 0.0000 0.0000 0.0000 19.7117 0.0000
# 6 0.0000 0.0000 0.0000 0.0000 0.0000 22.8254
#
#
#
# Elastic Compliance Matrix: (Units=1/GPa)
#
#
# Indices 1 2 3 4 5 6 
#
# 1 0.011954 -0.002562 -0.000567 0.000000 0.000000 0.000000
# 2 -0.002562 0.016729 -0.004533 0.000000 0.000000 0.000000
# 3 -0.000567 -0.004533 0.010805 0.000000 0.000000 0.000000
# 4 0.000000 0.000000 0.000000 0.042266 0.000000 0.000000
# 5 0.000000 0.000000 0.000000 0.000000 0.050731 0.000000
# 6 0.000000 0.000000 0.000000 0.000000 0.000000 0.043811
#
#
# Mechanical properties :
#
#
# Convention : Reuss Voigt Hill
#
# Bulk Modulus (GPa) = 41.38514 42.38731 41.88622
# Shear Modulus (GPa) = 25.04067 26.95043 25.99555
#
# Velocity S-wave (km/s) = 3.70091 3.83945 3.77082
# Velocity P-wave (km/s) = 6.39525 6.54524 6.47068
#
# Compressibility (1/GPa) = 0.02416326
#
# Stress axis : x y z
#
# Youngs Moduli (GPa) = 83.65382 59.77719 92.55012
#
# Poissons Ratio (x) = 0.15317 0.05243
# Poissons Ratio (y) = 0.21436 0.41956
# Poissons Ratio (z) = 0.04739 0.27099
#
# Static dielectric constant tensor:
#      x y z
#    x 3.260510 0.000000 0.000000 
#    y 0.000000 3.323750 0.000000 
#    z 0.000000 0.000000 3.534680 
# 
# 
# High freq. dielectric constant tensor:
#      x y z
#    x 1.702510 0.000000 0.000000 
#    y 0.000000 1.704610 0.000000 
#    z 0.000000 0.000000 1.715800 
# 
# From -- ./inp_files/4916.got.cif
#   From: 2010.03.12/outbox.cif.g09.slc.cpg/sg38_3_cif.got.tgz:4916.got - 2010.04.14 02:38:36.
