data_PCOD8179969
_publ_section_title
;
Structure prediction by ZEFSAII (Michael W. Deem and Ramdas Pophale) SiO2 
 PCOD8179969
Probable space group: A M M 2
;
_chemical_formula_sum "Si O2"
_cell_formula_units_Z 48
_cell_length_a 13.994481
_cell_length_b 8.910548
_cell_length_c 20.263124
_cell_angle_alpha 90.000000
_cell_angle_beta 90.000000
_cell_angle_gamma 90.000000
_cell_volume 2526.781060
_symmetry_space_group_name_H-M "A M M 2"
_symmetry_group_IT_number 38
_symmetry_cell_setting 'orthorhombic'
loop_
_space_group_symop_operation_xyz
x,y,z
-x,-y,z
-x,y,z
x,-y,z
x,1/2+y,1/2+z
-x,1/2-y,1/2+z
-x,1/2+y,1/2+z
x,1/2-y,1/2+z
loop_
_atom_site_type_symbol
_atom_site_label
_atom_site_fract_x
_atom_site_fract_y
_atom_site_fract_z
Si Si1 0.890335 0.171352 0.074520
Si Si2 0.396099 0.321953 0.019593
Si Si3 0.608053 0.175034 0.668885
Si Si4 0.109752 0.176819 0.830722
Si Si5 0.204492 0.822716 0.454829
Si Si6 0.789962 0.175693 0.209744
O O1 0.827844 0.217719 0.137318
O O2 0.000000 0.193667 0.094259
O O3 0.869785 0.000000 0.053243
O O4 0.866599 0.278796 0.013605
O O5 0.500000 0.265477 0.993248
O O6 0.395430 0.500000 0.022373
O O7 0.311421 0.264087 0.972489
O O8 0.380618 0.263828 0.094136
O O9 0.500000 0.204181 0.693918
O O10 0.680881 0.266419 0.715415
O O11 0.633660 0.000000 0.673199
O O12 0.175252 0.244619 0.887569
O O13 0.142393 0.241620 0.761162
O O14 0.000000 0.222259 0.843439
O O15 0.123052 0.000000 0.830106
O O16 0.201112 0.000000 0.444811
O O17 0.794136 0.000000 0.224379
#
# Coordination Sequence:
#
# PCOD8179969 Si02
#       6
#     8   8   8   8   8   8
#     4  10  21  36  54  79 113 148 183 231 289 344
#     4   8  15  30  54  84 116 148 182 224 276 332
#     4   9  17  33  58  86 118 154 190 231 282 341
#     4  11  25  43  60  78 110 156 198 238 291 353
#     4  11  21  35  59  87 113 145 190 238 284 339
#     4  11  22  37  59  86 116 149 191 242 290 341
#
# _framework density 18.996503000000001
#
# number of rings (size 3 to 8) (size 9 to 14) (size 15 to 20)
#    0.000    2.000    1.667    3.500    0.000    5.333 
#    0.000    0.833    0.000    5.000    0.000    0.000 
#    0.000    0.000    0.000    0.000    0.000    0.000 
#
# Total GULP energy -297623.700275 kJ/mol
# GULP energy per Si atom -12400.987511 kJ/mol
# Density = 1.895327 g / cm^3
# Si number density = 18.996503 Si / 1000 Ang^3
#
#
#
# Elastic Constant Matrix: (Units=GPa)
#
#
# Indices 1 2 3 4 5 6 
#
# 1 111.7964 41.5265 25.0532 0.0000 0.0000 0.0000
# 2 41.5265 60.4281 29.6692 0.0000 0.0000 0.0000
# 3 25.0532 29.6692 59.4935 0.0000 0.0000 0.0000
# 4 0.0000 0.0000 0.0000 32.4870 0.0000 0.0000
# 5 0.0000 0.0000 0.0000 0.0000 32.2667 0.0000
# 6 0.0000 0.0000 0.0000 0.0000 0.0000 29.1531
#
#
#
# Elastic Compliance Matrix: (Units=1/GPa)
#
#
# Indices 1 2 3 4 5 6 
#
# 1 0.012081 -0.007686 -0.001254 0.000000 0.000000 0.000000
# 2 -0.007686 0.026805 -0.010131 0.000000 0.000000 0.000000
# 3 -0.001254 -0.010131 0.022389 0.000000 0.000000 0.000000
# 4 0.000000 0.000000 0.000000 0.030782 0.000000 0.000000
# 5 0.000000 0.000000 0.000000 0.000000 0.030992 0.000000
# 6 0.000000 0.000000 0.000000 0.000000 0.000000 0.034302
#
#
# Mechanical properties :
#
#
# Convention : Reuss Voigt Hill
#
# Bulk Modulus (GPa) = 43.22999 47.13509 45.18254
# Shear Modulus (GPa) = 24.60601 27.81263 26.20932
#
# Velocity S-wave (km/s) = 3.60292 3.83050 3.71845
# Velocity P-wave (km/s) = 6.33358 6.66558 6.50170
#
# Compressibility (1/GPa) = 0.02313209
#
# Stress axis : x y z
#
# Youngs Moduli (GPa) = 82.77489 37.30704 44.66506
#
# Poissons Ratio (x) = 0.28675 0.05602
# Poissons Ratio (y) = 0.63623 0.45249
# Poissons Ratio (z) = 0.10382 0.37794
#
# Static dielectric constant tensor:
#      x y z
#    x 3.834900 0.000000 0.000000 
#    y 0.000000 3.328660 0.000000 
#    z 0.000000 0.000000 3.291480 
# 
# 
# High freq. dielectric constant tensor:
#      x y z
#    x 1.756280 0.000000 0.000000 
#    y 0.000000 1.726810 0.000000 
#    z 0.000000 0.000000 1.719850 
# 
# From -- ./inp_files/18153.got.cif
#   From: 2010.03.12/outbox.cif.g09.slc.cpg/sg38_10_cif.got.tgz:18153.got - 2010.04.14 02:38:36.
