data_PCOD8179892
_publ_section_title
;
Structure prediction by ZEFSAII (Michael W. Deem and Ramdas Pophale) SiO2 
 PCOD8179892
Probable space group: A M M 2
;
_chemical_formula_sum "Si O2"
_cell_formula_units_Z 56
_cell_length_a 9.179476
_cell_length_b 21.168895
_cell_length_c 14.257984
_cell_angle_alpha 90.000000
_cell_angle_beta 90.000000
_cell_angle_gamma 90.000000
_cell_volume 2770.602377
_symmetry_space_group_name_H-M "A M M 2"
_symmetry_group_IT_number 38
_symmetry_cell_setting 'orthorhombic'
loop_
_space_group_symop_operation_xyz
x,y,z
-x,-y,z
-x,y,z
x,-y,z
x,1/2+y,1/2+z
-x,1/2-y,1/2+z
-x,1/2+y,1/2+z
x,1/2-y,1/2+z
loop_
_atom_site_type_symbol
_atom_site_label
_atom_site_fract_x
_atom_site_fract_y
_atom_site_fract_z
Si Si1 0.670661 0.069988 0.016110
Si Si2 0.169274 0.640904 0.962921
Si Si3 0.662206 0.666247 0.665250
Si Si4 0.342963 0.931545 0.328007
Si Si5 0.332225 0.126641 0.819488
Si Si6 0.669935 0.572084 0.119903
Si Si7 0.172529 0.743778 0.811284
O O1 0.500000 0.069438 0.038705
O O2 0.735212 0.129735 0.075943
O O3 0.735494 0.000000 0.041083
O O4 0.700940 0.081440 0.906882
O O5 0.210361 0.581588 0.898138
O O6 0.221455 0.702573 0.903120
O O7 0.000000 0.643815 0.984928
O O8 0.251107 0.627904 0.060818
O O9 0.500000 0.693967 0.641993
O O10 0.649205 0.613148 0.741449
O O11 0.762950 0.720539 0.710635
O O12 0.500000 0.927929 0.382181
O O13 0.316020 0.000000 0.284989
O O14 0.500000 0.149814 0.819018
O O15 0.294581 0.085947 0.728088
O O16 0.227727 0.186407 0.828973
O O17 0.500000 0.577905 0.099658
O O18 0.722959 0.500000 0.096924
O O19 0.000000 0.741435 0.801170
#
# Coordination Sequence:
#
# PCOD8179892 Si02
#       7
#     8   8   8   8   8   8   8
#     4   9  17  32  57  87 113 137 171 219 272 321
#     4  10  21  35  52  76 106 142 181 221 266 317
#     4   9  17  31  54  82 109 138 175 217 262 319
#     4   9  16  27  46  74 107 140 173 214 265 318
#     4  10  21  37  58  81 107 142 183 224 264 315
#     4  10  21  37  57  82 110 140 177 223 273 320
#     4  10  22  39  55  76 110 147 182 221 268 317
#
# _framework density 20.212211
#
# number of rings (size 3 to 8) (size 9 to 14) (size 15 to 20)
#    0.000    2.429    0.000    2.143    0.000    9.143 
#    0.000    5.000    0.000    3.429    0.000    0.000 
#    0.000    0.000    0.000    0.000    0.000    0.000 
#
# Total GULP energy -346898.698956 kJ/mol
# GULP energy per Si atom -12389.239248 kJ/mol
# Density = 2.016621 g / cm^3
# Si number density = 20.212211 Si / 1000 Ang^3
#
#
#
# Elastic Constant Matrix: (Units=GPa)
#
#
# Indices 1 2 3 4 5 6 
#
# 1 50.0176 27.8528 25.3477 0.0000 0.0000 0.0000
# 2 27.8528 78.0199 16.5684 0.0000 0.0000 0.0000
# 3 25.3477 16.5684 102.2901 0.0000 0.0000 0.0000
# 4 0.0000 0.0000 0.0000 90.4199 0.0000 0.0000
# 5 0.0000 0.0000 0.0000 0.0000 9.1488 0.0000
# 6 0.0000 0.0000 0.0000 0.0000 0.0000 20.5777
#
#
#
# Elastic Compliance Matrix: (Units=1/GPa)
#
#
# Indices 1 2 3 4 5 6 
#
# 1 0.027586 -0.008695 -0.005427 0.000000 0.000000 0.000000
# 2 -0.008695 0.016015 -0.000439 0.000000 0.000000 0.000000
# 3 -0.005427 -0.000439 0.011192 0.000000 0.000000 0.000000
# 4 0.000000 0.000000 0.000000 0.011060 0.000000 0.000000
# 5 0.000000 0.000000 0.000000 0.000000 0.109304 0.000000
# 6 0.000000 0.000000 0.000000 0.000000 0.000000 0.048596
#
#
# Mechanical properties :
#
#
# Convention : Reuss Voigt Hill
#
# Bulk Modulus (GPa) = 38.95821 41.09617 40.02719
# Shear Modulus (GPa) = 19.12539 34.73318 26.92929
#
# Velocity S-wave (km/s) = 3.07942 4.14989 3.65407
# Velocity P-wave (km/s) = 5.65334 6.58320 6.13591
#
# Compressibility (1/GPa) = 0.02566853
#
# Stress axis : x y z
#
# Youngs Moduli (GPa) = 36.25091 62.44251 89.34816
#
# Poissons Ratio (x) = 0.54296 0.48492
# Poissons Ratio (y) = 0.31521 0.03925
# Poissons Ratio (z) = 0.19675 0.02743
#
# Static dielectric constant tensor:
#      x y z
#    x 3.512260 0.000000 0.000000 
#    y 0.000000 2.769430 0.000000 
#    z 0.000000 0.000000 3.950680 
# 
# 
# High freq. dielectric constant tensor:
#      x y z
#    x 1.753830 0.000000 0.000000 
#    y 0.000000 1.789010 0.000000 
#    z 0.000000 0.000000 1.795180 
# 
# From -- ./inp_files/12445.got.cif
#   From: 2010.03.12/outbox.cif.g09.slc.cpg/sg38_7_cif.got.tgz:12445.got - 2010.04.14 02:38:36.
