data_PCOD8179081
_publ_section_title
;
Structure prediction by ZEFSAII (Michael W. Deem and Ramdas Pophale) SiO2 
 PCOD8179081
Probable space group: A M M 2
;
_chemical_formula_sum "Si O2"
_cell_formula_units_Z 40
_cell_length_a 7.709590
_cell_length_b 9.201949
_cell_length_c 28.880411
_cell_angle_alpha 90.000000
_cell_angle_beta 90.000000
_cell_angle_gamma 90.000000
_cell_volume 2048.870333
_symmetry_space_group_name_H-M "A M M 2"
_symmetry_group_IT_number 38
_symmetry_cell_setting 'orthorhombic'
loop_
_space_group_symop_operation_xyz
x,y,z
-x,-y,z
-x,y,z
x,-y,z
x,1/2+y,1/2+z
-x,1/2-y,1/2+z
-x,1/2+y,1/2+z
x,1/2-y,1/2+z
loop_
_atom_site_type_symbol
_atom_site_label
_atom_site_fract_x
_atom_site_fract_y
_atom_site_fract_z
Si Si1 0.000000 0.673213 0.649251
Si Si2 0.798583 0.165934 0.801717
Si Si3 0.693238 0.666542 0.480580
Si Si4 0.000000 0.327793 0.544769
Si Si5 0.304544 0.332342 0.200736
Si Si6 0.797010 0.168575 0.391624
O O1 0.000000 0.733270 0.596737
O O2 0.825990 0.730435 0.673080
O O3 0.000000 0.500000 0.651994
O O4 0.697908 0.207818 0.755040
O O5 0.728742 0.265510 0.843358
O O6 0.000000 0.194927 0.791929
O O7 0.763556 0.000000 0.816061
O O8 0.500000 0.679280 0.501819
O O9 0.740110 0.500000 0.468662
O O10 0.828919 0.729508 0.518062
O O11 0.697719 0.757308 0.433654
O O12 0.000000 0.500000 0.547030
O O13 0.500000 0.306295 0.182298
O O14 0.247413 0.500000 0.194229
O O15 0.000000 0.200337 0.397511
O O16 0.752047 0.000000 0.391791
#
# Coordination Sequence:
#
# PCOD8179081 Si02
#       6
#     4   8   8   4   8   8
#     4  11  23  39  62  89 118 149 186 241 302 353
#     4   9  17  32  55  81 112 152 196 235 270 322
#     4  10  20  36  60  84 107 143 191 234 274 328
#     4   9  20  39  60  83 110 143 184 235 288 335
#     4  10  21  39  62  87 117 154 197 240 283 340
#     4  10  20  33  52  82 119 153 183 223 280 337
#
# _framework density 19.522955
#
# number of rings (size 3 to 8) (size 9 to 14) (size 15 to 20)
#    0.000    2.200    2.000    0.900    0.000    4.000 
#    0.000    6.000    0.000    0.000    0.000    0.000 
#    0.000    0.000    0.000    0.000    0.000    0.000 
#
# Total GULP energy -248037.233730 kJ/mol
# GULP energy per Si atom -12401.861686 kJ/mol
# Density = 1.947852 g / cm^3
# Si number density = 19.522955 Si / 1000 Ang^3
#
#
#
# Elastic Constant Matrix: (Units=GPa)
#
#
# Indices 1 2 3 4 5 6 
#
# 1 111.9455 44.3268 60.7693 0.0000 0.0000 0.0000
# 2 44.3268 81.6069 56.5551 0.0000 0.0000 0.0000
# 3 60.7693 56.5551 128.4770 0.0000 0.0000 0.0000
# 4 0.0000 0.0000 0.0000 26.2561 0.0000 0.0000
# 5 0.0000 0.0000 0.0000 0.0000 6.0141 0.0000
# 6 0.0000 0.0000 0.0000 0.0000 0.0000 20.3760
#
#
#
# Elastic Compliance Matrix: (Units=1/GPa)
#
#
# Indices 1 2 3 4 5 6 
#
# 1 0.012861 -0.003986 -0.004329 0.000000 0.000000 0.000000
# 2 -0.003986 0.018868 -0.006420 0.000000 0.000000 0.000000
# 3 -0.004329 -0.006420 0.012657 0.000000 0.000000 0.000000
# 4 0.000000 0.000000 0.000000 0.038086 0.000000 0.000000
# 5 0.000000 0.000000 0.000000 0.000000 0.166276 0.000000
# 6 0.000000 0.000000 0.000000 0.000000 0.000000 0.049077
#
#
# Mechanical properties :
#
#
# Convention : Reuss Voigt Hill
#
# Bulk Modulus (GPa) = 67.03967 71.70353 69.37160
# Shear Modulus (GPa) = 15.04807 21.22111 18.13459
#
# Velocity S-wave (km/s) = 2.77932 3.30052 3.05107
# Velocity P-wave (km/s) = 6.68677 7.16464 6.92983
#
# Compressibility (1/GPa) = 0.01491654
#
# Stress axis : x y z
#
# Youngs Moduli (GPa) = 77.75433 52.99858 79.00647
#
# Poissons Ratio (x) = 0.21125 0.34199
# Poissons Ratio (y) = 0.30993 0.50726
# Poissons Ratio (z) = 0.33657 0.34028
#
# Static dielectric constant tensor:
#      x y z
#    x 3.574230 0.000000 0.000000 
#    y 0.000000 3.387550 0.000000 
#    z 0.000000 0.000000 3.587560 
# 
# 
# High freq. dielectric constant tensor:
#      x y z
#    x 1.765530 0.000000 0.000000 
#    y 0.000000 1.742450 0.000000 
#    z 0.000000 0.000000 1.754830 
# 
# From -- ./inp_files/23215.got.cif
#   From: 2010.03.12/outbox.cif.g09.slc.cpg/sg38_12_cif.got.tgz:23215.got - 2010.04.14 02:38:36.
