data_PCOD8179038
_publ_section_title
;
Structure prediction by ZEFSAII (Michael W. Deem and Ramdas Pophale) SiO2 
 PCOD8179038
Probable space group: A M M 2
;
_chemical_formula_sum "Si O2"
_cell_formula_units_Z 48
_cell_length_a 9.027793
_cell_length_b 9.311440
_cell_length_c 30.973464
_cell_angle_alpha 90.000000
_cell_angle_beta 90.000000
_cell_angle_gamma 90.000000
_cell_volume 2603.683676
_symmetry_space_group_name_H-M "A M M 2"
_symmetry_group_IT_number 38
_symmetry_cell_setting 'orthorhombic'
loop_
_space_group_symop_operation_xyz
x,y,z
-x,-y,z
-x,y,z
x,-y,z
x,1/2+y,1/2+z
-x,1/2-y,1/2+z
-x,1/2+y,1/2+z
x,1/2-y,1/2+z
loop_
_atom_site_type_symbol
_atom_site_label
_atom_site_fract_x
_atom_site_fract_y
_atom_site_fract_z
Si Si1 0.668602 0.170338 0.578130
Si Si2 0.172959 0.667645 0.838511
Si Si3 0.325942 0.164909 0.914518
Si Si4 0.827040 0.665505 0.502794
Si Si5 0.835060 0.829250 0.662066
Si Si6 0.176134 0.159877 0.756279
O O1 0.500000 0.221545 0.572537
O O2 0.769333 0.238496 0.541576
O O3 0.726150 0.226068 0.624610
O O4 0.683046 0.000000 0.574606
O O5 0.205627 0.500000 0.837066
O O6 0.263574 0.735670 0.877218
O O7 0.232658 0.734433 0.793680
O O8 0.000000 0.701530 0.845245
O O9 0.500000 0.187422 0.918350
O O10 0.284154 0.000000 0.904360
O O11 0.253905 0.215137 0.959279
O O12 0.791482 0.500000 0.513155
O O13 0.000000 0.692990 0.496531
O O14 0.772405 0.781102 0.709160
O O15 0.000000 0.766090 0.653755
O O16 0.844010 0.000000 0.662132
O O17 0.000000 0.152841 0.755543
O O18 0.240264 0.000000 0.765180
#
# Coordination Sequence:
#
# PCOD8179038 Si02
#       6
#     8   8   8   8   8   8
#     4  10  20  33  51  77 108 140 171 205 250 302
#     4  10  20  33  51  77 107 137 169 207 253 303
#     4  10  21  37  56  76  99 131 170 210 254 304
#     4  10  21  37  57  79 101 129 168 212 256 302
#     4   8  14  27  48  72  98 132 175 218 254 290
#     4   8  14  27  49  73  97 131 175 218 255 291
#
# _framework density 18.435419
#
# number of rings (size 3 to 8) (size 9 to 14) (size 15 to 20)
#    0.000    2.667    0.000    3.000    0.000    4.667 
#    0.000    1.667    0.000    6.000    0.000    0.000 
#    0.000    0.000    0.000    0.000    0.000    0.000 
#
# Total GULP energy -297575.714894 kJ/mol
# GULP energy per Si atom -12398.988121 kJ/mol
# Density = 1.839346 g / cm^3
# Si number density = 18.435419 Si / 1000 Ang^3
#
#
#
# Elastic Constant Matrix: (Units=GPa)
#
#
# Indices 1 2 3 4 5 6 
#
# 1 70.0721 36.6826 55.8805 0.0000 0.0000 0.0000
# 2 36.6826 57.4148 60.1652 0.0000 0.0000 0.0000
# 3 55.8805 60.1652 169.4816 0.0000 0.0000 0.0000
# 4 0.0000 0.0000 0.0000 27.3523 0.0000 0.0000
# 5 0.0000 0.0000 0.0000 0.0000 -2.0744 0.0000
# 6 0.0000 0.0000 0.0000 0.0000 0.0000 22.5796
#
#
#
# Elastic Compliance Matrix: (Units=1/GPa)
#
#
# Indices 1 2 3 4 5 6 
#
# 1 0.022843 -0.010672 -0.003743 0.000000 0.000000 0.000000
# 2 -0.010672 0.032720 -0.008097 0.000000 0.000000 0.000000
# 3 -0.003743 -0.008097 0.010009 0.000000 0.000000 0.000000
# 4 0.000000 0.000000 0.000000 0.036560 0.000000 0.000000
# 5 0.000000 0.000000 0.000000 0.000000 -0.482061 0.000000
# 6 0.000000 0.000000 0.000000 0.000000 0.000000 0.044288
#
#
# Mechanical properties :
#
#
# Convention : Reuss Voigt Hill
#
# Bulk Modulus (GPa) = 48.66645 66.93613 57.80129
# Shear Modulus (GPa) = -17.62003 19.18749 0.78373
#
# Velocity S-wave (km/s) = -3.09491 3.22964 0.65272
# Velocity P-wave (km/s) = 3.69924 7.09187 5.65593
#
# Compressibility (1/GPa) = 0.02054804
#
# Stress axis : x y z
#
# Youngs Moduli (GPa) = 43.77754 30.56219 99.91175
#
# Poissons Ratio (x) = 0.32616 0.37398
# Poissons Ratio (y) = 0.46719 0.80897
# Poissons Ratio (z) = 0.16386 0.24746
#
# Static dielectric constant tensor:
#      x y z
#    x 3.346850 0.000000 0.000000 
#    y 0.000000 3.202270 0.000000 
#    z 0.000000 0.000000 3.788120 
# 
# 
# High freq. dielectric constant tensor:
#      x y z
#    x 1.700630 0.000000 0.000000 
#    y 0.000000 1.689580 0.000000 
#    z 0.000000 0.000000 1.733360 
# 
# From -- ./inp_files/24271.got.cif
#   From: 2010.03.12/outbox.cif.g09.slc.cpg/sg38_13_cif.got.tgz:24271.got - 2010.04.14 02:38:36.
