data_PCOD8179080
_publ_section_title
;
Structure prediction by ZEFSAII (Michael W. Deem and Ramdas Pophale) SiO2 
 PCOD8179080
Probable space group: A M M 2
;
_chemical_formula_sum "Si O2"
_cell_formula_units_Z 40
_cell_length_a 7.750457
_cell_length_b 9.024388
_cell_length_c 29.086630
_cell_angle_alpha 90.000000
_cell_angle_beta 90.000000
_cell_angle_gamma 90.000000
_cell_volume 2034.409977
_symmetry_space_group_name_H-M "A M M 2"
_symmetry_group_IT_number 38
_symmetry_cell_setting 'orthorhombic'
loop_
_space_group_symop_operation_xyz
x,y,z
-x,-y,z
-x,y,z
x,-y,z
x,1/2+y,1/2+z
-x,1/2-y,1/2+z
-x,1/2+y,1/2+z
x,1/2-y,1/2+z
loop_
_atom_site_type_symbol
_atom_site_label
_atom_site_fract_x
_atom_site_fract_y
_atom_site_fract_z
Si Si1 0.190590 0.670520 0.966110
Si Si2 0.200892 0.325625 0.688449
Si Si3 0.202426 0.666564 0.280883
Si Si4 0.303701 0.831067 0.879336
Si Si5 0.500000 0.676213 0.027299
Si Si6 0.500000 0.676983 0.131803
O O1 0.235148 0.500000 0.957851
O O2 0.190123 0.745068 0.916195
O O3 0.000000 0.691856 0.987715
O O4 0.330122 0.739264 0.001327
O O5 0.232758 0.500000 0.684445
O O6 0.255766 0.273546 0.739320
O O7 0.324240 0.240727 0.653217
O O8 0.000000 0.285245 0.678231
O O9 0.273303 0.500000 0.271049
O O10 0.282292 0.733245 0.327798
O O11 0.000000 0.662542 0.287304
O O12 0.500000 0.816138 0.895285
O O13 0.239416 0.000000 0.878579
O O14 0.500000 0.500000 0.027428
O O15 0.500000 0.732991 0.079303
O O16 0.500000 0.500000 0.136592
#
# Coordination Sequence:
#
# PCOD8179080 Si02
#       6
#     8   8   8   8   4   4
#     4  10  20  36  59  83 110 146 186 230 282 335
#     4  10  22  40  60  86 121 155 190 236 291 349
#     4   9  18  33  53  79 113 152 194 236 275 326
#     4  10  20  33  52  82 118 153 189 229 274 327
#     4   9  20  39  58  83 112 139 182 239 288 335
#     4  11  23  39  64  89 112 147 194 245 294 347
#
# _framework density 19.661719000000002
#
# number of rings (size 3 to 8) (size 9 to 14) (size 15 to 20)
#    0.000    2.200    1.000    1.500    1.400    4.000 
#    0.000    6.000    0.000    0.000    0.000    0.000 
#    0.000    0.000    0.000    0.000    0.000    0.000 
#
# Total GULP energy -247985.196353 kJ/mol
# GULP energy per Si atom -12399.259818 kJ/mol
# Density = 1.961697 g / cm^3
# Si number density = 19.661719 Si / 1000 Ang^3
#
#
#
# Elastic Constant Matrix: (Units=GPa)
#
#
# Indices 1 2 3 4 5 6 
#
# 1 108.3204 40.8124 73.4644 0.0000 0.0000 0.0000
# 2 40.8124 68.6500 50.6162 0.0000 0.0000 0.0000
# 3 73.4644 50.6162 156.6519 0.0000 0.0000 0.0000
# 4 0.0000 0.0000 0.0000 27.2162 0.0000 0.0000
# 5 0.0000 0.0000 0.0000 0.0000 27.6587 0.0000
# 6 0.0000 0.0000 0.0000 0.0000 0.0000 24.6580
#
#
#
# Elastic Compliance Matrix: (Units=1/GPa)
#
#
# Indices 1 2 3 4 5 6 
#
# 1 0.014643 -0.004781 -0.005322 0.000000 0.000000 0.000000
# 2 -0.004781 0.020683 -0.004441 0.000000 0.000000 0.000000
# 3 -0.005322 -0.004441 0.010314 0.000000 0.000000 0.000000
# 4 0.000000 0.000000 0.000000 0.036743 0.000000 0.000000
# 5 0.000000 0.000000 0.000000 0.000000 0.036155 0.000000
# 6 0.000000 0.000000 0.000000 0.000000 0.000000 0.040555
#
#
# Mechanical properties :
#
#
# Convention : Reuss Voigt Hill
#
# Bulk Modulus (GPa) = 60.41464 73.71204 67.06334
# Shear Modulus (GPa) = 25.81327 27.15519 26.48423
#
# Velocity S-wave (km/s) = 3.62728 3.72037 3.67412
# Velocity P-wave (km/s) = 6.95246 7.48508 7.22368
#
# Compressibility (1/GPa) = 0.01655228
#
# Stress axis : x y z
#
# Youngs Moduli (GPa) = 68.29278 48.34823 96.95194
#
# Poissons Ratio (x) = 0.23116 0.51599
# Poissons Ratio (y) = 0.32651 0.43055
# Poissons Ratio (z) = 0.36346 0.21471
#
# Static dielectric constant tensor:
#      x y z
#    x 3.686880 0.000000 0.000000 
#    y 0.000000 3.419320 0.000000 
#    z 0.000000 0.000000 3.641160 
# 
# 
# High freq. dielectric constant tensor:
#      x y z
#    x 1.777810 0.000000 0.000000 
#    y 0.000000 1.745070 0.000000 
#    z 0.000000 0.000000 1.763550 
# 
# From -- ./inp_files/23230.got.cif
#   From: 2010.03.12/outbox.cif.g09.slc.cpg/sg38_12_cif.got.tgz:23230.got - 2010.04.14 02:38:36.
