data_PCOD8179588
_publ_section_title
;
Structure prediction by ZEFSAII (Michael W. Deem and Ramdas Pophale) SiO2 
 PCOD8179588
Probable space group: A M M 2
;
_chemical_formula_sum "Si O2"
_cell_formula_units_Z 64
_cell_length_a 8.702195
_cell_length_b 20.383135
_cell_length_c 19.436015
_cell_angle_alpha 90.000000
_cell_angle_beta 90.000000
_cell_angle_gamma 90.000000
_cell_volume 3447.521770
_symmetry_space_group_name_H-M "A M M 2"
_symmetry_group_IT_number 38
_symmetry_cell_setting 'orthorhombic'
loop_
_space_group_symop_operation_xyz
x,y,z
-x,-y,z
-x,y,z
x,-y,z
x,1/2+y,1/2+z
-x,1/2-y,1/2+z
-x,1/2+y,1/2+z
x,1/2-y,1/2+z
loop_
_atom_site_type_symbol
_atom_site_label
_atom_site_fract_x
_atom_site_fract_y
_atom_site_fract_z
Si Si1 0.825656 0.618342 0.346260
Si Si2 0.823760 0.633281 0.195542
Si Si3 0.321711 0.306618 0.980652
Si Si4 0.176023 0.227039 0.343432
Si Si5 0.823823 0.425888 0.052752
Si Si6 0.324359 0.074664 0.978787
Si Si7 0.179474 0.187802 0.063617
Si Si8 0.320566 0.270753 0.699680
O O1 0.780764 0.598718 0.267974
O O2 0.803194 0.695822 0.354690
O O3 0.713823 0.580616 0.397887
O O4 0.000000 0.597640 0.363258
O O5 0.800616 0.581469 0.134804
O O6 0.717177 0.695684 0.180742
O O7 0.000000 0.658983 0.200523
O O8 0.500000 0.289858 0.989054
O O9 0.276361 0.309749 0.900681
O O10 0.287748 0.377739 0.012072
O O11 0.225368 0.251076 0.019395
O O12 0.234718 0.205655 0.268432
O O13 0.000000 0.205310 0.351115
O O14 0.780074 0.500000 0.032698
O O15 0.000000 0.410021 0.033183
O O16 0.500000 0.096141 0.990181
O O17 0.297629 0.000000 0.002599
O O18 0.214550 0.121465 0.022463
O O19 0.267869 0.184376 0.136027
O O20 0.000000 0.192442 0.078410
O O21 0.500000 0.279107 0.711601
#
# Coordination Sequence:
#
# PCOD8179588 Si02
#       8
#     8   8   8   8   8   8   8   8
#     4   9  18  32  53  80 111 150 192 231 274 332
#     4   9  18  33  53  78 113 152 193 234 276 332
#     4  12  23  36  58  87 115 148 191 242 292 337
#     4  10  20  36  58  85 115 149 187 233 283 340
#     4  10  21  37  57  81 113 156 199 237 282 340
#     4  11  24  39  55  80 115 152 191 238 290 342
#     4  12  23  38  60  84 112 150 195 239 282 341
#     4  11  21  34  56  87 118 147 183 235 288 338
#
# _framework density 18.564060000000001
#
# number of rings (size 3 to 8) (size 9 to 14) (size 15 to 20)
#    0.000    1.500    2.500    4.875    0.000    3.750 
#    0.000    1.250    0.000    0.750    0.000    0.000 
#    0.000    0.000    0.000    0.000    0.000    0.000 
#
# Total GULP energy -396928.400268 kJ/mol
# GULP energy per Si atom -12404.012508 kJ/mol
# Density = 1.852181 g / cm^3
# Si number density = 18.564060 Si / 1000 Ang^3
#
#
#
# Elastic Constant Matrix: (Units=GPa)
#
#
# Indices 1 2 3 4 5 6 
#
# 1 80.6773 22.5455 16.7623 0.0000 0.0000 0.0000
# 2 22.5455 69.5301 30.8303 0.0000 0.0000 0.0000
# 3 16.7623 30.8303 92.6872 0.0000 0.0000 0.0000
# 4 0.0000 0.0000 0.0000 22.4131 0.0000 0.0000
# 5 0.0000 0.0000 0.0000 0.0000 29.2996 0.0000
# 6 0.0000 0.0000 0.0000 0.0000 0.0000 24.4410
#
#
#
# Elastic Compliance Matrix: (Units=1/GPa)
#
#
# Indices 1 2 3 4 5 6 
#
# 1 0.013739 -0.003933 -0.001176 0.000000 0.000000 0.000000
# 2 -0.003933 0.017997 -0.005275 0.000000 0.000000 0.000000
# 3 -0.001176 -0.005275 0.012756 0.000000 0.000000 0.000000
# 4 0.000000 0.000000 0.000000 0.044617 0.000000 0.000000
# 5 0.000000 0.000000 0.000000 0.000000 0.034130 0.000000
# 6 0.000000 0.000000 0.000000 0.000000 0.000000 0.040915
#
#
# Mechanical properties :
#
#
# Convention : Reuss Voigt Hill
#
# Bulk Modulus (GPa) = 42.15372 42.57453 42.36413
# Shear Modulus (GPa) = 25.92965 26.74784 26.33874
#
# Velocity S-wave (km/s) = 3.74139 3.79996 3.77079
# Velocity P-wave (km/s) = 6.43587 6.49896 6.46749
#
# Compressibility (1/GPa) = 0.02372270
#
# Stress axis : x y z
#
# Youngs Moduli (GPa) = 72.78753 55.56624 78.39295
#
# Poissons Ratio (x) = 0.21856 0.09221
# Poissons Ratio (y) = 0.28629 0.41351
# Poissons Ratio (z) = 0.08562 0.29310
#
# Static dielectric constant tensor:
#      x y z
#    x 3.408070 0.000000 0.000000 
#    y 0.000000 3.100480 0.000000 
#    z 0.000000 0.000000 3.610520 
# 
# 
# High freq. dielectric constant tensor:
#      x y z
#    x 1.725070 0.000000 0.000000 
#    y 0.000000 1.686010 0.000000 
#    z 0.000000 0.000000 1.729010 
# 
# From -- ./inp_files/17212.got.cif
#   From: 2010.03.12/outbox.cif.g09.slc.cpg/sg38_9_cif.got.tgz:17212.got - 2010.04.14 02:38:36.
