data_PCOD8179807
_publ_section_title
;
Structure prediction by ZEFSAII (Michael W. Deem and Ramdas Pophale) SiO2 
 PCOD8179807
Probable space group: A M M 2
;
_chemical_formula_sum "Si O2"
_cell_formula_units_Z 48
_cell_length_a 9.212429
_cell_length_b 9.955331
_cell_length_c 27.805319
_cell_angle_alpha 90.000000
_cell_angle_beta 90.000000
_cell_angle_gamma 90.000000
_cell_volume 2550.103105
_symmetry_space_group_name_H-M "A M M 2"
_symmetry_group_IT_number 38
_symmetry_cell_setting 'orthorhombic'
loop_
_space_group_symop_operation_xyz
x,y,z
-x,-y,z
-x,y,z
x,-y,z
x,1/2+y,1/2+z
-x,1/2-y,1/2+z
-x,1/2+y,1/2+z
x,1/2-y,1/2+z
loop_
_atom_site_type_symbol
_atom_site_label
_atom_site_fract_x
_atom_site_fract_y
_atom_site_fract_z
Si Si1 0.166321 0.656124 0.366650
Si Si2 0.330018 0.345741 0.940393
Si Si3 0.329637 0.246897 0.046971
Si Si4 0.328818 0.000000 0.712092
Si Si5 0.173335 0.000000 0.093784
Si Si6 0.166427 0.236347 0.759206
Si Si7 0.327940 0.500000 0.105604
Si Si8 0.829390 0.000000 0.203865
O O1 0.220744 0.500000 0.363310
O O2 0.257693 0.743391 0.403574
O O3 0.182666 0.734884 0.316474
O O4 0.000000 0.656272 0.383465
O O5 0.500000 0.346550 0.930107
O O6 0.271184 0.500000 0.936157
O O7 0.295719 0.285267 0.992389
O O8 0.500000 0.215272 0.054502
O O9 0.232902 0.124582 0.064082
O O10 0.271824 0.368923 0.078908
O O11 0.275605 0.128832 0.739373
O O12 0.500000 0.000000 0.710634
O O13 0.262364 0.000000 0.658794
O O14 0.233365 0.000000 0.149182
O O15 0.000000 0.000000 0.092859
O O16 0.221955 0.373737 0.735333
O O17 0.000000 0.203849 0.744787
O O18 0.500000 0.500000 0.105067
O O19 0.000000 0.000000 0.199315
#
# Coordination Sequence:
#
# PCOD8179807 Si02
#       8
#     8   8   8   4   4   8   4   4
#     4  10  22  39  60  87 115 148 190 235 284 338
#     4  10  22  40  62  87 113 146 190 237 285 339
#     4  10  20  39  62  82 110 153 194 229 277 344
#     4  11  21  33  56  89 116 144 183 235 290 331
#     4  11  23  37  54  87 124 150 185 239 286 327
#     4  10  20  39  61  81 111 154 195 230 275 342
#     4   9  18  35  60  85 111 144 188 237 280 333
#     4   9  20  37  60  85 113 152 196 235 278 331
#
# _framework density 18.822769999999998
#
# number of rings (size 3 to 8) (size 9 to 14) (size 15 to 20)
#    0.000    2.000    1.667    1.500    2.333    2.000 
#    0.000    2.500    0.000    0.000    0.000    0.000 
#    0.000    0.000    0.000    0.000    0.000    0.000 
#
# Total GULP energy -297531.347847 kJ/mol
# GULP energy per Si atom -12397.139494 kJ/mol
# Density = 1.877993 g / cm^3
# Si number density = 18.822770 Si / 1000 Ang^3
#
#
#
# Elastic Constant Matrix: (Units=GPa)
#
#
# Indices 1 2 3 4 5 6 
#
# 1 49.4362 45.9356 46.1033 0.0000 0.0000 0.0000
# 2 45.9356 152.4607 59.6775 0.0000 0.0000 0.0000
# 3 46.1033 59.6775 114.9422 0.0000 0.0000 0.0000
# 4 0.0000 0.0000 0.0000 35.8874 0.0000 0.0000
# 5 0.0000 0.0000 0.0000 0.0000 28.0812 0.0000
# 6 0.0000 0.0000 0.0000 0.0000 0.0000 37.5978
#
#
#
# Elastic Compliance Matrix: (Units=1/GPa)
#
#
# Indices 1 2 3 4 5 6 
#
# 1 0.037092 -0.006717 -0.011390 0.000000 0.000000 0.000000
# 2 -0.006717 0.009449 -0.002211 0.000000 0.000000 0.000000
# 3 -0.011390 -0.002211 0.014417 0.000000 0.000000 0.000000
# 4 0.000000 0.000000 0.000000 0.027865 0.000000 0.000000
# 5 0.000000 0.000000 0.000000 0.000000 0.035611 0.000000
# 6 0.000000 0.000000 0.000000 0.000000 0.000000 0.026597
#
#
# Mechanical properties :
#
#
# Convention : Reuss Voigt Hill
#
# Bulk Modulus (GPa) = 49.21284 68.91909 59.06597
# Shear Modulus (GPa) = 25.19648 31.32145 28.25896
#
# Velocity S-wave (km/s) = 3.66268 4.08366 3.87889
# Velocity P-wave (km/s) = 6.63996 7.67654 7.17699
#
# Compressibility (1/GPa) = 0.02031990
#
# Stress axis : x y z
#
# Youngs Moduli (GPa) = 26.96021 105.83674 69.36423
#
# Poissons Ratio (x) = 0.71093 0.79005
# Poissons Ratio (y) = 0.18110 0.15339
# Poissons Ratio (z) = 0.30707 0.23404
#
# Static dielectric constant tensor:
#      x y z
#    x 3.223800 0.000000 0.000000 
#    y 0.000000 3.795170 0.000000 
#    z 0.000000 0.000000 3.705890 
# 
# 
# High freq. dielectric constant tensor:
#      x y z
#    x 1.708530 0.000000 0.000000 
#    y 0.000000 1.746730 0.000000 
#    z 0.000000 0.000000 1.746170 
# 
# From -- ./inp_files/24454.got.cif
#   From: 2010.03.12/outbox.cif.g09.slc.cpg/sg38_13_cif.got.tgz:24454.got - 2010.04.14 02:38:36.
