data_PCOD8179927
_publ_section_title
;
Structure prediction by ZEFSAII (Michael W. Deem and Ramdas Pophale) SiO2 
 PCOD8179927
Probable space group: A M M 2
;
_chemical_formula_sum "Si O2"
_cell_formula_units_Z 64
_cell_length_a 19.220717
_cell_length_b 8.979366
_cell_length_c 20.667371
_cell_angle_alpha 90.000000
_cell_angle_beta 90.000000
_cell_angle_gamma 90.000000
_cell_volume 3566.978517
_symmetry_space_group_name_H-M "A M M 2"
_symmetry_group_IT_number 38
_symmetry_cell_setting 'orthorhombic'
loop_
_space_group_symop_operation_xyz
x,y,z
-x,-y,z
-x,y,z
x,-y,z
x,1/2+y,1/2+z
-x,1/2-y,1/2+z
-x,1/2+y,1/2+z
x,1/2-y,1/2+z
loop_
_atom_site_type_symbol
_atom_site_label
_atom_site_fract_x
_atom_site_fract_y
_atom_site_fract_z
Si Si1 0.578395 0.175049 0.086210
Si Si2 0.078938 0.674557 0.365956
Si Si3 0.214083 0.676585 0.160848
Si Si4 0.705075 0.824383 0.788205
Si Si5 0.290933 0.176207 0.535194
Si Si6 0.579615 0.327772 0.734117
Si Si7 0.213813 0.676282 0.905202
Si Si8 0.924651 0.677156 0.218526
O O1 0.500000 0.218697 0.065370
O O2 0.591343 0.225809 0.160240
O O3 0.589456 0.000000 0.079949
O O4 0.631477 0.257426 0.038265
O O5 0.094245 0.500000 0.372882
O O6 0.134533 0.764255 0.409045
O O7 0.089547 0.727791 0.292053
O O8 0.000000 0.711092 0.388826
O O9 0.212013 0.500000 0.156706
O O10 0.259750 0.727641 0.221512
O O11 0.135577 0.739241 0.171393
O O12 0.245863 0.742312 0.094972
O O13 0.625465 0.769617 0.783621
O O14 0.744813 0.746593 0.846180
O O15 0.708455 0.000000 0.799112
O O16 0.253239 0.227273 0.470010
O O17 0.297298 0.000000 0.539722
O O18 0.500000 0.302500 0.754401
O O19 0.600329 0.500000 0.741162
O O20 0.212473 0.500000 0.898085
O O21 0.925284 0.500000 0.218074
O O22 0.000000 0.737951 0.194999
#
# Coordination Sequence:
#
# PCOD8179927 Si02
#       8
#     8   8   8   8   8   8   8   8
#     4   9  18  33  54  80 107 135 171 217 267 322
#     4   9  17  32  55  80 104 135 180 225 265 317
#     4   9  16  29  50  76 102 128 169 221 263 303
#     4  11  20  33  56  80 104 136 180 228 263 308
#     4  10  21  36  52  76 109 144 179 217 262 318
#     4   9  18  33  53  80 113 141 168 212 274 333
#     4  11  23  36  51  76 114 149 178 218 270 323
#     4   8  13  24  47  77 102 125 162 215 265 302
#
# _framework density 17.942356
#
# number of rings (size 3 to 8) (size 9 to 14) (size 15 to 20)
#    0.000    2.500    2.500    2.250    0.000    1.750 
#    0.000    2.500    0.000    3.000    0.000    0.000 
#    0.000    0.000    0.000    0.000    0.000    0.000 
#
# Total GULP energy -396706.438362 kJ/mol
# GULP energy per Si atom -12397.076199 kJ/mol
# Density = 1.790152 g / cm^3
# Si number density = 17.942356 Si / 1000 Ang^3
#
#
#
# Elastic Constant Matrix: (Units=GPa)
#
#
# Indices 1 2 3 4 5 6 
#
# 1 155.3859 42.7977 66.1154 0.0000 0.0000 0.0000
# 2 42.7977 42.6732 36.4302 0.0000 0.0000 0.0000
# 3 66.1154 36.4302 95.8143 0.0000 0.0000 0.0000
# 4 0.0000 0.0000 0.0000 21.1319 0.0000 0.0000
# 5 0.0000 0.0000 0.0000 0.0000 30.1436 0.0000
# 6 0.0000 0.0000 0.0000 0.0000 0.0000 29.7789
#
#
#
# Elastic Compliance Matrix: (Units=1/GPa)
#
#
# Indices 1 2 3 4 5 6 
#
# 1 0.010107 -0.006193 -0.004620 0.000000 0.000000 0.000000
# 2 -0.006193 0.038490 -0.010362 0.000000 0.000000 0.000000
# 3 -0.004620 -0.010362 0.017564 0.000000 0.000000 0.000000
# 4 0.000000 0.000000 0.000000 0.047322 0.000000 0.000000
# 5 0.000000 0.000000 0.000000 0.000000 0.033175 0.000000
# 6 0.000000 0.000000 0.000000 0.000000 0.000000 0.033581
#
#
# Mechanical properties :
#
#
# Convention : Reuss Voigt Hill
#
# Bulk Modulus (GPa) = 41.99231 64.95110 53.47170
# Shear Modulus (GPa) = 21.68977 26.11290 23.90133
#
# Velocity S-wave (km/s) = 3.48064 3.81908 3.65378
# Velocity P-wave (km/s) = 6.29348 7.46496 6.90411
#
# Compressibility (1/GPa) = 0.02381389
#
# Stress axis : x y z
#
# Youngs Moduli (GPa) = 98.94359 25.98062 56.93421
#
# Poissons Ratio (x) = 0.16089 0.26301
# Poissons Ratio (y) = 0.61271 0.58993
# Poissons Ratio (z) = 0.45707 0.26920
#
# Static dielectric constant tensor:
#      x y z
#    x 3.672320 0.000000 0.000000 
#    y 0.000000 3.001290 0.000000 
#    z 0.000000 0.000000 3.210680 
# 
# 
# High freq. dielectric constant tensor:
#      x y z
#    x 1.714190 0.000000 0.000000 
#    y 0.000000 1.668180 0.000000 
#    z 0.000000 0.000000 1.666440 
# 
# From -- ./inp_files/18998.got.cif
#   From: 2010.03.12/outbox.cif.g09.slc.cpg/sg38_10_cif.got.tgz:18998.got - 2010.04.14 02:38:36.
