data_PCOD8179815
_publ_section_title
;
Structure prediction by ZEFSAII (Michael W. Deem and Ramdas Pophale) SiO2 
 PCOD8179815
Probable space group: A M M 2
;
_chemical_formula_sum "Si O2"
_cell_formula_units_Z 56
_cell_length_a 21.588897
_cell_length_b 8.476907
_cell_length_c 15.105271
_cell_angle_alpha 90.000000
_cell_angle_beta 90.000000
_cell_angle_gamma 90.000000
_cell_volume 2764.371419
_symmetry_space_group_name_H-M "A M M 2"
_symmetry_group_IT_number 38
_symmetry_cell_setting 'orthorhombic'
loop_
_space_group_symop_operation_xyz
x,y,z
-x,-y,z
-x,y,z
x,-y,z
x,1/2+y,1/2+z
-x,1/2-y,1/2+z
-x,1/2+y,1/2+z
x,1/2-y,1/2+z
loop_
_atom_site_type_symbol
_atom_site_label
_atom_site_fract_x
_atom_site_fract_y
_atom_site_fract_z
Si Si1 0.630289 0.684611 0.835490
Si Si2 0.631730 0.686700 0.528701
Si Si3 0.931762 0.186651 0.351171
Si Si4 0.500000 0.328668 0.543943
Si Si5 0.289132 0.817991 0.681838
Si Si6 0.927898 0.182362 0.550683
Si Si7 0.500000 0.674227 0.334723
Si Si8 0.155462 0.316537 0.697180
O O1 0.638645 0.500000 0.822742
O O2 0.679164 0.771766 0.773526
O O3 0.561117 0.731660 0.804903
O O4 0.646884 0.730513 0.935970
O O5 0.624937 0.500000 0.511327
O O6 0.565493 0.755364 0.567879
O O7 0.684798 0.718975 0.599250
O O8 0.911682 0.232243 0.450326
O O9 0.881429 0.251780 0.282194
O O10 0.000000 0.258052 0.329907
O O11 0.936216 0.000000 0.342391
O O12 0.500000 0.500000 0.589950
O O13 0.500000 0.344819 0.438803
O O14 0.216716 0.785775 0.688450
O O15 0.300990 0.000000 0.661703
O O16 0.887306 0.295283 0.611607
O O17 0.000000 0.211904 0.570449
O O18 0.910743 0.000000 0.567637
O O19 0.500000 0.500000 0.290504
O O20 0.172632 0.500000 0.708169
#
# Coordination Sequence:
#
# PCOD8179815 Si02
#       8
#     8   8   8   4   8   8   4   8
#     4  11  22  39  62  89 119 154 194 241 297 355
#     4  10  20  39  63  88 117 150 190 241 298 355
#     4   8  16  33  58  85 112 144 182 225 278 339
#     4   7  14  30  57  86 112 140 176 229 291 346
#     4  12  26  42  57  80 116 160 205 246 292 351
#     4   9  18  35  59  86 115 147 183 226 282 348
#     4   9  17  34  59  88 118 152 192 239 293 346
#     4  11  22  37  57  82 113 149 192 241 289 342
#
# _framework density 20.257771000000002
#
# number of rings (size 3 to 8) (size 9 to 14) (size 15 to 20)
#    0.000    2.143    0.000    5.786    0.000    2.571 
#    0.000    8.929    0.000    1.714    0.000    0.000 
#    0.000    0.000    0.000    0.000    0.000    0.000 
#
# Total GULP energy -347143.799921 kJ/mol
# GULP energy per Si atom -12397.992854 kJ/mol
# Density = 2.021166 g / cm^3
# Si number density = 20.257771 Si / 1000 Ang^3
#
#
#
# Elastic Constant Matrix: (Units=GPa)
#
#
# Indices 1 2 3 4 5 6 
#
# 1 117.6455 15.8691 58.2039 0.0000 0.0000 0.0000
# 2 15.8691 57.3497 6.5456 0.0000 0.0000 0.0000
# 3 58.2039 6.5456 98.2536 0.0000 0.0000 0.0000
# 4 0.0000 0.0000 0.0000 28.4350 0.0000 0.0000
# 5 0.0000 0.0000 0.0000 0.0000 -59.9267 0.0000
# 6 0.0000 0.0000 0.0000 0.0000 0.0000 25.3659
#
#
#
# Elastic Compliance Matrix: (Units=1/GPa)
#
#
# Indices 1 2 3 4 5 6 
#
# 1 0.012401 -0.002613 -0.007172 0.000000 0.000000 0.000000
# 2 -0.002613 0.018121 0.000341 0.000000 0.000000 0.000000
# 3 -0.007172 0.000341 0.014404 0.000000 0.000000 0.000000
# 4 0.000000 0.000000 0.000000 0.035168 0.000000 0.000000
# 5 0.000000 0.000000 0.000000 0.000000 -0.016687 0.000000
# 6 0.000000 0.000000 0.000000 0.000000 0.000000 0.039423
#
#
# Mechanical properties :
#
#
# Convention : Reuss Voigt Hill
#
# Bulk Modulus (GPa) = 38.40690 48.27622 43.34156
# Shear Modulus (GPa) = 38.34450 11.61686 24.98068
#
# Velocity S-wave (km/s) = 4.35539 2.39728 3.51542
# Velocity P-wave (km/s) = 6.65528 5.61652 6.15784
#
# Compressibility (1/GPa) = 0.02603699
#
# Stress axis : x y z
#
# Youngs Moduli (GPa) = 80.63977 55.18460 69.42692
#
# Poissons Ratio (x) = 0.14419 0.49793
# Poissons Ratio (y) = 0.21070 -0.02365
# Poissons Ratio (z) = 0.57835 -0.01880
#
# Static dielectric constant tensor:
#      x y z
#    x 4.225070 0.000000 0.000000 
#    y 0.000000 3.480400 0.000000 
#    z 0.000000 0.000000 3.650290 
# 
# 
# High freq. dielectric constant tensor:
#      x y z
#    x 1.795680 0.000000 0.000000 
#    y 0.000000 1.775200 0.000000 
#    z 0.000000 0.000000 1.790490 
# 
# From -- ./inp_files/15583.got.cif
#   From: 2010.03.12/outbox.cif.g09.slc.cpg/sg38_8_cif.got.tgz:15583.got - 2010.04.14 02:38:36.
