data_PCOD8179537
_publ_section_title
;
Structure prediction by ZEFSAII (Michael W. Deem and Ramdas Pophale) SiO2 
 PCOD8179537
Probable space group: A M M 2
;
_chemical_formula_sum "Si O2"
_cell_formula_units_Z 48
_cell_length_a 7.858136
_cell_length_b 38.187236
_cell_length_c 7.637926
_cell_angle_alpha 90.000000
_cell_angle_beta 90.000000
_cell_angle_gamma 90.000000
_cell_volume 2291.992607
_symmetry_space_group_name_H-M "A M M 2"
_symmetry_group_IT_number 38
_symmetry_cell_setting 'orthorhombic'
loop_
_space_group_symop_operation_xyz
x,y,z
-x,-y,z
-x,y,z
x,-y,z
x,1/2+y,1/2+z
-x,1/2-y,1/2+z
-x,1/2+y,1/2+z
x,1/2-y,1/2+z
loop_
_atom_site_type_symbol
_atom_site_label
_atom_site_fract_x
_atom_site_fract_y
_atom_site_fract_z
Si Si1 0.187321 0.334011 0.992210
Si Si2 0.701633 0.910049 0.498712
Si Si3 0.500000 0.290804 0.408358
Si Si4 0.298524 0.589397 0.394048
Si Si5 0.812855 0.834722 0.907828
Si Si6 0.500000 0.290007 0.996935
Si Si7 0.702329 0.460894 0.697374
O O1 0.220848 0.373613 0.930314
O O2 0.000000 0.322235 0.924973
O O3 0.195211 0.332814 0.200076
O O4 0.330870 0.307921 0.914275
O O5 0.500000 0.906151 0.492483
O O6 0.762760 0.919043 0.696142
O O7 0.767430 0.940534 0.369954
O O8 0.669240 0.309049 0.488812
O O9 0.500000 0.296449 0.202341
O O10 0.500000 0.250535 0.455699
O O11 0.500000 0.593709 0.399550
O O12 0.219886 0.625442 0.465986
O O13 0.234655 0.558457 0.521066
O O14 0.000000 0.823061 0.975977
O O15 0.500000 0.462433 0.699015
O O16 0.779619 0.500000 0.699360
#
# Coordination Sequence:
#
# PCOD8179537 Si02
#       7
#     8   8   4   8   8   4   8
#     4   9  17  32  55  77 102 140 183 225 267 321
#     4   9  16  30  52  75 102 142 187 227 274 328
#     4  10  20  36  54  78 108 139 173 216 276 333
#     4   9  16  30  52  75 102 142 187 227 274 328
#     4   9  17  32  55  77 102 140 183 225 267 321
#     4  10  20  36  54  78 108 139 173 216 276 333
#     4   9  18  30  47  79 115 144 181 233 282 329
#
# _framework density 20.942478000000001
#
# number of rings (size 3 to 8) (size 9 to 14) (size 15 to 20)
#    0.000    2.833    1.667    0.000    0.000    1.333 
#    3.000    4.167    0.000    2.000    0.000    4.667 
#    0.000    0.000    0.000    0.000    0.000    0.000 
#
# Total GULP energy -297494.498998 kJ/mol
# GULP energy per Si atom -12395.604125 kJ/mol
# Density = 2.089481 g / cm^3
# Si number density = 20.942478 Si / 1000 Ang^3
#
#
#
# Elastic Constant Matrix: (Units=GPa)
#
#
# Indices 1 2 3 4 5 6 
#
# 1 113.2078 69.0434 15.4014 0.0000 0.0000 0.0000
# 2 69.0434 161.3859 30.9805 0.0000 0.0000 0.0000
# 3 15.4014 30.9805 59.7959 0.0000 0.0000 0.0000
# 4 0.0000 0.0000 0.0000 32.8833 0.0000 0.0000
# 5 0.0000 0.0000 0.0000 0.0000 1.4849 0.0000
# 6 0.0000 0.0000 0.0000 0.0000 0.0000 9.3576
#
#
#
# Elastic Compliance Matrix: (Units=1/GPa)
#
#
# Indices 1 2 3 4 5 6 
#
# 1 0.011964 -0.005027 -0.000477 0.000000 0.000000 0.000000
# 2 -0.005027 0.008993 -0.003364 0.000000 0.000000 0.000000
# 3 -0.000477 -0.003364 0.018590 0.000000 0.000000 0.000000
# 4 0.000000 0.000000 0.000000 0.030411 0.000000 0.000000
# 5 0.000000 0.000000 0.000000 0.000000 0.673450 0.000000
# 6 0.000000 0.000000 0.000000 0.000000 0.000000 0.106865
#
#
# Mechanical properties :
#
#
# Convention : Reuss Voigt Hill
#
# Bulk Modulus (GPa) = 45.85137 62.80448 54.32792
# Shear Modulus (GPa) = 5.71247 23.34277 14.52762
#
# Velocity S-wave (km/s) = 1.65337 3.34220 2.63666
# Velocity P-wave (km/s) = 5.05829 6.70432 5.93861
#
# Compressibility (1/GPa) = 0.02180960
#
# Stress axis : x y z
#
# Youngs Moduli (GPa) = 83.58435 111.20104 53.79354
#
# Poissons Ratio (x) = 0.55898 0.02567
# Poissons Ratio (y) = 0.42016 0.18099
# Poissons Ratio (z) = 0.03988 0.37413
#
# Static dielectric constant tensor:
#      x y z
#    x 3.938410 0.000000 0.000000 
#    y 0.000000 2.910640 0.000000 
#    z 0.000000 0.000000 4.043850 
# 
# 
# High freq. dielectric constant tensor:
#      x y z
#    x 1.811570 0.000000 0.000000 
#    y 0.000000 1.809250 0.000000 
#    z 0.000000 0.000000 1.799710 
# 
# From -- ./inp_files/3841.got.cif
#   From: 2010.03.12/outbox.cif.g09.slc.cpg/sg38_2_cif.got.tgz:3841.got - 2010.04.14 02:38:36.
