data_PCOD8179412
_publ_section_title
;
Structure prediction by ZEFSAII (Michael W. Deem and Ramdas Pophale) SiO2 
 PCOD8179412
Probable space group: A M M 2
;
_chemical_formula_sum "Si O2"
_cell_formula_units_Z 64
_cell_length_a 19.738888
_cell_length_b 8.883143
_cell_length_c 19.832157
_cell_angle_alpha 90.000000
_cell_angle_beta 90.000000
_cell_angle_gamma 90.000000
_cell_volume 3477.437139
_symmetry_space_group_name_H-M "A M M 2"
_symmetry_group_IT_number 38
_symmetry_cell_setting 'orthorhombic'
loop_
_space_group_symop_operation_xyz
x,y,z
-x,-y,z
-x,y,z
x,-y,z
x,1/2+y,1/2+z
-x,1/2-y,1/2+z
-x,1/2+y,1/2+z
x,1/2-y,1/2+z
loop_
_atom_site_type_symbol
_atom_site_label
_atom_site_fract_x
_atom_site_fract_y
_atom_site_fract_z
Si Si1 0.695425 0.677809 0.682240
Si Si2 0.677534 0.676078 0.045980
Si Si3 0.805250 0.326952 0.361265
Si Si4 0.577850 0.673755 0.928406
Si Si5 0.656144 0.676157 0.314854
Si Si6 0.827148 0.324458 0.996405
Si Si7 0.836965 0.175425 0.712381
Si Si8 0.921814 0.324895 0.604536
O O1 0.698771 0.500000 0.686018
O O2 0.660687 0.730447 0.613006
O O3 0.650197 0.739150 0.743670
O O4 0.770901 0.743185 0.683889
O O5 0.671403 0.500000 0.062025
O O6 0.622697 0.728636 0.991116
O O7 0.751616 0.718544 0.018744
O O8 0.811194 0.500000 0.383818
O O9 0.727200 0.281673 0.349882
O O10 0.837353 0.222704 0.418682
O O11 0.846529 0.297347 0.292166
O O12 0.500000 0.700784 0.947308
O O13 0.593346 0.500000 0.911948
O O14 0.595436 0.770612 0.862501
O O15 0.651099 0.500000 0.300423
O O16 0.842007 0.500000 0.004263
O O17 0.880148 0.234339 0.041100
O O18 0.901761 0.239562 0.673385
O O19 0.827524 0.000000 0.696298
O O20 0.906805 0.500000 0.614532
O O21 0.000000 0.292216 0.589915
#
# Coordination Sequence:
#
# PCOD8179412 Si02
#       8
#     8   8   8   8   8   8   8   8
#     4  11  21  33  56  85 113 146 187 236 286 332
#     4  10  20  35  55  84 117 149 190 237 286 338
#     4   9  19  34  55  83 114 144 182 231 280 329
#     4  10  21  38  59  83 115 153 191 234 287 345
#     4  10  20  35  56  82 114 149 187 233 282 338
#     4  11  21  34  58  86 114 149 189 236 285 335
#     4  10  20  36  57  84 114 146 184 231 284 339
#     4  11  24  40  58  82 114 152 192 235 285 343
#
# _framework density 18.404357999999998
#
# number of rings (size 3 to 8) (size 9 to 14) (size 15 to 20)
#    0.000    1.750    2.500    3.375    0.000    4.750 
#    0.000    1.250    0.000    3.000    0.000    0.000 
#    0.000    0.000    0.000    0.000    0.000    0.000 
#
# Total GULP energy -396952.081725 kJ/mol
# GULP energy per Si atom -12404.752554 kJ/mol
# Density = 1.836247 g / cm^3
# Si number density = 18.404358 Si / 1000 Ang^3
#
#
#
# Elastic Constant Matrix: (Units=GPa)
#
#
# Indices 1 2 3 4 5 6 
#
# 1 90.2665 46.5580 57.8276 0.0000 0.0000 0.0000
# 2 46.5580 101.8513 65.1539 0.0000 0.0000 0.0000
# 3 57.8276 65.1539 142.4003 0.0000 0.0000 0.0000
# 4 0.0000 0.0000 0.0000 37.9287 0.0000 0.0000
# 5 0.0000 0.0000 0.0000 0.0000 27.3459 0.0000
# 6 0.0000 0.0000 0.0000 0.0000 0.0000 24.1052
#
#
#
# Elastic Compliance Matrix: (Units=1/GPa)
#
#
# Indices 1 2 3 4 5 6 
#
# 1 0.016346 -0.004561 -0.004551 0.000000 0.000000 0.000000
# 2 -0.004561 0.015153 -0.005081 0.000000 0.000000 0.000000
# 3 -0.004551 -0.005081 0.011196 0.000000 0.000000 0.000000
# 4 0.000000 0.000000 0.000000 0.026365 0.000000 0.000000
# 5 0.000000 0.000000 0.000000 0.000000 0.036569 0.000000
# 6 0.000000 0.000000 0.000000 0.000000 0.000000 0.041485
#
#
# Mechanical properties :
#
#
# Convention : Reuss Voigt Hill
#
# Bulk Modulus (GPa) = 69.88738 74.84412 72.36575
# Shear Modulus (GPa) = 27.73607 28.87453 28.30530
#
# Velocity S-wave (km/s) = 3.88627 3.96523 3.92595
# Velocity P-wave (km/s) = 7.62845 7.85613 7.74313
#
# Compressibility (1/GPa) = 0.01430874
#
# Stress axis : x y z
#
# Youngs Moduli (GPa) = 61.17535 65.99142 89.32037
#
# Poissons Ratio (x) = 0.30097 0.40654
# Poissons Ratio (y) = 0.27900 0.45386
# Poissons Ratio (z) = 0.27844 0.33532
#
# Static dielectric constant tensor:
#      x y z
#    x 3.167310 0.000000 0.000000 
#    y 0.000000 3.409610 0.000000 
#    z 0.000000 0.000000 3.528780 
# 
# 
# High freq. dielectric constant tensor:
#      x y z
#    x 1.683540 0.000000 0.000000 
#    y 0.000000 1.721290 0.000000 
#    z 0.000000 0.000000 1.727100 
# 
# From -- ./inp_files/21410.got.cif
#   From: 2010.03.12/outbox.cif.g09.slc.cpg/sg38_11_cif.got.tgz:21410.got - 2010.04.14 02:38:36.
