data_PCOD8179135
_publ_section_title
;
Structure prediction by ZEFSAII (Michael W. Deem and Ramdas Pophale) SiO2 
 PCOD8179135
Probable space group: A M M 2
;
_chemical_formula_sum "Si O2"
_cell_formula_units_Z 64
_cell_length_a 29.392167
_cell_length_b 12.676395
_cell_length_c 8.737685
_cell_angle_alpha 90.000000
_cell_angle_beta 90.000000
_cell_angle_gamma 90.000000
_cell_volume 3255.545384
_symmetry_space_group_name_H-M "A M M 2"
_symmetry_group_IT_number 38
_symmetry_cell_setting 'orthorhombic'
loop_
_space_group_symop_operation_xyz
x,y,z
-x,-y,z
-x,y,z
x,-y,z
x,1/2+y,1/2+z
-x,1/2-y,1/2+z
-x,1/2+y,1/2+z
x,1/2-y,1/2+z
loop_
_atom_site_type_symbol
_atom_site_label
_atom_site_fract_x
_atom_site_fract_y
_atom_site_fract_z
Si Si1 0.395366 0.750130 0.545660
Si Si2 0.946816 0.114113 0.752338
Si Si3 0.343908 0.622018 0.295794
Si Si4 0.185795 0.749101 0.014036
Si Si5 0.053416 0.316625 0.920397
Si Si6 0.553307 0.621946 0.796659
Si Si7 0.136448 0.619013 0.757328
Si Si8 0.762931 0.621833 0.267766
O O1 0.359661 0.686485 0.443455
O O2 0.368077 0.834924 0.644588
O O3 0.421892 0.665541 0.647101
O O4 0.431743 0.813705 0.445657
O O5 0.935134 0.193043 0.889965
O O6 0.928911 0.157333 0.589919
O O7 0.000000 0.100433 0.734346
O O8 0.924152 0.000000 0.787476
O O9 0.357131 0.500000 0.316268
O O10 0.290548 0.637972 0.278961
O O11 0.147143 0.810022 0.110164
O O12 0.220087 0.686324 0.121977
O O13 0.161904 0.665376 0.904588
O O14 0.214253 0.835758 0.922044
O O15 0.082260 0.382039 0.795441
O O16 0.000000 0.341440 0.893894
O O17 0.500000 0.636976 0.773577
O O18 0.566647 0.500000 0.817982
O O19 0.152999 0.500000 0.727732
O O20 0.776321 0.500000 0.247762
#
# Coordination Sequence:
#
# PCOD8179135 Si02
#       8
#     8   8   8   8   8   8   8   8
#     4  10  20  34  52  78 110 140 178 228 272 314
#     4   9  18  34  53  73 101 133 164 204 249 291
#     4  10  20  34  55  81 107 137 172 217 273 324
#     4  10  22  38  56  80 106 136 174 212 252 312
#     4  10  20  35  56  80 105 136 174 211 252 304
#     4  10  20  34  52  74 105 148 191 227 266 313
#     4  11  22  37  56  78 106 138 171 211 256 300
#     4  10  20  37  59  81 107 138 172 212 263 320
#
# _framework density 19.658764999999999
#
# number of rings (size 3 to 8) (size 9 to 14) (size 15 to 20)
#    0.000    2.000    0.000    3.750    0.000    0.750 
#    0.000    5.625    0.000   25.500    0.000    0.000 
#    0.000    0.000    0.000    0.000    0.000    0.000 
#
# Total GULP energy -396818.763581 kJ/mol
# GULP energy per Si atom -12400.586362 kJ/mol
# Density = 1.961402 g / cm^3
# Si number density = 19.658765 Si / 1000 Ang^3
#
#
#
# Elastic Constant Matrix: (Units=GPa)
#
#
# Indices 1 2 3 4 5 6 
#
# 1 67.5634 20.0673 11.9070 0.0000 0.0000 0.0000
# 2 20.0673 101.3662 17.0364 0.0000 0.0000 0.0000
# 3 11.9070 17.0364 66.3660 0.0000 0.0000 0.0000
# 4 0.0000 0.0000 0.0000 29.7314 0.0000 0.0000
# 5 0.0000 0.0000 0.0000 0.0000 20.9008 0.0000
# 6 0.0000 0.0000 0.0000 0.0000 0.0000 27.9982
#
#
#
# Elastic Compliance Matrix: (Units=1/GPa)
#
#
# Indices 1 2 3 4 5 6 
#
# 1 0.016014 -0.002809 -0.002152 0.000000 0.000000 0.000000
# 2 -0.002809 0.010803 -0.002269 0.000000 0.000000 0.000000
# 3 -0.002152 -0.002269 0.016037 0.000000 0.000000 0.000000
# 4 0.000000 0.000000 0.000000 0.033634 0.000000 0.000000
# 5 0.000000 0.000000 0.000000 0.000000 0.047845 0.000000
# 6 0.000000 0.000000 0.000000 0.000000 0.000000 0.035717
#
#
# Mechanical properties :
#
#
# Convention : Reuss Voigt Hill
#
# Bulk Modulus (GPa) = 35.21921 37.03521 36.12721
# Shear Modulus (GPa) = 27.17772 28.14508 27.66140
#
# Velocity S-wave (km/s) = 3.72220 3.78786 3.75517
# Velocity P-wave (km/s) = 6.03549 6.16526 6.10072
#
# Compressibility (1/GPa) = 0.02839359
#
# Stress axis : x y z
#
# Youngs Moduli (GPa) = 62.44374 92.57017 62.35734
#
# Poissons Ratio (x) = 0.25999 0.13421
# Poissons Ratio (y) = 0.17538 0.14150
# Poissons Ratio (z) = 0.13439 0.21006
#
# Static dielectric constant tensor:
#      x y z
#    x 3.544530 0.000000 0.000000 
#    y 0.000000 1.780570 0.000000 
#    z 0.000000 0.000000 3.633100 
# 
# 
# High freq. dielectric constant tensor:
#      x y z
#    x 1.763320 0.000000 0.000000 
#    y 0.000000 1.779740 0.000000 
#    z 0.000000 0.000000 1.772240 
# 
# From -- ./inp_files/7047.got.cif
#   From: 2010.03.12/outbox.cif.g09.slc.cpg/sg38_4_cif.got.tgz:7047.got - 2010.04.14 02:38:36.
