data_PCOD8179378
_publ_section_title
;
Structure prediction by ZEFSAII (Michael W. Deem and Ramdas Pophale) SiO2 
 PCOD8179378
Probable space group: A M M 2
;
_chemical_formula_sum "Si O2"
_cell_formula_units_Z 64
_cell_length_a 14.195952
_cell_length_b 8.869033
_cell_length_c 28.253474
_cell_angle_alpha 90.000000
_cell_angle_beta 90.000000
_cell_angle_gamma 90.000000
_cell_volume 3557.235753
_symmetry_space_group_name_H-M "A M M 2"
_symmetry_group_IT_number 38
_symmetry_cell_setting 'orthorhombic'
loop_
_space_group_symop_operation_xyz
x,y,z
-x,-y,z
-x,y,z
x,-y,z
x,1/2+y,1/2+z
-x,1/2-y,1/2+z
-x,1/2+y,1/2+z
x,1/2-y,1/2+z
loop_
_atom_site_type_symbol
_atom_site_label
_atom_site_fract_x
_atom_site_fract_y
_atom_site_fract_z
Si Si1 0.757324 0.323332 0.289130
Si Si2 0.891528 0.823604 0.973433
Si Si3 0.606677 0.176037 0.461386
Si Si4 0.745965 0.678162 0.642524
Si Si5 0.752719 0.176529 0.541873
Si Si6 0.253244 0.177524 0.893889
Si Si7 0.107257 0.320906 0.208517
Si Si8 0.607602 0.823406 0.713698
O O1 0.769887 0.500000 0.295096
O O2 0.759836 0.250437 0.341461
O O3 0.843568 0.262912 0.256929
O O4 0.659163 0.283869 0.263071
O O5 0.837748 0.778559 0.925125
O O6 0.000000 0.778511 0.966906
O O7 0.879183 0.000000 0.984522
O O8 0.849262 0.729839 0.017070
O O9 0.500000 0.233186 0.468275
O O10 0.664364 0.216348 0.508538
O O11 0.651529 0.257645 0.416242
O O12 0.610628 0.000000 0.451007
O O13 0.752299 0.500000 0.644928
O O14 0.735573 0.730688 0.589025
O O15 0.841573 0.747556 0.663707
O O16 0.654283 0.733293 0.670791
O O17 0.759784 0.000000 0.553199
O O18 0.266186 0.000000 0.890744
O O19 0.116437 0.500000 0.203587
O O20 0.000000 0.266314 0.209189
O O21 0.500000 0.772449 0.718712
O O22 0.617598 0.000000 0.702206
#
# Coordination Sequence:
#
# PCOD8179378 Si02
#       8
#     8   8   8   8   8   8   8   8
#     4   8  15  29  50  77 104 129 163 206 247 286
#     4   9  18  32  49  72 103 134 163 200 248 296
#     4   9  19  35  52  71  97 129 165 204 245 290
#     4  11  22  35  52  75 104 132 161 204 257 307
#     4  10  20  35  54  73  95 127 168 208 247 295
#     4   9  17  30  50  76 104 132 163 201 245 292
#     4   9  18  34  55  76  99 131 172 211 245 290
#     4   9  18  34  54  74 100 135 173 210 246 289
#
# _framework density 17.991496999999999
#
# number of rings (size 3 to 8) (size 9 to 14) (size 15 to 20)
#    0.000    2.750    0.000    2.250    0.000    3.500 
#    0.000    7.500    0.000    0.000    0.000    5.250 
#    0.000    0.000    0.000    0.000    0.000    0.000 
#
# Total GULP energy -396796.301243 kJ/mol
# GULP energy per Si atom -12399.884414 kJ/mol
# Density = 1.795055 g / cm^3
# Si number density = 17.991497 Si / 1000 Ang^3
#
#
#
# Elastic Constant Matrix: (Units=GPa)
#
#
# Indices 1 2 3 4 5 6 
#
# 1 140.9575 29.6767 40.9311 0.0000 0.0000 0.0000
# 2 29.6767 40.3859 27.0797 0.0000 0.0000 0.0000
# 3 40.9311 27.0797 111.5297 0.0000 0.0000 0.0000
# 4 0.0000 0.0000 0.0000 23.3949 0.0000 0.0000
# 5 0.0000 0.0000 0.0000 0.0000 13.3363 0.0000
# 6 0.0000 0.0000 0.0000 0.0000 0.0000 21.4171
#
#
#
# Elastic Compliance Matrix: (Units=1/GPa)
#
#
# Indices 1 2 3 4 5 6 
#
# 1 0.008740 -0.005103 -0.001969 0.000000 0.000000 0.000000
# 2 -0.005103 0.032555 -0.006032 0.000000 0.000000 0.000000
# 3 -0.001969 -0.006032 0.011153 0.000000 0.000000 0.000000
# 4 0.000000 0.000000 0.000000 0.042744 0.000000 0.000000
# 5 0.000000 0.000000 0.000000 0.000000 0.074983 0.000000
# 6 0.000000 0.000000 0.000000 0.000000 0.000000 0.046692
#
#
# Mechanical properties :
#
#
# Convention : Reuss Voigt Hill
#
# Bulk Modulus (GPa) = 38.10625 54.24982 46.17803
# Shear Modulus (GPa) = 19.85531 24.64202 22.24866
#
# Velocity S-wave (km/s) = 3.32564 3.70489 3.52038
# Velocity P-wave (km/s) = 5.99772 6.96564 6.49972
#
# Compressibility (1/GPa) = 0.02624242
#
# Stress axis : x y z
#
# Youngs Moduli (GPa) = 114.41272 30.71716 89.65955
#
# Poissons Ratio (x) = 0.15673 0.17652
# Poissons Ratio (y) = 0.58379 0.54081
# Poissons Ratio (z) = 0.22525 0.18528
#
# Static dielectric constant tensor:
#      x y z
#    x 3.475670 0.000000 0.000000 
#    y 0.000000 3.134240 0.000000 
#    z 0.000000 0.000000 3.505810 
# 
# 
# High freq. dielectric constant tensor:
#      x y z
#    x 1.699600 0.000000 0.000000 
#    y 0.000000 1.677790 0.000000 
#    z 0.000000 0.000000 1.700850 
# 
# From -- ./inp_files/25082.got.cif
#   From: 2010.03.12/outbox.cif.g09.slc.cpg/sg38_13_cif.got.tgz:25082.got - 2010.04.14 02:38:36.
