data_PCOD8179836
_publ_section_title
;
Structure prediction by ZEFSAII (Michael W. Deem and Ramdas Pophale) SiO2 
 PCOD8179836
Probable space group: A M M 2
;
_chemical_formula_sum "Si O2"
_cell_formula_units_Z 40
_cell_length_a 14.155773
_cell_length_b 28.372475
_cell_length_c 5.184320
_cell_angle_alpha 90.000000
_cell_angle_beta 90.000000
_cell_angle_gamma 90.000000
_cell_volume 2082.200815
_symmetry_space_group_name_H-M "A M M 2"
_symmetry_group_IT_number 38
_symmetry_cell_setting 'orthorhombic'
loop_
_space_group_symop_operation_xyz
x,y,z
-x,-y,z
-x,y,z
x,-y,z
x,1/2+y,1/2+z
-x,1/2-y,1/2+z
-x,1/2+y,1/2+z
x,1/2-y,1/2+z
loop_
_atom_site_type_symbol
_atom_site_label
_atom_site_fract_x
_atom_site_fract_y
_atom_site_fract_z
Si Si1 0.890259 0.779854 0.566200
Si Si2 0.738534 0.644881 0.140408
Si Si3 0.609363 0.719914 0.365658
Si Si4 0.606331 0.588109 0.840728
Si Si5 0.689699 0.051811 0.826910
O O1 0.862063 0.748669 0.321229
O O2 0.833492 0.828652 0.558323
O O3 0.000000 0.793332 0.562335
O O4 0.674072 0.673853 0.341916
O O5 0.765071 0.594709 0.280005
O O6 0.674661 0.633749 0.885700
O O7 0.500000 0.704571 0.355614
O O8 0.635363 0.745337 0.631239
O O9 0.500000 0.606740 0.803528
O O10 0.637044 0.557710 0.596676
O O11 0.613088 0.554967 0.095044
O O12 0.738652 0.000000 0.822800
#
# Coordination Sequence:
#
# PCOD8179836 Si02
#       5
#     8   8   8   8   8
#     4  10  22  39  63  92 117 142 182 232 286 347
#     4  10  23  36  59  80 112 149 185 232 278 341
#     4  10  21  33  48  73 106 142 178 215 260 323
#     4  10  22  35  53  79 111 151 193 232 275 326
#     4  10  23  37  54  80 111 151 195 238 278 325
#
# _framework density 19.210443999999999
#
# number of rings (size 3 to 8) (size 9 to 14) (size 15 to 20)
#    1.200    0.800    0.000    3.000    5.600    2.400 
#    0.000    0.000    0.000    0.600    0.000    0.000 
#    0.000    0.000    0.000    0.000    0.000    0.000 
#
# Total GULP energy -247849.435675 kJ/mol
# GULP energy per Si atom -12392.471784 kJ/mol
# Density = 1.916672 g / cm^3
# Si number density = 19.210444 Si / 1000 Ang^3
#
#
#
# Elastic Constant Matrix: (Units=GPa)
#
#
# Indices 1 2 3 4 5 6 
#
# 1 69.4673 64.7658 25.8033 0.0000 0.0000 0.0000
# 2 64.7658 150.5095 30.3198 0.0000 0.0000 0.0000
# 3 25.8033 30.3198 108.7445 0.0000 0.0000 0.0000
# 4 0.0000 0.0000 0.0000 12.8985 0.0000 0.0000
# 5 0.0000 0.0000 0.0000 0.0000 9.8433 0.0000
# 6 0.0000 0.0000 0.0000 0.0000 0.0000 20.6371
#
#
#
# Elastic Compliance Matrix: (Units=1/GPa)
#
#
# Indices 1 2 3 4 5 6 
#
# 1 0.024992 -0.010129 -0.003106 0.000000 0.000000 0.000000
# 2 -0.010129 0.011144 -0.000704 0.000000 0.000000 0.000000
# 3 -0.003106 -0.000704 0.010129 0.000000 0.000000 0.000000
# 4 0.000000 0.000000 0.000000 0.077528 0.000000 0.000000
# 5 0.000000 0.000000 0.000000 0.000000 0.101592 0.000000
# 6 0.000000 0.000000 0.000000 0.000000 0.000000 0.048456
#
#
# Mechanical properties :
#
#
# Convention : Reuss Voigt Hill
#
# Bulk Modulus (GPa) = 54.38248 63.38878 58.88563
# Shear Modulus (GPa) = 16.24169 22.53126 19.38648
#
# Velocity S-wave (km/s) = 2.91084 3.42843 3.18018
# Velocity P-wave (km/s) = 6.29822 6.98146 6.64862
#
# Compressibility (1/GPa) = 0.01838828
#
# Stress axis : x y z
#
# Youngs Moduli (GPa) = 40.01244 89.73146 98.72479
#
# Poissons Ratio (x) = 0.90886 0.30666
# Poissons Ratio (y) = 0.40527 0.06949
# Poissons Ratio (z) = 0.12429 0.06316
#
# Static dielectric constant tensor:
#      x y z
#    x 3.186910 0.000000 0.000000 
#    y 0.000000 3.462570 0.000000 
#    z 0.000000 0.000000 3.637240 
# 
# 
# High freq. dielectric constant tensor:
#      x y z
#    x 1.700050 0.000000 0.000000 
#    y 0.000000 1.744390 0.000000 
#    z 0.000000 0.000000 1.766410 
# 
# From -- ./inp_files/1347.got.cif
#   From: 2010.03.12/outbox.cif.g09.slc.cpg/sg38_1_cif.got.tgz:1347.got - 2010.04.14 02:38:36.
