data_PCOD8179359
_publ_section_title
;
Structure prediction by ZEFSAII (Michael W. Deem and Ramdas Pophale) SiO2 
 PCOD8179359
Probable space group: A M M 2
;
_chemical_formula_sum "Si O2"
_cell_formula_units_Z 40
_cell_length_a 10.795748
_cell_length_b 17.932326
_cell_length_c 10.267649
_cell_angle_alpha 90.000000
_cell_angle_beta 90.000000
_cell_angle_gamma 90.000000
_cell_volume 1987.743664
_symmetry_space_group_name_H-M "A M M 2"
_symmetry_group_IT_number 38
_symmetry_cell_setting 'orthorhombic'
loop_
_space_group_symop_operation_xyz
x,y,z
-x,-y,z
-x,y,z
x,-y,z
x,1/2+y,1/2+z
-x,1/2-y,1/2+z
-x,1/2+y,1/2+z
x,1/2-y,1/2+z
loop_
_atom_site_type_symbol
_atom_site_label
_atom_site_fract_x
_atom_site_fract_y
_atom_site_fract_z
Si Si1 0.639728 0.359557 0.268330
Si Si2 0.221089 0.219071 0.369522
Si Si3 0.865250 0.314221 0.603010
Si Si4 0.638893 0.083418 0.040151
Si Si5 0.352316 0.414813 0.995254
O O1 0.500000 0.348229 0.226917
O O2 0.682155 0.279833 0.319601
O O3 0.657021 0.419049 0.384134
O O4 0.702773 0.391314 0.137315
O O5 0.156755 0.246152 0.502998
O O6 0.122586 0.213148 0.252143
O O7 0.290052 0.140200 0.390614
O O8 0.749193 0.369866 0.602982
O O9 0.000000 0.350526 0.568007
O O10 0.500000 0.115715 0.072786
O O11 0.648784 0.000000 0.095011
O O12 0.500000 0.407626 0.985598
O O13 0.311831 0.500000 0.966049
#
# Coordination Sequence:
#
# PCOD8179359 Si02
#       5
#     8   8   8   8   8
#     4   9  17  32  57  87 121 161 203 245 297 364
#     4  11  21  39  59  86 117 160 210 255 301 361
#     4  11  24  40  62  87 118 161 206 254 303 362
#     4   9  19  36  60  90 123 157 197 248 304 364
#     4  10  20  34  57  92 130 163 201 253 311 367
#
# _framework density 20.123318000000001
#
# number of rings (size 3 to 8) (size 9 to 14) (size 15 to 20)
#    0.000    2.000    2.000    1.800    0.000    6.000 
#    0.000    2.000    0.000    1.800    0.000    0.000 
#    0.000    0.000    0.000    0.000    0.000    0.000 
#
# Total GULP energy -247782.751215 kJ/mol
# GULP energy per Si atom -12389.137561 kJ/mol
# Density = 2.007752 g / cm^3
# Si number density = 20.123318 Si / 1000 Ang^3
#
#
#
# Elastic Constant Matrix: (Units=GPa)
#
#
# Indices 1 2 3 4 5 6 
#
# 1 101.1506 50.0334 41.7425 0.0000 0.0000 0.0000
# 2 50.0334 121.9061 42.1574 0.0000 0.0000 0.0000
# 3 41.7425 42.1574 108.9838 0.0000 0.0000 0.0000
# 4 0.0000 0.0000 0.0000 24.7940 0.0000 0.0000
# 5 0.0000 0.0000 0.0000 0.0000 10.7480 0.0000
# 6 0.0000 0.0000 0.0000 0.0000 0.0000 11.8010
#
#
#
# Elastic Compliance Matrix: (Units=1/GPa)
#
#
# Indices 1 2 3 4 5 6 
#
# 1 0.013461 -0.004320 -0.003485 0.000000 0.000000 0.000000
# 2 -0.004320 0.010856 -0.002545 0.000000 0.000000 0.000000
# 3 -0.003485 -0.002545 0.011495 0.000000 0.000000 0.000000
# 4 0.000000 0.000000 0.000000 0.040332 0.000000 0.000000
# 5 0.000000 0.000000 0.000000 0.000000 0.093041 0.000000
# 6 0.000000 0.000000 0.000000 0.000000 0.000000 0.084739
#
#
# Mechanical properties :
#
#
# Convention : Reuss Voigt Hill
#
# Bulk Modulus (GPa) = 66.16744 66.65636 66.41190
# Shear Modulus (GPa) = 17.87885 22.67574 20.27730
#
# Velocity S-wave (km/s) = 2.98395 3.36048 3.17780
# Velocity P-wave (km/s) = 6.69509 6.94644 6.82192
#
# Compressibility (1/GPa) = 0.01511317
#
# Stress axis : x y z
#
# Youngs Moduli (GPa) = 74.28847 92.11510 86.99556
#
# Poissons Ratio (x) = 0.39790 0.30317
# Poissons Ratio (y) = 0.32090 0.22139
# Poissons Ratio (z) = 0.25889 0.23442
#
# Static dielectric constant tensor:
#      x y z
#    x 3.434140 0.000000 0.000000 
#    y 0.000000 3.599500 0.000000 
#    z 0.000000 0.000000 3.871440 
# 
# 
# High freq. dielectric constant tensor:
#      x y z
#    x 1.759490 0.000000 0.000000 
#    y 0.000000 1.772810 0.000000 
#    z 0.000000 0.000000 1.801080 
# 
# From -- ./inp_files/4285.got.cif
#   From: 2010.03.12/outbox.cif.g09.slc.cpg/sg38_3_cif.got.tgz:4285.got - 2010.04.14 02:38:36.
