data_PCOD8179899
_publ_section_title
;
Structure prediction by ZEFSAII (Michael W. Deem and Ramdas Pophale) SiO2 
 PCOD8179899
Probable space group: A M M 2
;
_chemical_formula_sum "Si O2"
_cell_formula_units_Z 48
_cell_length_a 9.449560
_cell_length_b 7.800780
_cell_length_c 33.602774
_cell_angle_alpha 90.000000
_cell_angle_beta 90.000000
_cell_angle_gamma 90.000000
_cell_volume 2476.992821
_symmetry_space_group_name_H-M "A M M 2"
_symmetry_group_IT_number 38
_symmetry_cell_setting 'orthorhombic'
loop_
_space_group_symop_operation_xyz
x,y,z
-x,-y,z
-x,y,z
x,-y,z
x,1/2+y,1/2+z
-x,1/2-y,1/2+z
-x,1/2+y,1/2+z
x,1/2-y,1/2+z
loop_
_atom_site_type_symbol
_atom_site_label
_atom_site_fract_x
_atom_site_fract_y
_atom_site_fract_z
Si Si1 0.666294 0.500000 0.633550
Si Si2 0.165487 0.000000 0.214647
Si Si3 0.339830 0.804634 0.435057
Si Si4 0.165097 0.196020 0.773009
Si Si5 0.660002 0.200623 0.849168
Si Si6 0.840231 0.805523 0.005949
Si Si7 0.338502 0.308930 0.077482
O O1 0.500000 0.500000 0.642390
O O2 0.748125 0.500000 0.674462
O O3 0.713030 0.329921 0.609612
O O4 0.207917 0.826935 0.238161
O O5 0.000000 0.000000 0.204647
O O6 0.500000 0.730717 0.438359
O O7 0.287066 0.791036 0.389527
O O8 0.235233 0.699569 0.463196
O O9 0.335742 0.000000 0.449103
O O10 0.243161 0.259636 0.812684
O O11 0.000000 0.207491 0.782162
O O12 0.208607 0.000000 0.761330
O O13 0.500000 0.256497 0.839071
O O14 0.672419 0.000000 0.856367
O O15 0.755942 0.694494 0.038036
O O16 0.000000 0.734188 0.002024
O O17 0.841357 0.000000 0.021059
O O18 0.500000 0.268443 0.064873
O O19 0.325574 0.500000 0.096081
#
# Coordination Sequence:
#
# PCOD8179899 Si02
#       7
#     4   4   8   8   8   8   8
#     4  10  22  40  60  88 118 146 184 234 286 338
#     4  10  22  38  58  84 114 148 188 230 280 342
#     4  10  21  35  52  78 111 148 190 235 284 339
#     4   9  19  36  56  79 110 148 187 228 277 335
#     4   9  18  33  53  78 107 141 184 232 281 331
#     4  11  23  37  55  81 113 149 192 237 283 336
#     4  10  21  39  63  87 113 149 189 230 283 344
#
# _framework density 19.378336000000001
#
# number of rings (size 3 to 8) (size 9 to 14) (size 15 to 20)
#    0.000    2.167    0.833    1.500    1.167    7.000 
#    0.000    1.667    0.000    0.000    0.000    0.000 
#    0.000    0.000    0.000    0.000    0.000    0.000 
#
# Total GULP energy -297639.555065 kJ/mol
# GULP energy per Si atom -12401.648128 kJ/mol
# Density = 1.933423 g / cm^3
# Si number density = 19.378336 Si / 1000 Ang^3
#
#
#
# Elastic Constant Matrix: (Units=GPa)
#
#
# Indices 1 2 3 4 5 6 
#
# 1 84.8082 36.7945 73.3276 0.0000 0.0000 0.0000
# 2 36.7945 98.8041 56.4844 0.0000 0.0000 0.0000
# 3 73.3276 56.4844 144.1888 0.0000 0.0000 0.0000
# 4 0.0000 0.0000 0.0000 25.5018 0.0000 0.0000
# 5 0.0000 0.0000 0.0000 0.0000 -3.2798 0.0000
# 6 0.0000 0.0000 0.0000 0.0000 0.0000 16.0094
#
#
#
# Elastic Compliance Matrix: (Units=1/GPa)
#
#
# Indices 1 2 3 4 5 6 
#
# 1 0.021428 -0.002255 -0.010014 0.000000 0.000000 0.000000
# 2 -0.002255 0.013279 -0.004055 0.000000 0.000000 0.000000
# 3 -0.010014 -0.004055 0.013616 0.000000 0.000000 0.000000
# 4 0.000000 0.000000 0.000000 0.039213 0.000000 0.000000
# 5 0.000000 0.000000 0.000000 0.000000 -0.304894 0.000000
# 6 0.000000 0.000000 0.000000 0.000000 0.000000 0.062463
#
#
# Mechanical properties :
#
#
# Convention : Reuss Voigt Hill
#
# Bulk Modulus (GPa) = 63.79398 73.44602 68.62000
# Shear Modulus (GPa) = -42.72723 18.39258 -12.16733
#
# Velocity S-wave (km/s) = -4.70073 3.08414 -2.50848
# Velocity P-wave (km/s) = 1.87864 7.11800 5.20554
#
# Compressibility (1/GPa) = 0.01567546
#
# Stress axis : x y z
#
# Youngs Moduli (GPa) = 46.66811 75.30660 73.44047
#
# Poissons Ratio (x) = 0.16982 0.73542
# Poissons Ratio (y) = 0.10524 0.29781
# Poissons Ratio (z) = 0.46733 0.30538
#
# Static dielectric constant tensor:
#      x y z
#    x 3.575980 0.000000 0.000000 
#    y 0.000000 3.697820 0.000000 
#    z 0.000000 0.000000 3.342970 
# 
# 
# High freq. dielectric constant tensor:
#      x y z
#    x 1.746800 0.000000 0.000000 
#    y 0.000000 1.764540 0.000000 
#    z 0.000000 0.000000 1.743090 
# 
# From -- ./inp_files/24353.got.cif
#   From: 2010.03.12/outbox.cif.g09.slc.cpg/sg38_13_cif.got.tgz:24353.got - 2010.04.14 02:38:36.
