data_PCOD8179448
_publ_section_title
;
Structure prediction by ZEFSAII (Michael W. Deem and Ramdas Pophale) SiO2 
 PCOD8179448
Probable space group: A M M 2
;
_chemical_formula_sum "Si O2"
_cell_formula_units_Z 56
_cell_length_a 21.237940
_cell_length_b 9.134853
_cell_length_c 15.411932
_cell_angle_alpha 90.000000
_cell_angle_beta 90.000000
_cell_angle_gamma 90.000000
_cell_volume 2989.998956
_symmetry_space_group_name_H-M "A M M 2"
_symmetry_group_IT_number 38
_symmetry_cell_setting 'orthorhombic'
loop_
_space_group_symop_operation_xyz
x,y,z
-x,-y,z
-x,y,z
x,-y,z
x,1/2+y,1/2+z
-x,1/2-y,1/2+z
-x,1/2+y,1/2+z
x,1/2-y,1/2+z
loop_
_atom_site_type_symbol
_atom_site_label
_atom_site_fract_x
_atom_site_fract_y
_atom_site_fract_z
Si Si1 0.574027 0.168291 0.511110
Si Si2 0.349043 0.326051 0.365385
Si Si3 0.866944 0.327833 0.702852
Si Si4 0.000000 0.674162 0.964036
Si Si5 0.132869 0.671926 0.031426
Si Si6 0.216762 0.828838 0.366992
Si Si7 0.000000 0.825825 0.269923
Si Si8 0.430345 0.326559 0.205673
O O1 0.500000 0.188680 0.495416
O O2 0.611764 0.273236 0.447790
O O3 0.592040 0.217483 0.609046
O O4 0.593788 0.000000 0.494878
O O5 0.346440 0.500000 0.366868
O O6 0.279512 0.264175 0.368611
O O7 0.382029 0.266098 0.277465
O O8 0.866466 0.500000 0.687949
O O9 0.840434 0.250395 0.616925
O O10 0.822837 0.283730 0.782739
O O11 0.937733 0.269899 0.720791
O O12 0.937852 0.729976 0.013402
O O13 0.000000 0.500000 0.957992
O O14 0.000000 0.739274 0.866991
O O15 0.133365 0.500000 0.047627
O O16 0.176666 0.714432 0.951070
O O17 0.233303 0.000000 0.366645
O O18 0.000000 0.000000 0.275768
O O19 0.500000 0.261038 0.224356
O O20 0.434699 0.500000 0.211035
#
# Coordination Sequence:
#
# PCOD8179448 Si02
#       8
#     8   8   8   4   8   8   4   8
#     4   9  18  35  59  84 110 142 179 216 258 318
#     4  11  22  35  55  81 110 143 180 225 271 310
#     4  10  20  35  57  81 106 138 177 224 274 324
#     4   9  15  30  57  82 103 134 179 219 262 328
#     4  10  20  35  57  80 104 138 179 223 269 324
#     4  10  22  39  54  72 104 148 187 217 259 323
#     4   9  15  30  57  82 105 136 175 217 270 330
#     4   8  16  33  56  80 106 137 172 210 258 315
#
# _framework density 18.729105000000001
#
# number of rings (size 3 to 8) (size 9 to 14) (size 15 to 20)
#    0.000    2.429    1.429    2.143    0.000    3.143 
#    0.000    5.714    0.000    2.571    0.000    0.000 
#    0.000    0.000    0.000    0.000    0.000    0.000 
#
# Total GULP energy -347196.820020 kJ/mol
# GULP energy per Si atom -12399.886429 kJ/mol
# Density = 1.868648 g / cm^3
# Si number density = 18.729105 Si / 1000 Ang^3
#
#
#
# Elastic Constant Matrix: (Units=GPa)
#
#
# Indices 1 2 3 4 5 6 
#
# 1 123.6637 46.8161 81.0821 0.0000 0.0000 0.0000
# 2 46.8161 40.6174 51.4461 0.0000 0.0000 0.0000
# 3 81.0821 51.4461 176.4165 0.0000 0.0000 0.0000
# 4 0.0000 0.0000 0.0000 30.2634 0.0000 0.0000
# 5 0.0000 0.0000 0.0000 0.0000 9.9738 0.0000
# 6 0.0000 0.0000 0.0000 0.0000 0.0000 21.3862
#
#
#
# Elastic Compliance Matrix: (Units=1/GPa)
#
#
# Indices 1 2 3 4 5 6 
#
# 1 0.015282 -0.013824 -0.002992 0.000000 0.000000 0.000000
# 2 -0.013824 0.051545 -0.008678 0.000000 0.000000 0.000000
# 3 -0.002992 -0.008678 0.009574 0.000000 0.000000 0.000000
# 4 0.000000 0.000000 0.000000 0.033043 0.000000 0.000000
# 5 0.000000 0.000000 0.000000 0.000000 0.100263 0.000000
# 6 0.000000 0.000000 0.000000 0.000000 0.000000 0.046759
#
#
# Mechanical properties :
#
#
# Convention : Reuss Voigt Hill
#
# Bulk Modulus (GPa) = 39.35010 77.70958 58.52984
# Shear Modulus (GPa) = 15.82651 23.08156 19.45403
#
# Velocity S-wave (km/s) = 2.91008 3.51435 3.22639
# Velocity P-wave (km/s) = 5.68746 7.61899 6.72295
#
# Compressibility (1/GPa) = 0.02541290
#
# Stress axis : x y z
#
# Youngs Moduli (GPa) = 65.43736 19.40055 104.44616
#
# Poissons Ratio (x) = 0.26819 0.31254
# Poissons Ratio (y) = 0.90460 0.90637
# Poissons Ratio (z) = 0.19581 0.16836
#
# Static dielectric constant tensor:
#      x y z
#    x 3.283670 0.000000 0.000000 
#    y 0.000000 3.039160 0.000000 
#    z 0.000000 0.000000 3.653680 
# 
# 
# High freq. dielectric constant tensor:
#      x y z
#    x 1.728470 0.000000 0.000000 
#    y 0.000000 1.691710 0.000000 
#    z 0.000000 0.000000 1.743880 
# 
# From -- ./inp_files/15547.got.cif
#   From: 2010.03.12/outbox.cif.g09.slc.cpg/sg38_8_cif.got.tgz:15547.got - 2010.04.14 02:38:36.
