data_PCOD8179690
_publ_section_title
;
Structure prediction by ZEFSAII (Michael W. Deem and Ramdas Pophale) SiO2 
 PCOD8179690
Probable space group: A M M 2
;
_chemical_formula_sum "Si O2"
_cell_formula_units_Z 56
_cell_length_a 21.451163
_cell_length_b 9.074495
_cell_length_c 15.076098
_cell_angle_alpha 90.000000
_cell_angle_beta 90.000000
_cell_angle_gamma 90.000000
_cell_volume 2934.690191
_symmetry_space_group_name_H-M "A M M 2"
_symmetry_group_IT_number 38
_symmetry_cell_setting 'orthorhombic'
loop_
_space_group_symop_operation_xyz
x,y,z
-x,-y,z
-x,y,z
x,-y,z
x,1/2+y,1/2+z
-x,1/2-y,1/2+z
-x,1/2+y,1/2+z
x,1/2-y,1/2+z
loop_
_atom_site_type_symbol
_atom_site_label
_atom_site_fract_x
_atom_site_fract_y
_atom_site_fract_z
Si Si1 0.787775 0.172949 0.759170
Si Si2 0.429992 0.826344 0.088982
Si Si3 0.657026 0.673118 0.748484
Si Si4 0.874788 0.174588 0.397615
Si Si5 0.429259 0.329274 0.912266
Si Si6 0.000000 0.335793 0.606538
Si Si7 0.000000 0.166845 0.896003
Si Si8 0.121557 0.829830 0.601542
O O1 0.718079 0.228866 0.749842
O O2 0.818823 0.259678 0.840387
O O3 0.820870 0.207553 0.665383
O O4 0.789285 0.000000 0.780819
O O5 0.500000 0.769495 0.110702
O O6 0.383062 0.774694 0.164684
O O7 0.430078 0.000000 0.080328
O O8 0.405722 0.759435 0.997324
O O9 0.673725 0.500000 0.744907
O O10 0.616236 0.713546 0.833381
O O11 0.861914 0.216679 0.500628
O O12 0.938889 0.247214 0.362431
O O13 0.878630 0.000000 0.384269
O O14 0.500000 0.286062 0.885730
O O15 0.424921 0.500000 0.935660
O O16 0.000000 0.334282 0.501156
O O17 0.061973 0.255582 0.640707
O O18 0.000000 0.500000 0.645320
O O19 0.000000 0.000000 0.858044
O O20 0.103312 0.000000 0.603762
#
# Coordination Sequence:
#
# PCOD8179690 Si02
#       8
#     8   8   8   8   8   4   4   8
#     4  11  24  39  54  77 108 144 184 224 268 318
#     4   9  18  34  57  84 111 139 175 220 268 315
#     4  10  21  37  55  76 107 146 182 217 261 318
#     4  10  20  37  59  81 106 140 181 223 268 322
#     4   9  18  34  57  83 109 139 176 217 264 318
#     4   9  17  30  55  86 108 130 170 222 269 313
#     4   9  17  32  55  84 112 138 172 220 275 321
#     4   9  20  38  57  76 105 142 176 215 267 322
#
# _framework density 19.082083000000001
#
# number of rings (size 3 to 8) (size 9 to 14) (size 15 to 20)
#    0.000    2.429    0.000    1.714    0.000    8.000 
#    0.000    5.000    0.000    4.286    0.000    0.000 
#    0.000    0.000    0.000    0.000    0.000    0.000 
#
# Total GULP energy -347252.270610 kJ/mol
# GULP energy per Si atom -12401.866808 kJ/mol
# Density = 1.903865 g / cm^3
# Si number density = 19.082083 Si / 1000 Ang^3
#
#
#
# Elastic Constant Matrix: (Units=GPa)
#
#
# Indices 1 2 3 4 5 6 
#
# 1 132.1569 51.0210 62.6959 0.0000 0.0000 0.0000
# 2 51.0210 63.6413 31.4520 0.0000 0.0000 0.0000
# 3 62.6959 31.4520 84.7500 0.0000 0.0000 0.0000
# 4 0.0000 0.0000 0.0000 29.8027 0.0000 0.0000
# 5 0.0000 0.0000 0.0000 0.0000 39.5412 0.0000
# 6 0.0000 0.0000 0.0000 0.0000 0.0000 36.4327
#
#
#
# Elastic Compliance Matrix: (Units=1/GPa)
#
#
# Indices 1 2 3 4 5 6 
#
# 1 0.014094 -0.007527 -0.007633 0.000000 0.000000 0.000000
# 2 -0.007527 0.023262 -0.003065 0.000000 0.000000 0.000000
# 3 -0.007633 -0.003065 0.018583 0.000000 0.000000 0.000000
# 4 0.000000 0.000000 0.000000 0.033554 0.000000 0.000000
# 5 0.000000 0.000000 0.000000 0.000000 0.025290 0.000000
# 6 0.000000 0.000000 0.000000 0.000000 0.000000 0.027448
#
#
# Mechanical properties :
#
#
# Convention : Reuss Voigt Hill
#
# Bulk Modulus (GPa) = 51.30767 63.43176 57.36971
# Shear Modulus (GPa) = 27.00137 30.18061 28.59099
#
# Velocity S-wave (km/s) = 3.76574 3.98127 3.87501
# Velocity P-wave (km/s) = 6.77156 7.37887 7.08173
#
# Compressibility (1/GPa) = 0.01949026
#
# Stress axis : x y z
#
# Youngs Moduli (GPa) = 70.95445 42.98904 53.81145
#
# Poissons Ratio (x) = 0.32356 0.41073
# Poissons Ratio (y) = 0.53404 0.16492
# Poissons Ratio (z) = 0.54158 0.13175
#
# Static dielectric constant tensor:
#      x y z
#    x 3.501300 0.000000 0.000000 
#    y 0.000000 3.497960 0.000000 
#    z 0.000000 0.000000 3.530160 
# 
# 
# High freq. dielectric constant tensor:
#      x y z
#    x 1.740360 0.000000 0.000000 
#    y 0.000000 1.741790 0.000000 
#    z 0.000000 0.000000 1.744240 
# 
# From -- ./inp_files/15535.got.cif
#   From: 2010.03.12/outbox.cif.g09.slc.cpg/sg38_8_cif.got.tgz:15535.got - 2010.04.14 02:38:36.
