data_PCOD8179130
_publ_section_title
;
Structure prediction by ZEFSAII (Michael W. Deem and Ramdas Pophale) SiO2 
 PCOD8179130
Probable space group: A M M 2
;
_chemical_formula_sum "Si O2"
_cell_formula_units_Z 64
_cell_length_a 8.947483
_cell_length_b 14.132295
_cell_length_c 28.343687
_cell_angle_alpha 90.000000
_cell_angle_beta 90.000000
_cell_angle_gamma 90.000000
_cell_volume 3584.015834
_symmetry_space_group_name_H-M "A M M 2"
_symmetry_group_IT_number 38
_symmetry_cell_setting 'orthorhombic'
loop_
_space_group_symop_operation_xyz
x,y,z
-x,-y,z
-x,y,z
x,-y,z
x,1/2+y,1/2+z
-x,1/2-y,1/2+z
-x,1/2+y,1/2+z
x,1/2-y,1/2+z
loop_
_atom_site_type_symbol
_atom_site_label
_atom_site_fract_x
_atom_site_fract_y
_atom_site_fract_z
Si Si1 0.824316 0.738745 0.413040
Si Si2 0.676156 0.604342 0.087114
Si Si3 0.322726 0.258180 0.659806
Si Si4 0.825979 0.110857 0.087160
Si Si5 0.674088 0.391564 0.341848
Si Si6 0.322887 0.741243 0.513843
Si Si7 0.675026 0.237926 0.266670
Si Si8 0.824915 0.606778 0.837358
O O1 0.769870 0.644699 0.386150
O O2 0.738769 0.748079 0.461643
O O3 0.779465 0.830690 0.382495
O O4 0.000000 0.731649 0.422206
O O5 0.500000 0.592736 0.087428
O O6 0.751619 0.500000 0.086603
O O7 0.726663 0.661220 0.133828
O O8 0.725482 0.662730 0.040848
O O9 0.500000 0.272899 0.656058
O O10 0.244332 0.346693 0.634779
O O11 0.265925 0.251375 0.713440
O O12 0.746919 0.151721 0.040589
O O13 0.000000 0.136206 0.085102
O O14 0.796718 0.000000 0.087975
O O15 0.500000 0.378760 0.354154
O O16 0.715486 0.500000 0.331952
O O17 0.718062 0.333011 0.295063
O O18 0.500000 0.728299 0.513076
O O19 0.500000 0.220599 0.267009
O O20 0.748958 0.146318 0.290204
O O21 0.769439 0.500000 0.846491
O O22 0.000000 0.611137 0.828674
#
# Coordination Sequence:
#
# PCOD8179130 Si02
#       8
#     8   8   8   8   8   8   8   8
#     4  10  20  34  52  73  99 131 165 204 247 293
#     4   8  15  29  49  73  99 126 158 195 237 289
#     4   9  18  32  51  75 103 133 163 201 248 294
#     4  10  21  36  53  73  98 130 168 207 245 289
#     4   9  18  33  52  74 101 132 166 205 247 291
#     4  10  20  34  53  76 101 129 161 201 248 296
#     4   9  18  32  50  75 103 130 165 206 247 291
#     4   9  19  35  52  71  98 133 170 205 245 293
#
# _framework density 17.857063
#
# number of rings (size 3 to 8) (size 9 to 14) (size 15 to 20)
#    0.000    2.750    0.000    1.875    0.000    4.500 
#    0.000    5.000    0.000    9.000    0.000    5.250 
#    0.000    0.000    0.000    0.000    0.000    0.000 
#
# Total GULP energy -396804.734495 kJ/mol
# GULP energy per Si atom -12400.147953 kJ/mol
# Density = 1.781642 g / cm^3
# Si number density = 17.857063 Si / 1000 Ang^3
#
#
#
# Elastic Constant Matrix: (Units=GPa)
#
#
# Indices 1 2 3 4 5 6 
#
# 1 54.3027 45.4528 48.3101 0.0000 0.0000 0.0000
# 2 45.4528 139.1298 71.5464 0.0000 0.0000 0.0000
# 3 48.3101 71.5464 165.1678 0.0000 0.0000 0.0000
# 4 0.0000 0.0000 0.0000 13.4204 0.0000 0.0000
# 5 0.0000 0.0000 0.0000 0.0000 23.3522 0.0000
# 6 0.0000 0.0000 0.0000 0.0000 0.0000 23.2802
#
#
#
# Elastic Compliance Matrix: (Units=1/GPa)
#
#
# Indices 1 2 3 4 5 6 
#
# 1 0.028894 -0.006553 -0.005612 0.000000 0.000000 0.000000
# 2 -0.006553 0.010734 -0.002733 0.000000 0.000000 0.000000
# 3 -0.005612 -0.002733 0.008880 0.000000 0.000000 0.000000
# 4 0.000000 0.000000 0.000000 0.074513 0.000000 0.000000
# 5 0.000000 0.000000 0.000000 0.000000 0.042823 0.000000
# 6 0.000000 0.000000 0.000000 0.000000 0.000000 0.042955
#
#
# Mechanical properties :
#
#
# Convention : Reuss Voigt Hill
#
# Bulk Modulus (GPa) = 53.44675 76.57991 65.01333
# Shear Modulus (GPa) = 20.42219 24.89662 22.65940
#
# Velocity S-wave (km/s) = 3.38545 3.73797 3.56607
# Velocity P-wave (km/s) = 6.72882 7.84907 7.31044
#
# Compressibility (1/GPa) = 0.01871021
#
# Stress axis : x y z
#
# Youngs Moduli (GPa) = 34.60980 93.16402 112.61477
#
# Poissons Ratio (x) = 0.61052 0.63204
# Poissons Ratio (y) = 0.22680 0.30776
# Poissons Ratio (z) = 0.19425 0.25460
#
# Static dielectric constant tensor:
#      x y z
#    x 3.207350 0.000000 0.000000 
#    y 0.000000 3.521570 0.000000 
#    z 0.000000 0.000000 3.407200 
# 
# 
# High freq. dielectric constant tensor:
#      x y z
#    x 1.680710 0.000000 0.000000 
#    y 0.000000 1.693760 0.000000 
#    z 0.000000 0.000000 1.694440 
# 
# From -- ./inp_files/24784.got.cif
#   From: 2010.03.12/outbox.cif.g09.slc.cpg/sg38_13_cif.got.tgz:24784.got - 2010.04.14 02:38:36.
