data_PCOD8179364
_publ_section_title
;
Structure prediction by ZEFSAII (Michael W. Deem and Ramdas Pophale) SiO2 
 PCOD8179364
Probable space group: A M M 2
;
_chemical_formula_sum "Si O2"
_cell_formula_units_Z 56
_cell_length_a 16.568915
_cell_length_b 20.562287
_cell_length_c 7.973600
_cell_angle_alpha 90.000000
_cell_angle_beta 90.000000
_cell_angle_gamma 90.000000
_cell_volume 2716.563942
_symmetry_space_group_name_H-M "A M M 2"
_symmetry_group_IT_number 38
_symmetry_cell_setting 'orthorhombic'
loop_
_space_group_symop_operation_xyz
x,y,z
-x,-y,z
-x,y,z
x,-y,z
x,1/2+y,1/2+z
-x,1/2-y,1/2+z
-x,1/2+y,1/2+z
x,1/2-y,1/2+z
loop_
_atom_site_type_symbol
_atom_site_label
_atom_site_fract_x
_atom_site_fract_y
_atom_site_fract_z
Si Si1 0.197482 0.261962 0.933490
Si Si2 0.666648 0.143988 0.352991
Si Si3 0.657693 0.577352 0.215160
Si Si4 0.500000 0.706776 0.903909
Si Si5 0.090975 0.184206 0.695998
Si Si6 0.911933 0.926300 0.951417
Si Si7 0.751473 0.376234 0.534132
Si Si8 0.500000 0.155057 0.770455
O O1 0.271560 0.296316 0.843003
O O2 0.123481 0.240157 0.818337
O O3 0.155497 0.316734 0.047316
O O4 0.237844 0.201375 0.029518
O O5 0.674611 0.103723 0.526418
O O6 0.577997 0.173028 0.321416
O O7 0.690365 0.102588 0.184832
O O8 0.648289 0.500000 0.203521
O O9 0.725905 0.596792 0.350227
O O10 0.576958 0.608996 0.289913
O O11 0.500000 0.785437 0.901809
O O12 0.500000 0.693106 0.098281
O O13 0.094101 0.114066 0.780339
O O14 0.000000 0.202418 0.639833
O O15 0.000000 0.913681 0.037530
O O16 0.902932 0.000000 0.894609
O O17 0.839682 0.906640 0.076898
#
# Coordination Sequence:
#
# PCOD8179364 Si02
#       8
#     8   8   8   4   8   8   8   4
#     4  11  20  37  56  88 127 156 200 264 317 382
#     4  11  24  41  62  95 127 167 207 266 317 377
#     4  11  25  43  64  91 126 168 213 255 311 375
#     4  10  24  38  65  95 127 162 205 255 328 383
#     4  10  20  34  58  89 121 162 201 256 322 379
#     4   9  19  37  59  86 121 164 212 256 310 378
#     4  11  23  38  65  92 125 166 212 258 320 373
#     4  10  23  42  65  95 128 162 203 263 314 377
#
# _framework density 20.614274999999999
#
# number of rings (size 3 to 8) (size 9 to 14) (size 15 to 20)
#    0.000    1.571    1.429    3.643    6.000    1.714 
#    0.000    0.000    0.000    2.571    0.000    8.000 
#    0.000    0.000    0.000    0.000    0.000    0.000 
#
# Total GULP energy -346964.199889 kJ/mol
# GULP energy per Si atom -12391.578567 kJ/mol
# Density = 2.056736 g / cm^3
# Si number density = 20.614275 Si / 1000 Ang^3
#
#
#
# Elastic Constant Matrix: (Units=GPa)
#
#
# Indices 1 2 3 4 5 6 
#
# 1 120.6040 50.2758 52.9926 0.0000 0.0000 0.0000
# 2 50.2758 116.0978 25.1163 0.0000 0.0000 0.0000
# 3 52.9926 25.1163 81.1605 0.0000 0.0000 0.0000
# 4 0.0000 0.0000 0.0000 12.9173 0.0000 0.0000
# 5 0.0000 0.0000 0.0000 0.0000 26.3469 0.0000
# 6 0.0000 0.0000 0.0000 0.0000 0.0000 25.0882
#
#
#
# Elastic Compliance Matrix: (Units=1/GPa)
#
#
# Indices 1 2 3 4 5 6 
#
# 1 0.013261 -0.004147 -0.007375 0.000000 0.000000 0.000000
# 2 -0.004147 0.010528 -0.000550 0.000000 0.000000 0.000000
# 3 -0.007375 -0.000550 0.017307 0.000000 0.000000 0.000000
# 4 0.000000 0.000000 0.000000 0.077415 0.000000 0.000000
# 5 0.000000 0.000000 0.000000 0.000000 0.037955 0.000000
# 6 0.000000 0.000000 0.000000 0.000000 0.000000 0.039859
#
#
# Mechanical properties :
#
#
# Convention : Reuss Voigt Hill
#
# Bulk Modulus (GPa) = 58.99303 63.84796 61.42049
# Shear Modulus (GPa) = 22.11194 25.50233 23.80713
#
# Velocity S-wave (km/s) = 3.27869 3.52109 3.40205
# Velocity P-wave (km/s) = 6.55841 6.89715 6.72991
#
# Compressibility (1/GPa) = 0.01695116
#
# Stress axis : x y z
#
# Youngs Moduli (GPa) = 75.40908 94.98134 57.77975
#
# Poissons Ratio (x) = 0.39390 0.42614
# Poissons Ratio (y) = 0.31273 0.03180
# Poissons Ratio (z) = 0.55616 0.05227
#
# Static dielectric constant tensor:
#      x y z
#    x 4.218330 0.000000 0.000000 
#    y 0.000000 3.611740 0.000000 
#    z 0.000000 0.000000 3.706480 
# 
# 
# High freq. dielectric constant tensor:
#      x y z
#    x 1.830150 0.000000 0.000000 
#    y 0.000000 1.794550 0.000000 
#    z 0.000000 0.000000 1.790740 
# 
# From -- ./inp_files/5776.got.cif
#   From: 2010.03.12/outbox.cif.g09.slc.cpg/sg38_3_cif.got.tgz:5776.got - 2010.04.14 02:38:36.
