data_PCOD8179845
_publ_section_title
;
Structure prediction by ZEFSAII (Michael W. Deem and Ramdas Pophale) SiO2 
 PCOD8179845
Probable space group: A M M 2
;
_chemical_formula_sum "Si O2"
_cell_formula_units_Z 56
_cell_length_a 13.593709
_cell_length_b 14.006981
_cell_length_c 13.540420
_cell_angle_alpha 90.000000
_cell_angle_beta 90.000000
_cell_angle_gamma 90.000000
_cell_volume 2578.188364
_symmetry_space_group_name_H-M "A M M 2"
_symmetry_group_IT_number 38
_symmetry_cell_setting 'orthorhombic'
loop_
_space_group_symop_operation_xyz
x,y,z
-x,-y,z
-x,y,z
x,-y,z
x,1/2+y,1/2+z
-x,1/2-y,1/2+z
-x,1/2+y,1/2+z
x,1/2-y,1/2+z
loop_
_atom_site_type_symbol
_atom_site_label
_atom_site_fract_x
_atom_site_fract_y
_atom_site_fract_z
Si Si1 0.386661 0.102570 0.095290
Si Si2 0.885381 0.604342 0.246022
Si Si3 0.612929 0.111700 0.881354
Si Si4 0.113830 0.718006 0.866842
Si Si5 0.203085 0.288898 0.072397
Si Si6 0.612992 0.708650 0.186922
Si Si7 0.113074 0.389303 0.668759
O O1 0.500000 0.086089 0.067743
O O2 0.377519 0.175715 0.186221
O O3 0.340399 0.000000 0.126372
O O4 0.341279 0.139862 0.989073
O O5 0.834561 0.500000 0.260854
O O6 0.847140 0.679327 0.327666
O O7 0.868957 0.645578 0.136849
O O8 0.000000 0.592420 0.260125
O O9 0.500000 0.142829 0.876043
O O10 0.660199 0.169676 0.788971
O O11 0.627441 0.000000 0.862076
O O12 0.127725 0.637635 0.783333
O O13 0.000000 0.724337 0.899623
O O14 0.181363 0.689741 0.958909
O O15 0.315124 0.322636 0.097291
O O16 0.184762 0.176196 0.100924
O O17 0.500000 0.675320 0.166666
O O18 0.140583 0.500000 0.652574
O O19 0.000000 0.369525 0.637544
#
# Coordination Sequence:
#
# PCOD8179845 Si02
#       7
#     8   8   8   8   8   8   8
#     4   8  15  30  51  71  91 122 169 220 264 306
#     4   9  19  36  57  83 113 138 164 208 265 321
#     4   8  15  31  54  73  90 122 170 219 265 310
#     4   9  18  34  55  79 107 138 171 210 260 318
#     4  11  21  33  53  80 108 140 179 219 257 305
#     4  10  21  34  50  75 107 142 181 224 264 299
#     4   9  19  36  56  79 108 138 168 208 261 321
#
# _framework density 21.720677999999999
#
# number of rings (size 3 to 8) (size 9 to 14) (size 15 to 20)
#    0.000    2.857    0.000    3.000    0.000    4.571 
#    0.000    4.286    0.000    0.857    0.000    6.000 
#    0.000    0.000    0.000    0.000    0.000    0.000 
#
# Total GULP energy -346905.274836 kJ/mol
# GULP energy per Si atom -12389.474101 kJ/mol
# Density = 2.167124 g / cm^3
# Si number density = 21.720678 Si / 1000 Ang^3
#
#
#
# Elastic Constant Matrix: (Units=GPa)
#
#
# Indices 1 2 3 4 5 6 
#
# 1 69.4410 6.7362 26.9888 0.0000 0.0000 0.0000
# 2 6.7362 77.5782 28.4936 0.0000 0.0000 0.0000
# 3 26.9888 28.4936 99.0737 0.0000 0.0000 0.0000
# 4 0.0000 0.0000 0.0000 25.9989 0.0000 0.0000
# 5 0.0000 0.0000 0.0000 0.0000 27.0789 0.0000
# 6 0.0000 0.0000 0.0000 0.0000 0.0000 2.5103
#
#
#
# Elastic Compliance Matrix: (Units=1/GPa)
#
#
# Indices 1 2 3 4 5 6 
#
# 1 0.016110 0.000238 -0.004457 0.000000 0.000000 0.000000
# 2 0.000238 0.014416 -0.004211 0.000000 0.000000 0.000000
# 3 -0.004457 -0.004211 0.012519 0.000000 0.000000 0.000000
# 4 0.000000 0.000000 0.000000 0.038463 0.000000 0.000000
# 5 0.000000 0.000000 0.000000 0.000000 0.036929 0.000000
# 6 0.000000 0.000000 0.000000 0.000000 0.000000 0.398360
#
#
# Mechanical properties :
#
#
# Convention : Reuss Voigt Hill
#
# Bulk Modulus (GPa) = 38.18963 41.17003 39.67983
# Shear Modulus (GPa) = 9.21854 23.37590 16.29722
#
# Velocity S-wave (km/s) = 2.06236 3.28412 2.74215
# Velocity P-wave (km/s) = 4.82612 5.77720 5.32294
#
# Compressibility (1/GPa) = 0.02618512
#
# Stress axis : x y z
#
# Youngs Moduli (GPa) = 62.07381 69.36646 79.88045
#
# Poissons Ratio (x) = -0.01652 0.35603
# Poissons Ratio (y) = -0.01478 0.33637
# Poissons Ratio (z) = 0.27666 0.29210
#
# Static dielectric constant tensor:
#      x y z
#    x 3.994910 0.000000 0.000000 
#    y 0.000000 4.183960 0.000000 
#    z 0.000000 0.000000 3.735920 
# 
# 
# High freq. dielectric constant tensor:
#      x y z
#    x 1.863290 0.000000 0.000000 
#    y 0.000000 1.839630 0.000000 
#    z 0.000000 0.000000 1.834170 
# 
# From -- ./inp_files/10110.got.cif
#   From: 2010.03.12/outbox.cif.g09.slc.cpg/sg38_6_cif.got.tgz:10110.got - 2010.04.14 02:38:36.
