data_PCOD8179994
_publ_section_title
;
Structure prediction by ZEFSAII (Michael W. Deem and Ramdas Pophale) SiO2 
 PCOD8179994
Probable space group: A M M 2
;
_chemical_formula_sum "Si O2"
_cell_formula_units_Z 64
_cell_length_a 13.811772
_cell_length_b 8.986130
_cell_length_c 25.797281
_cell_angle_alpha 90.000000
_cell_angle_beta 90.000000
_cell_angle_gamma 90.000000
_cell_volume 3201.813504
_symmetry_space_group_name_H-M "A M M 2"
_symmetry_group_IT_number 38
_symmetry_cell_setting 'orthorhombic'
loop_
_space_group_symop_operation_xyz
x,y,z
-x,-y,z
-x,y,z
x,-y,z
x,1/2+y,1/2+z
-x,1/2-y,1/2+z
-x,1/2+y,1/2+z
x,1/2-y,1/2+z
loop_
_atom_site_type_symbol
_atom_site_label
_atom_site_fract_x
_atom_site_fract_y
_atom_site_fract_z
Si Si1 0.885494 0.164061 0.895610
Si Si2 0.390705 0.675250 0.342726
Si Si3 0.277254 0.676187 0.241249
Si Si4 0.288927 0.324449 0.050955
Si Si5 0.889482 0.676042 0.511151
Si Si6 0.611197 0.826745 0.444470
Si Si7 0.887026 0.172389 0.293621
Si Si8 0.612532 0.175094 0.147171
O O1 0.850568 0.274534 0.850438
O O2 0.000000 0.147982 0.894693
O O3 0.839815 0.000000 0.884987
O O4 0.857538 0.223894 0.952746
O O5 0.500000 0.736091 0.337794
O O6 0.388279 0.500000 0.347116
O O7 0.335138 0.729851 0.291935
O O8 0.342336 0.741822 0.394963
O O9 0.277286 0.500000 0.233475
O O10 0.167986 0.736088 0.248650
O O11 0.325011 0.750771 0.191918
O O12 0.289650 0.500000 0.061261
O O13 0.178811 0.263033 0.051730
O O14 0.354175 0.244427 0.093269
O O15 0.333468 0.278880 0.995946
O O16 0.877145 0.500000 0.518079
O O17 0.000000 0.723677 0.522633
O O18 0.500000 0.778449 0.451715
O O19 0.621478 0.000000 0.433606
O O20 0.000000 0.204668 0.285864
O O21 0.862023 0.000000 0.288217
O O22 0.500000 0.212640 0.156086
O O23 0.631649 0.000000 0.146482
#
# Coordination Sequence:
#
# PCOD8179994 Si02
#       8
#     8   8   8   8   8   8   8   8
#     4   8  15  30  52  78 112 156 201 243 290 345
#     4   9  19  35  55  82 115 150 188 232 288 352
#     4  11  23  39  62  89 118 155 199 247 300 358
#     4  11  23  38  60  89 120 156 199 247 300 357
#     4   9  19  36  57  83 119 161 204 250 297 349
#     4   9  19  35  54  80 116 154 189 231 289 351
#     4  10  21  36  55  83 121 161 202 249 297 349
#     4  11  25  45  68  92 117 151 197 248 300 357
#
# _framework density 19.988672999999999
#
# number of rings (size 3 to 8) (size 9 to 14) (size 15 to 20)
#    0.000    2.250    0.000    3.000    1.750    5.500 
#    0.000    4.375    0.000    3.750    0.000    0.000 
#    0.000    0.000    0.000    0.000    0.000    0.000 
#
# Total GULP energy -396839.491583 kJ/mol
# GULP energy per Si atom -12401.234112 kJ/mol
# Density = 1.994318 g / cm^3
# Si number density = 19.988673 Si / 1000 Ang^3
#
#
#
# Elastic Constant Matrix: (Units=GPa)
#
#
# Indices 1 2 3 4 5 6 
#
# 1 67.0133 38.6419 31.8603 0.0000 0.0000 0.0000
# 2 38.6419 80.0674 44.6381 0.0000 0.0000 0.0000
# 3 31.8603 44.6381 83.4665 0.0000 0.0000 0.0000
# 4 0.0000 0.0000 0.0000 37.7289 0.0000 0.0000
# 5 0.0000 0.0000 0.0000 0.0000 36.6586 0.0000
# 6 0.0000 0.0000 0.0000 0.0000 0.0000 26.9697
#
#
#
# Elastic Compliance Matrix: (Units=1/GPa)
#
#
# Indices 1 2 3 4 5 6 
#
# 1 0.021484 -0.008259 -0.003784 0.000000 0.000000 0.000000
# 2 -0.008259 0.020970 -0.008062 0.000000 0.000000 0.000000
# 3 -0.003784 -0.008062 0.017737 0.000000 0.000000 0.000000
# 4 0.000000 0.000000 0.000000 0.026505 0.000000 0.000000
# 5 0.000000 0.000000 0.000000 0.000000 0.027279 0.000000
# 6 0.000000 0.000000 0.000000 0.000000 0.000000 0.037079
#
#
# Mechanical properties :
#
#
# Convention : Reuss Voigt Hill
#
# Bulk Modulus (GPa) = 50.04815 51.20309 50.62562
# Shear Modulus (GPa) = 25.26231 27.96522 26.61377
#
# Velocity S-wave (km/s) = 3.55890 3.74445 3.65285
# Velocity P-wave (km/s) = 6.47922 6.66080 6.57063
#
# Compressibility (1/GPa) = 0.01998076
#
# Stress axis : x y z
#
# Youngs Moduli (GPa) = 46.54702 47.68677 56.37956
#
# Poissons Ratio (x) = 0.39384 0.21332
# Poissons Ratio (y) = 0.38443 0.45455
# Poissons Ratio (z) = 0.17612 0.38447
#
# Static dielectric constant tensor:
#      x y z
#    x 3.761290 0.000000 0.000000 
#    y 0.000000 3.547990 0.000000 
#    z 0.000000 0.000000 3.624420 
# 
# 
# High freq. dielectric constant tensor:
#      x y z
#    x 1.790600 0.000000 0.000000 
#    y 0.000000 1.777390 0.000000 
#    z 0.000000 0.000000 1.767950 
# 
# From -- ./inp_files/22993.got.cif
#   From: 2010.03.12/outbox.cif.g09.slc.cpg/sg38_12_cif.got.tgz:22993.got - 2010.04.14 02:38:36.
