data_PCOD8179195
_publ_section_title
;
Structure prediction by ZEFSAII (Michael W. Deem and Ramdas Pophale) SiO2 
 PCOD8179195
Probable space group: A M M 2
;
_chemical_formula_sum "Si O2"
_cell_formula_units_Z 64
_cell_length_a 19.198297
_cell_length_b 8.894362
_cell_length_c 20.764616
_cell_angle_alpha 90.000000
_cell_angle_beta 90.000000
_cell_angle_gamma 90.000000
_cell_volume 3545.695297
_symmetry_space_group_name_H-M "A M M 2"
_symmetry_group_IT_number 38
_symmetry_cell_setting 'orthorhombic'
loop_
_space_group_symop_operation_xyz
x,y,z
-x,-y,z
-x,y,z
x,-y,z
x,1/2+y,1/2+z
-x,1/2-y,1/2+z
-x,1/2+y,1/2+z
x,1/2-y,1/2+z
loop_
_atom_site_type_symbol
_atom_site_label
_atom_site_fract_x
_atom_site_fract_y
_atom_site_fract_z
Si Si1 0.579020 0.174941 0.592830
Si Si2 0.791610 0.177139 0.921538
Si Si3 0.794921 0.821936 0.666492
Si Si4 0.424270 0.821238 0.739728
Si Si5 0.921073 0.324320 0.973844
Si Si6 0.079191 0.674125 0.610488
Si Si7 0.282682 0.678651 0.293817
Si Si8 0.711116 0.676262 0.550914
O O1 0.500000 0.205221 0.569885
O O2 0.589028 0.229689 0.666358
O O3 0.630673 0.271525 0.548032
O O4 0.598001 0.000000 0.586302
O O5 0.866932 0.257778 0.922263
O O6 0.749964 0.240926 0.859758
O O7 0.804304 0.000000 0.916077
O O8 0.746847 0.220722 0.983840
O O9 0.872707 0.755255 0.662924
O O10 0.763235 0.765501 0.733778
O O11 0.748898 0.763216 0.607960
O O12 0.797860 0.000000 0.662760
O O13 0.500000 0.760088 0.763585
O O14 0.361950 0.759414 0.784917
O O15 0.425555 0.000000 0.740669
O O16 0.908241 0.500000 0.983596
O O17 0.000000 0.291791 0.950140
O O18 0.906140 0.243664 0.041054
O O19 0.099125 0.500000 0.605877
O O20 0.000000 0.699052 0.632584
O O21 0.284662 0.500000 0.295528
O O22 0.716072 0.500000 0.563670
#
# Coordination Sequence:
#
# PCOD8179195 Si02
#       8
#     8   8   8   8   8   8   8   8
#     4   9  17  31  53  79 104 135 178 224 269 316
#     4  10  21  36  53  76 109 145 178 216 266 321
#     4  11  20  33  56  80 105 136 178 226 262 308
#     4   8  13  25  49  77 100 126 170 223 264 303
#     4  10  20  34  54  79 104 135 179 223 262 313
#     4  10  20  34  53  79 110 140 172 216 271 324
#     4   9  18  33  52  77 106 139 180 222 262 310
#     4  11  21  32  50  78 111 141 172 215 269 323
#
# _framework density 18.050056999999999
#
# number of rings (size 3 to 8) (size 9 to 14) (size 15 to 20)
#    0.000    2.250    2.500    2.250    0.000    2.250 
#    0.000    2.500    0.000    6.000    0.000    0.000 
#    0.000    0.000    0.000    0.000    0.000    0.000 
#
# Total GULP energy -396754.729113 kJ/mol
# GULP energy per Si atom -12398.585285 kJ/mol
# Density = 1.800897 g / cm^3
# Si number density = 18.050057 Si / 1000 Ang^3
#
#
#
# Elastic Constant Matrix: (Units=GPa)
#
#
# Indices 1 2 3 4 5 6 
#
# 1 162.6699 46.7723 74.2317 0.0000 0.0000 0.0000
# 2 46.7723 55.1824 36.1449 0.0000 0.0000 0.0000
# 3 74.2317 36.1449 107.2504 0.0000 0.0000 0.0000
# 4 0.0000 0.0000 0.0000 18.6779 0.0000 0.0000
# 5 0.0000 0.0000 0.0000 0.0000 30.1580 0.0000
# 6 0.0000 0.0000 0.0000 0.0000 0.0000 31.5839
#
#
#
# Elastic Compliance Matrix: (Units=1/GPa)
#
#
# Indices 1 2 3 4 5 6 
#
# 1 0.009972 -0.005045 -0.005201 0.000000 0.000000 0.000000
# 2 -0.005045 0.025808 -0.005206 0.000000 0.000000 0.000000
# 3 -0.005201 -0.005206 0.014679 0.000000 0.000000 0.000000
# 4 0.000000 0.000000 0.000000 0.053539 0.000000 0.000000
# 5 0.000000 0.000000 0.000000 0.000000 0.033159 0.000000
# 6 0.000000 0.000000 0.000000 0.000000 0.000000 0.031662
#
#
# Mechanical properties :
#
#
# Convention : Reuss Voigt Hill
#
# Bulk Modulus (GPa) = 51.14201 71.04449 61.09325
# Shear Modulus (GPa) = 24.24368 27.28087 25.76227
#
# Velocity S-wave (km/s) = 3.66886 3.89189 3.78202
# Velocity P-wave (km/s) = 6.80752 7.72275 7.27953
#
# Compressibility (1/GPa) = 0.01955339
#
# Stress axis : x y z
#
# Youngs Moduli (GPa) = 100.28511 38.74840 68.12668
#
# Poissons Ratio (x) = 0.19548 0.35436
# Poissons Ratio (y) = 0.50592 0.35465
# Poissons Ratio (z) = 0.52163 0.20172
#
# Static dielectric constant tensor:
#      x y z
#    x 3.803910 0.000000 0.000000 
#    y 0.000000 3.131420 0.000000 
#    z 0.000000 0.000000 3.222540 
# 
# 
# High freq. dielectric constant tensor:
#      x y z
#    x 1.720860 0.000000 0.000000 
#    y 0.000000 1.679630 0.000000 
#    z 0.000000 0.000000 1.667230 
# 
# From -- ./inp_files/18892.got.cif
#   From: 2010.03.12/outbox.cif.g09.slc.cpg/sg38_10_cif.got.tgz:18892.got - 2010.04.14 02:38:36.
