data_PCOD8179620
_publ_section_title
;
Structure prediction by ZEFSAII (Michael W. Deem and Ramdas Pophale) SiO2 
 PCOD8179620
Probable space group: A M M 2
;
_chemical_formula_sum "Si O2"
_cell_formula_units_Z 48
_cell_length_a 8.717962
_cell_length_b 9.994587
_cell_length_c 28.169421
_cell_angle_alpha 90.000000
_cell_angle_beta 90.000000
_cell_angle_gamma 90.000000
_cell_volume 2454.470094
_symmetry_space_group_name_H-M "A M M 2"
_symmetry_group_IT_number 38
_symmetry_cell_setting 'orthorhombic'
loop_
_space_group_symop_operation_xyz
x,y,z
-x,-y,z
-x,y,z
x,-y,z
x,1/2+y,1/2+z
-x,1/2-y,1/2+z
-x,1/2+y,1/2+z
x,1/2-y,1/2+z
loop_
_atom_site_type_symbol
_atom_site_label
_atom_site_fract_x
_atom_site_fract_y
_atom_site_fract_z
Si Si1 0.320039 0.656520 0.373350
Si Si2 0.319669 0.345654 0.961032
Si Si3 0.181730 0.251281 0.057005
Si Si4 0.181987 0.000000 0.719721
Si Si5 0.181913 0.000000 0.117580
Si Si6 0.181293 0.252857 0.777134
Si Si7 0.182602 0.500000 0.115334
Si Si8 0.319678 0.000000 0.223162
O O1 0.500000 0.665706 0.362423
O O2 0.273201 0.500000 0.381998
O O3 0.273579 0.751720 0.417049
O O4 0.225536 0.722949 0.330996
O O5 0.500000 0.353228 0.966944
O O6 0.255846 0.500000 0.956383
O O7 0.251649 0.264298 0.005090
O O8 0.244927 0.373181 0.087661
O O9 0.000000 0.250350 0.051622
O O10 0.240178 0.123787 0.086232
O O11 0.241725 0.128803 0.746810
O O12 0.254789 0.000000 0.667540
O O13 0.000000 0.000000 0.717491
O O14 0.248199 0.000000 0.170586
O O15 0.000000 0.000000 0.123833
O O16 0.268668 0.376371 0.754874
O O17 0.000000 0.276613 0.773340
O O18 0.000000 0.500000 0.118162
O O19 0.500000 0.000000 0.216753
#
# Coordination Sequence:
#
# PCOD8179620 Si02
#       8
#     8   8   8   4   4   8   4   4
#     4  10  22  40  61  87 121 161 201 247 308 372
#     4  10  22  39  59  85 119 159 201 246 300 361
#     4  10  20  36  59  86 118 153 195 247 302 355
#     4   9  18  34  60  89 118 152 191 242 302 361
#     4  10  22  40  61  88 121 159 203 253 303 358
#     4  11  22  40  64  92 123 158 203 255 307 364
#     4   9  16  30  54  81 110 147 183 225 290 359
#     4  12  26  42  61  90 127 168 207 250 305 368
#
# _framework density 19.556156000000001
#
# number of rings (size 3 to 8) (size 9 to 14) (size 15 to 20)
#    0.000    1.833    1.667    2.250    2.333    4.000 
#    0.000    0.000    0.000    1.000    0.000    0.000 
#    0.000    0.000    0.000    0.000    0.000    0.000 
#
# Total GULP energy -297524.112786 kJ/mol
# GULP energy per Si atom -12396.838033 kJ/mol
# Density = 1.951165 g / cm^3
# Si number density = 19.556156 Si / 1000 Ang^3
#
#
#
# Elastic Constant Matrix: (Units=GPa)
#
#
# Indices 1 2 3 4 5 6 
#
# 1 38.2222 31.5424 33.6105 0.0000 0.0000 0.0000
# 2 31.5424 173.3523 78.3264 0.0000 0.0000 0.0000
# 3 33.6105 78.3264 155.7476 0.0000 0.0000 0.0000
# 4 0.0000 0.0000 0.0000 44.7946 0.0000 0.0000
# 5 0.0000 0.0000 0.0000 0.0000 30.8926 0.0000
# 6 0.0000 0.0000 0.0000 0.0000 0.0000 29.7902
#
#
#
# Elastic Compliance Matrix: (Units=1/GPa)
#
#
# Indices 1 2 3 4 5 6 
#
# 1 0.034049 -0.003721 -0.005477 0.000000 0.000000 0.000000
# 2 -0.003721 0.007871 -0.003156 0.000000 0.000000 0.000000
# 3 -0.005477 -0.003156 0.009189 0.000000 0.000000 0.000000
# 4 0.000000 0.000000 0.000000 0.022324 0.000000 0.000000
# 5 0.000000 0.000000 0.000000 0.000000 0.032370 0.000000
# 6 0.000000 0.000000 0.000000 0.000000 0.000000 0.033568
#
#
# Mechanical properties :
#
#
# Convention : Reuss Voigt Hill
#
# Bulk Modulus (GPa) = 37.87313 72.69786 55.28550
# Shear Modulus (GPa) = 28.92173 36.01832 32.47003
#
# Velocity S-wave (km/s) = 3.84983 4.29626 4.07916
# Velocity P-wave (km/s) = 6.25859 7.86544 7.10757
#
# Compressibility (1/GPa) = 0.02640394
#
# Stress axis : x y z
#
# Youngs Moduli (GPa) = 29.36915 127.04110 108.82003
#
# Poissons Ratio (x) = 0.47271 0.59596
# Poissons Ratio (y) = 0.10928 0.34340
# Poissons Ratio (z) = 0.16084 0.40089
#
# Static dielectric constant tensor:
#      x y z
#    x 3.289770 0.000000 0.000000 
#    y 0.000000 3.891050 0.000000 
#    z 0.000000 0.000000 3.733130 
# 
# 
# High freq. dielectric constant tensor:
#      x y z
#    x 1.736870 0.000000 0.000000 
#    y 0.000000 1.781510 0.000000 
#    z 0.000000 0.000000 1.779060 
# 
# From -- ./inp_files/24448.got.cif
#   From: 2010.03.12/outbox.cif.g09.slc.cpg/sg38_13_cif.got.tgz:24448.got - 2010.04.14 02:38:36.
