data_PCOD8179143
_publ_section_title
;
Structure prediction by ZEFSAII (Michael W. Deem and Ramdas Pophale) SiO2 
 PCOD8179143
Probable space group: A M M 2
;
_chemical_formula_sum "Si O2"
_cell_formula_units_Z 64
_cell_length_a 8.641469
_cell_length_b 14.377435
_cell_length_c 27.966785
_cell_angle_alpha 90.000000
_cell_angle_beta 90.000000
_cell_angle_gamma 90.000000
_cell_volume 3474.653745
_symmetry_space_group_name_H-M "A M M 2"
_symmetry_group_IT_number 38
_symmetry_cell_setting 'orthorhombic'
loop_
_space_group_symop_operation_xyz
x,y,z
-x,-y,z
-x,y,z
x,-y,z
x,1/2+y,1/2+z
-x,1/2-y,1/2+z
-x,1/2+y,1/2+z
x,1/2-y,1/2+z
loop_
_atom_site_type_symbol
_atom_site_label
_atom_site_fract_x
_atom_site_fract_y
_atom_site_fract_z
Si Si1 0.183294 0.397661 0.480440
Si Si2 0.822237 0.893218 0.535609
Si Si3 0.818172 0.606470 0.587889
Si Si4 0.680768 0.106132 0.435547
Si Si5 0.679417 0.216353 0.621962
Si Si6 0.820287 0.107128 0.706647
Si Si7 0.182271 0.222407 0.892523
Si Si8 0.319976 0.394163 0.307842
O O1 0.251753 0.500000 0.469212
O O2 0.232288 0.366763 0.533688
O O3 0.245557 0.326548 0.440851
O O4 0.000000 0.402649 0.478259
O O5 0.722200 0.864807 0.489654
O O6 0.778187 0.832165 0.580792
O O7 0.000000 0.873798 0.522265
O O8 0.793786 0.000000 0.549907
O O9 0.772486 0.500000 0.599309
O O10 0.724347 0.674418 0.623162
O O11 0.000000 0.621193 0.595387
O O12 0.500000 0.120008 0.427507
O O13 0.772502 0.169364 0.397343
O O14 0.732409 0.000000 0.426177
O O15 0.500000 0.202774 0.611176
O O16 0.719049 0.172292 0.672842
O O17 0.777049 0.130953 0.760885
O O18 0.000000 0.128319 0.698229
O O19 0.780921 0.000000 0.695014
O O20 0.269672 0.177217 0.848334
O O21 0.000000 0.210303 0.885248
O O22 0.500000 0.381502 0.296277
O O23 0.283674 0.500000 0.324281
#
# Coordination Sequence:
#
# PCOD8179143 Si02
#       8
#     8   8   8   8   8   8   8   8
#     4   8  15  28  47  73 103 134 170 211 252 294
#     4  10  20  34  52  75 105 141 181 221 259 307
#     4   9  18  34  54  74 101 140 183 223 259 298
#     4  10  21  36  52  73 105 142 179 222 269 312
#     4  12  23  33  51  78 108 141 175 214 263 318
#     4  10  21  38  59  81 105 134 171 215 261 312
#     4  11  20  31  53  80 106 140 180 217 255 308
#     4  10  21  37  56  80 111 141 169 208 260 315
#
# _framework density 18.419103
#
# number of rings (size 3 to 8) (size 9 to 14) (size 15 to 20)
#    0.000    2.000    0.000    5.250    0.000    6.250 
#    0.000    0.625    0.000    2.250    0.000    0.000 
#    0.000    0.000    0.000    0.000    0.000    0.000 
#
# Total GULP energy -396878.158311 kJ/mol
# GULP energy per Si atom -12402.442447 kJ/mol
# Density = 1.837718 g / cm^3
# Si number density = 18.419103 Si / 1000 Ang^3
#
#
#
# Elastic Constant Matrix: (Units=GPa)
#
#
# Indices 1 2 3 4 5 6 
#
# 1 51.6046 26.3871 15.4209 0.0000 0.0000 0.0000
# 2 26.3871 94.7735 54.3386 0.0000 0.0000 0.0000
# 3 15.4209 54.3386 73.6803 0.0000 0.0000 0.0000
# 4 0.0000 0.0000 0.0000 31.0952 0.0000 0.0000
# 5 0.0000 0.0000 0.0000 0.0000 29.3471 0.0000
# 6 0.0000 0.0000 0.0000 0.0000 0.0000 25.3393
#
#
#
# Elastic Compliance Matrix: (Units=1/GPa)
#
#
# Indices 1 2 3 4 5 6 
#
# 1 0.022596 -0.006202 -0.000155 0.000000 0.000000 0.000000
# 2 -0.006202 0.019984 -0.013440 0.000000 0.000000 0.000000
# 3 -0.000155 -0.013440 0.023517 0.000000 0.000000 0.000000
# 4 0.000000 0.000000 0.000000 0.032159 0.000000 0.000000
# 5 0.000000 0.000000 0.000000 0.000000 0.034075 0.000000
# 6 0.000000 0.000000 0.000000 0.000000 0.000000 0.039464
#
#
# Mechanical properties :
#
#
# Convention : Reuss Voigt Hill
#
# Bulk Modulus (GPa) = 37.73333 45.81686 41.77509
# Shear Modulus (GPa) = 22.70411 25.41709 24.06060
#
# Velocity S-wave (km/s) = 3.51471 3.71877 3.61818
# Velocity P-wave (km/s) = 6.08287 6.58541 6.33912
#
# Compressibility (1/GPa) = 0.02650177
#
# Stress axis : x y z
#
# Youngs Moduli (GPa) = 44.25582 50.03928 42.52314
#
# Poissons Ratio (x) = 0.31036 0.00659
# Poissons Ratio (y) = 0.27449 0.57152
# Poissons Ratio (z) = 0.00686 0.67254
#
# Static dielectric constant tensor:
#      x y z
#    x 3.278260 0.000000 0.000000 
#    y 0.000000 3.582170 0.000000 
#    z 0.000000 0.000000 3.224470 
# 
# 
# High freq. dielectric constant tensor:
#      x y z
#    x 1.711330 0.000000 0.000000 
#    y 0.000000 1.718280 0.000000 
#    z 0.000000 0.000000 1.692670 
# 
# From -- ./inp_files/22136.got.cif
#   From: 2010.03.12/outbox.cif.g09.slc.cpg/sg38_12_cif.got.tgz:22136.got - 2010.04.14 02:38:36.
