data_PCOD8179706
_publ_section_title
;
Structure prediction by ZEFSAII (Michael W. Deem and Ramdas Pophale) SiO2 
 PCOD8179706
Probable space group: A M M 2
;
_chemical_formula_sum "Si O2"
_cell_formula_units_Z 56
_cell_length_a 21.181276
_cell_length_b 8.841978
_cell_length_c 15.352951
_cell_angle_alpha 90.000000
_cell_angle_beta 90.000000
_cell_angle_gamma 90.000000
_cell_volume 2875.367854
_symmetry_space_group_name_H-M "A M M 2"
_symmetry_group_IT_number 38
_symmetry_cell_setting 'orthorhombic'
loop_
_space_group_symop_operation_xyz
x,y,z
-x,-y,z
-x,y,z
x,-y,z
x,1/2+y,1/2+z
-x,1/2-y,1/2+z
-x,1/2+y,1/2+z
x,1/2-y,1/2+z
loop_
_atom_site_type_symbol
_atom_site_label
_atom_site_fract_x
_atom_site_fract_y
_atom_site_fract_z
Si Si1 0.787155 0.178462 0.934250
Si Si2 0.574097 0.325255 0.079644
Si Si3 0.000000 0.678192 0.828556
Si Si4 0.873724 0.324887 0.278242
Si Si5 0.134862 0.325058 0.083516
Si Si6 0.573190 0.675776 0.759941
Si Si7 0.643333 0.678691 0.420756
Si Si8 0.000000 0.179322 0.525028
O O1 0.826174 0.240476 0.851029
O O2 0.715517 0.233337 0.925641
O O3 0.790258 0.000000 0.936747
O O4 0.815745 0.238867 0.023632
O O5 0.500000 0.302070 0.064913
O O6 0.593586 0.500000 0.069214
O O7 0.594288 0.268800 0.175037
O O8 0.609801 0.223499 0.009997
O O9 0.938867 0.735841 0.778729
O O10 0.000000 0.741594 0.926745
O O11 0.000000 0.500000 0.828194
O O12 0.888735 0.500000 0.295220
O O13 0.843086 0.301259 0.183035
O O14 0.136282 0.500000 0.056217
O O15 0.063591 0.259899 0.071440
O O16 0.500000 0.704001 0.781142
O O17 0.587181 0.500000 0.743518
O O18 0.612495 0.733752 0.841152
O O19 0.636822 0.500000 0.405982
O O20 0.000000 0.000000 0.528638
#
# Coordination Sequence:
#
# PCOD8179706 Si02
#       8
#     8   8   4   8   8   8   8   4
#     4  10  23  40  55  80 115 149 189 236 279 328
#     4  10  21  38  61  89 118 149 191 242 293 347
#     4  11  20  33  57  86 113 139 178 232 283 334
#     4  10  21  38  59  81 109 146 186 228 281 338
#     4  10  20  37  60  82 108 146 187 229 280 339
#     4  10  21  38  61  90 121 152 190 237 290 347
#     4  11  23  38  57  83 120 160 198 240 286 338
#     4   9  17  31  53  82 111 135 174 230 281 332
#
# _framework density 19.475769
#
# number of rings (size 3 to 8) (size 9 to 14) (size 15 to 20)
#    0.000    1.857    1.429    2.357    0.000    7.429 
#    0.000    1.786    0.000    0.000    0.000    0.000 
#    0.000    0.000    0.000    0.000    0.000    0.000 
#
# Total GULP energy -347292.801706 kJ/mol
# GULP energy per Si atom -12403.314347 kJ/mol
# Density = 1.943144 g / cm^3
# Si number density = 19.475769 Si / 1000 Ang^3
#
#
#
# Elastic Constant Matrix: (Units=GPa)
#
#
# Indices 1 2 3 4 5 6 
#
# 1 101.3629 29.0758 53.3250 0.0000 0.0000 0.0000
# 2 29.0758 37.6005 19.2049 0.0000 0.0000 0.0000
# 3 53.3250 19.2049 115.5313 0.0000 0.0000 0.0000
# 4 0.0000 0.0000 0.0000 35.3377 0.0000 0.0000
# 5 0.0000 0.0000 0.0000 0.0000 43.2691 0.0000
# 6 0.0000 0.0000 0.0000 0.0000 0.0000 24.8419
#
#
#
# Elastic Compliance Matrix: (Units=1/GPa)
#
#
# Indices 1 2 3 4 5 6 
#
# 1 0.015414 -0.009054 -0.005609 0.000000 0.000000 0.000000
# 2 -0.009054 0.034381 -0.001536 0.000000 0.000000 0.000000
# 3 -0.005609 -0.001536 0.011500 0.000000 0.000000 0.000000
# 4 0.000000 0.000000 0.000000 0.028298 0.000000 0.000000
# 5 0.000000 0.000000 0.000000 0.000000 0.023111 0.000000
# 6 0.000000 0.000000 0.000000 0.000000 0.000000 0.040255
#
#
# Mechanical properties :
#
#
# Convention : Reuss Voigt Hill
#
# Bulk Modulus (GPa) = 34.60698 50.85625 42.73161
# Shear Modulus (GPa) = 25.64230 30.88236 28.26233
#
# Velocity S-wave (km/s) = 3.63247 3.98638 3.81353
# Velocity P-wave (km/s) = 5.94987 6.88168 6.43267
#
# Compressibility (1/GPa) = 0.02889590
#
# Stress axis : x y z
#
# Youngs Moduli (GPa) = 64.87759 29.08549 86.95597
#
# Poissons Ratio (x) = 0.26334 0.48776
# Poissons Ratio (y) = 0.58741 0.13358
# Poissons Ratio (z) = 0.36392 0.04468
#
# Static dielectric constant tensor:
#      x y z
#    x 3.626630 0.000000 0.000000 
#    y 0.000000 3.457280 0.000000 
#    z 0.000000 0.000000 3.671440 
# 
# 
# High freq. dielectric constant tensor:
#      x y z
#    x 1.754580 0.000000 0.000000 
#    y 0.000000 1.750920 0.000000 
#    z 0.000000 0.000000 1.773250 
# 
# From -- ./inp_files/15532.got.cif
#   From: 2010.03.12/outbox.cif.g09.slc.cpg/sg38_8_cif.got.tgz:15532.got - 2010.04.14 02:38:36.
