data_PCOD8179580
_publ_section_title
;
Structure prediction by ZEFSAII (Michael W. Deem and Ramdas Pophale) SiO2 
 PCOD8179580
Probable space group: A M M 2
;
_chemical_formula_sum "Si O2"
_cell_formula_units_Z 40
_cell_length_a 21.065323
_cell_length_b 10.023109
_cell_length_c 9.154960
_cell_angle_alpha 90.000000
_cell_angle_beta 90.000000
_cell_angle_gamma 90.000000
_cell_volume 1932.978516
_symmetry_space_group_name_H-M "A M M 2"
_symmetry_group_IT_number 38
_symmetry_cell_setting 'orthorhombic'
loop_
_space_group_symop_operation_xyz
x,y,z
-x,-y,z
-x,y,z
x,-y,z
x,1/2+y,1/2+z
-x,1/2-y,1/2+z
-x,1/2+y,1/2+z
x,1/2-y,1/2+z
loop_
_atom_site_type_symbol
_atom_site_label
_atom_site_fract_x
_atom_site_fract_y
_atom_site_fract_z
Si Si1 0.073291 0.852188 0.468970
Si Si2 0.738820 0.852614 0.245279
Si Si3 0.146742 0.651853 0.268139
Si Si4 0.568199 0.648760 0.244523
Si Si5 0.345446 0.254714 0.494452
O O1 0.103780 0.732422 0.380233
O O2 0.107949 0.856750 0.621555
O O3 0.000000 0.817236 0.494053
O O4 0.080466 0.000000 0.394862
O O5 0.788119 0.731089 0.243929
O O6 0.695574 0.841933 0.390001
O O7 0.771156 0.000000 0.251584
O O8 0.699539 0.847602 0.094190
O O9 0.161070 0.500000 0.324204
O O10 0.500000 0.730101 0.247456
O O11 0.546485 0.500000 0.233369
O O12 0.608480 0.661700 0.391773
O O13 0.610392 0.674150 0.103276
#
# Coordination Sequence:
#
# PCOD8179580 Si02
#       5
#     8   8   8   8   8
#     4  10  22  41  63  88 120 156 194 238 289 346
#     4  11  23  39  59  84 117 156 197 241 291 347
#     4  11  24  40  61  90 121 154 196 244 291 343
#     4  10  20  36  58  83 113 149 189 236 291 348
#     4  10  22  37  57  84 115 149 194 242 288 344
#
# _framework density 20.693455
#
# number of rings (size 3 to 8) (size 9 to 14) (size 15 to 20)
#    0.000    1.600    0.000    4.200    0.000   10.800 
#    0.000    0.000    0.000    9.600    0.000    0.000 
#    0.000    0.000    0.000    0.000    0.000    0.000 
#
# Total GULP energy -247809.569794 kJ/mol
# GULP energy per Si atom -12390.478490 kJ/mol
# Density = 2.064636 g / cm^3
# Si number density = 20.693455 Si / 1000 Ang^3
#
#
#
# Elastic Constant Matrix: (Units=GPa)
#
#
# Indices 1 2 3 4 5 6 
#
# 1 112.6373 46.7821 10.4839 0.0000 0.0000 0.0000
# 2 46.7821 147.9049 25.9133 0.0000 0.0000 0.0000
# 3 10.4839 25.9133 77.3959 0.0000 0.0000 0.0000
# 4 0.0000 0.0000 0.0000 28.1143 0.0000 0.0000
# 5 0.0000 0.0000 0.0000 0.0000-7357.8199 0.0000
# 6 0.0000 0.0000 0.0000 0.0000 0.0000 26.3503
#
#
#
# Elastic Compliance Matrix: (Units=1/GPa)
#
#
# Indices 1 2 3 4 5 6 
#
# 1 0.010228 -0.003179 -0.000321 0.000000 0.000000 0.000000
# 2 -0.003179 0.008170 -0.002305 0.000000 0.000000 0.000000
# 3 -0.000321 -0.002305 0.013736 0.000000 0.000000 0.000000
# 4 0.000000 0.000000 0.000000 0.035569 0.000000 0.000000
# 5 0.000000 0.000000 0.000000 0.000000 -0.000136 0.000000
# 6 0.000000 0.000000 0.000000 0.000000 0.000000 0.037950
#
#
# Mechanical properties :
#
#
# Convention : Reuss Voigt Hill
#
# Bulk Modulus (GPa) = 48.72242 56.03296 52.37769
# Shear Modulus (GPa) = 40.33251 -1443.68714 -701.67731
#
# Velocity S-wave (km/s) = 4.41959 -26.44180 -18.43415
# Velocity P-wave (km/s) = 7.04554 30.08469 20.68150
#
# Compressibility (1/GPa) = 0.02052443
#
# Stress axis : x y z
#
# Youngs Moduli (GPa) = 97.76834 122.39272 72.80238
#
# Poissons Ratio (x) = 0.38908 0.02338
# Poissons Ratio (y) = 0.31080 0.16781
# Poissons Ratio (z) = 0.03140 0.28211
#
# Static dielectric constant tensor:
#      x y z
#    x 17.112450 0.000000 0.000000 
#    y 0.000000 3.061650 0.000000 
#    z 0.000000 0.000000 4.328600 
# 
# 
# High freq. dielectric constant tensor:
#      x y z
#    x 1.830320 0.000000 0.000000 
#    y 0.000000 1.804580 0.000000 
#    z 0.000000 0.000000 1.815620 
# 
# From -- ./inp_files/6068.got.cif
#   From: 2010.03.12/outbox.cif.g09.slc.cpg/sg38_4_cif.got.tgz:6068.got - 2010.04.14 02:38:36.
