data_PCOD8179805
_publ_section_title
;
Structure prediction by ZEFSAII (Michael W. Deem and Ramdas Pophale) SiO2 
 PCOD8179805
Probable space group: A M M 2
;
_chemical_formula_sum "Si O2"
_cell_formula_units_Z 30
_cell_length_a 12.494933
_cell_length_b 7.475832
_cell_length_c 16.598356
_cell_angle_alpha 90.000000
_cell_angle_beta 90.000000
_cell_angle_gamma 90.000000
_cell_volume 1550.452765
_symmetry_space_group_name_H-M "A M M 2"
_symmetry_group_IT_number 38
_symmetry_cell_setting 'orthorhombic'
loop_
_space_group_symop_operation_xyz
x,y,z
-x,-y,z
-x,y,z
x,-y,z
x,1/2+y,1/2+z
-x,1/2-y,1/2+z
-x,1/2+y,1/2+z
x,1/2-y,1/2+z
loop_
_atom_site_type_symbol
_atom_site_label
_atom_site_fract_x
_atom_site_fract_y
_atom_site_fract_z
Si Si1 0.305595 0.000000 0.400221
Si Si2 0.500000 0.205669 0.153750
Si Si3 0.500000 0.000000 0.520945
Si Si4 0.122989 0.204289 0.150511
Si Si5 0.304828 0.204828 0.768474
Si Si6 0.124358 0.500000 0.023406
O O1 0.394342 0.000000 0.468207
O O2 0.320136 0.176803 0.347330
O O3 0.188869 0.000000 0.440435
O O4 0.500000 0.321860 0.073691
O O5 0.604807 0.249092 0.204366
O O6 0.500000 0.000000 0.127334
O O7 0.190039 0.256053 0.229102
O O8 0.156404 0.325200 0.074747
O O9 0.000000 0.239206 0.173960
O O10 0.143950 0.000000 0.125193
O O11 0.313214 0.000000 0.795737
O O12 0.000000 0.500000 0.000108
#
# Coordination Sequence:
#
# PCOD8179805 Si02
#       6
#     4   4   2   8   8   4
#     4  12  26  40  60  96 135 159 195 263 326 364
#     4  12  23  43  71  91 116 163 216 254 299 374
#     4  12  26  42  66  94 126 162 202 258 318 372
#     4  10  20  38  66  93 120 165 218 255 295 366
#     4  12  23  40  65  93 125 163 209 256 307 368
#     4  10  22  40  62  92 130 164 204 260 312 364
#
# _framework density 19.349186
#
# number of rings (size 3 to 8) (size 9 to 14) (size 15 to 20)
#    0.000    0.800    5.333    2.400    0.000    3.200 
#    0.000    0.000    0.000    0.000    0.000    0.000 
#    0.000    0.000    0.000    0.000    0.000    0.000 
#
# Total GULP energy -186101.514686 kJ/mol
# GULP energy per Si atom -12406.767646 kJ/mol
# Density = 1.930515 g / cm^3
# Si number density = 19.349186 Si / 1000 Ang^3
#
#
#
# Elastic Constant Matrix: (Units=GPa)
#
#
# Indices 1 2 3 4 5 6 
#
# 1 101.6240 47.8524 64.8169 0.0000 0.0000 0.0000
# 2 47.8524 204.1311 79.8652 0.0000 0.0000 0.0000
# 3 64.8169 79.8652 136.9861 0.0000 0.0000 0.0000
# 4 0.0000 0.0000 0.0000 39.5016 0.0000 0.0000
# 5 0.0000 0.0000 0.0000 0.0000 17.8474 0.0000
# 6 0.0000 0.0000 0.0000 0.0000 0.0000 27.7742
#
#
#
# Elastic Compliance Matrix: (Units=1/GPa)
#
#
# Indices 1 2 3 4 5 6 
#
# 1 0.014222 -0.000908 -0.006200 0.000000 0.000000 0.000000
# 2 -0.000908 0.006404 -0.003304 0.000000 0.000000 0.000000
# 3 -0.006200 -0.003304 0.012160 0.000000 0.000000 0.000000
# 4 0.000000 0.000000 0.000000 0.025315 0.000000 0.000000
# 5 0.000000 0.000000 0.000000 0.000000 0.056030 0.000000
# 6 0.000000 0.000000 0.000000 0.000000 0.000000 0.036005
#
#
# Mechanical properties :
#
#
# Convention : Reuss Voigt Hill
#
# Bulk Modulus (GPa) = 83.59816 91.97892 87.78854
# Shear Modulus (GPa) = 28.57972 33.70508 31.14240
#
# Velocity S-wave (km/s) = 3.84741 4.17818 4.01620
# Velocity P-wave (km/s) = 7.93949 8.42115 8.18387
#
# Compressibility (1/GPa) = 0.01196199
#
# Stress axis : x y z
#
# Youngs Moduli (GPa) = 70.31234 156.14109 82.23719
#
# Poissons Ratio (x) = 0.14182 0.50986
# Poissons Ratio (y) = 0.06387 0.27172
# Poissons Ratio (z) = 0.43593 0.51591
#
# Static dielectric constant tensor:
#      x y z
#    x 3.730490 0.000000 0.000000 
#    y 0.000000 4.908540 0.000000 
#    z 0.000000 0.000000 3.361630 
# 
# 
# High freq. dielectric constant tensor:
#      x y z
#    x 1.772310 0.000000 0.000000 
#    y 0.000000 1.775500 0.000000 
#    z 0.000000 0.000000 1.737850 
# 
# From -- ./inp_files/13260.got.cif
#   From: 2010.03.12/outbox.cif.g09.slc.cpg/sg38_7_cif.got.tgz:13260.got - 2010.04.14 02:38:36.
