data_PCOD8179167
_publ_section_title
;
Structure prediction by ZEFSAII (Michael W. Deem and Ramdas Pophale) SiO2 
 PCOD8179167
Probable space group: A M M 2
;
_chemical_formula_sum "Si O2"
_cell_formula_units_Z 64
_cell_length_a 9.095411
_cell_length_b 9.434530
_cell_length_c 41.366459
_cell_angle_alpha 90.000000
_cell_angle_beta 90.000000
_cell_angle_gamma 90.000000
_cell_volume 3549.694232
_symmetry_space_group_name_H-M "A M M 2"
_symmetry_group_IT_number 38
_symmetry_cell_setting 'orthorhombic'
loop_
_space_group_symop_operation_xyz
x,y,z
-x,-y,z
-x,y,z
x,-y,z
x,1/2+y,1/2+z
-x,1/2-y,1/2+z
-x,1/2+y,1/2+z
x,1/2-y,1/2+z
loop_
_atom_site_type_symbol
_atom_site_label
_atom_site_fract_x
_atom_site_fract_y
_atom_site_fract_z
Si Si1 0.671551 0.333513 0.423670
Si Si2 0.827959 0.837079 0.169816
Si Si3 0.834347 0.668364 0.359536
Si Si4 0.672037 0.662925 0.734195
Si Si5 0.665652 0.668364 0.044476
Si Si6 0.328959 0.665090 0.296056
Si Si7 0.828958 0.334911 0.107956
Si Si8 0.828450 0.833513 0.480341
O O1 0.500000 0.296769 0.423385
O O2 0.699432 0.500000 0.428623
O O3 0.741000 0.278569 0.390141
O O4 0.749994 0.250001 0.452007
O O5 0.750007 0.779159 0.202006
O O6 0.770777 0.747329 0.139390
O O7 0.000000 0.815756 0.174797
O O8 0.785782 0.000000 0.163515
O O9 0.834221 0.500000 0.358794
O O10 0.759188 0.725322 0.326846
O O11 0.000000 0.728193 0.362007
O O12 0.500000 0.684271 0.729211
O O13 0.714191 0.500000 0.740497
O O14 0.729223 0.752668 0.764622
O O15 0.500000 0.728197 0.042004
O O16 0.665770 0.500000 0.045220
O O17 0.740812 0.725323 0.077166
O O18 0.759006 0.721424 0.013871
O O19 0.500000 0.695051 0.302443
O O20 0.298175 0.500000 0.290381
O O21 0.798171 0.500000 0.113631
O O22 0.000000 0.304954 0.101569
O O23 0.000000 0.796762 0.480624
O O24 0.800573 0.000000 0.475388
#
# Coordination Sequence:
#
# PCOD8179167 Si02
#       8
#     8   8   8   8   8   8   8   8
#     4  10  20  34  53  76 102 133 168 205 246 293
#     4   9  18  32  48  66  91 123 155 187 229 281
#     4   9  17  30  49  72  97 126 160 198 241 288
#     4   9  18  32  48  66  91 123 155 187 229 281
#     4   9  17  30  49  72  97 126 160 198 241 288
#     4   9  17  30  48  69  92 119 154 195 236 279
#     4   9  17  30  48  69  92 119 154 195 236 279
#     4  10  20  34  53  76 102 133 168 205 246 293
#
# _framework density 18.029722
#
# number of rings (size 3 to 8) (size 9 to 14) (size 15 to 20)
#    0.000    2.750    0.000    1.500    0.000    6.000 
#    0.000    1.250    0.000    4.500    0.000    0.000 
#    0.000    0.000    0.000    0.000    0.000    0.000 
#
# Total GULP energy -396837.500592 kJ/mol
# GULP energy per Si atom -12401.171893 kJ/mol
# Density = 1.798869 g / cm^3
# Si number density = 18.029722 Si / 1000 Ang^3
#
#
#
# Elastic Constant Matrix: (Units=GPa)
#
#
# Indices 1 2 3 4 5 6 
#
# 1 111.6761 38.5991 94.1326 0.0000 0.0000 0.0000
# 2 38.5991 39.4191 59.2044 0.0000 0.0000 0.0000
# 3 94.1326 59.2044 209.7657 0.0000 0.0000 0.0000
# 4 0.0000 0.0000 0.0000 32.2456 0.0000 0.0000
# 5 0.0000 0.0000 0.0000 0.0000 42.0699 0.0000
# 6 0.0000 0.0000 0.0000 0.0000 0.0000 19.9443
#
#
#
# Elastic Compliance Matrix: (Units=1/GPa)
#
#
# Indices 1 2 3 4 5 6 
#
# 1 0.015858 -0.008401 -0.004745 0.000000 0.000000 0.000000
# 2 -0.008401 0.048486 -0.009915 0.000000 0.000000 0.000000
# 3 -0.004745 -0.009915 0.009695 0.000000 0.000000 0.000000
# 4 0.000000 0.000000 0.000000 0.031012 0.000000 0.000000
# 5 0.000000 0.000000 0.000000 0.000000 0.023770 0.000000
# 6 0.000000 0.000000 0.000000 0.000000 0.000000 0.050140
#
#
# Mechanical properties :
#
#
# Convention : Reuss Voigt Hill
#
# Bulk Modulus (GPa) = 35.82082 82.74813 59.28447
# Shear Modulus (GPa) = 21.33218 30.11362 25.72290
#
# Velocity S-wave (km/s) = 3.44345 4.09127 3.78126
# Velocity P-wave (km/s) = 5.97667 8.26517 7.21227
#
# Compressibility (1/GPa) = 0.02791673
#
# Stress axis : x y z
#
# Youngs Moduli (GPa) = 63.06008 20.62456 103.14730
#
# Poissons Ratio (x) = 0.17327 0.48944
# Poissons Ratio (y) = 0.52979 1.02266
# Poissons Ratio (z) = 0.29922 0.20448
#
# Static dielectric constant tensor:
#      x y z
#    x 3.456300 0.000000 0.000000 
#    y 0.000000 3.060280 0.000000 
#    z 0.000000 0.000000 3.583250 
# 
# 
# High freq. dielectric constant tensor:
#      x y z
#    x 1.702840 0.000000 0.000000 
#    y 0.000000 1.662300 0.000000 
#    z 0.000000 0.000000 1.713810 
# 
# From -- ./inp_files/24619.got.cif
#   From: 2010.03.12/outbox.cif.g09.slc.cpg/sg38_13_cif.got.tgz:24619.got - 2010.04.14 02:38:36.
