data_PCOD8179934
_publ_section_title
;
Structure prediction by ZEFSAII (Michael W. Deem and Ramdas Pophale) SiO2 
 PCOD8179934
Probable space group: A M M 2
;
_chemical_formula_sum "Si O2"
_cell_formula_units_Z 64
_cell_length_a 19.740322
_cell_length_b 9.212947
_cell_length_c 20.001292
_cell_angle_alpha 90.000000
_cell_angle_beta 90.000000
_cell_angle_gamma 90.000000
_cell_volume 3637.565779
_symmetry_space_group_name_H-M "A M M 2"
_symmetry_group_IT_number 38
_symmetry_cell_setting 'orthorhombic'
loop_
_space_group_symop_operation_xyz
x,y,z
-x,-y,z
-x,y,z
x,-y,z
x,1/2+y,1/2+z
-x,1/2-y,1/2+z
-x,1/2+y,1/2+z
x,1/2-y,1/2+z
loop_
_atom_site_type_symbol
_atom_site_label
_atom_site_fract_x
_atom_site_fract_y
_atom_site_fract_z
Si Si1 0.577347 0.830285 0.543970
Si Si2 0.164826 0.832074 0.795192
Si Si3 0.678268 0.669334 0.446975
Si Si4 0.079428 0.332485 0.688870
Si Si5 0.166245 0.165880 0.951141
Si Si6 0.316739 0.327443 0.298013
Si Si7 0.575031 0.172776 0.694329
Si Si8 0.921235 0.669382 0.056202
O O1 0.500000 0.794563 0.523901
O O2 0.628021 0.749607 0.495791
O O3 0.591691 0.775187 0.619334
O O4 0.591501 0.000000 0.538343
O O5 0.113944 0.732718 0.754264
O O6 0.151169 0.807102 0.873357
O O7 0.241048 0.781620 0.777000
O O8 0.153321 0.000000 0.776181
O O9 0.662055 0.500000 0.450336
O O10 0.755612 0.699811 0.468002
O O11 0.665698 0.730058 0.372097
O O12 0.099410 0.500000 0.681385
O O13 0.104986 0.249754 0.622728
O O14 0.000000 0.310308 0.698555
O O15 0.148904 0.000000 0.970080
O O16 0.119446 0.273615 0.992614
O O17 0.320249 0.500000 0.299691
O O18 0.370046 0.260155 0.245332
O O19 0.500000 0.226786 0.715388
O O20 0.577061 0.000000 0.696548
O O21 0.907050 0.500000 0.065476
O O22 0.000000 0.702489 0.043591
#
# Coordination Sequence:
#
# PCOD8179934 Si02
#       8
#     8   8   8   8   8   8   8   8
#     4   9  18  31  46  68  99 131 163 202 248 295
#     4   9  18  33  52  74 102 133 164 202 247 297
#     4   9  18  32  50  73  99 126 160 202 244 291
#     4  10  21  36  53  74 102 133 164 203 250 297
#     4   9  19  35  52  73 104 136 164 203 257 307
#     4   8  15  29  48  71  97 123 157 201 242 280
#     4   8  14  26  45  68  93 122 158 198 236 277
#     4  10  21  36  54  76 100 128 168 213 250 294
#
# _framework density 17.594183000000001
#
# number of rings (size 3 to 8) (size 9 to 14) (size 15 to 20)
#    0.000    3.000    0.000    3.000    0.000    4.750 
#    0.000    6.875    0.000    0.750    0.000    0.000 
#    0.000    0.000    0.000    0.000    0.000    0.000 
#
# Total GULP energy -396747.499032 kJ/mol
# GULP energy per Si atom -12398.359345 kJ/mol
# Density = 1.755414 g / cm^3
# Si number density = 17.594183 Si / 1000 Ang^3
#
#
#
# Elastic Constant Matrix: (Units=GPa)
#
#
# Indices 1 2 3 4 5 6 
#
# 1 88.2916 54.0670 72.7486 0.0000 0.0000 0.0000
# 2 54.0670 71.4769 55.0191 0.0000 0.0000 0.0000
# 3 72.7486 55.0191 107.4822 0.0000 0.0000 0.0000
# 4 0.0000 0.0000 0.0000 31.1213 0.0000 0.0000
# 5 0.0000 0.0000 0.0000 0.0000 31.9040 0.0000
# 6 0.0000 0.0000 0.0000 0.0000 0.0000 28.5315
#
#
#
# Elastic Compliance Matrix: (Units=1/GPa)
#
#
# Indices 1 2 3 4 5 6 
#
# 1 0.030756 -0.011949 -0.014700 0.000000 0.000000 0.000000
# 2 -0.011949 0.027730 -0.006107 0.000000 0.000000 0.000000
# 3 -0.014700 -0.006107 0.022380 0.000000 0.000000 0.000000
# 4 0.000000 0.000000 0.000000 0.032132 0.000000 0.000000
# 5 0.000000 0.000000 0.000000 0.000000 0.031344 0.000000
# 6 0.000000 0.000000 0.000000 0.000000 0.000000 0.035049
#
#
# Mechanical properties :
#
#
# Convention : Reuss Voigt Hill
#
# Bulk Modulus (GPa) = 65.13460 70.10225 67.61842
# Shear Modulus (GPa) = 19.99834 24.00575 22.00204
#
# Velocity S-wave (km/s) = 3.37507 3.69780 3.54012
# Velocity P-wave (km/s) = 7.23112 7.62641 7.43139
#
# Compressibility (1/GPa) = 0.01535282
#
# Stress axis : x y z
#
# Youngs Moduli (GPa) = 32.51444 36.06209 44.68320
#
# Poissons Ratio (x) = 0.43090 0.65685
# Poissons Ratio (y) = 0.38851 0.27289
# Poissons Ratio (z) = 0.47797 0.22024
#
# Static dielectric constant tensor:
#      x y z
#    x 3.597310 0.000000 0.000000 
#    y 0.000000 2.989360 0.000000 
#    z 0.000000 0.000000 3.441640 
# 
# 
# High freq. dielectric constant tensor:
#      x y z
#    x 1.682680 0.000000 0.000000 
#    y 0.000000 1.654020 0.000000 
#    z 0.000000 0.000000 1.686130 
# 
# From -- ./inp_files/18841.got.cif
#   From: 2010.03.12/outbox.cif.g09.slc.cpg/sg38_10_cif.got.tgz:18841.got - 2010.04.14 02:38:36.
