data_PCOD8179992
_publ_section_title
;
Structure prediction by ZEFSAII (Michael W. Deem and Ramdas Pophale) SiO2 
 PCOD8179992
Probable space group: A M M 2
;
_chemical_formula_sum "Si O2"
_cell_formula_units_Z 48
_cell_length_a 17.271881
_cell_length_b 8.966099
_cell_length_c 15.863887
_cell_angle_alpha 90.000000
_cell_angle_beta 90.000000
_cell_angle_gamma 90.000000
_cell_volume 2456.703670
_symmetry_space_group_name_H-M "A M M 2"
_symmetry_group_IT_number 38
_symmetry_cell_setting 'orthorhombic'
loop_
_space_group_symop_operation_xyz
x,y,z
-x,-y,z
-x,y,z
x,-y,z
x,1/2+y,1/2+z
-x,1/2-y,1/2+z
-x,1/2+y,1/2+z
x,1/2-y,1/2+z
loop_
_atom_site_type_symbol
_atom_site_label
_atom_site_fract_x
_atom_site_fract_y
_atom_site_fract_z
Si Si1 0.347505 0.173289 0.555560
Si Si2 0.500000 0.828137 0.121848
Si Si3 0.652359 0.334189 0.390537
Si Si4 0.912543 0.676361 0.721224
Si Si5 0.823560 0.668963 0.370790
Si Si6 0.190355 0.676292 0.564825
Si Si7 0.500000 0.165857 0.782638
O O1 0.423614 0.249808 0.589802
O O2 0.349054 0.199860 0.456084
O O3 0.270269 0.246629 0.593763
O O4 0.348437 0.000000 0.578024
O O5 0.500000 0.805679 0.221305
O O6 0.500000 0.000000 0.095468
O O7 0.650784 0.500000 0.433732
O O8 0.733702 0.319773 0.340945
O O9 0.578017 0.315092 0.333979
O O10 0.910226 0.500000 0.725678
O O11 0.872872 0.733126 0.806669
O O12 0.872324 0.730032 0.633977
O O13 0.000000 0.737170 0.718522
O O14 0.853842 0.500000 0.364068
O O15 0.833199 0.723850 0.468842
O O16 0.203026 0.500000 0.567321
O O17 0.500000 0.000000 0.740395
#
# Coordination Sequence:
#
# PCOD8179992 Si02
#       7
#     8   4   8   8   8   8   4
#     4  11  22  37  59  85 113 148 195 243 286 339
#     4  12  25  38  53  79 117 157 195 236 287 340
#     4   9  19  37  59  82 114 153 189 233 292 347
#     4  10  22  39  60  87 118 152 193 243 297 354
#     4   9  19  36  59  87 117 153 195 236 289 356
#     4   9  20  40  62  85 116 158 198 238 296 358
#     4  10  21  36  55  83 115 149 191 242 285 330
#
# _framework density 19.538374999999998
#
# number of rings (size 3 to 8) (size 9 to 14) (size 15 to 20)
#    0.000    2.167    0.000    3.750    2.333    5.667 
#    0.000    1.667    0.000    0.000    0.000    0.000 
#    0.000    0.000    0.000    0.000    0.000    0.000 
#
# Total GULP energy -297432.735291 kJ/mol
# GULP energy per Si atom -12393.030637 kJ/mol
# Density = 1.949390 g / cm^3
# Si number density = 19.538375 Si / 1000 Ang^3
#
#
#
# Elastic Constant Matrix: (Units=GPa)
#
#
# Indices 1 2 3 4 5 6 
#
# 1 176.0216 50.5455 81.3906 0.0000 0.0000 0.0000
# 2 50.5455 70.8686 34.0825 0.0000 0.0000 0.0000
# 3 81.3906 34.0825 100.6103 0.0000 0.0000 0.0000
# 4 0.0000 0.0000 0.0000 32.2720 0.0000 0.0000
# 5 0.0000 0.0000 0.0000 0.0000 29.8996 0.0000
# 6 0.0000 0.0000 0.0000 0.0000 0.0000 30.5869
#
#
#
# Elastic Compliance Matrix: (Units=1/GPa)
#
#
# Indices 1 2 3 4 5 6 
#
# 1 0.009873 -0.003824 -0.006692 0.000000 0.000000 0.000000
# 2 -0.003824 0.018338 -0.003119 0.000000 0.000000 0.000000
# 3 -0.006692 -0.003119 0.016409 0.000000 0.000000 0.000000
# 4 0.000000 0.000000 0.000000 0.030987 0.000000 0.000000
# 5 0.000000 0.000000 0.000000 0.000000 0.033445 0.000000
# 6 0.000000 0.000000 0.000000 0.000000 0.000000 0.032694
#
#
# Mechanical properties :
#
#
# Convention : Reuss Voigt Hill
#
# Bulk Modulus (GPa) = 57.63141 75.50419 66.56780
# Shear Modulus (GPa) = 28.60428 30.65048 29.62738
#
# Velocity S-wave (km/s) = 3.83038 3.96502 3.89828
# Velocity P-wave (km/s) = 7.00878 7.72592 7.37607
#
# Compressibility (1/GPa) = 0.01735165
#
# Stress axis : x y z
#
# Youngs Moduli (GPa) = 101.28214 54.53250 60.94042
#
# Poissons Ratio (x) = 0.20851 0.40781
# Poissons Ratio (y) = 0.38727 0.19006
# Poissons Ratio (z) = 0.67778 0.17008
#
# Static dielectric constant tensor:
#      x y z
#    x 3.728010 0.000000 0.000000 
#    y 0.000000 3.788600 0.000000 
#    z 0.000000 0.000000 3.596170 
# 
# 
# High freq. dielectric constant tensor:
#      x y z
#    x 1.773740 0.000000 0.000000 
#    y 0.000000 1.750010 0.000000 
#    z 0.000000 0.000000 1.754080 
# 
# From -- ./inp_files/15019.got.cif
#   From: 2010.03.12/outbox.cif.g09.slc.cpg/sg38_8_cif.got.tgz:15019.got - 2010.04.14 02:38:36.
