data_PCOD8179752
_publ_section_title
;
Structure prediction by ZEFSAII (Michael W. Deem and Ramdas Pophale) SiO2 
 PCOD8179752
Probable space group: A M M 2
;
_chemical_formula_sum "Si O2"
_cell_formula_units_Z 64
_cell_length_a 17.950377
_cell_length_b 13.794599
_cell_length_c 13.215402
_cell_angle_alpha 90.000000
_cell_angle_beta 90.000000
_cell_angle_gamma 90.000000
_cell_volume 3272.374751
_symmetry_space_group_name_H-M "A M M 2"
_symmetry_group_IT_number 38
_symmetry_cell_setting 'orthorhombic'
loop_
_space_group_symop_operation_xyz
x,y,z
-x,-y,z
-x,y,z
x,-y,z
x,1/2+y,1/2+z
-x,1/2-y,1/2+z
-x,1/2+y,1/2+z
x,1/2-y,1/2+z
loop_
_atom_site_type_symbol
_atom_site_label
_atom_site_fract_x
_atom_site_fract_y
_atom_site_fract_z
Si Si1 0.582306 0.107513 0.682400
Si Si2 0.303306 0.237899 0.948308
Si Si3 0.582387 0.691476 0.594843
Si Si4 0.914005 0.612516 0.937134
Si Si5 0.659496 0.890320 0.289460
Si Si6 0.739383 0.889951 0.779543
Si Si7 0.830230 0.890096 0.234021
Si Si8 0.179370 0.712954 0.101664
O O1 0.500000 0.114218 0.736534
O O2 0.585368 0.190889 0.598091
O O3 0.651197 0.125130 0.757799
O O4 0.591574 0.000000 0.632981
O O5 0.347123 0.321760 0.887127
O O6 0.247860 0.174869 0.878670
O O7 0.362528 0.165161 0.002654
O O8 0.253018 0.285172 0.034256
O O9 0.500000 0.653659 0.568693
O O10 0.604634 0.645355 0.701762
O O11 0.899213 0.500000 0.957515
O O12 0.869131 0.645534 0.837432
O O13 0.000000 0.636038 0.917962
O O14 0.887838 0.668540 0.037232
O O15 0.742321 0.884275 0.246824
O O16 0.638791 0.000000 0.320795
O O17 0.796818 0.855250 0.694520
O O18 0.759004 0.000000 0.803998
O O19 0.849775 0.817221 0.142348
O O20 0.855755 0.000000 0.206458
#
# Coordination Sequence:
#
# PCOD8179752 Si02
#       8
#     8   8   8   8   8   8   8   8
#     4   9  17  32  53  75 104 142 185 236 290 340
#     4  12  21  37  55  90 111 151 197 246 294 353
#     4  11  23  39  58  81 118 156 197 252 308 359
#     4  10  22  39  62  94 126 156 194 241 296 357
#     4  11  22  39  60  85 116 153 200 253 302 350
#     4  11  22  35  55  83 113 148 190 242 291 346
#     4  10  20  37  62  90 123 159 197 246 292 346
#     4  12  20  38  61  90 119 153 197 237 291 350
#
# _framework density 19.557662000000001
#
# number of rings (size 3 to 8) (size 9 to 14) (size 15 to 20)
#    0.000    1.250    6.250    0.375    0.000    3.750 
#    0.000    0.000    0.000    0.000    0.000    0.000 
#    0.000    0.000    0.000    0.000    0.000    0.000 
#
# Total GULP energy -396699.869031 kJ/mol
# GULP energy per Si atom -12396.870907 kJ/mol
# Density = 1.951315 g / cm^3
# Si number density = 19.557662 Si / 1000 Ang^3
#
#
#
# Elastic Constant Matrix: (Units=GPa)
#
#
# Indices 1 2 3 4 5 6 
#
# 1 65.5957 17.1029 21.0648 0.0000 0.0000 0.0000
# 2 17.1029 92.9282 41.4799 0.0000 0.0000 0.0000
# 3 21.0648 41.4799 97.8661 0.0000 0.0000 0.0000
# 4 0.0000 0.0000 0.0000 20.8280 0.0000 0.0000
# 5 0.0000 0.0000 0.0000 0.0000 25.3368 0.0000
# 6 0.0000 0.0000 0.0000 0.0000 0.0000 19.6009
#
#
#
# Elastic Compliance Matrix: (Units=1/GPa)
#
#
# Indices 1 2 3 4 5 6 
#
# 1 0.016618 -0.001803 -0.002813 0.000000 0.000000 0.000000
# 2 -0.001803 0.013467 -0.005320 0.000000 0.000000 0.000000
# 3 -0.002813 -0.005320 0.013078 0.000000 0.000000 0.000000
# 4 0.000000 0.000000 0.000000 0.048012 0.000000 0.000000
# 5 0.000000 0.000000 0.000000 0.000000 0.039468 0.000000
# 6 0.000000 0.000000 0.000000 0.000000 0.000000 0.051018
#
#
# Mechanical properties :
#
#
# Convention : Reuss Voigt Hill
#
# Bulk Modulus (GPa) = 42.93219 46.18725 44.55972
# Shear Modulus (GPa) = 23.88933 24.93596 24.41264
#
# Velocity S-wave (km/s) = 3.49876 3.57458 3.53688
# Velocity P-wave (km/s) = 6.19040 6.37997 6.28590
#
# Compressibility (1/GPa) = 0.02329255
#
# Stress axis : x y z
#
# Youngs Moduli (GPa) = 60.17478 74.25284 76.46241
#
# Poissons Ratio (x) = 0.13388 0.21507
# Poissons Ratio (y) = 0.10849 0.40678
# Poissons Ratio (z) = 0.16926 0.39503
#
# Static dielectric constant tensor:
#      x y z
#    x 3.449360 0.000000 0.000000 
#    y 0.000000 3.792490 0.000000 
#    z 0.000000 0.000000 3.482220 
# 
# 
# High freq. dielectric constant tensor:
#      x y z
#    x 1.744430 0.000000 0.000000 
#    y 0.000000 1.766360 0.000000 
#    z 0.000000 0.000000 1.749020 
# 
# From -- ./inp_files/10608.got.cif
#   From: 2010.03.12/outbox.cif.g09.slc.cpg/sg38_6_cif.got.tgz:10608.got - 2010.04.14 02:38:36.
