data_PCOD8179495
_publ_section_title
;
Structure prediction by ZEFSAII (Michael W. Deem and Ramdas Pophale) SiO2 
 PCOD8179495
Probable space group: A M M 2
;
_chemical_formula_sum "Si O2"
_cell_formula_units_Z 64
_cell_length_a 8.773630
_cell_length_b 17.817359
_cell_length_c 20.587504
_cell_angle_alpha 90.000000
_cell_angle_beta 90.000000
_cell_angle_gamma 90.000000
_cell_volume 3218.298647
_symmetry_space_group_name_H-M "A M M 2"
_symmetry_group_IT_number 38
_symmetry_cell_setting 'orthorhombic'
loop_
_space_group_symop_operation_xyz
x,y,z
-x,-y,z
-x,y,z
x,-y,z
x,1/2+y,1/2+z
-x,1/2-y,1/2+z
-x,1/2+y,1/2+z
x,1/2-y,1/2+z
loop_
_atom_site_type_symbol
_atom_site_label
_atom_site_fract_x
_atom_site_fract_y
_atom_site_fract_z
Si Si1 0.180601 0.169348 0.458700
Si Si2 0.322454 0.167132 0.706283
Si Si3 0.675421 0.087523 0.839854
Si Si4 0.676713 0.587536 0.586268
Si Si5 0.818065 0.414877 0.832003
Si Si6 0.176217 0.912436 0.587389
Si Si7 0.821272 0.340784 0.461825
Si Si8 0.179648 0.670800 0.705569
O O1 0.247802 0.126320 0.395953
O O2 0.240888 0.130513 0.524240
O O3 0.235314 0.255113 0.457550
O O4 0.000000 0.163810 0.456145
O O5 0.500000 0.183323 0.700572
O O6 0.279182 0.127634 0.773333
O O7 0.273457 0.111965 0.648973
O O8 0.235887 0.244900 0.701372
O O9 0.500000 0.103266 0.859023
O O10 0.787582 0.119140 0.894119
O O11 0.705847 0.000000 0.830722
O O12 0.500000 0.605069 0.597271
O O13 0.712439 0.500000 0.588686
O O14 0.726123 0.617877 0.516747
O O15 0.773009 0.626986 0.641632
O O16 0.756309 0.500000 0.830416
O O17 0.753733 0.371045 0.769096
O O18 0.000000 0.414461 0.832218
O O19 0.000000 0.891942 0.599811
O O20 0.198433 0.000000 0.574724
O O21 0.000000 0.345884 0.477624
O O22 0.000000 0.672197 0.709278
#
# Coordination Sequence:
#
# PCOD8179495 Si02
#       8
#     8   8   8   8   8   8   8   8
#     4   9  18  33  53  81 116 148 180 225 283 343
#     4  11  23  39  59  82 113 155 197 237 290 352
#     4  10  22  40  59  80 111 152 195 240 293 352
#     4  11  24  41  60  83 115 155 195 236 288 352
#     4   9  17  31  54  83 113 145 181 225 280 338
#     4  10  20  35  58  86 114 147 189 238 290 343
#     4  11  22  36  58  87 117 150 191 241 293 344
#     4  11  22  37  59  87 117 148 190 243 293 342
#
# _framework density 19.886284
#
# number of rings (size 3 to 8) (size 9 to 14) (size 15 to 20)
#    0.000    1.750    0.000    4.500    0.000    8.500 
#    0.000    0.625    0.000    1.500    0.000    0.000 
#    0.000    0.000    0.000    0.000    0.000    0.000 
#
# Total GULP energy -396959.076222 kJ/mol
# GULP energy per Si atom -12404.971132 kJ/mol
# Density = 1.984102 g / cm^3
# Si number density = 19.886284 Si / 1000 Ang^3
#
#
#
# Elastic Constant Matrix: (Units=GPa)
#
#
# Indices 1 2 3 4 5 6 
#
# 1 39.0979 42.4244 31.1049 0.0000 0.0000 0.0000
# 2 42.4244 144.1341 56.0882 0.0000 0.0000 0.0000
# 3 31.1049 56.0882 139.9914 0.0000 0.0000 0.0000
# 4 0.0000 0.0000 0.0000 46.0563 0.0000 0.0000
# 5 0.0000 0.0000 0.0000 0.0000 26.7966 0.0000
# 6 0.0000 0.0000 0.0000 0.0000 0.0000 17.8061
#
#
#
# Elastic Compliance Matrix: (Units=1/GPa)
#
#
# Indices 1 2 3 4 5 6 
#
# 1 0.040310 -0.009927 -0.004979 0.000000 0.000000 0.000000
# 2 -0.009927 0.010664 -0.002067 0.000000 0.000000 0.000000
# 3 -0.004979 -0.002067 0.009078 0.000000 0.000000 0.000000
# 4 0.000000 0.000000 0.000000 0.021713 0.000000 0.000000
# 5 0.000000 0.000000 0.000000 0.000000 0.037318 0.000000
# 6 0.000000 0.000000 0.000000 0.000000 0.000000 0.056160
#
#
# Mechanical properties :
#
#
# Convention : Reuss Voigt Hill
#
# Bulk Modulus (GPa) = 38.30641 64.71759 51.51200
# Shear Modulus (GPa) = 22.94722 31.03887 26.99305
#
# Velocity S-wave (km/s) = 3.40063 3.95500 3.68825
# Velocity P-wave (km/s) = 5.89267 7.31236 6.64056
#
# Compressibility (1/GPa) = 0.02610529
#
# Stress axis : x y z
#
# Youngs Moduli (GPa) = 24.80786 93.77080 110.15953
#
# Poissons Ratio (x) = 0.93088 0.54849
# Poissons Ratio (y) = 0.24627 0.22770
# Poissons Ratio (z) = 0.12352 0.19382
#
# Static dielectric constant tensor:
#      x y z
#    x 3.448660 0.000000 0.000000 
#    y 0.000000 4.042660 0.000000 
#    z 0.000000 0.000000 3.815090 
# 
# 
# High freq. dielectric constant tensor:
#      x y z
#    x 1.750530 0.000000 0.000000 
#    y 0.000000 1.795280 0.000000 
#    z 0.000000 0.000000 1.794460 
# 
# From -- ./inp_files/20090.got.cif
#   From: 2010.03.12/outbox.cif.g09.slc.cpg/sg38_11_cif.got.tgz:20090.got - 2010.04.14 02:38:36.
