data_PCOD8179449
_publ_section_title
;
Structure prediction by ZEFSAII (Michael W. Deem and Ramdas Pophale) SiO2 
 PCOD8179449
Probable space group: A M M 2
;
_chemical_formula_sum "Si O2"
_cell_formula_units_Z 48
_cell_length_a 8.987383
_cell_length_b 9.342909
_cell_length_c 30.990731
_cell_angle_alpha 90.000000
_cell_angle_beta 90.000000
_cell_angle_gamma 90.000000
_cell_volume 2602.239045
_symmetry_space_group_name_H-M "A M M 2"
_symmetry_group_IT_number 38
_symmetry_cell_setting 'orthorhombic'
loop_
_space_group_symop_operation_xyz
x,y,z
-x,-y,z
-x,y,z
x,-y,z
x,1/2+y,1/2+z
-x,1/2-y,1/2+z
-x,1/2+y,1/2+z
x,1/2-y,1/2+z
loop_
_atom_site_type_symbol
_atom_site_label
_atom_site_fract_x
_atom_site_fract_y
_atom_site_fract_z
Si Si1 0.826329 0.833777 0.796950
Si Si2 0.332355 0.829837 0.711914
Si Si3 0.824530 0.334975 0.125423
Si Si4 0.673691 0.667325 0.548749
Si Si5 0.827545 0.668230 0.973796
Si Si6 0.176536 0.842101 0.377337
O O1 0.744250 0.768582 0.755132
O O2 0.760641 0.761297 0.840177
O O3 0.000000 0.802430 0.790985
O O4 0.792558 0.000000 0.802002
O O5 0.500000 0.771409 0.709347
O O6 0.243947 0.776065 0.669993
O O7 0.327305 0.000000 0.713524
O O8 0.778755 0.500000 0.117062
O O9 0.764101 0.238347 0.087274
O O10 0.000000 0.318562 0.128333
O O11 0.500000 0.695414 0.556069
O O12 0.711381 0.500000 0.547071
O O13 0.723124 0.738871 0.504220
O O14 0.801424 0.500000 0.982011
O O15 0.779036 0.710981 0.925145
O O16 0.000000 0.706156 0.982508
O O17 0.000000 0.847997 0.375083
O O18 0.242559 0.000000 0.369133
#
# Coordination Sequence:
#
# PCOD8179449 Si02
#       6
#     8   8   8   8   8   8
#     4   9  16  27  46  72  99 128 166 208 245 286
#     4   9  17  30  49  73 101 133 167 204 248 296
#     4  10  20  35  57  81 101 127 169 215 254 298
#     4  11  24  38  51  73 106 138 167 204 253 307
#     4   9  18  34  56  79 101 130 172 216 254 298
#     4   8  15  29  49  73 100 128 161 204 250 294
#
# _framework density 18.445653
#
# number of rings (size 3 to 8) (size 9 to 14) (size 15 to 20)
#    0.000    2.667    0.000    3.000    0.000    7.333 
#    0.000    3.333    0.000    6.500    0.000    0.000 
#    0.000    0.000    0.000    0.000    0.000    0.000 
#
# Total GULP energy -297571.254349 kJ/mol
# GULP energy per Si atom -12398.802265 kJ/mol
# Density = 1.840367 g / cm^3
# Si number density = 18.445653 Si / 1000 Ang^3
#
#
#
# Elastic Constant Matrix: (Units=GPa)
#
#
# Indices 1 2 3 4 5 6 
#
# 1 66.8396 36.0773 51.6888 0.0000 0.0000 0.0000
# 2 36.0773 60.9175 59.6649 0.0000 0.0000 0.0000
# 3 51.6888 59.6649 171.1469 0.0000 0.0000 0.0000
# 4 0.0000 0.0000 0.0000 31.6389 0.0000 0.0000
# 5 0.0000 0.0000 0.0000 0.0000 7.5292 0.0000
# 6 0.0000 0.0000 0.0000 0.0000 0.0000 21.0120
#
#
#
# Elastic Compliance Matrix: (Units=1/GPa)
#
#
# Indices 1 2 3 4 5 6 
#
# 1 0.023201 -0.010443 -0.003366 0.000000 0.000000 0.000000
# 2 -0.010443 0.029628 -0.007175 0.000000 0.000000 0.000000
# 3 -0.003366 -0.007175 0.009361 0.000000 0.000000 0.000000
# 4 0.000000 0.000000 0.000000 0.031607 0.000000 0.000000
# 5 0.000000 0.000000 0.000000 0.000000 0.132817 0.000000
# 6 0.000000 0.000000 0.000000 0.000000 0.000000 0.047592
#
#
# Mechanical properties :
#
#
# Convention : Reuss Voigt Hill
#
# Bulk Modulus (GPa) = 49.45360 65.97399 57.71380
# Shear Modulus (GPa) = 15.48395 22.13422 18.80908
#
# Velocity S-wave (km/s) = 2.90045 3.46782 3.19674
# Velocity P-wave (km/s) = 6.17134 7.20268 6.70687
#
# Compressibility (1/GPa) = 0.02022097
#
# Stress axis : x y z
#
# Youngs Moduli (GPa) = 43.10076 33.75215 106.82784
#
# Poissons Ratio (x) = 0.35249 0.35962
# Poissons Ratio (y) = 0.45012 0.76646
# Poissons Ratio (z) = 0.14509 0.24216
#
# Static dielectric constant tensor:
#      x y z
#    x 3.265980 0.000000 0.000000 
#    y 0.000000 3.272280 0.000000 
#    z 0.000000 0.000000 3.760410 
# 
# 
# High freq. dielectric constant tensor:
#      x y z
#    x 1.700530 0.000000 0.000000 
#    y 0.000000 1.689260 0.000000 
#    z 0.000000 0.000000 1.734980 
# 
# From -- ./inp_files/24286.got.cif
#   From: 2010.03.12/outbox.cif.g09.slc.cpg/sg38_13_cif.got.tgz:24286.got - 2010.04.14 02:38:36.
