data_PCOD8179942
_publ_section_title
;
Structure prediction by ZEFSAII (Michael W. Deem and Ramdas Pophale) SiO2 
 PCOD8179942
Probable space group: A M M 2
;
_chemical_formula_sum "Si O2"
_cell_formula_units_Z 64
_cell_length_a 9.009019
_cell_length_b 33.184127
_cell_length_c 11.522851
_cell_angle_alpha 90.000000
_cell_angle_beta 90.000000
_cell_angle_gamma 90.000000
_cell_volume 3444.830406
_symmetry_space_group_name_H-M "A M M 2"
_symmetry_group_IT_number 38
_symmetry_cell_setting 'orthorhombic'
loop_
_space_group_symop_operation_xyz
x,y,z
-x,-y,z
-x,y,z
x,-y,z
x,1/2+y,1/2+z
-x,1/2-y,1/2+z
-x,1/2+y,1/2+z
x,1/2-y,1/2+z
loop_
_atom_site_type_symbol
_atom_site_label
_atom_site_fract_x
_atom_site_fract_y
_atom_site_fract_z
Si Si1 0.175719 0.119521 0.842730
Si Si2 0.167412 0.387292 0.864588
Si Si3 0.828509 0.653315 0.096732
Si Si4 0.169253 0.955120 0.196830
Si Si5 0.333724 0.678248 0.737804
Si Si6 0.173508 0.807372 0.007139
Si Si7 0.668453 0.225171 0.469064
Si Si8 0.675266 0.046870 0.964374
O O1 0.232245 0.135797 0.717836
O O2 0.252871 0.076609 0.869143
O O3 0.000000 0.112399 0.842405
O O4 0.224238 0.152979 0.936812
O O5 0.189163 0.432637 0.819792
O O6 0.291671 0.363903 0.793933
O O7 0.000000 0.371773 0.835678
O O8 0.195716 0.382274 0.001884
O O9 0.000000 0.665321 0.109647
O O10 0.745562 0.694031 0.057757
O O11 0.000000 0.952023 0.152711
O O12 0.218396 0.000000 0.226695
O O13 0.269264 0.938531 0.091307
O O14 0.500000 0.675904 0.685913
O O15 0.213962 0.687792 0.640796
O O16 0.323094 0.711600 0.836651
O O17 0.000000 0.800485 0.992728
O O18 0.254581 0.768071 0.961331
O O19 0.500000 0.229824 0.512807
O O20 0.500000 0.051654 0.958562
O O21 0.722372 0.000000 0.941375
#
# Coordination Sequence:
#
# PCOD8179942 Si02
#       8
#     8   8   8   8   8   8   8   8
#     4  10  22  38  56  82 110 144 188 229 274 328
#     4   9  17  32  54  77 104 138 175 217 266 321
#     4   9  19  37  57  78 107 144 184 225 272 327
#     4   9  17  30  51  79 109 139 173 219 273 326
#     4  10  21  36  53  76 104 135 174 218 265 319
#     4  11  23  36  54  79 108 140 179 226 272 324
#     4  10  22  38  55  78 106 139 179 223 274 326
#     4  10  21  36  55  81 112 146 183 226 278 330
#
# _framework density 18.578564
#
# number of rings (size 3 to 8) (size 9 to 14) (size 15 to 20)
#    0.000    2.250    0.000    2.250    1.750    7.250 
#    0.000    0.625    0.000    2.250    0.000    1.750 
#    0.000    0.000    0.000    0.000    0.000    0.000 
#
# Total GULP energy -396712.068989 kJ/mol
# GULP energy per Si atom -12397.252156 kJ/mol
# Density = 1.853628 g / cm^3
# Si number density = 18.578564 Si / 1000 Ang^3
#
#
#
# Elastic Constant Matrix: (Units=GPa)
#
#
# Indices 1 2 3 4 5 6 
#
# 1 72.1143 47.4780 45.6194 0.0000 0.0000 0.0000
# 2 47.4780 106.8425 57.3074 0.0000 0.0000 0.0000
# 3 45.6194 57.3074 79.0806 0.0000 0.0000 0.0000
# 4 0.0000 0.0000 0.0000 16.3524 0.0000 0.0000
# 5 0.0000 0.0000 0.0000 0.0000 9.7716 0.0000
# 6 0.0000 0.0000 0.0000 0.0000 0.0000 26.9064
#
#
#
# Elastic Compliance Matrix: (Units=1/GPa)
#
#
# Indices 1 2 3 4 5 6 
#
# 1 0.023466 -0.005181 -0.009783 0.000000 0.000000 0.000000
# 2 -0.005181 0.016454 -0.008936 0.000000 0.000000 0.000000
# 3 -0.009783 -0.008936 0.024764 0.000000 0.000000 0.000000
# 4 0.000000 0.000000 0.000000 0.061153 0.000000 0.000000
# 5 0.000000 0.000000 0.000000 0.000000 0.102337 0.000000
# 6 0.000000 0.000000 0.000000 0.000000 0.000000 0.037166
#
#
# Mechanical properties :
#
#
# Convention : Reuss Voigt Hill
#
# Bulk Modulus (GPa) = 59.21738 62.09413 60.65576
# Shear Modulus (GPa) = 15.68539 17.78159 16.73349
#
# Velocity S-wave (km/s) = 2.90879 3.09706 3.00440
# Velocity P-wave (km/s) = 6.57455 6.80324 6.68987
#
# Compressibility (1/GPa) = 0.01688693
#
# Stress axis : x y z
#
# Youngs Moduli (GPa) = 42.61457 60.77385 40.38105
#
# Poissons Ratio (x) = 0.31484 0.39504
# Poissons Ratio (y) = 0.22077 0.36083
# Poissons Ratio (z) = 0.41689 0.54305
#
# Static dielectric constant tensor:
#      x y z
#    x 3.570680 0.000000 0.000000 
#    y 0.000000 3.467110 0.000000 
#    z 0.000000 0.000000 3.675470 
# 
# 
# High freq. dielectric constant tensor:
#      x y z
#    x 1.722820 0.000000 0.000000 
#    y 0.000000 1.719980 0.000000 
#    z 0.000000 0.000000 1.715950 
# 
# From -- ./inp_files/8665.got.cif
#   From: 2010.03.12/outbox.cif.g09.slc.cpg/sg38_5_cif.got.tgz:8665.got - 2010.04.14 02:38:36.
