data_PCOD8179288
_publ_section_title
;
Structure prediction by ZEFSAII (Michael W. Deem and Ramdas Pophale) SiO2 
 PCOD8179288
Probable space group: A M M 2
;
_chemical_formula_sum "Si O2"
_cell_formula_units_Z 56
_cell_length_a 13.775560
_cell_length_b 14.843024
_cell_length_c 12.875027
_cell_angle_alpha 90.000000
_cell_angle_beta 90.000000
_cell_angle_gamma 90.000000
_cell_volume 2632.569230
_symmetry_space_group_name_H-M "A M M 2"
_symmetry_group_IT_number 38
_symmetry_cell_setting 'orthorhombic'
loop_
_space_group_symop_operation_xyz
x,y,z
-x,-y,z
-x,y,z
x,-y,z
x,1/2+y,1/2+z
-x,1/2-y,1/2+z
-x,1/2+y,1/2+z
x,1/2-y,1/2+z
loop_
_atom_site_type_symbol
_atom_site_label
_atom_site_fract_x
_atom_site_fract_y
_atom_site_fract_z
Si Si1 0.802511 0.341739 0.081040
Si Si2 0.886812 0.206132 0.366238
Si Si3 0.260638 0.188778 0.203462
Si Si4 0.611225 0.602015 0.543265
Si Si5 0.393040 0.399292 0.990556
Si Si6 0.113996 0.901726 0.791505
Si Si7 0.391135 0.771294 0.857963
O O1 0.797056 0.236935 0.111003
O O2 0.694157 0.382213 0.070138
O O3 0.855920 0.396870 0.170763
O O4 0.865329 0.340629 0.975925
O O5 0.819698 0.150349 0.284041
O O6 0.853574 0.312492 0.357280
O O7 0.000000 0.194362 0.338680
O O8 0.328300 0.113655 0.150061
O O9 0.324145 0.270465 0.256287
O O10 0.500000 0.628145 0.568426
O O11 0.620790 0.500000 0.505043
O O12 0.650023 0.664802 0.449504
O O13 0.500000 0.384820 0.044085
O O14 0.385032 0.500000 0.945562
O O15 0.384412 0.332516 0.893578
O O16 0.000000 0.903913 0.795882
O O17 0.152849 0.000000 0.834976
O O18 0.500000 0.801336 0.828829
#
# Coordination Sequence:
#
# PCOD8179288 Si02
#       7
#     8   8   8   8   8   8   8
#     4  11  20  36  58  83 117 153 191 240 294 350
#     4  10  21  37  58  84 115 153 194 241 303 356
#     4  11  20  36  58  86 114 155 195 240 290 347
#     4  10  21  38  61  89 122 162 201 237 286 351
#     4  10  20  34  55  82 113 150 191 235 285 342
#     4   9  19  36  60  89 116 146 192 243 291 354
#     4  10  20  37  58  83 118 155 196 241 287 345
#
# _framework density 21.271995
#
# number of rings (size 3 to 8) (size 9 to 14) (size 15 to 20)
#    0.000    1.857    2.857    1.286    0.000    1.714 
#    0.000    8.571    0.000    3.857    0.000    0.000 
#    0.000    0.000    0.000    0.000    0.000    0.000 
#
# Total GULP energy -346893.141957 kJ/mol
# GULP energy per Si atom -12389.040784 kJ/mol
# Density = 2.122358 g / cm^3
# Si number density = 21.271995 Si / 1000 Ang^3
#
#
#
# Elastic Constant Matrix: (Units=GPa)
#
#
# Indices 1 2 3 4 5 6 
#
# 1 62.3113 8.8417 22.0842 0.0000 0.0000 0.0000
# 2 8.8417 78.9381 16.5164 0.0000 0.0000 0.0000
# 3 22.0842 16.5164 65.3876 0.0000 0.0000 0.0000
# 4 0.0000 0.0000 0.0000 15.4321 0.0000 0.0000
# 5 0.0000 0.0000 0.0000 0.0000 20.4215 0.0000
# 6 0.0000 0.0000 0.0000 0.0000 0.0000 18.2685
#
#
#
# Elastic Compliance Matrix: (Units=1/GPa)
#
#
# Indices 1 2 3 4 5 6 
#
# 1 0.018278 -0.000798 -0.005972 0.000000 0.000000 0.000000
# 2 -0.000798 0.013410 -0.003118 0.000000 0.000000 0.000000
# 3 -0.005972 -0.003118 0.018098 0.000000 0.000000 0.000000
# 4 0.000000 0.000000 0.000000 0.064800 0.000000 0.000000
# 5 0.000000 0.000000 0.000000 0.000000 0.048968 0.000000
# 6 0.000000 0.000000 0.000000 0.000000 0.000000 0.054739
#
#
# Mechanical properties :
#
#
# Convention : Reuss Voigt Hill
#
# Bulk Modulus (GPa) = 33.32097 33.50241 33.41169
# Shear Modulus (GPa) = 20.15548 21.43739 20.79643
#
# Velocity S-wave (km/s) = 3.08151 3.17799 3.13012
# Velocity P-wave (km/s) = 5.32533 5.40832 5.36699
#
# Compressibility (1/GPa) = 0.03001113
#
# Stress axis : x y z
#
# Youngs Moduli (GPa) = 54.71004 74.57200 55.25508
#
# Poissons Ratio (x) = 0.05949 0.32997
# Poissons Ratio (y) = 0.04365 0.17227
# Poissons Ratio (z) = 0.32672 0.23250
#
# Static dielectric constant tensor:
#      x y z
#    x 4.042060 0.000000 0.000000 
#    y 0.000000 3.918120 0.000000 
#    z 0.000000 0.000000 3.676910 
# 
# 
# High freq. dielectric constant tensor:
#      x y z
#    x 1.846630 0.000000 0.000000 
#    y 0.000000 1.814190 0.000000 
#    z 0.000000 0.000000 1.814580 
# 
# From -- ./inp_files/10106.got.cif
#   From: 2010.03.12/outbox.cif.g09.slc.cpg/sg38_6_cif.got.tgz:10106.got - 2010.04.14 02:38:36.
