data_PCOD8179232
_publ_section_title
;
Structure prediction by ZEFSAII (Michael W. Deem and Ramdas Pophale) SiO2 
 PCOD8179232
Probable space group: A M M 2
;
_chemical_formula_sum "Si O2"
_cell_formula_units_Z 64
_cell_length_a 8.892612
_cell_length_b 19.427915
_cell_length_c 20.708663
_cell_angle_alpha 90.000000
_cell_angle_beta 90.000000
_cell_angle_gamma 90.000000
_cell_volume 3577.730301
_symmetry_space_group_name_H-M "A M M 2"
_symmetry_group_IT_number 38
_symmetry_cell_setting 'orthorhombic'
loop_
_space_group_symop_operation_xyz
x,y,z
-x,-y,z
-x,y,z
x,-y,z
x,1/2+y,1/2+z
-x,1/2-y,1/2+z
-x,1/2+y,1/2+z
x,1/2-y,1/2+z
loop_
_atom_site_type_symbol
_atom_site_label
_atom_site_fract_x
_atom_site_fract_y
_atom_site_fract_z
Si Si1 0.676958 0.287431 0.762400
Si Si2 0.323435 0.707182 0.134065
Si Si3 0.824248 0.077909 0.586616
Si Si4 0.673984 0.578015 0.950174
Si Si5 0.676031 0.422419 0.553086
Si Si6 0.823266 0.297639 0.891560
Si Si7 0.678527 0.425205 0.699440
Si Si8 0.823166 0.211105 0.016630
O O1 0.500000 0.286877 0.776700
O O2 0.718534 0.237529 0.703589
O O3 0.766395 0.262056 0.825545
O O4 0.736953 0.364187 0.744955
O O5 0.500000 0.707487 0.122220
O O6 0.261217 0.629342 0.134527
O O7 0.250738 0.751959 0.077653
O O8 0.768005 0.091527 0.514574
O O9 0.000000 0.094094 0.588030
O O10 0.788696 0.000000 0.608678
O O11 0.500000 0.593861 0.964450
O O12 0.695201 0.500000 0.925267
O O13 0.738072 0.629059 0.896154
O O14 0.500000 0.405898 0.548386
O O15 0.709331 0.500000 0.528170
O O16 0.735094 0.414141 0.626370
O O17 0.765780 0.367382 0.509957
O O18 0.000000 0.310119 0.889168
O O19 0.775766 0.249537 0.951097
O O20 0.500000 0.423603 0.697198
O O21 0.734413 0.500000 0.725311
O O22 0.000000 0.212254 0.026539
#
# Coordination Sequence:
#
# PCOD8179232 Si02
#       8
#     8   8   8   8   8   8   8   8
#     4  10  21  36  54  79 108 143 185 226 270 320
#     4  11  21  35  58  84 109 141 184 230 276 325
#     4  10  20  34  54  82 114 144 177 223 278 331
#     4  10  20  34  54  79 107 145 189 227 267 320
#     4   9  17  32  56  83 109 138 174 221 273 321
#     4  11  24  38  52  76 111 150 185 224 276 327
#     4   8  14  28  50  75 105 138 172 211 258 314
#     4  11  22  35  54  80 111 146 182 223 273 324
#
# _framework density 17.888435999999999
#
# number of rings (size 3 to 8) (size 9 to 14) (size 15 to 20)
#    0.000    2.000    2.500    2.625    0.000    4.750 
#    0.000    1.250    0.000    0.750    0.000    0.000 
#    0.000    0.000    0.000    0.000    0.000    0.000 
#
# Total GULP energy -396801.794987 kJ/mol
# GULP energy per Si atom -12400.056093 kJ/mol
# Density = 1.784772 g / cm^3
# Si number density = 17.888436 Si / 1000 Ang^3
#
#
#
# Elastic Constant Matrix: (Units=GPa)
#
#
# Indices 1 2 3 4 5 6 
#
# 1 66.4031 49.0492 48.5904 0.0000 0.0000 0.0000
# 2 49.0492 116.0903 60.8477 0.0000 0.0000 0.0000
# 3 48.5904 60.8477 103.5061 0.0000 0.0000 0.0000
# 4 0.0000 0.0000 0.0000 22.0810 0.0000 0.0000
# 5 0.0000 0.0000 0.0000 0.0000 22.0304 0.0000
# 6 0.0000 0.0000 0.0000 0.0000 0.0000 29.7004
#
#
#
# Elastic Compliance Matrix: (Units=1/GPa)
#
#
# Indices 1 2 3 4 5 6 
#
# 1 0.026063 -0.006647 -0.008328 0.000000 0.000000 0.000000
# 2 -0.006647 0.014145 -0.005195 0.000000 0.000000 0.000000
# 3 -0.008328 -0.005195 0.016625 0.000000 0.000000 0.000000
# 4 0.000000 0.000000 0.000000 0.045288 0.000000 0.000000
# 5 0.000000 0.000000 0.000000 0.000000 0.045392 0.000000
# 6 0.000000 0.000000 0.000000 0.000000 0.000000 0.033670
#
#
# Mechanical properties :
#
#
# Convention : Reuss Voigt Hill
#
# Bulk Modulus (GPa) = 60.62981 66.99711 63.81346
# Shear Modulus (GPa) = 22.02449 23.26319 22.64384
#
# Velocity S-wave (km/s) = 3.51267 3.61010 3.56172
# Velocity P-wave (km/s) = 7.10061 7.41021 7.25706
#
# Compressibility (1/GPa) = 0.01649354
#
# Stress axis : x y z
#
# Youngs Moduli (GPa) = 38.36831 70.69411 60.15135
#
# Poissons Ratio (x) = 0.46991 0.50092
# Poissons Ratio (y) = 0.25504 0.31250
# Poissons Ratio (z) = 0.31952 0.36727
#
# Static dielectric constant tensor:
#      x y z
#    x 3.212900 0.000000 0.000000 
#    y 0.000000 3.642570 0.000000 
#    z 0.000000 0.000000 3.125610 
# 
# 
# High freq. dielectric constant tensor:
#      x y z
#    x 1.688060 0.000000 0.000000 
#    y 0.000000 1.699150 0.000000 
#    z 0.000000 0.000000 1.666590 
# 
# From -- ./inp_files/17205.got.cif
#   From: 2010.03.12/outbox.cif.g09.slc.cpg/sg38_9_cif.got.tgz:17205.got - 2010.04.14 02:38:36.
