data_PCOD8179049
_publ_section_title
;
Structure prediction by ZEFSAII (Michael W. Deem and Ramdas Pophale) SiO2 
 PCOD8179049
Probable space group: A M M 2
;
_chemical_formula_sum "Si O2"
_cell_formula_units_Z 56
_cell_length_a 8.979446
_cell_length_b 20.287220
_cell_length_c 15.602303
_cell_angle_alpha 90.000000
_cell_angle_beta 90.000000
_cell_angle_gamma 90.000000
_cell_volume 2842.240278
_symmetry_space_group_name_H-M "A M M 2"
_symmetry_group_IT_number 38
_symmetry_cell_setting 'orthorhombic'
loop_
_space_group_symop_operation_xyz
x,y,z
-x,-y,z
-x,y,z
x,-y,z
x,1/2+y,1/2+z
-x,1/2-y,1/2+z
-x,1/2+y,1/2+z
x,1/2-y,1/2+z
loop_
_atom_site_type_symbol
_atom_site_label
_atom_site_fract_x
_atom_site_fract_y
_atom_site_fract_z
Si Si1 0.175948 0.750702 0.654250
Si Si2 0.829799 0.925112 0.886680
Si Si3 0.671692 0.798344 0.316148
Si Si4 0.839710 0.927322 0.571307
Si Si5 0.326046 0.617172 0.217330
Si Si6 0.827424 0.788085 0.963660
Si Si7 0.668804 0.074250 0.413271
O O1 0.250837 0.703529 0.723914
O O2 0.228327 0.823065 0.680164
O O3 0.230864 0.733562 0.557677
O O4 0.000000 0.742941 0.661327
O O5 0.718141 0.907211 0.810575
O O6 0.804896 0.868031 0.957740
O O7 0.000000 0.922539 0.852943
O O8 0.794815 0.000000 0.920810
O O9 0.500000 0.776542 0.308601
O O10 0.741656 0.749107 0.386906
O O11 0.689233 0.875595 0.335592
O O12 0.724670 0.937566 0.649781
O O13 0.763650 0.892154 0.490104
O O14 0.000000 0.892767 0.593674
O O15 0.873041 0.000000 0.538002
O O16 0.500000 0.633380 0.215336
O O17 0.000000 0.769711 0.952597
O O18 0.500000 0.073062 0.446154
O O19 0.717378 0.000000 0.385646
#
# Coordination Sequence:
#
# PCOD8179049 Si02
#       7
#     8   8   8   8   8   8   8
#     4  11  23  39  60  86 117 155 200 248 303 361
#     4  10  21  39  62  86 117 159 203 251 309 368
#     4  11  22  37  60  89 118 153 195 247 303 358
#     4  10  20  33  51  78 112 150 190 232 286 350
#     4  12  23  35  54  84 116 151 195 245 302 360
#     4  10  22  40  62  87 118 159 202 250 303 362
#     4   9  19  36  56  80 114 154 195 241 295 353
#
# _framework density 19.702767999999999
#
# number of rings (size 3 to 8) (size 9 to 14) (size 15 to 20)
#    0.000    1.571    1.429    3.857    0.000    7.429 
#    0.000    0.714    0.000    0.857    0.000    0.000 
#    0.000    0.000    0.000    0.000    0.000    0.000 
#
# Total GULP energy -346889.840924 kJ/mol
# GULP energy per Si atom -12388.922890 kJ/mol
# Density = 1.965792 g / cm^3
# Si number density = 19.702768 Si / 1000 Ang^3
#
#
#
# Elastic Constant Matrix: (Units=GPa)
#
#
# Indices 1 2 3 4 5 6 
#
# 1 86.7288 26.2336 37.5491 0.0000 0.0000 0.0000
# 2 26.2336 101.6451 30.2408 0.0000 0.0000 0.0000
# 3 37.5491 30.2408 94.8650 0.0000 0.0000 0.0000
# 4 0.0000 0.0000 0.0000 36.1451 0.0000 0.0000
# 5 0.0000 0.0000 0.0000 0.0000 27.5788 0.0000
# 6 0.0000 0.0000 0.0000 0.0000 0.0000 16.0532
#
#
#
# Elastic Compliance Matrix: (Units=1/GPa)
#
#
# Indices 1 2 3 4 5 6 
#
# 1 0.014356 -0.002226 -0.004973 0.000000 0.000000 0.000000
# 2 -0.002226 0.011214 -0.002694 0.000000 0.000000 0.000000
# 3 -0.004973 -0.002694 0.013368 0.000000 0.000000 0.000000
# 4 0.000000 0.000000 0.000000 0.027666 0.000000 0.000000
# 5 0.000000 0.000000 0.000000 0.000000 0.036260 0.000000
# 6 0.000000 0.000000 0.000000 0.000000 0.000000 0.062293
#
#
# Mechanical properties :
#
#
# Convention : Reuss Voigt Hill
#
# Bulk Modulus (GPa) = 52.20882 52.36510 52.28696
# Shear Modulus (GPa) = 26.13317 28.56977 27.35147
#
# Velocity S-wave (km/s) = 3.64589 3.81207 3.72990
# Velocity P-wave (km/s) = 6.65425 6.78314 6.71901
#
# Compressibility (1/GPa) = 0.01915385
#
# Stress axis : x y z
#
# Youngs Moduli (GPa) = 69.65489 89.17395 74.80315
#
# Poissons Ratio (x) = 0.19848 0.37200
# Poissons Ratio (y) = 0.15503 0.20150
# Poissons Ratio (z) = 0.34640 0.24022
#
# Static dielectric constant tensor:
#      x y z
#    x 3.905300 0.000000 0.000000 
#    y 0.000000 3.870320 0.000000 
#    z 0.000000 0.000000 3.631380 
# 
# 
# High freq. dielectric constant tensor:
#      x y z
#    x 1.774490 0.000000 0.000000 
#    y 0.000000 1.775830 0.000000 
#    z 0.000000 0.000000 1.749400 
# 
# From -- ./inp_files/12353.got.cif
#   From: 2010.03.12/outbox.cif.g09.slc.cpg/sg38_7_cif.got.tgz:12353.got - 2010.04.14 02:38:36.
