data_PCOD8179558
_publ_section_title
;
Structure prediction by ZEFSAII (Michael W. Deem and Ramdas Pophale) SiO2 
 PCOD8179558
Probable space group: A M M 2
;
_chemical_formula_sum "Si O2"
_cell_formula_units_Z 48
_cell_length_a 8.530922
_cell_length_b 29.686892
_cell_length_c 10.090833
_cell_angle_alpha 90.000000
_cell_angle_beta 90.000000
_cell_angle_gamma 90.000000
_cell_volume 2555.569654
_symmetry_space_group_name_H-M "A M M 2"
_symmetry_group_IT_number 38
_symmetry_cell_setting 'orthorhombic'
loop_
_space_group_symop_operation_xyz
x,y,z
-x,-y,z
-x,y,z
x,-y,z
x,1/2+y,1/2+z
-x,1/2-y,1/2+z
-x,1/2+y,1/2+z
x,1/2-y,1/2+z
loop_
_atom_site_type_symbol
_atom_site_label
_atom_site_fract_x
_atom_site_fract_y
_atom_site_fract_z
Si Si1 0.816019 0.382618 0.243160
Si Si2 0.817143 0.120308 0.448404
Si Si3 0.183455 0.218278 0.724870
Si Si4 0.317859 0.216448 0.440522
Si Si5 0.681339 0.552033 0.746697
Si Si6 0.184152 0.551565 0.465499
O O1 0.763755 0.331403 0.273937
O O2 0.742787 0.417150 0.349552
O O3 0.000000 0.387945 0.256140
O O4 0.762479 0.395779 0.094576
O O5 0.721770 0.164724 0.408313
O O6 0.785439 0.080420 0.347224
O O7 0.000000 0.132981 0.449377
O O8 0.272590 0.230594 0.589431
O O9 0.221526 0.253351 0.838602
O O10 0.000000 0.218675 0.692068
O O11 0.500000 0.225258 0.417719
O O12 0.500000 0.562472 0.771611
O O13 0.722216 0.500000 0.771682
O O14 0.725840 0.565789 0.598099
O O15 0.219447 0.500000 0.426688
O O16 0.000000 0.559327 0.488890
#
# Coordination Sequence:
#
# PCOD8179558 Si02
#       6
#     8   8   8   8   8   8
#     4   8  17  33  54  79 104 132 172 221 265 309
#     4  10  20  36  57  80 106 139 179 221 269 325
#     4  10  20  37  57  78 108 146 185 225 272 327
#     4  11  22  37  56  81 111 142 180 227 277 326
#     4  10  21  36  52  75 109 144 178 219 266 317
#     4   9  17  32  54  78 104 136 176 221 267 316
#
# _framework density 18.782505
#
# number of rings (size 3 to 8) (size 9 to 14) (size 15 to 20)
#    0.000    2.333    0.000    4.000    0.000    3.000 
#    0.000   11.667    0.000    2.000    0.000    0.000 
#    0.000    0.000    0.000    0.000    0.000    0.000 
#
# Total GULP energy -297627.375523 kJ/mol
# GULP energy per Si atom -12401.140647 kJ/mol
# Density = 1.873975 g / cm^3
# Si number density = 18.782505 Si / 1000 Ang^3
#
#
#
# Elastic Constant Matrix: (Units=GPa)
#
#
# Indices 1 2 3 4 5 6 
#
# 1 42.1369 10.2461 11.7727 0.0000 0.0000 0.0000
# 2 10.2461 88.0657 79.9437 0.0000 0.0000 0.0000
# 3 11.7727 79.9437 112.8293 0.0000 0.0000 0.0000
# 4 0.0000 0.0000 0.0000 45.7424 0.0000 0.0000
# 5 0.0000 0.0000 0.0000 0.0000 21.3189 0.0000
# 6 0.0000 0.0000 0.0000 0.0000 0.0000 22.9097
#
#
#
# Elastic Compliance Matrix: (Units=1/GPa)
#
#
# Indices 1 2 3 4 5 6 
#
# 1 0.024514 -0.001486 -0.001505 0.000000 0.000000 0.000000
# 2 -0.001486 0.031914 -0.022457 0.000000 0.000000 0.000000
# 3 -0.001505 -0.022457 0.024932 0.000000 0.000000 0.000000
# 4 0.000000 0.000000 0.000000 0.021862 0.000000 0.000000
# 5 0.000000 0.000000 0.000000 0.000000 0.046907 0.000000
# 6 0.000000 0.000000 0.000000 0.000000 0.000000 0.043650
#
#
# Mechanical properties :
#
#
# Convention : Reuss Voigt Hill
#
# Bulk Modulus (GPa) = 32.82616 49.66187 41.24402
# Shear Modulus (GPa) = 19.62100 27.39884 23.50992
#
# Velocity S-wave (km/s) = 3.23560 3.82349 3.54176
# Velocity P-wave (km/s) = 5.61015 6.78159 6.22349
#
# Compressibility (1/GPa) = 0.03046351
#
# Stress axis : x y z
#
# Youngs Moduli (GPa) = 40.79308 31.33396 40.10937
#
# Poissons Ratio (x) = 0.04656 0.06036
# Poissons Ratio (y) = 0.06062 0.90075
# Poissons Ratio (z) = 0.06139 0.70368
#
# Static dielectric constant tensor:
#      x y z
#    x 3.287530 0.000000 0.000000 
#    y 0.000000 3.504220 0.000000 
#    z 0.000000 0.000000 3.530400 
# 
# 
# High freq. dielectric constant tensor:
#      x y z
#    x 1.720830 0.000000 0.000000 
#    y 0.000000 1.729090 0.000000 
#    z 0.000000 0.000000 1.735220 
# 
# From -- ./inp_files/3769.got.cif
#   From: 2010.03.12/outbox.cif.g09.slc.cpg/sg38_2_cif.got.tgz:3769.got - 2010.04.14 02:38:36.
