data_PCOD8179986
_publ_section_title
;
Structure prediction by ZEFSAII (Michael W. Deem and Ramdas Pophale) SiO2 
 PCOD8179986
Probable space group: A M M 2
;
_chemical_formula_sum "Si O2"
_cell_formula_units_Z 48
_cell_length_a 26.680594
_cell_length_b 9.083791
_cell_length_c 10.197144
_cell_angle_alpha 90.000000
_cell_angle_beta 90.000000
_cell_angle_gamma 90.000000
_cell_volume 2471.389402
_symmetry_space_group_name_H-M "A M M 2"
_symmetry_group_IT_number 38
_symmetry_cell_setting 'orthorhombic'
loop_
_space_group_symop_operation_xyz
x,y,z
-x,-y,z
-x,y,z
x,-y,z
x,1/2+y,1/2+z
-x,1/2-y,1/2+z
-x,1/2+y,1/2+z
x,1/2-y,1/2+z
loop_
_atom_site_type_symbol
_atom_site_label
_atom_site_fract_x
_atom_site_fract_y
_atom_site_fract_z
Si Si1 0.772930 0.670638 0.461580
Si Si2 0.888765 0.327787 0.471611
Si Si3 0.283198 0.828095 0.230057
Si Si4 0.057019 0.326289 0.208614
Si Si5 0.557623 0.829066 0.957338
Si Si6 0.387807 0.672194 0.191125
O O1 0.765990 0.500000 0.422664
O O2 0.830741 0.715623 0.468545
O O3 0.747150 0.771955 0.354458
O O4 0.748666 0.706117 0.601107
O O5 0.896400 0.500000 0.494644
O O6 0.914248 0.273823 0.338062
O O7 0.915542 0.243776 0.587001
O O8 0.335405 0.745224 0.223990
O O9 0.293816 0.000000 0.246566
O O10 0.059363 0.500000 0.193003
O O11 0.000000 0.269718 0.216056
O O12 0.500000 0.782588 0.971706
O O13 0.574094 0.793649 0.809239
O O14 0.566000 0.000000 0.990197
O O15 0.590468 0.735112 0.056757
O O16 0.379214 0.500000 0.172274
#
# Coordination Sequence:
#
# PCOD8179986 Si02
#       6
#     8   8   8   8   8   8
#     4  10  22  39  58  83 114 147 187 235 283 334
#     4  10  21  38  59  82 111 148 188 231 281 336
#     4  11  23  38  58  85 115 149 190 233 281 337
#     4  10  21  36  55  82 113 144 183 230 278 332
#     4  10  22  40  60  84 115 148 185 232 281 331
#     4  11  23  39  60  86 116 151 191 233 280 335
#
# _framework density 19.422272
#
# number of rings (size 3 to 8) (size 9 to 14) (size 15 to 20)
#    0.000    1.667    0.000    4.000    0.000   10.000 
#    0.000    0.000    0.000    0.000    0.000    0.000 
#    0.000    0.000    0.000    0.000    0.000    0.000 
#
# Total GULP energy -297742.603912 kJ/mol
# GULP energy per Si atom -12405.941830 kJ/mol
# Density = 1.937807 g / cm^3
# Si number density = 19.422272 Si / 1000 Ang^3
#
#
#
# Elastic Constant Matrix: (Units=GPa)
#
#
# Indices 1 2 3 4 5 6 
#
# 1 123.5903 38.9158 38.5884 0.0000 0.0000 0.0000
# 2 38.9158 61.7033 47.4049 0.0000 0.0000 0.0000
# 3 38.5884 47.4049 115.9438 0.0000 0.0000 0.0000
# 4 0.0000 0.0000 0.0000 29.0752 0.0000 0.0000
# 5 0.0000 0.0000 0.0000 0.0000 40.5670 0.0000
# 6 0.0000 0.0000 0.0000 0.0000 0.0000 32.6385
#
#
#
# Elastic Compliance Matrix: (Units=1/GPa)
#
#
# Indices 1 2 3 4 5 6 
#
# 1 0.010194 -0.005573 -0.001114 0.000000 0.000000 0.000000
# 2 -0.005573 0.026676 -0.009052 0.000000 0.000000 0.000000
# 3 -0.001114 -0.009052 0.012697 0.000000 0.000000 0.000000
# 4 0.000000 0.000000 0.000000 0.034394 0.000000 0.000000
# 5 0.000000 0.000000 0.000000 0.000000 0.024651 0.000000
# 6 0.000000 0.000000 0.000000 0.000000 0.000000 0.030639
#
#
# Mechanical properties :
#
#
# Convention : Reuss Voigt Hill
#
# Bulk Modulus (GPa) = 55.28517 61.22840 58.25678
# Shear Modulus (GPa) = 28.28740 32.21135 30.24938
#
# Velocity S-wave (km/s) = 3.82048 4.07686 3.95075
# Velocity P-wave (km/s) = 6.92734 7.33173 7.13240
#
# Compressibility (1/GPa) = 0.01808803
#
# Stress axis : x y z
#
# Youngs Moduli (GPa) = 98.09666 37.48700 78.76147
#
# Poissons Ratio (x) = 0.20893 0.08774
# Poissons Ratio (y) = 0.54673 0.71293
# Poissons Ratio (z) = 0.10928 0.33932
#
# Static dielectric constant tensor:
#      x y z
#    x 3.809620 0.000000 0.000000 
#    y 0.000000 3.543000 0.000000 
#    z 0.000000 0.000000 3.603690 
# 
# 
# High freq. dielectric constant tensor:
#      x y z
#    x 1.777100 0.000000 0.000000 
#    y 0.000000 1.754890 0.000000 
#    z 0.000000 0.000000 1.772000 
# 
# From -- ./inp_files/7028.got.cif
#   From: 2010.03.12/outbox.cif.g09.slc.cpg/sg38_4_cif.got.tgz:7028.got - 2010.04.14 02:38:36.
