data_PCOD8179572
_publ_section_title
;
Structure prediction by ZEFSAII (Michael W. Deem and Ramdas Pophale) SiO2 
 PCOD8179572
Probable space group: A M M 2
;
_chemical_formula_sum "Si O2"
_cell_formula_units_Z 64
_cell_length_a 24.282994
_cell_length_b 8.614765
_cell_length_c 14.972347
_cell_angle_alpha 90.000000
_cell_angle_beta 90.000000
_cell_angle_gamma 90.000000
_cell_volume 3132.099508
_symmetry_space_group_name_H-M "A M M 2"
_symmetry_group_IT_number 38
_symmetry_cell_setting 'orthorhombic'
loop_
_space_group_symop_operation_xyz
x,y,z
-x,-y,z
-x,y,z
x,-y,z
x,1/2+y,1/2+z
-x,1/2-y,1/2+z
-x,1/2+y,1/2+z
x,1/2-y,1/2+z
loop_
_atom_site_type_symbol
_atom_site_label
_atom_site_fract_x
_atom_site_fract_y
_atom_site_fract_z
Si Si1 0.436297 0.679151 0.318690
Si Si2 0.370926 0.678874 0.975196
Si Si3 0.562636 0.178503 0.132654
Si Si4 0.940900 0.678559 0.132693
Si Si5 0.747093 0.181289 0.969938
Si Si6 0.170447 0.819706 0.813674
Si Si7 0.059882 0.680783 0.823727
Si Si8 0.832541 0.181479 0.119198
O O1 0.500000 0.718770 0.336955
O O2 0.423351 0.500000 0.338367
O O3 0.399132 0.785462 0.381032
O O4 0.420851 0.716171 0.216696
O O5 0.379928 0.500000 0.999401
O O6 0.397668 0.784185 0.051205
O O7 0.306758 0.714582 0.968391
O O8 0.500000 0.212897 0.102541
O O9 0.570029 0.000000 0.160283
O O10 0.933632 0.500000 0.162280
O O11 0.941558 0.788746 0.218372
O O12 0.887092 0.732804 0.077888
O O13 0.000000 0.698555 0.081194
O O14 0.781162 0.228785 0.057950
O O15 0.731484 0.000000 0.971392
O O16 0.781103 0.223557 0.881274
O O17 0.112303 0.774628 0.861937
O O18 0.180001 0.728772 0.721218
O O19 0.169922 0.000000 0.791070
O O20 0.069462 0.500000 0.842428
O O21 0.000000 0.732082 0.864473
O O22 0.843421 0.000000 0.112983
#
# Coordination Sequence:
#
# PCOD8179572 Si02
#       8
#     8   8   8   8   8   8   8   8
#     4  10  21  39  64  93 125 159 194 236 286 339
#     4  12  25  39  60  88 119 158 199 241 289 340
#     4  10  21  39  64  93 125 159 194 236 286 339
#     4   9  16  27  47  76 107 138 173 217 272 334
#     4  10  24  43  58  77 110 150 193 238 283 336
#     4  10  20  36  58  80 105 141 182 229 283 335
#     4   9  16  27  47  76 107 138 173 217 272 334
#     4  10  20  36  58  80 105 141 182 229 283 335
#
# _framework density 20.433578000000001
#
# number of rings (size 3 to 8) (size 9 to 14) (size 15 to 20)
#    0.000    2.000    0.000    5.250    0.000    7.500 
#    0.000    3.125    0.000    3.750    0.000    0.000 
#    0.000    0.000    0.000    0.000    0.000    0.000 
#
# Total GULP energy -396705.078242 kJ/mol
# GULP energy per Si atom -12397.033695 kJ/mol
# Density = 2.038707 g / cm^3
# Si number density = 20.433578 Si / 1000 Ang^3
#
#
#
# Elastic Constant Matrix: (Units=GPa)
#
#
# Indices 1 2 3 4 5 6 
#
# 1 132.7006 39.9640 51.4800 0.0000 0.0000 0.0000
# 2 39.9640 64.2237 18.5516 0.0000 0.0000 0.0000
# 3 51.4800 18.5516 75.6986 0.0000 0.0000 0.0000
# 4 0.0000 0.0000 0.0000 26.8240 0.0000 0.0000
# 5 0.0000 0.0000 0.0000 0.0000 -105.0983 0.0000
# 6 0.0000 0.0000 0.0000 0.0000 0.0000 34.5673
#
#
#
# Elastic Compliance Matrix: (Units=1/GPa)
#
#
# Indices 1 2 3 4 5 6 
#
# 1 0.011743 -0.005381 -0.006667 0.000000 0.000000 0.000000
# 2 -0.005381 0.019223 -0.001051 0.000000 0.000000 0.000000
# 3 -0.006667 -0.001051 0.018002 0.000000 0.000000 0.000000
# 4 0.000000 0.000000 0.000000 0.037280 0.000000 0.000000
# 5 0.000000 0.000000 0.000000 0.000000 -0.009515 0.000000
# 6 0.000000 0.000000 0.000000 0.000000 0.000000 0.028929
#
#
# Mechanical properties :
#
#
# Convention : Reuss Voigt Hill
#
# Bulk Modulus (GPa) = 43.92086 54.73489 49.32787
# Shear Modulus (GPa) = 35.85495 2.10041 18.97768
#
# Velocity S-wave (km/s) = 4.19347 1.01496 3.05085
# Velocity P-wave (km/s) = 6.70731 5.31210 6.05006
#
# Compressibility (1/GPa) = 0.02276822
#
# Stress axis : x y z
#
# Youngs Moduli (GPa) = 85.15843 52.02140 55.54944
#
# Poissons Ratio (x) = 0.27994 0.37035
# Poissons Ratio (y) = 0.45826 0.05840
# Poissons Ratio (z) = 0.56776 0.05469
#
# Static dielectric constant tensor:
#      x y z
#    x 4.006000 0.000000 0.000000 
#    y 0.000000 3.682390 0.000000 
#    z 0.000000 0.000000 3.476300 
# 
# 
# High freq. dielectric constant tensor:
#      x y z
#    x 1.807350 0.000000 0.000000 
#    y 0.000000 1.804260 0.000000 
#    z 0.000000 0.000000 1.778910 
# 
# From -- ./inp_files/15790.got.cif
#   From: 2010.03.12/outbox.cif.g09.slc.cpg/sg38_8_cif.got.tgz:15790.got - 2010.04.14 02:38:36.
