data_PCOD8179591
_publ_section_title
;
Structure prediction by ZEFSAII (Michael W. Deem and Ramdas Pophale) SiO2 
 PCOD8179591
Probable space group: A M M 2
;
_chemical_formula_sum "Si O2"
_cell_formula_units_Z 64
_cell_length_a 23.903938
_cell_length_b 8.966812
_cell_length_c 15.435266
_cell_angle_alpha 90.000000
_cell_angle_beta 90.000000
_cell_angle_gamma 90.000000
_cell_volume 3308.427608
_symmetry_space_group_name_H-M "A M M 2"
_symmetry_group_IT_number 38
_symmetry_cell_setting 'orthorhombic'
loop_
_space_group_symop_operation_xyz
x,y,z
-x,-y,z
-x,y,z
x,-y,z
x,1/2+y,1/2+z
-x,1/2-y,1/2+z
-x,1/2+y,1/2+z
x,1/2-y,1/2+z
loop_
_atom_site_type_symbol
_atom_site_label
_atom_site_fract_x
_atom_site_fract_y
_atom_site_fract_z
Si Si1 0.242021 0.669737 0.495120
Si Si2 0.632146 0.670829 0.479159
Si Si3 0.062741 0.822841 0.077920
Si Si4 0.243756 0.824138 0.672479
Si Si5 0.871962 0.672349 0.409099
Si Si6 0.562727 0.676255 0.832464
Si Si7 0.136310 0.176416 0.237921
Si Si8 0.359493 0.324523 0.677100
O O1 0.239200 0.500000 0.532060
O O2 0.302934 0.698868 0.453743
O O3 0.230918 0.781693 0.573539
O O4 0.194514 0.694763 0.423724
O O5 0.615291 0.500000 0.464127
O O6 0.593824 0.770334 0.418478
O O7 0.621685 0.716814 0.579371
O O8 0.096519 0.764251 0.161158
O O9 0.000000 0.757062 0.079986
O O10 0.061438 0.000000 0.079645
O O11 0.093946 0.767235 0.991713
O O12 0.196575 0.753415 0.732962
O O13 0.303356 0.761568 0.702849
O O14 0.243205 0.000000 0.684398
O O15 0.886108 0.500000 0.390724
O O16 0.891299 0.771836 0.328140
O O17 0.500000 0.742144 0.830910
O O18 0.561320 0.500000 0.835949
O O19 0.593251 0.729158 0.744441
O O20 0.143349 0.000000 0.234948
O O21 0.347371 0.500000 0.683528
#
# Coordination Sequence:
#
# PCOD8179591 Si02
#       8
#     8   8   8   8   8   8   8   8
#     4   9  18  36  58  82 116 153 186 231 292 349
#     4   9  19  35  57  83 112 145 186 229 280 343
#     4   9  19  38  62  83 112 157 198 234 284 344
#     4  11  21  34  57  87 118 149 191 240 288 341
#     4  10  20  36  58  86 117 150 191 239 287 338
#     4  10  22  39  58  82 113 148 190 235 279 335
#     4  11  22  37  57  85 119 155 193 234 287 345
#     4   9  20  39  59  81 112 153 191 229 285 344
#
# _framework density 19.344536999999999
#
# number of rings (size 3 to 8) (size 9 to 14) (size 15 to 20)
#    0.000    2.250    1.250    2.250    1.750    4.250 
#    0.000    1.250    0.000    2.625    0.000    0.000 
#    0.000    0.000    0.000    0.000    0.000    0.000 
#
# Total GULP energy -396838.303899 kJ/mol
# GULP energy per Si atom -12401.196997 kJ/mol
# Density = 1.930051 g / cm^3
# Si number density = 19.344537 Si / 1000 Ang^3
#
#
#
# Elastic Constant Matrix: (Units=GPa)
#
#
# Indices 1 2 3 4 5 6 
#
# 1 139.2440 38.7916 80.9195 0.0000 0.0000 0.0000
# 2 38.7916 58.4635 38.8093 0.0000 0.0000 0.0000
# 3 80.9195 38.8093 142.4969 0.0000 0.0000 0.0000
# 4 0.0000 0.0000 0.0000 33.7849 0.0000 0.0000
# 5 0.0000 0.0000 0.0000 0.0000 22.4132 0.0000
# 6 0.0000 0.0000 0.0000 0.0000 0.0000 16.4279
#
#
#
# Elastic Compliance Matrix: (Units=1/GPa)
#
#
# Indices 1 2 3 4 5 6 
#
# 1 0.011437 -0.004001 -0.005405 0.000000 0.000000 0.000000
# 2 -0.004001 0.022279 -0.003796 0.000000 0.000000 0.000000
# 3 -0.005405 -0.003796 0.011121 0.000000 0.000000 0.000000
# 4 0.000000 0.000000 0.000000 0.029599 0.000000 0.000000
# 5 0.000000 0.000000 0.000000 0.000000 0.044617 0.000000
# 6 0.000000 0.000000 0.000000 0.000000 0.000000 0.060872
#
#
# Mechanical properties :
#
#
# Convention : Reuss Voigt Hill
#
# Bulk Modulus (GPa) = 54.24872 73.02724 63.63798
# Shear Modulus (GPa) = 23.53233 26.63745 25.08489
#
# Velocity S-wave (km/s) = 3.49160 3.71482 3.60494
# Velocity P-wave (km/s) = 6.66028 7.49884 7.09197
#
# Compressibility (1/GPa) = 0.01843362
#
# Stress axis : x y z
#
# Youngs Moduli (GPa) = 87.43228 44.88522 89.91981
#
# Poissons Ratio (x) = 0.17958 0.48605
# Poissons Ratio (y) = 0.34980 0.34132
# Poissons Ratio (z) = 0.47260 0.17038
#
# Static dielectric constant tensor:
#      x y z
#    x 3.731410 0.000000 0.000000 
#    y 0.000000 3.264570 0.000000 
#    z 0.000000 0.000000 3.543740 
# 
# 
# High freq. dielectric constant tensor:
#      x y z
#    x 1.752990 0.000000 0.000000 
#    y 0.000000 1.729460 0.000000 
#    z 0.000000 0.000000 1.757070 
# 
# From -- ./inp_files/15740.got.cif
#   From: 2010.03.12/outbox.cif.g09.slc.cpg/sg38_8_cif.got.tgz:15740.got - 2010.04.14 02:38:36.
