data_PCOD8179759
_publ_section_title
;
Structure prediction by ZEFSAII (Michael W. Deem and Ramdas Pophale) SiO2 
 PCOD8179759
Probable space group: A M M 2
;
_chemical_formula_sum "Si O2"
_cell_formula_units_Z 48
_cell_length_a 9.076227
_cell_length_b 7.801497
_cell_length_c 33.940004
_cell_angle_alpha 90.000000
_cell_angle_beta 90.000000
_cell_angle_gamma 90.000000
_cell_volume 2403.229156
_symmetry_space_group_name_H-M "A M M 2"
_symmetry_group_IT_number 38
_symmetry_cell_setting 'orthorhombic'
loop_
_space_group_symop_operation_xyz
x,y,z
-x,-y,z
-x,y,z
x,-y,z
x,1/2+y,1/2+z
-x,1/2-y,1/2+z
-x,1/2+y,1/2+z
x,1/2-y,1/2+z
loop_
_atom_site_type_symbol
_atom_site_label
_atom_site_fract_x
_atom_site_fract_y
_atom_site_fract_z
Si Si1 0.823715 0.500000 0.326620
Si Si2 0.170061 0.690091 0.684640
Si Si3 0.166676 0.804674 0.037678
Si Si4 0.165952 0.700305 0.953186
Si Si5 0.174855 0.500000 0.236934
Si Si6 0.664957 0.305973 0.110965
Si Si7 0.326423 0.199625 0.374076
O O1 0.769371 0.500000 0.281539
O O2 0.759100 0.674860 0.344672
O O3 0.000000 0.500000 0.331122
O O4 0.191627 0.500000 0.702926
O O5 0.248042 0.692964 0.642405
O O6 0.000000 0.730847 0.676569
O O7 0.236012 0.829700 0.715005
O O8 0.264323 0.697083 0.067714
O O9 0.000000 0.733224 0.038945
O O10 0.173690 0.000000 0.051378
O O11 0.226391 0.787949 0.993013
O O12 0.165928 0.500000 0.960774
O O13 0.274903 0.750294 0.917903
O O14 0.000000 0.764876 0.943037
O O15 0.000000 0.500000 0.236629
O O16 0.500000 0.233576 0.107885
O O17 0.666782 0.500000 0.126303
O O18 0.500000 0.231698 0.370565
O O19 0.286817 0.000000 0.364719
#
# Coordination Sequence:
#
# PCOD8179759 Si02
#       7
#     4   8   8   8   4   8   8
#     4  11  23  39  65  95 123 157 203 255 307 365
#     4  10  20  37  63  89 114 149 191 237 294 355
#     4  10  21  35  53  81 114 149 193 243 294 348
#     4   9  18  34  56  82 112 149 196 247 298 350
#     4   9  20  39  61  91 121 149 191 247 301 351
#     4  11  23  37  54  79 113 154 198 241 290 347
#     4  10  22  40  61  88 124 164 203 246 303 369
#
# _framework density 19.973125
#
# number of rings (size 3 to 8) (size 9 to 14) (size 15 to 20)
#    0.000    2.000    0.833    2.250    1.167    6.667 
#    0.000    5.000    0.000    0.000    0.000    0.000 
#    0.000    0.000    0.000    0.000    0.000    0.000 
#
# Total GULP energy -297614.203414 kJ/mol
# GULP energy per Si atom -12400.591809 kJ/mol
# Density = 1.992767 g / cm^3
# Si number density = 19.973125 Si / 1000 Ang^3
#
#
#
# Elastic Constant Matrix: (Units=GPa)
#
#
# Indices 1 2 3 4 5 6 
#
# 1 91.1576 43.4067 59.0800 0.0000 0.0000 0.0000
# 2 43.4067 101.9793 61.8657 0.0000 0.0000 0.0000
# 3 59.0800 61.8657 145.8958 0.0000 0.0000 0.0000
# 4 0.0000 0.0000 0.0000 28.7595 0.0000 0.0000
# 5 0.0000 0.0000 0.0000 0.0000 3.9096 0.0000
# 6 0.0000 0.0000 0.0000 0.0000 0.0000 22.8251
#
#
#
# Elastic Compliance Matrix: (Units=1/GPa)
#
#
# Indices 1 2 3 4 5 6 
#
# 1 0.015927 -0.003859 -0.004813 0.000000 0.000000 0.000000
# 2 -0.003859 0.014137 -0.004432 0.000000 0.000000 0.000000
# 3 -0.004813 -0.004432 0.010683 0.000000 0.000000 0.000000
# 4 0.000000 0.000000 0.000000 0.034771 0.000000 0.000000
# 5 0.000000 0.000000 0.000000 0.000000 0.255778 0.000000
# 6 0.000000 0.000000 0.000000 0.000000 0.000000 0.043811
#
#
# Mechanical properties :
#
#
# Convention : Reuss Voigt Hill
#
# Bulk Modulus (GPa) = 68.78460 74.19305 71.48882
# Shear Modulus (GPa) = 12.31033 22.74418 17.52726
#
# Velocity S-wave (km/s) = 2.48532 3.37818 2.96555
# Velocity P-wave (km/s) = 6.53828 7.24177 6.89900
#
# Compressibility (1/GPa) = 0.01453814
#
# Stress axis : x y z
#
# Youngs Moduli (GPa) = 62.78576 70.73503 93.61045
#
# Poissons Ratio (x) = 0.27300 0.45056
# Poissons Ratio (y) = 0.24232 0.41487
# Poissons Ratio (z) = 0.30219 0.31349
#
# Static dielectric constant tensor:
#      x y z
#    x 3.519590 0.000000 0.000000 
#    y 0.000000 3.678020 0.000000 
#    z 0.000000 0.000000 3.601080 
# 
# 
# High freq. dielectric constant tensor:
#      x y z
#    x 1.762920 0.000000 0.000000 
#    y 0.000000 1.788960 0.000000 
#    z 0.000000 0.000000 1.774810 
# 
# From -- ./inp_files/24370.got.cif
#   From: 2010.03.12/outbox.cif.g09.slc.cpg/sg38_13_cif.got.tgz:24370.got - 2010.04.14 02:38:36.
