data_PCOD8179213
_publ_section_title
;
Structure prediction by ZEFSAII (Michael W. Deem and Ramdas Pophale) SiO2 
 PCOD8179213
Probable space group: A M M 2
;
_chemical_formula_sum "Si O2"
_cell_formula_units_Z 56
_cell_length_a 9.211421
_cell_length_b 23.721817
_cell_length_c 13.818898
_cell_angle_alpha 90.000000
_cell_angle_beta 90.000000
_cell_angle_gamma 90.000000
_cell_volume 3019.590110
_symmetry_space_group_name_H-M "A M M 2"
_symmetry_group_IT_number 38
_symmetry_cell_setting 'orthorhombic'
loop_
_space_group_symop_operation_xyz
x,y,z
-x,-y,z
-x,y,z
x,-y,z
x,1/2+y,1/2+z
-x,1/2-y,1/2+z
-x,1/2+y,1/2+z
x,1/2-y,1/2+z
loop_
_atom_site_type_symbol
_atom_site_label
_atom_site_fract_x
_atom_site_fract_y
_atom_site_fract_z
Si Si1 0.169656 0.115472 0.109780
Si Si2 0.170021 0.830920 0.631428
Si Si3 0.828232 0.436790 0.802680
Si Si4 0.667794 0.937051 0.939036
Si Si5 0.827264 0.062899 0.515992
Si Si6 0.671034 0.173202 0.828441
Si Si7 0.832548 0.273605 0.500126
O O1 0.229741 0.105104 0.218812
O O2 0.205108 0.179527 0.080960
O O3 0.000000 0.102169 0.104833
O O4 0.244473 0.071816 0.037325
O O5 0.227671 0.891607 0.593983
O O6 0.258645 0.813506 0.725600
O O7 0.202256 0.786683 0.546139
O O8 0.000000 0.831697 0.657535
O O9 0.779463 0.500000 0.775510
O O10 0.766151 0.420895 0.909018
O O11 0.000000 0.432929 0.808458
O O12 0.500000 0.929216 0.965126
O O13 0.713824 0.890763 0.859040
O O14 0.700112 0.000000 0.898629
O O15 0.000000 0.064327 0.512621
O O16 0.773639 0.000000 0.545509
O O17 0.500000 0.181998 0.821311
O O18 0.733781 0.217562 0.905901
O O19 0.000000 0.278271 0.467836
#
# Coordination Sequence:
#
# PCOD8179213 Si02
#       7
#     8   8   8   8   8   8   8
#     4   9  16  27  46  72  98 125 161 205 250 295
#     4  10  20  34  54  77 100 129 165 207 253 296
#     4   8  13  22  39  65  94 121 152 193 240 288
#     4   9  18  32  48  68  98 135 170 204 246 293
#     4   8  15  28  46  71 102 132 163 201 245 294
#     4  10  21  36  53  73 100 133 168 206 247 297
#     4   9  19  34  51  73 100 128 163 208 253 298
#
# _framework density 18.545562
#
# number of rings (size 3 to 8) (size 9 to 14) (size 15 to 20)
#    0.000    3.000    0.000    1.714    0.000    3.714 
#    0.000    4.286    0.000    0.857    0.000    2.000 
#    0.000    0.000    0.000    0.000    0.000    0.000 
#
# Total GULP energy -347083.899819 kJ/mol
# GULP energy per Si atom -12395.853565 kJ/mol
# Density = 1.850335 g / cm^3
# Si number density = 18.545562 Si / 1000 Ang^3
#
#
#
# Elastic Constant Matrix: (Units=GPa)
#
#
# Indices 1 2 3 4 5 6 
#
# 1 46.1773 32.7205 44.3533 0.0000 0.0000 0.0000
# 2 32.7205 96.5994 51.7527 0.0000 0.0000 0.0000
# 3 44.3533 51.7527 120.8149 0.0000 0.0000 0.0000
# 4 0.0000 0.0000 0.0000 22.8838 0.0000 0.0000
# 5 0.0000 0.0000 0.0000 0.0000 11.5420 0.0000
# 6 0.0000 0.0000 0.0000 0.0000 0.0000 17.2240
#
#
#
# Elastic Compliance Matrix: (Units=1/GPa)
#
#
# Indices 1 2 3 4 5 6 
#
# 1 0.036543 -0.006737 -0.010530 0.000000 0.000000 0.000000
# 2 -0.006737 0.014677 -0.003814 0.000000 0.000000 0.000000
# 3 -0.010530 -0.003814 0.013777 0.000000 0.000000 0.000000
# 4 0.000000 0.000000 0.000000 0.043699 0.000000 0.000000
# 5 0.000000 0.000000 0.000000 0.000000 0.086640 0.000000
# 6 0.000000 0.000000 0.000000 0.000000 0.000000 0.058058
#
#
# Mechanical properties :
#
#
# Convention : Reuss Voigt Hill
#
# Bulk Modulus (GPa) = 43.79094 57.91608 50.85351
# Shear Modulus (GPa) = 16.49252 19.31430 17.90341
#
# Velocity S-wave (km/s) = 2.98534 3.23065 3.11042
# Velocity P-wave (km/s) = 5.96212 6.72406 6.35452
#
# Compressibility (1/GPa) = 0.02283577
#
# Stress axis : x y z
#
# Youngs Moduli (GPa) = 27.36497 68.13249 72.58677
#
# Poissons Ratio (x) = 0.45899 0.76433
# Poissons Ratio (y) = 0.18435 0.27685
# Poissons Ratio (z) = 0.28815 0.25986
#
# Static dielectric constant tensor:
#      x y z
#    x 3.055940 0.000000 0.000000 
#    y 0.000000 3.561110 0.000000 
#    z 0.000000 0.000000 3.513930 
# 
# 
# High freq. dielectric constant tensor:
#      x y z
#    x 1.679920 0.000000 0.000000 
#    y 0.000000 1.720400 0.000000 
#    z 0.000000 0.000000 1.718590 
# 
# From -- ./inp_files/12430.got.cif
#   From: 2010.03.12/outbox.cif.g09.slc.cpg/sg38_7_cif.got.tgz:12430.got - 2010.04.14 02:38:36.
