data_PCOD8179424
_publ_section_title
;
Structure prediction by ZEFSAII (Michael W. Deem and Ramdas Pophale) SiO2 
 PCOD8179424
Probable space group: A M M 2
;
_chemical_formula_sum "Si O2"
_cell_formula_units_Z 64
_cell_length_a 11.428829
_cell_length_b 22.002895
_cell_length_c 12.676046
_cell_angle_alpha 90.000000
_cell_angle_beta 90.000000
_cell_angle_gamma 90.000000
_cell_volume 3187.611372
_symmetry_space_group_name_H-M "A M M 2"
_symmetry_group_IT_number 38
_symmetry_cell_setting 'orthorhombic'
loop_
_space_group_symop_operation_xyz
x,y,z
-x,-y,z
-x,y,z
x,-y,z
x,1/2+y,1/2+z
-x,1/2-y,1/2+z
-x,1/2+y,1/2+z
x,1/2-y,1/2+z
loop_
_atom_site_type_symbol
_atom_site_label
_atom_site_fract_x
_atom_site_fract_y
_atom_site_fract_z
Si Si1 0.130849 0.928705 0.191180
Si Si2 0.704455 0.256225 0.649520
Si Si3 0.238594 0.569193 0.182057
Si Si4 0.635080 0.932717 0.894283
Si Si5 0.367000 0.365024 0.780046
Si Si6 0.370997 0.356340 0.021674
Si Si7 0.811926 0.649204 0.503990
Si Si8 0.876215 0.677081 0.276054
O O1 0.250859 0.903767 0.246918
O O2 0.000000 0.916170 0.244884
O O3 0.149971 0.000000 0.180835
O O4 0.119412 0.899222 0.075472
O O5 0.622868 0.305058 0.707790
O O6 0.631449 0.207625 0.583046
O O7 0.791829 0.289557 0.569709
O O8 0.774745 0.222270 0.741953
O O9 0.195955 0.500000 0.168651
O O10 0.339448 0.576902 0.270351
O O11 0.284368 0.593459 0.069855
O O12 0.132079 0.611168 0.219913
O O13 0.500000 0.925740 0.914083
O O14 0.690760 0.881626 0.967738
O O15 0.679401 0.000000 0.927901
O O16 0.500000 0.395578 0.771013
O O17 0.340267 0.345755 0.899713
O O18 0.500000 0.383783 0.032644
O O19 0.883591 0.667504 0.401256
O O20 0.000000 0.705556 0.241037
#
# Coordination Sequence:
#
# PCOD8179424 Si02
#       8
#     8   8   8   8   8   8   8   8
#     4  10  22  40  60  84 117 155 190 227 280 342
#     4  10  21  37  54  79 113 148 181 228 284 338
#     4   9  19  35  53  77 110 145 181 224 281 342
#     4   9  17  30  51  82 116 146 181 228 280 333
#     4  10  22  39  60  87 115 147 191 239 282 327
#     4  10  20  35  56  81 110 146 186 228 278 336
#     4  10  20  35  56  81 108 146 189 229 276 331
#     4  10  21  36  55  80 108 142 187 235 279 328
#
# _framework density 20.077729000000001
#
# number of rings (size 3 to 8) (size 9 to 14) (size 15 to 20)
#    0.000    2.250    0.000    2.250    0.000    7.250 
#    0.000    6.875    0.000    0.000    0.000    0.000 
#    0.000    0.000    0.000    0.000    0.000    0.000 
#
# Total GULP energy -396427.972298 kJ/mol
# GULP energy per Si atom -12388.374134 kJ/mol
# Density = 2.003203 g / cm^3
# Si number density = 20.077729 Si / 1000 Ang^3
#
#
#
# Elastic Constant Matrix: (Units=GPa)
#
#
# Indices 1 2 3 4 5 6 
#
# 1 108.8829 29.5293 36.6265 0.0000 0.0000 0.0000
# 2 29.5293 74.8280 20.3656 0.0000 0.0000 0.0000
# 3 36.6265 20.3656 98.8413 0.0000 0.0000 0.0000
# 4 0.0000 0.0000 0.0000 23.2955 0.0000 0.0000
# 5 0.0000 0.0000 0.0000 0.0000 -6.6327 0.0000
# 6 0.0000 0.0000 0.0000 0.0000 0.0000 18.9698
#
#
#
# Elastic Compliance Matrix: (Units=1/GPa)
#
#
# Indices 1 2 3 4 5 6 
#
# 1 0.011303 -0.003518 -0.003464 0.000000 0.000000 0.000000
# 2 -0.003518 0.015253 -0.001839 0.000000 0.000000 0.000000
# 3 -0.003464 -0.001839 0.011780 0.000000 0.000000 0.000000
# 4 0.000000 0.000000 0.000000 0.042927 0.000000 0.000000
# 5 0.000000 0.000000 0.000000 0.000000 -0.150768 0.000000
# 6 0.000000 0.000000 0.000000 0.000000 0.000000 0.052716
#
#
# Mechanical properties :
#
#
# Convention : Reuss Voigt Hill
#
# Bulk Modulus (GPa) = 48.32251 50.62166 49.47209
# Shear Modulus (GPa) = 645.14077 20.19523 332.66800
#
# Velocity S-wave (km/s) = 17.94489 3.17496 12.88603
# Velocity P-wave (km/s) = 21.29504 6.22158 15.68737
#
# Compressibility (1/GPa) = 0.02069429
#
# Stress axis : x y z
#
# Youngs Moduli (GPa) = 88.46909 65.56167 84.89195
#
# Poissons Ratio (x) = 0.23064 0.29404
# Poissons Ratio (y) = 0.31123 0.15613
# Poissons Ratio (z) = 0.30643 0.12058
#
# Static dielectric constant tensor:
#      x y z
#    x 3.608400 0.000000 0.000000 
#    y 0.000000 3.677100 0.000000 
#    z 0.000000 0.000000 3.649310 
# 
# 
# High freq. dielectric constant tensor:
#      x y z
#    x 1.780280 0.000000 0.000000 
#    y 0.000000 1.779890 0.000000 
#    z 0.000000 0.000000 1.781670 
# 
# From -- ./inp_files/9588.got.cif
#   From: 2010.03.12/outbox.cif.g09.slc.cpg/sg38_5_cif.got.tgz:9588.got - 2010.04.14 02:38:36.
