data_PCOD8179520
_publ_section_title
;
Structure prediction by ZEFSAII (Michael W. Deem and Ramdas Pophale) SiO2 
 PCOD8179520
Probable space group: A M M 2
;
_chemical_formula_sum "Si O2"
_cell_formula_units_Z 48
_cell_length_a 17.302613
_cell_length_b 8.817539
_cell_length_c 15.689742
_cell_angle_alpha 90.000000
_cell_angle_beta 90.000000
_cell_angle_gamma 90.000000
_cell_volume 2393.728473
_symmetry_space_group_name_H-M "A M M 2"
_symmetry_group_IT_number 38
_symmetry_cell_setting 'orthorhombic'
loop_
_space_group_symop_operation_xyz
x,y,z
-x,-y,z
-x,y,z
x,-y,z
x,1/2+y,1/2+z
-x,1/2-y,1/2+z
-x,1/2+y,1/2+z
x,1/2-y,1/2+z
loop_
_atom_site_type_symbol
_atom_site_label
_atom_site_fract_x
_atom_site_fract_y
_atom_site_fract_z
Si Si1 0.000000 0.175532 0.921190
Si Si2 0.000000 0.825557 0.246535
Si Si3 0.846305 0.333461 0.981930
Si Si4 0.687287 0.320523 0.178506
Si Si5 0.310383 0.179574 0.994334
Si Si6 0.412990 0.680204 0.336836
Si Si7 0.857237 0.165398 0.679899
O O1 0.000000 0.205853 0.821732
O O2 0.076366 0.247393 0.958925
O O3 0.000000 0.000000 0.943189
O O4 0.077701 0.792462 0.193821
O O5 0.000000 0.000000 0.275908
O O6 0.844645 0.500000 0.937238
O O7 0.771304 0.237134 0.956581
O O8 0.845154 0.358468 0.081264
O O9 0.679751 0.500000 0.164806
O O10 0.629733 0.258569 0.251627
O O11 0.773514 0.279720 0.213835
O O12 0.668095 0.244112 0.087518
O O13 0.373291 0.234537 0.924855
O O14 0.306538 0.000000 0.001940
O O15 0.500000 0.744325 0.336050
O O16 0.411706 0.500000 0.333876
O O17 0.880216 0.000000 0.719721
#
# Coordination Sequence:
#
# PCOD8179520 Si02
#       7
#     4   4   8   8   8   8   8
#     4  12  25  38  55  81 115 153 193 236 285 340
#     4  12  25  36  51  81 115 149 191 238 283 332
#     4  10  21  39  60  83 113 150 191 238 289 342
#     4   9  19  37  60  84 114 155 197 240 294 354
#     4  10  20  35  59  89 118 154 197 244 296 352
#     4   9  19  36  59  87 118 154 195 239 295 363
#     4   9  19  36  57  78 107 147 188 234 286 340
#
# _framework density 20.052401
#
# number of rings (size 3 to 8) (size 9 to 14) (size 15 to 20)
#    0.000    2.167    0.000    4.000    2.333    6.000 
#    0.000    1.667    0.000    3.500    0.000    0.000 
#    0.000    0.000    0.000    0.000    0.000    0.000 
#
# Total GULP energy -297482.458948 kJ/mol
# GULP energy per Si atom -12395.102456 kJ/mol
# Density = 2.000676 g / cm^3
# Si number density = 20.052401 Si / 1000 Ang^3
#
#
#
# Elastic Constant Matrix: (Units=GPa)
#
#
# Indices 1 2 3 4 5 6 
#
# 1 184.3923 51.3428 74.1218 0.0000 0.0000 0.0000
# 2 51.3428 89.1927 37.1749 0.0000 0.0000 0.0000
# 3 74.1218 37.1749 85.3873 0.0000 0.0000 0.0000
# 4 0.0000 0.0000 0.0000 30.3453 0.0000 0.0000
# 5 0.0000 0.0000 0.0000 0.0000 34.7072 0.0000
# 6 0.0000 0.0000 0.0000 0.0000 0.0000 19.9676
#
#
#
# Elastic Compliance Matrix: (Units=1/GPa)
#
#
# Indices 1 2 3 4 5 6 
#
# 1 0.008691 -0.002270 -0.006556 0.000000 0.000000 0.000000
# 2 -0.002270 0.014290 -0.004251 0.000000 0.000000 0.000000
# 3 -0.006556 -0.004251 0.019253 0.000000 0.000000 0.000000
# 4 0.000000 0.000000 0.000000 0.032954 0.000000 0.000000
# 5 0.000000 0.000000 0.000000 0.000000 0.028812 0.000000
# 6 0.000000 0.000000 0.000000 0.000000 0.000000 0.050081
#
#
# Mechanical properties :
#
#
# Convention : Reuss Voigt Hill
#
# Bulk Modulus (GPa) = 62.18815 76.02791 69.10803
# Shear Modulus (GPa) = 26.94047 30.09287 28.51667
#
# Velocity S-wave (km/s) = 3.66936 3.87810 3.77518
# Velocity P-wave (km/s) = 7.00231 7.61905 7.31718
#
# Compressibility (1/GPa) = 0.01608023
#
# Stress axis : x y z
#
# Youngs Moduli (GPa) = 115.06712 69.97781 51.94089
#
# Poissons Ratio (x) = 0.15887 0.34050
# Poissons Ratio (y) = 0.26124 0.22079
# Poissons Ratio (z) = 0.75433 0.29746
#
# Static dielectric constant tensor:
#      x y z
#    x 3.787740 0.000000 0.000000 
#    y 0.000000 3.553860 0.000000 
#    z 0.000000 0.000000 3.691560 
# 
# 
# High freq. dielectric constant tensor:
#      x y z
#    x 1.789060 0.000000 0.000000 
#    y 0.000000 1.768240 0.000000 
#    z 0.000000 0.000000 1.780460 
# 
# From -- ./inp_files/15043.got.cif
#   From: 2010.03.12/outbox.cif.g09.slc.cpg/sg38_8_cif.got.tgz:15043.got - 2010.04.14 02:38:36.
