data_PCOD8179208
_publ_section_title
;
Structure prediction by ZEFSAII (Michael W. Deem and Ramdas Pophale) SiO2 
 PCOD8179208
Probable space group: A M M 2
;
_chemical_formula_sum "Si O2"
_cell_formula_units_Z 56
_cell_length_a 20.246582
_cell_length_b 10.604153
_cell_length_c 13.677013
_cell_angle_alpha 90.000000
_cell_angle_beta 90.000000
_cell_angle_gamma 90.000000
_cell_volume 2936.425330
_symmetry_space_group_name_H-M "A M M 2"
_symmetry_group_IT_number 38
_symmetry_cell_setting 'orthorhombic'
loop_
_space_group_symop_operation_xyz
x,y,z
-x,-y,z
-x,y,z
x,-y,z
x,1/2+y,1/2+z
-x,1/2-y,1/2+z
-x,1/2+y,1/2+z
x,1/2-y,1/2+z
loop_
_atom_site_type_symbol
_atom_site_label
_atom_site_fract_x
_atom_site_fract_y
_atom_site_fract_z
Si Si1 0.234240 0.365265 0.886860
Si Si2 0.835562 0.641773 0.289599
Si Si3 0.574142 0.356149 0.456785
Si Si4 0.320862 0.353989 0.620041
Si Si5 0.072115 0.645676 0.461512
Si Si6 0.818192 0.276958 0.079891
Si Si7 0.375355 0.141850 0.331863
O O1 0.216698 0.500000 0.834255
O O2 0.218156 0.245415 0.819764
O O3 0.312511 0.360083 0.904358
O O4 0.196654 0.369950 0.990127
O O5 0.810593 0.500000 0.316012
O O6 0.901451 0.673184 0.351385
O O7 0.847051 0.649200 0.173473
O O8 0.500000 0.352010 0.500258
O O9 0.589494 0.500000 0.419913
O O10 0.625407 0.313245 0.539684
O O11 0.576724 0.253297 0.369022
O O12 0.306093 0.500000 0.612493
O O13 0.250186 0.290764 0.604703
O O14 0.351352 0.318631 0.724317
O O15 0.061506 0.500000 0.477136
O O16 0.123578 0.685280 0.544937
O O17 0.000000 0.712830 0.472210
O O18 0.408067 0.000000 0.331512
#
# Coordination Sequence:
#
# PCOD8179208 Si02
#       7
#     8   8   8   8   8   8   8
#     4  10  20  34  53  83 118 145 181 234 285 336
#     4  10  21  35  56  83 113 150 189 233 284 336
#     4  10  22  40  59  81 113 151 190 234 281 337
#     4  10  20  35  57  86 112 145 189 233 283 343
#     4   9  20  37  55  80 116 155 193 231 279 341
#     4  11  19  33  57  85 113 147 188 241 289 335
#     4  10  20  36  57  84 115 149 185 231 286 337
#
# _framework density 19.070806000000001
#
# number of rings (size 3 to 8) (size 9 to 14) (size 15 to 20)
#    0.000    2.000    2.857    0.857    0.000    3.143 
#    0.000    2.143    0.000   10.286    0.000    0.000 
#    0.000    0.000    0.000    0.000    0.000    0.000 
#
# Total GULP energy -346892.286982 kJ/mol
# GULP energy per Si atom -12389.010249 kJ/mol
# Density = 1.902740 g / cm^3
# Si number density = 19.070806 Si / 1000 Ang^3
#
#
#
# Elastic Constant Matrix: (Units=GPa)
#
#
# Indices 1 2 3 4 5 6 
#
# 1 103.2130 41.6768 36.6121 0.0000 0.0000 0.0000
# 2 41.6768 97.8486 42.3913 0.0000 0.0000 0.0000
# 3 36.6121 42.3913 96.6120 0.0000 0.0000 0.0000
# 4 0.0000 0.0000 0.0000 26.1741 0.0000 0.0000
# 5 0.0000 0.0000 0.0000 0.0000 13.2263 0.0000
# 6 0.0000 0.0000 0.0000 0.0000 0.0000 22.5755
#
#
#
# Elastic Compliance Matrix: (Units=1/GPa)
#
#
# Indices 1 2 3 4 5 6 
#
# 1 0.012336 -0.003987 -0.002926 0.000000 0.000000 0.000000
# 2 -0.003987 0.013907 -0.004591 0.000000 0.000000 0.000000
# 3 -0.002926 -0.004591 0.013474 0.000000 0.000000 0.000000
# 4 0.000000 0.000000 0.000000 0.038206 0.000000 0.000000
# 5 0.000000 0.000000 0.000000 0.000000 0.075607 0.000000
# 6 0.000000 0.000000 0.000000 0.000000 0.000000 0.044296
#
#
# Mechanical properties :
#
#
# Convention : Reuss Voigt Hill
#
# Bulk Modulus (GPa) = 59.84522 59.89268 59.86895
# Shear Modulus (GPa) = 22.08448 24.19475 23.13961
#
# Velocity S-wave (km/s) = 3.40667 3.56572 3.48710
# Velocity P-wave (km/s) = 6.85000 6.95888 6.90466
#
# Compressibility (1/GPa) = 0.01670977
#
# Stress axis : x y z
#
# Youngs Moduli (GPa) = 81.06090 71.90554 74.21748
#
# Poissons Ratio (x) = 0.28669 0.21713
# Poissons Ratio (y) = 0.32319 0.34075
# Poissons Ratio (z) = 0.23715 0.33014
#
# Static dielectric constant tensor:
#      x y z
#    x 3.562250 0.000000 0.000000 
#    y 0.000000 3.541510 0.000000 
#    z 0.000000 0.000000 3.564790 
# 
# 
# High freq. dielectric constant tensor:
#      x y z
#    x 1.729870 0.000000 0.000000 
#    y 0.000000 1.741250 0.000000 
#    z 0.000000 0.000000 1.737410 
# 
# From -- ./inp_files/15494.got.cif
#   From: 2010.03.12/outbox.cif.g09.slc.cpg/sg38_8_cif.got.tgz:15494.got - 2010.04.14 02:38:36.
