data_PCOD8179931
_publ_section_title
;
Structure prediction by ZEFSAII (Michael W. Deem and Ramdas Pophale) SiO2 
 PCOD8179931
Probable space group: A M M 2
;
_chemical_formula_sum "Si O2"
_cell_formula_units_Z 64
_cell_length_a 9.102038
_cell_length_b 14.670774
_cell_length_c 24.191712
_cell_angle_alpha 90.000000
_cell_angle_beta 90.000000
_cell_angle_gamma 90.000000
_cell_volume 3230.414678
_symmetry_space_group_name_H-M "A M M 2"
_symmetry_group_IT_number 38
_symmetry_cell_setting 'orthorhombic'
loop_
_space_group_symop_operation_xyz
x,y,z
-x,-y,z
-x,y,z
x,-y,z
x,1/2+y,1/2+z
-x,1/2-y,1/2+z
-x,1/2+y,1/2+z
x,1/2-y,1/2+z
loop_
_atom_site_type_symbol
_atom_site_label
_atom_site_fract_x
_atom_site_fract_y
_atom_site_fract_z
Si Si1 0.672873 0.270294 0.614050
Si Si2 0.325447 0.399740 0.182205
Si Si3 0.174057 0.243893 0.001524
Si Si4 0.329753 0.894332 0.216362
Si Si5 0.327563 0.106523 0.435167
Si Si6 0.172198 0.396958 0.408306
Si Si7 0.337472 0.391591 0.302240
Si Si8 0.165971 0.891696 0.324581
O O1 0.500000 0.275020 0.600381
O O2 0.721435 0.170152 0.634830
O O3 0.767719 0.291320 0.560219
O O4 0.717088 0.343071 0.660674
O O5 0.500000 0.405278 0.187118
O O6 0.261322 0.500000 0.167540
O O7 0.269529 0.364229 0.242365
O O8 0.000000 0.258896 0.003303
O O9 0.252625 0.338536 0.985244
O O10 0.222024 0.165381 0.959014
O O11 0.500000 0.877820 0.229798
O O12 0.240274 0.853951 0.268551
O O13 0.294095 0.000000 0.206682
O O14 0.500000 0.126796 0.433719
O O15 0.256964 0.141400 0.377801
O O16 0.295713 0.000000 0.445304
O O17 0.229677 0.500000 0.419164
O O18 0.237565 0.354264 0.351951
O O19 0.000000 0.396498 0.400841
O O20 0.500000 0.349927 0.310065
O O21 0.344150 0.500000 0.304195
O O22 0.000000 0.854310 0.329371
O O23 0.168778 0.000000 0.322258
#
# Coordination Sequence:
#
# PCOD8179931 Si02
#       8
#     8   8   8   8   8   8   8   8
#     4  10  21  36  53  74 100 136 184 227 262 310
#     4   8  15  30  52  76 101 127 158 203 257 308
#     4  11  24  39  54  76 107 142 182 228 274 321
#     4   9  18  33  52  76 109 145 179 220 269 319
#     4  10  21  38  60  83 108 141 179 220 269 326
#     4   9  19  36  55  76 106 142 175 211 261 318
#     4   8  14  27  50  79 105 129 163 208 257 310
#     4   9  17  31  54  84 114 141 172 214 267 326
#
# _framework density 19.811698
#
# number of rings (size 3 to 8) (size 9 to 14) (size 15 to 20)
#    0.000    2.750    0.000    1.875    0.000    5.750 
#    0.000    3.125    0.000    0.750    0.000    0.000 
#    0.000    0.000    0.000    0.000    0.000    0.000 
#
# Total GULP energy -396763.143321 kJ/mol
# GULP energy per Si atom -12398.848229 kJ/mol
# Density = 1.976661 g / cm^3
# Si number density = 19.811698 Si / 1000 Ang^3
#
#
#
# Elastic Constant Matrix: (Units=GPa)
#
#
# Indices 1 2 3 4 5 6 
#
# 1 60.8598 14.3798 29.2921 0.0000 0.0000 0.0000
# 2 14.3798 38.1220 10.1915 0.0000 0.0000 0.0000
# 3 29.2921 10.1915 96.4415 0.0000 0.0000 0.0000
# 4 0.0000 0.0000 0.0000 32.7960 0.0000 0.0000
# 5 0.0000 0.0000 0.0000 0.0000 11.0481 0.0000
# 6 0.0000 0.0000 0.0000 0.0000 0.0000 18.8299
#
#
#
# Elastic Compliance Matrix: (Units=1/GPa)
#
#
# Indices 1 2 3 4 5 6 
#
# 1 0.020608 -0.006277 -0.005596 0.000000 0.000000 0.000000
# 2 -0.006277 0.028906 -0.001148 0.000000 0.000000 0.000000
# 3 -0.005596 -0.001148 0.012190 0.000000 0.000000 0.000000
# 4 0.000000 0.000000 0.000000 0.030492 0.000000 0.000000
# 5 0.000000 0.000000 0.000000 0.000000 0.090513 0.000000
# 6 0.000000 0.000000 0.000000 0.000000 0.000000 0.053107
#
#
# Mechanical properties :
#
#
# Convention : Reuss Voigt Hill
#
# Bulk Modulus (GPa) = 28.04144 33.68334 30.86239
# Shear Modulus (GPa) = 18.26515 21.97213 20.11864
#
# Velocity S-wave (km/s) = 3.03964 3.33385 3.19014
# Velocity P-wave (km/s) = 5.14819 5.64429 5.40194
#
# Compressibility (1/GPa) = 0.03566150
#
# Stress axis : x y z
#
# Youngs Moduli (GPa) = 48.52562 34.59450 82.03514
#
# Poissons Ratio (x) = 0.21716 0.45905
# Poissons Ratio (y) = 0.30461 0.09418
# Poissons Ratio (z) = 0.27154 0.03972
#
# Static dielectric constant tensor:
#      x y z
#    x 3.492730 0.000000 0.000000 
#    y 0.000000 3.735990 0.000000 
#    z 0.000000 0.000000 3.682560 
# 
# 
# High freq. dielectric constant tensor:
#      x y z
#    x 1.751940 0.000000 0.000000 
#    y 0.000000 1.768600 0.000000 
#    z 0.000000 0.000000 1.774190 
# 
# From -- ./inp_files/22149.got.cif
#   From: 2010.03.12/outbox.cif.g09.slc.cpg/sg38_12_cif.got.tgz:22149.got - 2010.04.14 02:38:36.
