data_PCOD8179053
_publ_section_title
;
Structure prediction by ZEFSAII (Michael W. Deem and Ramdas Pophale) SiO2 
 PCOD8179053
Probable space group: A M M 2
;
_chemical_formula_sum "Si O2"
_cell_formula_units_Z 64
_cell_length_a 19.308398
_cell_length_b 8.836928
_cell_length_c 20.785004
_cell_angle_alpha 90.000000
_cell_angle_beta 90.000000
_cell_angle_gamma 90.000000
_cell_volume 3546.481275
_symmetry_space_group_name_H-M "A M M 2"
_symmetry_group_IT_number 38
_symmetry_cell_setting 'orthorhombic'
loop_
_space_group_symop_operation_xyz
x,y,z
-x,-y,z
-x,y,z
x,-y,z
x,1/2+y,1/2+z
-x,1/2-y,1/2+z
-x,1/2+y,1/2+z
x,1/2-y,1/2+z
loop_
_atom_site_type_symbol
_atom_site_label
_atom_site_fract_x
_atom_site_fract_y
_atom_site_fract_z
Si Si1 0.421612 0.677624 0.028430
Si Si2 0.077352 0.175617 0.259359
Si Si3 0.794116 0.821658 0.448636
Si Si4 0.714420 0.179555 0.067262
Si Si5 0.921163 0.676046 0.395459
Si Si6 0.784745 0.178551 0.196141
Si Si7 0.712640 0.320136 0.822737
Si Si8 0.575036 0.179989 0.382058
O O1 0.500000 0.715806 0.051629
O O2 0.407111 0.500000 0.034605
O O3 0.365494 0.766510 0.071315
O O4 0.411389 0.732963 0.955056
O O5 0.092843 0.270062 0.323008
O O6 0.133761 0.220422 0.204969
O O7 0.000000 0.209081 0.232463
O O8 0.085827 0.000000 0.278520
O O9 0.752436 0.745222 0.505682
O O10 0.873363 0.764664 0.446585
O O11 0.760557 0.768215 0.381606
O O12 0.790958 0.000000 0.458768
O O13 0.716694 0.000000 0.064810
O O14 0.754891 0.244637 0.129796
O O15 0.903822 0.500000 0.399438
O O16 0.000000 0.710494 0.415436
O O17 0.741635 0.248097 0.256216
O O18 0.774856 0.000000 0.195759
O O19 0.712035 0.500000 0.819585
O O20 0.634844 0.257027 0.835140
O O21 0.500000 0.240446 0.358201
O O22 0.575070 0.000000 0.382153
#
# Coordination Sequence:
#
# PCOD8179053 Si02
#       8
#     8   8   8   8   8   8   8   8
#     4   9  17  32  54  77 101 134 180 224 263 318
#     4   9  16  30  54  78  99 133 182 221 253 308
#     4  11  20  34  57  78 101 137 183 224 257 309
#     4  11  22  34  50  76 114 146 174 219 273 322
#     4  10  20  33  51  80 114 139 165 213 277 328
#     4   9  18  32  48  73 108 142 174 215 262 313
#     4   9  15  27  50  75  98 127 170 220 257 295
#     4   8  13  23  44  74 100 123 163 218 261 292
#
# _framework density 18.046056
#
# number of rings (size 3 to 8) (size 9 to 14) (size 15 to 20)
#    0.000    2.500    2.500    1.875    0.000    1.000 
#    0.000    2.500    0.000    4.500    0.000    0.000 
#    0.000    0.000    0.000    0.000    0.000    0.000 
#
# Total GULP energy -396646.486779 kJ/mol
# GULP energy per Si atom -12395.202712 kJ/mol
# Density = 1.800498 g / cm^3
# Si number density = 18.046056 Si / 1000 Ang^3
#
#
#
# Elastic Constant Matrix: (Units=GPa)
#
#
# Indices 1 2 3 4 5 6 
#
# 1 161.9512 36.5979 65.4440 0.0000 0.0000 0.0000
# 2 36.5979 42.1582 29.8154 0.0000 0.0000 0.0000
# 3 65.4440 29.8154 89.2473 0.0000 0.0000 0.0000
# 4 0.0000 0.0000 0.0000 18.1684 0.0000 0.0000
# 5 0.0000 0.0000 0.0000 0.0000 30.6579 0.0000
# 6 0.0000 0.0000 0.0000 0.0000 0.0000 25.1242
#
#
#
# Elastic Compliance Matrix: (Units=1/GPa)
#
#
# Indices 1 2 3 4 5 6 
#
# 1 0.009327 -0.004268 -0.005413 0.000000 0.000000 0.000000
# 2 -0.004268 0.033012 -0.007899 0.000000 0.000000 0.000000
# 3 -0.005413 -0.007899 0.017813 0.000000 0.000000 0.000000
# 4 0.000000 0.000000 0.000000 0.055041 0.000000 0.000000
# 5 0.000000 0.000000 0.000000 0.000000 0.032618 0.000000
# 6 0.000000 0.000000 0.000000 0.000000 0.000000 0.039802
#
#
# Mechanical properties :
#
#
# Convention : Reuss Voigt Hill
#
# Bulk Modulus (GPa) = 40.01404 61.89681 50.95543
# Shear Modulus (GPa) = 21.63540 25.55672 23.59606
#
# Velocity S-wave (km/s) = 3.46627 3.76732 3.61992
# Velocity P-wave (km/s) = 6.18397 7.30051 6.76531
#
# Compressibility (1/GPa) = 0.02499123
#
# Stress axis : x y z
#
# Youngs Moduli (GPa) = 107.21885 30.29244 56.13860
#
# Poissons Ratio (x) = 0.12929 0.30389
# Poissons Ratio (y) = 0.45763 0.44342
# Poissons Ratio (z) = 0.58041 0.23927
#
# Static dielectric constant tensor:
#      x y z
#    x 3.844090 0.000000 0.000000 
#    y 0.000000 3.013970 0.000000 
#    z 0.000000 0.000000 3.271560 
# 
# 
# High freq. dielectric constant tensor:
#      x y z
#    x 1.721910 0.000000 0.000000 
#    y 0.000000 1.664450 0.000000 
#    z 0.000000 0.000000 1.667770 
# 
# From -- ./inp_files/18913.got.cif
#   From: 2010.03.12/outbox.cif.g09.slc.cpg/sg38_10_cif.got.tgz:18913.got - 2010.04.14 02:38:36.
