data_PCOD8179338
_publ_section_title
;
Structure prediction by ZEFSAII (Michael W. Deem and Ramdas Pophale) SiO2 
 PCOD8179338
Probable space group: A M M 2
;
_chemical_formula_sum "Si O2"
_cell_formula_units_Z 64
_cell_length_a 8.977814
_cell_length_b 32.333029
_cell_length_c 11.541770
_cell_angle_alpha 90.000000
_cell_angle_beta 90.000000
_cell_angle_gamma 90.000000
_cell_volume 3350.344077
_symmetry_space_group_name_H-M "A M M 2"
_symmetry_group_IT_number 38
_symmetry_cell_setting 'orthorhombic'
loop_
_space_group_symop_operation_xyz
x,y,z
-x,-y,z
-x,y,z
x,-y,z
x,1/2+y,1/2+z
-x,1/2-y,1/2+z
-x,1/2+y,1/2+z
x,1/2-y,1/2+z
loop_
_atom_site_type_symbol
_atom_site_label
_atom_site_fract_x
_atom_site_fract_y
_atom_site_fract_z
Si Si1 0.828109 0.599203 0.833430
Si Si2 0.332469 0.175076 0.230720
Si Si3 0.828103 0.856202 0.563627
Si Si4 0.667405 0.194356 0.964162
Si Si5 0.173930 0.776963 0.412616
Si Si6 0.175729 0.047916 0.928822
Si Si7 0.664174 0.951627 0.162120
Si Si8 0.324592 0.879762 0.798051
O O1 0.777615 0.637863 0.757560
O O2 0.737378 0.560103 0.785317
O O3 0.000000 0.590888 0.810401
O O4 0.798025 0.607855 0.968769
O O5 0.500000 0.166437 0.275974
O O6 0.332608 0.180235 0.095030
O O7 0.267176 0.215322 0.295342
O O8 0.786618 0.811580 0.509181
O O9 0.721949 0.865428 0.670504
O O10 0.000000 0.856644 0.603498
O O11 0.500000 0.207700 0.926453
O O12 0.781950 0.231957 0.956334
O O13 0.724466 0.156433 0.885800
O O14 0.000000 0.778619 0.382990
O O15 0.244693 0.077065 0.829709
O O16 0.000000 0.053642 0.930159
O O17 0.219075 0.000000 0.903359
O O18 0.238035 0.063014 0.052955
O O19 0.500000 0.931037 0.151256
O O20 0.648356 0.000000 0.161416
O O21 0.500000 0.887495 0.802037
#
# Coordination Sequence:
#
# PCOD8179338 Si02
#       8
#     8   8   8   8   8   8   8   8
#     4  10  20  36  58  82 110 146 189 233 281 339
#     4  10  20  36  57  79 108 143 181 229 281 336
#     4   9  21  40  57  79 112 151 194 238 287 344
#     4  10  23  38  54  81 113 146 186 233 284 341
#     4  10  22  38  57  81 110 146 189 236 287 342
#     4  10  21  38  61  88 119 155 193 238 294 350
#     4  10  20  34  56  87 120 150 184 232 288 345
#     4  11  23  38  59  87 116 152 197 242 292 351
#
# _framework density 19.102516000000001
#
# number of rings (size 3 to 8) (size 9 to 14) (size 15 to 20)
#    0.000    2.000    0.000    3.750    1.750    7.500 
#    0.000    0.625    0.000    0.750    0.000    0.000 
#    0.000    0.000    0.000    0.000    0.000    0.000 
#
# Total GULP energy -396826.463959 kJ/mol
# GULP energy per Si atom -12400.826999 kJ/mol
# Density = 1.905904 g / cm^3
# Si number density = 19.102516 Si / 1000 Ang^3
#
#
#
# Elastic Constant Matrix: (Units=GPa)
#
#
# Indices 1 2 3 4 5 6 
#
# 1 101.3555 45.3630 54.9444 0.0000 0.0000 0.0000
# 2 45.3630 68.9905 45.6705 0.0000 0.0000 0.0000
# 3 54.9444 45.6705 103.7925 0.0000 0.0000 0.0000
# 4 0.0000 0.0000 0.0000 14.3516 0.0000 0.0000
# 5 0.0000 0.0000 0.0000 0.0000 32.2756 0.0000
# 6 0.0000 0.0000 0.0000 0.0000 0.0000 32.9115
#
#
#
# Elastic Compliance Matrix: (Units=1/GPa)
#
#
# Indices 1 2 3 4 5 6 
#
# 1 0.015851 -0.006868 -0.005369 0.000000 0.000000 0.000000
# 2 -0.006868 0.023428 -0.006673 0.000000 0.000000 0.000000
# 3 -0.005369 -0.006673 0.015413 0.000000 0.000000 0.000000
# 4 0.000000 0.000000 0.000000 0.069679 0.000000 0.000000
# 5 0.000000 0.000000 0.000000 0.000000 0.030983 0.000000
# 6 0.000000 0.000000 0.000000 0.000000 0.000000 0.030385
#
#
# Mechanical properties :
#
#
# Convention : Reuss Voigt Hill
#
# Bulk Modulus (GPa) = 59.27025 62.89938 61.08481
# Shear Modulus (GPa) = 21.81677 24.45177 23.13427
#
# Velocity S-wave (km/s) = 3.38315 3.58163 3.48380
# Velocity P-wave (km/s) = 6.80850 7.07834 6.94473
#
# Compressibility (1/GPa) = 0.01687187
#
# Stress axis : x y z
#
# Youngs Moduli (GPa) = 63.08930 42.68361 64.88096
#
# Poissons Ratio (x) = 0.29316 0.34832
# Poissons Ratio (y) = 0.43331 0.43295
# Poissons Ratio (z) = 0.33870 0.28483
#
# Static dielectric constant tensor:
#      x y z
#    x 3.765090 0.000000 0.000000 
#    y 0.000000 3.549420 0.000000 
#    z 0.000000 0.000000 3.589510 
# 
# 
# High freq. dielectric constant tensor:
#      x y z
#    x 1.756290 0.000000 0.000000 
#    y 0.000000 1.738450 0.000000 
#    z 0.000000 0.000000 1.737510 
# 
# From -- ./inp_files/8684.got.cif
#   From: 2010.03.12/outbox.cif.g09.slc.cpg/sg38_5_cif.got.tgz:8684.got - 2010.04.14 02:38:36.
