data_PCOD8179999
_publ_section_title
;
Structure prediction by ZEFSAII (Michael W. Deem and Ramdas Pophale) SiO2 
 PCOD8179999
Probable space group: A M M 2
;
_chemical_formula_sum "Si O2"
_cell_formula_units_Z 48
_cell_length_a 8.770667
_cell_length_b 23.471211
_cell_length_c 11.835451
_cell_angle_alpha 90.000000
_cell_angle_beta 90.000000
_cell_angle_gamma 90.000000
_cell_volume 2436.424352
_symmetry_space_group_name_H-M "A M M 2"
_symmetry_group_IT_number 38
_symmetry_cell_setting 'orthorhombic'
loop_
_space_group_symop_operation_xyz
x,y,z
-x,-y,z
-x,y,z
x,-y,z
x,1/2+y,1/2+z
-x,1/2-y,1/2+z
-x,1/2+y,1/2+z
x,1/2-y,1/2+z
loop_
_atom_site_type_symbol
_atom_site_label
_atom_site_fract_x
_atom_site_fract_y
_atom_site_fract_z
Si Si1 0.319819 0.065268 0.421770
Si Si2 0.319608 0.842095 0.597082
Si Si3 0.674886 0.939205 0.004162
Si Si4 0.681483 0.635791 0.705062
Si Si5 0.675023 0.659734 0.352456
Si Si6 0.178953 0.725933 0.554928
O O1 0.500000 0.060004 0.409437
O O2 0.273770 0.097721 0.537839
O O3 0.259302 0.106845 0.321067
O O4 0.252260 0.000000 0.418487
O O5 0.500000 0.833823 0.588322
O O6 0.261983 0.839538 0.725837
O O7 0.237790 0.789906 0.535799
O O8 0.500000 0.948234 0.037524
O O9 0.688749 0.906378 0.886488
O O10 0.758041 0.000000 0.991379
O O11 0.748414 0.904679 0.107065
O O12 0.500000 0.642969 0.705743
O O13 0.748952 0.697791 0.669777
O O14 0.500000 0.681079 0.361351
O O15 0.776636 0.695926 0.437712
O O16 0.000000 0.725015 0.570502
#
# Coordination Sequence:
#
# PCOD8179999 Si02
#       6
#     8   8   8   8   8   8
#     4   9  18  33  57  90 120 146 182 230 283 340
#     4  10  21  36  56  82 113 148 183 226 281 343
#     4   8  13  24  47  77 104 133 172 217 263 312
#     4   9  17  32  55  83 113 146 182 224 276 331
#     4   9  19  35  54  78 108 142 181 224 276 333
#     4  11  23  37  55  79 109 144 190 240 283 329
#
# _framework density 19.701001999999999
#
# number of rings (size 3 to 8) (size 9 to 14) (size 15 to 20)
#    0.000    2.667    0.000    3.000    2.333    3.333 
#    0.000    3.333    0.000   14.000    0.000    4.667 
#    0.000    0.000    0.000    0.000    0.000    0.000 
#
# Total GULP energy -297352.437290 kJ/mol
# GULP energy per Si atom -12389.684887 kJ/mol
# Density = 1.965616 g / cm^3
# Si number density = 19.701002 Si / 1000 Ang^3
#
#
#
# Elastic Constant Matrix: (Units=GPa)
#
#
# Indices 1 2 3 4 5 6 
#
# 1 44.1440 28.0093 23.3387 0.0000 0.0000 0.0000
# 2 28.0093 120.3731 45.5890 0.0000 0.0000 0.0000
# 3 23.3387 45.5890 120.2081 0.0000 0.0000 0.0000
# 4 0.0000 0.0000 0.0000 24.6905 0.0000 0.0000
# 5 0.0000 0.0000 0.0000 0.0000 9.9937 0.0000
# 6 0.0000 0.0000 0.0000 0.0000 0.0000 -0.4361
#
#
#
# Elastic Compliance Matrix: (Units=1/GPa)
#
#
# Indices 1 2 3 4 5 6 
#
# 1 0.027738 -0.005155 -0.003430 0.000000 0.000000 0.000000
# 2 -0.005155 0.010659 -0.003042 0.000000 0.000000 0.000000
# 3 -0.003430 -0.003042 0.010138 0.000000 0.000000 0.000000
# 4 0.000000 0.000000 0.000000 0.040501 0.000000 0.000000
# 5 0.000000 0.000000 0.000000 0.000000 0.100063 0.000000
# 6 0.000000 0.000000 0.000000 0.000000 0.000000 -2.293066
#
#
# Mechanical properties :
#
#
# Convention : Reuss Voigt Hill
#
# Bulk Modulus (GPa) = 39.55510 53.17772 46.36641
# Shear Modulus (GPa) = -2.41279 19.36884 8.47802
#
# Velocity S-wave (km/s) = -1.10787 3.13891 2.07670
# Velocity P-wave (km/s) = 4.29940 6.33940 5.41631
#
# Compressibility (1/GPa) = 0.02528119
#
# Stress axis : x y z
#
# Youngs Moduli (GPa) = 36.05224 93.81797 98.63476
#
# Poissons Ratio (x) = 0.48363 0.33834
# Poissons Ratio (y) = 0.18585 0.30000
# Poissons Ratio (z) = 0.12367 0.28535
#
# Static dielectric constant tensor:
#      x y z
#    x 3.018000 0.000000 0.000000 
#    y 0.000000 3.964990 0.000000 
#    z 0.000000 0.000000 3.676050 
# 
# 
# High freq. dielectric constant tensor:
#      x y z
#    x 1.708680 0.000000 0.000000 
#    y 0.000000 1.778940 0.000000 
#    z 0.000000 0.000000 1.769040 
# 
# From -- ./inp_files/8144.got.cif
#   From: 2010.03.12/outbox.cif.g09.slc.cpg/sg38_5_cif.got.tgz:8144.got - 2010.04.14 02:38:36.
