data_PCOD8179535
_publ_section_title
;
Structure prediction by ZEFSAII (Michael W. Deem and Ramdas Pophale) SiO2 
 PCOD8179535
Probable space group: A M M 2
;
_chemical_formula_sum "Si O2"
_cell_formula_units_Z 48
_cell_length_a 10.070777
_cell_length_b 28.534843
_cell_length_c 8.672819
_cell_angle_alpha 90.000000
_cell_angle_beta 90.000000
_cell_angle_gamma 90.000000
_cell_volume 2492.291002
_symmetry_space_group_name_H-M "A M M 2"
_symmetry_group_IT_number 38
_symmetry_cell_setting 'orthorhombic'
loop_
_space_group_symop_operation_xyz
x,y,z
-x,-y,z
-x,y,z
x,-y,z
x,1/2+y,1/2+z
-x,1/2-y,1/2+z
-x,1/2+y,1/2+z
x,1/2-y,1/2+z
loop_
_atom_site_type_symbol
_atom_site_label
_atom_site_fract_x
_atom_site_fract_y
_atom_site_fract_z
Si Si1 0.849635 0.449670 0.655880
Si Si2 0.226035 0.148041 0.191834
Si Si3 0.000000 0.790178 0.330310
Si Si4 0.500000 0.190536 0.216298
Si Si5 0.500000 0.209495 0.858463
Si Si6 0.652184 0.550723 0.372309
Si Si7 0.254167 0.852425 0.826067
Si Si8 0.000000 0.190333 0.688507
O O1 0.837805 0.500000 0.746411
O O2 0.816618 0.403429 0.757509
O O3 0.744218 0.450823 0.520382
O O4 0.000000 0.444529 0.591005
O O5 0.130626 0.187631 0.257208
O O6 0.372799 0.158733 0.252975
O O7 0.216432 0.148303 0.006515
O O8 0.000000 0.735196 0.298280
O O9 0.000000 0.794968 0.512407
O O10 0.500000 0.235937 0.322300
O O11 0.500000 0.206425 0.041055
O O12 0.630544 0.184914 0.789073
O O13 0.500000 0.558637 0.425762
O O14 0.665440 0.500000 0.284961
O O15 0.697114 0.595625 0.272195
O O16 0.128734 0.840725 0.721890
#
# Coordination Sequence:
#
# PCOD8179535 Si02
#       8
#     8   8   4   4   4   8   8   4
#     4   9  17  29  51  84 115 149 185 227 276 327
#     4  10  20  36  58  82 115 146 186 227 281 333
#     4  12  24  42  57  82 107 151 188 235 283 338
#     4  10  22  34  55  81 109 143 184 228 279 332
#     4  10  20  36  53  79 109 141 186 224 277 332
#     4   9  17  30  53  85 118 148 184 232 282 331
#     4  10  20  36  56  85 113 150 181 231 277 335
#     4  12  26  38  59  80 113 143 194 233 281 338
#
# _framework density 19.259388000000001
#
# number of rings (size 3 to 8) (size 9 to 14) (size 15 to 20)
#    0.000    2.000    1.667    2.500    7.000    4.000 
#    0.000    0.000    0.000    2.000    0.000    0.000 
#    0.000    0.000    0.000    0.000    0.000    0.000 
#
# Total GULP energy -297423.010065 kJ/mol
# GULP energy per Si atom -12392.625419 kJ/mol
# Density = 1.921555 g / cm^3
# Si number density = 19.259388 Si / 1000 Ang^3
#
#
#
# Elastic Constant Matrix: (Units=GPa)
#
#
# Indices 1 2 3 4 5 6 
#
# 1 162.6711 70.3648 29.0563 0.0000 0.0000 0.0000
# 2 70.3648 166.2823 22.0334 0.0000 0.0000 0.0000
# 3 29.0563 22.0334 37.7992 0.0000 0.0000 0.0000
# 4 0.0000 0.0000 0.0000 11.9849 0.0000 0.0000
# 5 0.0000 0.0000 0.0000 0.0000 -2.3339 0.0000
# 6 0.0000 0.0000 0.0000 0.0000 0.0000 41.9880
#
#
#
# Elastic Compliance Matrix: (Units=1/GPa)
#
#
# Indices 1 2 3 4 5 6 
#
# 1 0.008215 -0.002860 -0.004647 0.000000 0.000000 0.000000
# 2 -0.002860 0.007513 -0.002181 0.000000 0.000000 0.000000
# 3 -0.004647 -0.002181 0.031299 0.000000 0.000000 0.000000
# 4 0.000000 0.000000 0.000000 0.083438 0.000000 0.000000
# 5 0.000000 0.000000 0.000000 0.000000 -0.428459 0.000000
# 6 0.000000 0.000000 0.000000 0.000000 0.000000 0.023816
#
#
# Mechanical properties :
#
#
# Convention : Reuss Voigt Hill
#
# Bulk Modulus (GPa) = 36.16604 67.74017 51.95310
# Shear Modulus (GPa) = -20.35964 26.68101 3.16069
#
# Velocity S-wave (km/s) = -3.25488 3.72607 1.28245
# Velocity P-wave (km/s) = 2.16645 7.33214 5.40619
#
# Compressibility (1/GPa) = 0.02765025
#
# Stress axis : x y z
#
# Youngs Moduli (GPa) = 121.73185 133.09827 31.94966
#
# Poissons Ratio (x) = 0.38071 0.14848
# Poissons Ratio (y) = 0.34820 0.06967
# Poissons Ratio (z) = 0.56573 0.29025
#
# Static dielectric constant tensor:
#      x y z
#    x 3.870700 0.000000 0.000000 
#    y 0.000000 4.481690 0.000000 
#    z 0.000000 0.000000 2.908060 
# 
# 
# High freq. dielectric constant tensor:
#      x y z
#    x 1.775340 0.000000 0.000000 
#    y 0.000000 1.781250 0.000000 
#    z 0.000000 0.000000 1.675260 
# 
# From -- ./inp_files/3898.got.cif
#   From: 2010.03.12/outbox.cif.g09.slc.cpg/sg38_2_cif.got.tgz:3898.got - 2010.04.14 02:38:36.
