data_PCOD8179506
_publ_section_title
;
Structure prediction by ZEFSAII (Michael W. Deem and Ramdas Pophale) SiO2 
 PCOD8179506
Probable space group: A M M 2
;
_chemical_formula_sum "Si O2"
_cell_formula_units_Z 40
_cell_length_a 9.119083
_cell_length_b 10.727416
_cell_length_c 19.258159
_cell_angle_alpha 90.000000
_cell_angle_beta 90.000000
_cell_angle_gamma 90.000000
_cell_volume 1883.913938
_symmetry_space_group_name_H-M "A M M 2"
_symmetry_group_IT_number 38
_symmetry_cell_setting 'orthorhombic'
loop_
_space_group_symop_operation_xyz
x,y,z
-x,-y,z
-x,y,z
x,-y,z
x,1/2+y,1/2+z
-x,1/2-y,1/2+z
-x,1/2+y,1/2+z
x,1/2-y,1/2+z
loop_
_atom_site_type_symbol
_atom_site_label
_atom_site_fract_x
_atom_site_fract_y
_atom_site_fract_z
Si Si1 0.667866 0.861965 0.033490
Si Si2 0.170475 0.637306 0.107531
Si Si3 0.838118 0.000000 0.401293
Si Si4 0.158116 0.000000 0.237877
Si Si5 0.668527 0.254556 0.891238
Si Si6 0.826838 0.264433 0.251337
O O1 0.500000 0.851894 0.056582
O O2 0.750200 0.749943 0.070351
O O3 0.729568 0.000000 0.054227
O O4 0.681572 0.850340 0.950219
O O5 0.220810 0.500000 0.079938
O O6 0.201949 0.636567 0.190635
O O7 0.000000 0.657288 0.093832
O O8 0.861220 0.000000 0.320096
O O9 0.748581 0.123300 0.422354
O O10 0.000000 0.000000 0.437772
O O11 0.237337 0.868861 0.220738
O O12 0.000000 0.000000 0.200152
O O13 0.500000 0.288111 0.874595
O O14 0.743219 0.198905 0.821706
O O15 0.000000 0.250232 0.268751
#
# Coordination Sequence:
#
# PCOD8179506 Si02
#       6
#     8   8   4   4   8   8
#     4  10  24  44  62  85 121 164 207 254 305 361
#     4  10  23  41  62  92 125 159 202 252 306 368
#     4   9  17  31  53  83 119 155 192 237 294 355
#     4   7  12  25  47  75 105 145 184 219 274 337
#     4  10  20  35  58  88 120 155 201 251 301 358
#     4   9  18  34  57  85 120 157 195 245 303 360
#
# _framework density 21.232392999999998
#
# number of rings (size 3 to 8) (size 9 to 14) (size 15 to 20)
#    0.000    2.600    0.000    2.100    2.800    4.000 
#    0.000    0.000    0.000    0.000    0.000    0.000 
#    0.000    0.000    0.000    0.000    0.000    0.000 
#
# Total GULP energy -247796.330794 kJ/mol
# GULP energy per Si atom -12389.816540 kJ/mol
# Density = 2.118407 g / cm^3
# Si number density = 21.232393 Si / 1000 Ang^3
#
#
#
# Elastic Constant Matrix: (Units=GPa)
#
#
# Indices 1 2 3 4 5 6 
#
# 1 100.7362 61.8863 42.9011 0.0000 0.0000 0.0000
# 2 61.8863 161.9284 53.0106 0.0000 0.0000 0.0000
# 3 42.9011 53.0106 69.6617 0.0000 0.0000 0.0000
# 4 0.0000 0.0000 0.0000 32.3080 0.0000 0.0000
# 5 0.0000 0.0000 0.0000 0.0000 31.9069 0.0000
# 6 0.0000 0.0000 0.0000 0.0000 0.0000 28.3501
#
#
#
# Elastic Compliance Matrix: (Units=1/GPa)
#
#
# Indices 1 2 3 4 5 6 
#
# 1 0.014862 -0.003574 -0.006433 0.000000 0.000000 0.000000
# 2 -0.003574 0.009084 -0.004711 0.000000 0.000000 0.000000
# 3 -0.006433 -0.004711 0.021902 0.000000 0.000000 0.000000
# 4 0.000000 0.000000 0.000000 0.030952 0.000000 0.000000
# 5 0.000000 0.000000 0.000000 0.000000 0.031341 0.000000
# 6 0.000000 0.000000 0.000000 0.000000 0.000000 0.035273
#
#
# Mechanical properties :
#
#
# Convention : Reuss Voigt Hill
#
# Bulk Modulus (GPa) = 60.93477 71.99136 66.46307
# Shear Modulus (GPa) = 28.03897 30.14819 29.09358
#
# Velocity S-wave (km/s) = 3.63791 3.77226 3.70570
# Velocity P-wave (km/s) = 6.81228 7.27690 7.04842
#
# Compressibility (1/GPa) = 0.01641099
#
# Stress axis : x y z
#
# Youngs Moduli (GPa) = 67.28392 110.08433 45.65735
#
# Poissons Ratio (x) = 0.39345 0.29372
# Poissons Ratio (y) = 0.24048 0.21511
# Poissons Ratio (z) = 0.43285 0.51866
#
# Static dielectric constant tensor:
#      x y z
#    x 3.770410 0.000000 0.000000 
#    y 0.000000 4.347190 0.000000 
#    z 0.000000 0.000000 3.729430 
# 
# 
# High freq. dielectric constant tensor:
#      x y z
#    x 1.809270 0.000000 0.000000 
#    y 0.000000 1.836740 0.000000 
#    z 0.000000 0.000000 1.828830 
# 
# From -- ./inp_files/19525.got.cif
#   From: 2010.03.12/outbox.cif.g09.slc.cpg/sg38_10_cif.got.tgz:19525.got - 2010.04.14 02:38:36.
