data_PCOD8179755
_publ_section_title
;
Structure prediction by ZEFSAII (Michael W. Deem and Ramdas Pophale) SiO2 
 PCOD8179755
Probable space group: A M M 2
;
_chemical_formula_sum "Si O2"
_cell_formula_units_Z 48
_cell_length_a 8.508462
_cell_length_b 23.202950
_cell_length_c 11.687335
_cell_angle_alpha 90.000000
_cell_angle_beta 90.000000
_cell_angle_gamma 90.000000
_cell_volume 2307.330253
_symmetry_space_group_name_H-M "A M M 2"
_symmetry_group_IT_number 38
_symmetry_cell_setting 'orthorhombic'
loop_
_space_group_symop_operation_xyz
x,y,z
-x,-y,z
-x,y,z
x,-y,z
x,1/2+y,1/2+z
-x,1/2-y,1/2+z
-x,1/2+y,1/2+z
x,1/2-y,1/2+z
loop_
_atom_site_type_symbol
_atom_site_label
_atom_site_fract_x
_atom_site_fract_y
_atom_site_fract_z
Si Si1 0.317014 0.767622 0.513930
Si Si2 0.815202 0.350917 0.555129
Si Si3 0.819349 0.438468 0.968874
Si Si4 0.813406 0.361196 0.169451
Si Si5 0.819171 0.160576 0.311750
Si Si6 0.315055 0.066711 0.878342
O O1 0.500000 0.756307 0.529412
O O2 0.229368 0.707402 0.489298
O O3 0.254336 0.798662 0.631038
O O4 0.286040 0.802387 0.397532
O O5 0.753527 0.339162 0.683693
O O6 0.731468 0.407453 0.502010
O O7 0.000000 0.362525 0.552163
O O8 0.733562 0.500000 0.957419
O O9 0.803773 0.405835 0.849337
O O10 0.000000 0.447020 0.001822
O O11 0.742742 0.403787 0.073461
O O12 0.760295 0.387727 0.289666
O O13 0.000000 0.354921 0.169005
O O14 0.000000 0.181963 0.319886
O O15 0.500000 0.067230 0.862169
O O16 0.253625 0.000000 0.865585
#
# Coordination Sequence:
#
# PCOD8179755 Si02
#       6
#     8   8   8   8   8   8
#     4  11  23  39  62  90 124 160 202 257 321 381
#     4  11  24  41  63  88 120 163 210 259 309 372
#     4   8  14  28  54  86 115 144 185 241 297 346
#     4  10  20  37  62  91 123 161 208 257 305 364
#     4   9  20  38  59  86 117 152 200 252 304 364
#     4  11  25  43  62  90 130 171 211 257 316 381
#
# _framework density 20.803263999999999
#
# number of rings (size 3 to 8) (size 9 to 14) (size 15 to 20)
#    0.000    2.000    0.000    4.500    2.333    4.000 
#    0.000    1.667    0.000    4.500    0.000    0.000 
#    0.000    0.000    0.000    0.000    0.000    0.000 
#
# Total GULP energy -297457.081122 kJ/mol
# GULP energy per Si atom -12394.045047 kJ/mol
# Density = 2.075591 g / cm^3
# Si number density = 20.803264 Si / 1000 Ang^3
#
#
#
# Elastic Constant Matrix: (Units=GPa)
#
#
# Indices 1 2 3 4 5 6 
#
# 1 57.1089 16.0300 15.6404 0.0000 0.0000 0.0000
# 2 16.0300 100.6514 21.1967 0.0000 0.0000 0.0000
# 3 15.6404 21.1967 93.8045 0.0000 0.0000 0.0000
# 4 0.0000 0.0000 0.0000 25.3538 0.0000 0.0000
# 5 0.0000 0.0000 0.0000 0.0000 27.8434 0.0000
# 6 0.0000 0.0000 0.0000 0.0000 0.0000 25.4289
#
#
#
# Elastic Compliance Matrix: (Units=1/GPa)
#
#
# Indices 1 2 3 4 5 6 
#
# 1 0.018914 -0.002465 -0.002596 0.000000 0.000000 0.000000
# 2 -0.002465 0.010753 -0.002019 0.000000 0.000000 0.000000
# 3 -0.002596 -0.002019 0.011550 0.000000 0.000000 0.000000
# 4 0.000000 0.000000 0.000000 0.039442 0.000000 0.000000
# 5 0.000000 0.000000 0.000000 0.000000 0.035915 0.000000
# 6 0.000000 0.000000 0.000000 0.000000 0.000000 0.039325
#
#
# Mechanical properties :
#
#
# Convention : Reuss Voigt Hill
#
# Bulk Modulus (GPa) = 36.96187 39.69989 38.33088
# Shear Modulus (GPa) = 27.92080 28.97173 28.44626
#
# Velocity S-wave (km/s) = 3.66749 3.73588 3.70184
# Velocity P-wave (km/s) = 5.97829 6.14280 6.06110
#
# Compressibility (1/GPa) = 0.02705491
#
# Stress axis : x y z
#
# Youngs Moduli (GPa) = 52.87228 92.99672 86.58338
#
# Poissons Ratio (x) = 0.22928 0.22481
# Poissons Ratio (y) = 0.13035 0.17479
# Poissons Ratio (z) = 0.13728 0.18774
#
# Static dielectric constant tensor:
#      x y z
#    x 3.462210 0.000000 0.000000 
#    y 0.000000 4.125570 0.000000 
#    z 0.000000 0.000000 3.809180 
# 
# 
# High freq. dielectric constant tensor:
#      x y z
#    x 1.793750 0.000000 0.000000 
#    y 0.000000 1.823360 0.000000 
#    z 0.000000 0.000000 1.813050 
# 
# From -- ./inp_files/8148.got.cif
#   From: 2010.03.12/outbox.cif.g09.slc.cpg/sg38_5_cif.got.tgz:8148.got - 2010.04.14 02:38:36.
