data_PCOD8179211
_publ_section_title
;
Structure prediction by ZEFSAII (Michael W. Deem and Ramdas Pophale) SiO2 
 PCOD8179211
Probable space group: A M M 2
;
_chemical_formula_sum "Si O2"
_cell_formula_units_Z 48
_cell_length_a 7.999929
_cell_length_b 37.339454
_cell_length_c 7.573297
_cell_angle_alpha 90.000000
_cell_angle_beta 90.000000
_cell_angle_gamma 90.000000
_cell_volume 2262.242122
_symmetry_space_group_name_H-M "A M M 2"
_symmetry_group_IT_number 38
_symmetry_cell_setting 'orthorhombic'
loop_
_space_group_symop_operation_xyz
x,y,z
-x,-y,z
-x,y,z
x,-y,z
x,1/2+y,1/2+z
-x,1/2-y,1/2+z
-x,1/2+y,1/2+z
x,1/2-y,1/2+z
loop_
_atom_site_type_symbol
_atom_site_label
_atom_site_fract_x
_atom_site_fract_y
_atom_site_fract_z
Si Si1 0.185706 0.328381 0.992210
Si Si2 0.804780 0.909622 0.473802
Si Si3 0.500000 0.296110 0.435103
Si Si4 0.311327 0.587647 0.358679
Si Si5 0.818637 0.837116 0.907012
Si Si6 0.500000 0.285749 0.022281
Si Si7 0.802261 0.459551 0.660392
O O1 0.232598 0.368204 0.925433
O O2 0.000000 0.317054 0.921070
O O3 0.181368 0.327670 0.202182
O O4 0.332304 0.301362 0.927322
O O5 0.717478 0.921729 0.654255
O O6 0.733174 0.934306 0.317141
O O7 0.000000 0.915727 0.501729
O O8 0.668279 0.315984 0.504608
O O9 0.500000 0.297420 0.224541
O O10 0.500000 0.256693 0.513066
O O11 0.500000 0.600634 0.381758
O O12 0.197561 0.620197 0.428308
O O13 0.274172 0.552637 0.474080
O O14 0.000000 0.826272 0.989513
O O15 0.743166 0.500000 0.697484
O O16 0.000000 0.456854 0.648006
#
# Coordination Sequence:
#
# PCOD8179211 Si02
#       7
#     8   8   4   8   8   4   8
#     4   8  16  32  55  79 105 145 192 238 287 344
#     4   9  19  37  61  87 113 153 209 253 298 359
#     4  10  20  36  52  82 110 145 185 232 296 359
#     4  11  21  36  60  89 119 156 204 250 302 364
#     4   9  17  34  58  79 108 150 197 243 286 347
#     4  10  20  34  54  76 114 143 181 230 290 359
#     4  10  22  40  60  86 122 160 202 255 307 359
#
# _framework density 21.217887000000001
#
# number of rings (size 3 to 8) (size 9 to 14) (size 15 to 20)
#    0.000    2.500    0.833    2.500    3.500    2.333 
#    3.000    1.667    0.000    0.000    0.000    0.000 
#    0.000    0.000    0.000    0.000    0.000    0.000 
#
# Total GULP energy -297544.143498 kJ/mol
# GULP energy per Si atom -12397.672646 kJ/mol
# Density = 2.116959 g / cm^3
# Si number density = 21.217887 Si / 1000 Ang^3
#
#
#
# Elastic Constant Matrix: (Units=GPa)
#
#
# Indices 1 2 3 4 5 6 
#
# 1 133.9806 50.7581 12.2191 0.0000 0.0000 0.0000
# 2 50.7581 91.9318 18.2588 0.0000 0.0000 0.0000
# 3 12.2191 18.2588 39.9969 0.0000 0.0000 0.0000
# 4 0.0000 0.0000 0.0000 29.3811 0.0000 0.0000
# 5 0.0000 0.0000 0.0000 0.0000 11.3907 0.0000
# 6 0.0000 0.0000 0.0000 0.0000 0.0000 29.5393
#
#
#
# Elastic Compliance Matrix: (Units=1/GPa)
#
#
# Indices 1 2 3 4 5 6 
#
# 1 0.009449 -0.005107 -0.000555 0.000000 0.000000 0.000000
# 2 -0.005107 0.014722 -0.005161 0.000000 0.000000 0.000000
# 3 -0.000555 -0.005161 0.027528 0.000000 0.000000 0.000000
# 4 0.000000 0.000000 0.000000 0.034035 0.000000 0.000000
# 5 0.000000 0.000000 0.000000 0.000000 0.087791 0.000000
# 6 0.000000 0.000000 0.000000 0.000000 0.000000 0.033853
#
#
# Mechanical properties :
#
#
# Convention : Reuss Voigt Hill
#
# Bulk Modulus (GPa) = 33.27446 47.59792 40.43619
# Shear Modulus (GPa) = 20.91684 26.37377 23.64531
#
# Velocity S-wave (km/s) = 3.14317 3.52944 3.34189
# Velocity P-wave (km/s) = 5.37485 6.25227 5.83009
#
# Compressibility (1/GPa) = 0.03005308
#
# Stress axis : x y z
#
# Youngs Moduli (GPa) = 105.82992 67.92457 36.32728
#
# Poissons Ratio (x) = 0.34688 0.02018
# Poissons Ratio (y) = 0.54045 0.18747
# Poissons Ratio (z) = 0.05878 0.35053
#
# Static dielectric constant tensor:
#      x y z
#    x 4.186750 0.000000 0.000000 
#    y 0.000000 3.737760 0.000000 
#    z 0.000000 0.000000 3.555110 
# 
# 
# High freq. dielectric constant tensor:
#      x y z
#    x 1.841660 0.000000 0.000000 
#    y 0.000000 1.815540 0.000000 
#    z 0.000000 0.000000 1.808410 
# 
# From -- ./inp_files/3842.got.cif
#   From: 2010.03.12/outbox.cif.g09.slc.cpg/sg38_2_cif.got.tgz:3842.got - 2010.04.14 02:38:36.
