data_PCOD8179550
_publ_section_title
;
Structure prediction by ZEFSAII (Michael W. Deem and Ramdas Pophale) SiO2 
 PCOD8179550
Probable space group: A M M 2
;
_chemical_formula_sum "Si O2"
_cell_formula_units_Z 64
_cell_length_a 9.489020
_cell_length_b 17.857154
_cell_length_c 18.962418
_cell_angle_alpha 90.000000
_cell_angle_beta 90.000000
_cell_angle_gamma 90.000000
_cell_volume 3213.122784
_symmetry_space_group_name_H-M "A M M 2"
_symmetry_group_IT_number 38
_symmetry_cell_setting 'orthorhombic'
loop_
_space_group_symop_operation_xyz
x,y,z
-x,-y,z
-x,y,z
x,-y,z
x,1/2+y,1/2+z
-x,1/2-y,1/2+z
-x,1/2+y,1/2+z
x,1/2-y,1/2+z
loop_
_atom_site_type_symbol
_atom_site_label
_atom_site_fract_x
_atom_site_fract_y
_atom_site_fract_z
Si Si1 0.664870 0.087616 0.453260
Si Si2 0.843808 0.153909 0.849886
Si Si3 0.157318 0.917644 0.707003
Si Si4 0.333468 0.660780 0.102373
Si Si5 0.838278 0.820009 0.341885
Si Si6 0.157437 0.584284 0.581677
Si Si7 0.161817 0.212600 0.185047
Si Si8 0.346500 0.587580 0.458968
O O1 0.500000 0.093370 0.436440
O O2 0.701685 0.139699 0.521066
O O3 0.747670 0.119938 0.385445
O O4 0.706596 0.000000 0.465558
O O5 0.819538 0.147409 0.765427
O O6 0.829714 0.238491 0.878533
O O7 0.727241 0.102535 0.885069
O O8 0.000000 0.122686 0.867057
O O9 0.275287 0.909344 0.646977
O O10 0.000000 0.909954 0.674451
O O11 0.175827 0.000000 0.741351
O O12 0.500000 0.671197 0.113326
O O13 0.252043 0.732898 0.134069
O O14 0.777881 0.803728 0.263277
O O15 0.000000 0.848672 0.338660
O O16 0.204599 0.500000 0.599955
O O17 0.168556 0.630276 0.652652
O O18 0.256645 0.622120 0.522699
O O19 0.000000 0.585832 0.550232
O O20 0.000000 0.242673 0.188496
O O21 0.500000 0.625979 0.459349
O O22 0.360074 0.500000 0.469618
#
# Coordination Sequence:
#
# PCOD8179550 Si02
#       8
#     8   8   8   8   8   8   8   8
#     4  10  24  45  64  87 124 166 206 252 307 364
#     4  10  20  36  56  82 116 155 195 239 293 351
#     4  10  20  36  60  87 117 155 196 242 298 358
#     4  11  23  39  61  89 122 160 201 248 303 362
#     4  10  22  40  63  90 119 152 197 250 299 352
#     4   9  19  36  59  85 113 150 192 238 296 354
#     4  10  21  40  63  89 121 154 196 251 304 361
#     4  10  21  35  52  79 116 153 191 236 282 338
#
# _framework density 19.918316999999998
#
# number of rings (size 3 to 8) (size 9 to 14) (size 15 to 20)
#    0.000    2.000    1.250    1.500    1.750    5.750 
#    0.000    1.250    0.000    1.500    0.000    0.000 
#    0.000    0.000    0.000    0.000    0.000    0.000 
#
# Total GULP energy -396590.303096 kJ/mol
# GULP energy per Si atom -12393.446972 kJ/mol
# Density = 1.987298 g / cm^3
# Si number density = 19.918317 Si / 1000 Ang^3
#
#
#
# Elastic Constant Matrix: (Units=GPa)
#
#
# Indices 1 2 3 4 5 6 
#
# 1 106.8676 45.1209 63.0631 0.0000 0.0000 0.0000
# 2 45.1209 82.0609 50.7134 0.0000 0.0000 0.0000
# 3 63.0631 50.7134 113.2242 0.0000 0.0000 0.0000
# 4 0.0000 0.0000 0.0000 34.6496 0.0000 0.0000
# 5 0.0000 0.0000 0.0000 0.0000 24.6703 0.0000
# 6 0.0000 0.0000 0.0000 0.0000 0.0000 28.3607
#
#
#
# Elastic Compliance Matrix: (Units=1/GPa)
#
#
# Indices 1 2 3 4 5 6 
#
# 1 0.014938 -0.004247 -0.006417 0.000000 0.000000 0.000000
# 2 -0.004247 0.018058 -0.005722 0.000000 0.000000 0.000000
# 3 -0.006417 -0.005722 0.014970 0.000000 0.000000 0.000000
# 4 0.000000 0.000000 0.000000 0.028860 0.000000 0.000000
# 5 0.000000 0.000000 0.000000 0.000000 0.040534 0.000000
# 6 0.000000 0.000000 0.000000 0.000000 0.000000 0.035260
#
#
# Mechanical properties :
#
#
# Convention : Reuss Voigt Hill
#
# Bulk Modulus (GPa) = 65.83119 68.88305 67.35712
# Shear Modulus (GPa) = 26.25247 27.08651 26.66949
#
# Velocity S-wave (km/s) = 3.63437 3.69165 3.66313
# Velocity P-wave (km/s) = 7.12277 7.26835 7.19593
#
# Compressibility (1/GPa) = 0.01519037
#
# Stress axis : x y z
#
# Youngs Moduli (GPa) = 66.94484 55.37712 66.80240
#
# Poissons Ratio (x) = 0.23521 0.42870
# Poissons Ratio (y) = 0.28434 0.38228
# Poissons Ratio (z) = 0.42962 0.31690
#
# Static dielectric constant tensor:
#      x y z
#    x 3.731180 0.000000 0.000000 
#    y 0.000000 3.597190 0.000000 
#    z 0.000000 0.000000 3.526520 
# 
# 
# High freq. dielectric constant tensor:
#      x y z
#    x 1.769850 0.000000 0.000000 
#    y 0.000000 1.779980 0.000000 
#    z 0.000000 0.000000 1.770150 
# 
# From -- ./inp_files/20085.got.cif
#   From: 2010.03.12/outbox.cif.g09.slc.cpg/sg38_11_cif.got.tgz:20085.got - 2010.04.14 02:38:36.
