data_PCOD8179904
_publ_section_title
;
Structure prediction by ZEFSAII (Michael W. Deem and Ramdas Pophale) SiO2 
 PCOD8179904
Probable space group: A M M 2
;
_chemical_formula_sum "Si O2"
_cell_formula_units_Z 64
_cell_length_a 8.948948
_cell_length_b 19.383055
_cell_length_c 20.701067
_cell_angle_alpha 90.000000
_cell_angle_beta 90.000000
_cell_angle_gamma 90.000000
_cell_volume 3590.764671
_symmetry_space_group_name_H-M "A M M 2"
_symmetry_group_IT_number 38
_symmetry_cell_setting 'orthorhombic'
loop_
_space_group_symop_operation_xyz
x,y,z
-x,-y,z
-x,y,z
x,-y,z
x,1/2+y,1/2+z
-x,1/2-y,1/2+z
-x,1/2+y,1/2+z
x,1/2-y,1/2+z
loop_
_atom_site_type_symbol
_atom_site_label
_atom_site_fract_x
_atom_site_fract_y
_atom_site_fract_z
Si Si1 0.823679 0.790338 0.948340
Si Si2 0.674591 0.922540 0.988885
Si Si3 0.823595 0.292214 0.074747
Si Si4 0.677263 0.074871 0.134657
Si Si5 0.671899 0.578089 0.874545
Si Si6 0.823922 0.293359 0.823739
Si Si7 0.322359 0.716107 0.692556
Si Si8 0.327605 0.578228 0.024461
O O1 0.766403 0.749225 0.885704
O O2 0.000000 0.794525 0.948141
O O3 0.758770 0.867475 0.944234
O O4 0.767147 0.751400 0.012793
O O5 0.500000 0.906410 0.985904
O O6 0.736303 0.914315 0.061805
O O7 0.708098 0.000000 0.963530
O O8 0.739995 0.266079 0.137947
O O9 0.779038 0.371919 0.065229
O O10 0.000000 0.286062 0.084554
O O11 0.500000 0.074208 0.132110
O O12 0.733628 0.137527 0.179016
O O13 0.734163 0.000000 0.160963
O O14 0.500000 0.598542 0.862239
O O15 0.700510 0.500000 0.851340
O O16 0.776648 0.627145 0.832271
O O17 0.713491 0.585653 0.949416
O O18 0.744759 0.261001 0.761032
O O19 0.000000 0.288421 0.814677
O O20 0.500000 0.721760 0.693785
O O21 0.500000 0.598161 0.036002
O O22 0.297498 0.500000 0.047463
#
# Coordination Sequence:
#
# PCOD8179904 Si02
#       8
#     8   8   8   8   8   8   8   8
#     4  10  21  35  53  78 109 144 179 216 265 318
#     4   9  17  31  54  82 107 133 171 220 268 312
#     4  11  21  35  55  81 110 143 181 224 272 325
#     4   8  15  29  49  74 104 136 171 211 257 310
#     4   9  18  33  53  78 108 144 185 224 265 318
#     4  11  23  38  52  75 111 148 183 224 272 326
#     4  11  22  36  55  79 106 145 186 226 273 319
#     4   9  18  33  55  83 111 139 178 227 272 318
#
# _framework density 17.823501
#
# number of rings (size 3 to 8) (size 9 to 14) (size 15 to 20)
#    0.000    2.250    2.500    2.625    0.000    2.750 
#    0.000    2.500    0.000    1.875    0.000    3.500 
#    0.000    0.000    0.000    0.000    0.000    0.000 
#
# Total GULP energy -396793.253115 kJ/mol
# GULP energy per Si atom -12399.789160 kJ/mol
# Density = 1.778293 g / cm^3
# Si number density = 17.823501 Si / 1000 Ang^3
#
#
#
# Elastic Constant Matrix: (Units=GPa)
#
#
# Indices 1 2 3 4 5 6 
#
# 1 50.4130 33.4299 39.9509 0.0000 0.0000 0.0000
# 2 33.4299 97.2615 50.4953 0.0000 0.0000 0.0000
# 3 39.9509 50.4953 106.3200 0.0000 0.0000 0.0000
# 4 0.0000 0.0000 0.0000 23.9018 0.0000 0.0000
# 5 0.0000 0.0000 0.0000 0.0000 26.8357 0.0000
# 6 0.0000 0.0000 0.0000 0.0000 0.0000 28.3181
#
#
#
# Elastic Compliance Matrix: (Units=1/GPa)
#
#
# Indices 1 2 3 4 5 6 
#
# 1 0.030723 -0.006061 -0.008666 0.000000 0.000000 0.000000
# 2 -0.006061 0.014842 -0.004772 0.000000 0.000000 0.000000
# 3 -0.008666 -0.004772 0.014928 0.000000 0.000000 0.000000
# 4 0.000000 0.000000 0.000000 0.041838 0.000000 0.000000
# 5 0.000000 0.000000 0.000000 0.000000 0.037264 0.000000
# 6 0.000000 0.000000 0.000000 0.000000 0.000000 0.035313
#
#
# Mechanical properties :
#
#
# Convention : Reuss Voigt Hill
#
# Bulk Modulus (GPa) = 46.51971 55.74965 51.13468
# Shear Modulus (GPa) = 22.61733 24.48567 23.55150
#
# Velocity S-wave (km/s) = 3.56611 3.71048 3.63901
# Velocity P-wave (km/s) = 6.56606 7.05007 6.81236
#
# Compressibility (1/GPa) = 0.02149626
#
# Stress axis : x y z
#
# Youngs Moduli (GPa) = 32.54930 67.37649 66.98763
#
# Poissons Ratio (x) = 0.40834 0.58051
# Poissons Ratio (y) = 0.19727 0.31964
# Poissons Ratio (z) = 0.28207 0.32150
#
# Static dielectric constant tensor:
#      x y z
#    x 3.079150 0.000000 0.000000 
#    y 0.000000 3.445840 0.000000 
#    z 0.000000 0.000000 3.173740 
# 
# 
# High freq. dielectric constant tensor:
#      x y z
#    x 1.677170 0.000000 0.000000 
#    y 0.000000 1.691880 0.000000 
#    z 0.000000 0.000000 1.668370 
# 
# From -- ./inp_files/17204.got.cif
#   From: 2010.03.12/outbox.cif.g09.slc.cpg/sg38_9_cif.got.tgz:17204.got - 2010.04.14 02:38:36.
