data_PCOD8179883
_publ_section_title
;
Structure prediction by ZEFSAII (Michael W. Deem and Ramdas Pophale) SiO2 
 PCOD8179883
Probable space group: A M M 2
;
_chemical_formula_sum "Si O2"
_cell_formula_units_Z 56
_cell_length_a 9.223739
_cell_length_b 15.641568
_cell_length_c 19.612225
_cell_angle_alpha 90.000000
_cell_angle_beta 90.000000
_cell_angle_gamma 90.000000
_cell_volume 2829.529066
_symmetry_space_group_name_H-M "A M M 2"
_symmetry_group_IT_number 38
_symmetry_cell_setting 'orthorhombic'
loop_
_space_group_symop_operation_xyz
x,y,z
-x,-y,z
-x,y,z
x,-y,z
x,1/2+y,1/2+z
-x,1/2-y,1/2+z
-x,1/2+y,1/2+z
x,1/2-y,1/2+z
loop_
_atom_site_type_symbol
_atom_site_label
_atom_site_fract_x
_atom_site_fract_y
_atom_site_fract_z
Si Si1 0.841371 0.902269 0.869550
Si Si2 0.342059 0.901787 0.749338
Si Si3 0.168626 0.341949 0.974210
Si Si4 0.172187 0.000000 0.382270
Si Si5 0.838768 0.845340 0.630551
Si Si6 0.166608 0.852463 0.125336
Si Si7 0.170920 0.000000 0.227435
Si Si8 0.327223 0.667580 0.487885
O O1 0.764088 0.856790 0.804494
O O2 0.733945 0.899101 0.933560
O O3 0.000000 0.858964 0.882600
O O4 0.868360 0.000000 0.851275
O O5 0.500000 0.856780 0.751084
O O6 0.277584 0.896487 0.673846
O O7 0.361563 0.000000 0.769260
O O8 0.225063 0.415822 0.923228
O O9 0.266093 0.258756 0.962943
O O10 0.000000 0.319277 0.961082
O O11 0.189829 0.370265 0.052351
O O12 0.236039 0.000000 0.304714
O O13 0.000000 0.000000 0.381691
O O14 0.819848 0.745330 0.648085
O O15 0.000000 0.874694 0.651358
O O16 0.000000 0.873789 0.104850
O O17 0.220405 0.915105 0.186035
O O18 0.269332 0.865222 0.060411
O O19 0.000000 0.000000 0.235214
O O20 0.500000 0.669227 0.489036
#
# Coordination Sequence:
#
# PCOD8179883 Si02
#       8
#     8   8   8   4   8   8   4   8
#     4  10  21  37  57  80 107 142 183 226 276 335
#     4  10  21  35  51  77 112 145 180 224 276 337
#     4   9  19  36  58  84 113 147 193 239 280 332
#     4   9  18  34  59  91 118 147 190 245 291 328
#     4   9  18  32  53  79 109 146 191 235 275 326
#     4   9  19  36  56  82 111 145 191 236 277 334
#     4   9  18  34  59  87 114 143 184 237 289 336
#     4  11  22  36  56  82 114 149 186 232 286 339
#
# _framework density 19.791281000000001
#
# number of rings (size 3 to 8) (size 9 to 14) (size 15 to 20)
#    0.000    2.429    0.000    3.000    2.000    5.143 
#    0.000    3.214    0.000    1.714    0.000    0.000 
#    0.000    0.000    0.000    0.000    0.000    0.000 
#
# Total GULP energy -347066.778925 kJ/mol
# GULP energy per Si atom -12395.242104 kJ/mol
# Density = 1.974624 g / cm^3
# Si number density = 19.791281 Si / 1000 Ang^3
#
#
#
# Elastic Constant Matrix: (Units=GPa)
#
#
# Indices 1 2 3 4 5 6 
#
# 1 130.4254 22.0436 61.1419 0.0000 0.0000 0.0000
# 2 22.0436 60.6771 50.1510 0.0000 0.0000 0.0000
# 3 61.1419 50.1510 137.9637 0.0000 0.0000 0.0000
# 4 0.0000 0.0000 0.0000 25.8454 0.0000 0.0000
# 5 0.0000 0.0000 0.0000 0.0000 12.2980 0.0000
# 6 0.0000 0.0000 0.0000 0.0000 0.0000 19.1824
#
#
#
# Elastic Compliance Matrix: (Units=1/GPa)
#
#
# Indices 1 2 3 4 5 6 
#
# 1 0.009678 0.000042 -0.004304 0.000000 0.000000 0.000000
# 2 0.000042 0.023559 -0.008582 0.000000 0.000000 0.000000
# 3 -0.004304 -0.008582 0.012276 0.000000 0.000000 0.000000
# 4 0.000000 0.000000 0.000000 0.038692 0.000000 0.000000
# 5 0.000000 0.000000 0.000000 0.000000 0.081314 0.000000
# 6 0.000000 0.000000 0.000000 0.000000 0.000000 0.052131
#
#
# Mechanical properties :
#
#
# Convention : Reuss Voigt Hill
#
# Bulk Modulus (GPa) = 50.44730 66.19326 58.32028
# Shear Modulus (GPa) = 20.00427 24.51380 22.25903
#
# Velocity S-wave (km/s) = 3.18270 3.52322 3.35728
# Velocity P-wave (km/s) = 6.24909 7.07595 6.67533
#
# Compressibility (1/GPa) = 0.01982267
#
# Stress axis : x y z
#
# Youngs Moduli (GPa) = 103.32812 42.44646 81.46305
#
# Poissons Ratio (x) = -0.00176 0.35062
# Poissons Ratio (y) = -0.00429 0.69914
# Poissons Ratio (z) = 0.44473 0.36429
#
# Static dielectric constant tensor:
#      x y z
#    x 3.634140 0.000000 0.000000 
#    y 0.000000 3.425230 0.000000 
#    z 0.000000 0.000000 3.659700 
# 
# 
# High freq. dielectric constant tensor:
#      x y z
#    x 1.755020 0.000000 0.000000 
#    y 0.000000 1.752870 0.000000 
#    z 0.000000 0.000000 1.776480 
# 
# From -- ./inp_files/19855.got.cif
#   From: 2010.03.12/outbox.cif.g09.slc.cpg/sg38_10_cif.got.tgz:19855.got - 2010.04.14 02:38:36.
