data_PCOD8179070
_publ_section_title
;
Structure prediction by ZEFSAII (Michael W. Deem and Ramdas Pophale) SiO2 
 PCOD8179070
Probable space group: A M M 2
;
_chemical_formula_sum "Si O2"
_cell_formula_units_Z 64
_cell_length_a 9.033550
_cell_length_b 15.348421
_cell_length_c 23.138775
_cell_angle_alpha 90.000000
_cell_angle_beta 90.000000
_cell_angle_gamma 90.000000
_cell_volume 3208.208011
_symmetry_space_group_name_H-M "A M M 2"
_symmetry_group_IT_number 38
_symmetry_cell_setting 'orthorhombic'
loop_
_space_group_symop_operation_xyz
x,y,z
-x,-y,z
-x,y,z
x,-y,z
x,1/2+y,1/2+z
-x,1/2-y,1/2+z
-x,1/2+y,1/2+z
x,1/2-y,1/2+z
loop_
_atom_site_type_symbol
_atom_site_label
_atom_site_fract_x
_atom_site_fract_y
_atom_site_fract_z
Si Si1 0.335294 0.328043 0.571880
Si Si2 0.674849 0.748296 0.692400
Si Si3 0.326429 0.601797 0.364368
Si Si4 0.824882 0.760746 0.308320
Si Si5 0.170838 0.599464 0.905047
Si Si6 0.840058 0.599330 0.476072
Si Si7 0.331940 0.861534 0.523428
Si Si8 0.167768 0.096941 0.636241
O O1 0.500000 0.367586 0.570664
O O2 0.285920 0.312831 0.637780
O O3 0.223911 0.393747 0.540789
O O4 0.327392 0.241038 0.533988
O O5 0.500000 0.754190 0.702660
O O6 0.756243 0.707482 0.747612
O O7 0.733918 0.844903 0.678888
O O8 0.500000 0.618669 0.359594
O O9 0.288817 0.500000 0.351836
O O10 0.242120 0.664740 0.320002
O O11 0.274104 0.633723 0.427929
O O12 0.778863 0.833455 0.355127
O O13 0.000000 0.751850 0.302851
O O14 0.195314 0.500000 0.883441
O O15 0.000000 0.615406 0.921248
O O16 0.269260 0.616869 0.960823
O O17 0.868945 0.500000 0.462606
O O18 0.000000 0.648231 0.471173
O O19 0.500000 0.896346 0.527671
O O20 0.233526 0.908085 0.571779
O O21 0.000000 0.133474 0.633365
O O22 0.169461 0.000000 0.662373
#
# Coordination Sequence:
#
# PCOD8179070 Si02
#       8
#     8   8   8   8   8   8   8   8
#     4   9  19  35  54  77 106 141 177 216 268 327
#     4  10  22  39  57  77 104 139 181 227 270 319
#     4  10  21  37  58  84 115 150 184 222 272 330
#     4  11  23  39  60  82 108 146 188 233 279 323
#     4  10  22  39  57  80 111 147 187 229 276 330
#     4  10  20  33  52  81 112 139 173 220 271 324
#     4  10  20  33  53  83 114 142 176 220 270 324
#     4  10  20  34  54  81 112 144 177 215 262 320
#
# _framework density 19.948830999999998
#
# number of rings (size 3 to 8) (size 9 to 14) (size 15 to 20)
#    0.000    2.000    0.000    4.125    0.000   10.750 
#    0.000    0.625    0.000    2.250    0.000    0.000 
#    0.000    0.000    0.000    0.000    0.000    0.000 
#
# Total GULP energy -396756.090595 kJ/mol
# GULP energy per Si atom -12398.627831 kJ/mol
# Density = 1.990343 g / cm^3
# Si number density = 19.948831 Si / 1000 Ang^3
#
#
#
# Elastic Constant Matrix: (Units=GPa)
#
#
# Indices 1 2 3 4 5 6 
#
# 1 101.9836 25.2819 39.7147 0.0000 0.0000 0.0000
# 2 25.2819 46.4219 29.3854 0.0000 0.0000 0.0000
# 3 39.7147 29.3854 103.5437 0.0000 0.0000 0.0000
# 4 0.0000 0.0000 0.0000 16.5821 0.0000 0.0000
# 5 0.0000 0.0000 0.0000 0.0000 37.9288 0.0000
# 6 0.0000 0.0000 0.0000 0.0000 0.0000 24.9305
#
#
#
# Elastic Compliance Matrix: (Units=1/GPa)
#
#
# Indices 1 2 3 4 5 6 
#
# 1 0.012256 -0.004509 -0.003421 0.000000 0.000000 0.000000
# 2 -0.004509 0.027918 -0.006194 0.000000 0.000000 0.000000
# 3 -0.003421 -0.006194 0.012728 0.000000 0.000000 0.000000
# 4 0.000000 0.000000 0.000000 0.060306 0.000000 0.000000
# 5 0.000000 0.000000 0.000000 0.000000 0.026365 0.000000
# 6 0.000000 0.000000 0.000000 0.000000 0.000000 0.040111
#
#
# Mechanical properties :
#
#
# Convention : Reuss Voigt Hill
#
# Bulk Modulus (GPa) = 40.56166 48.96813 44.76490
# Shear Modulus (GPa) = 23.13225 26.39276 24.76251
#
# Velocity S-wave (km/s) = 3.40895 3.64128 3.52703
# Velocity P-wave (km/s) = 5.98929 6.50221 6.25101
#
# Compressibility (1/GPa) = 0.02465382
#
# Stress axis : x y z
#
# Youngs Moduli (GPa) = 81.59598 35.81946 78.56918
#
# Poissons Ratio (x) = 0.16151 0.26879
# Poissons Ratio (y) = 0.36791 0.48662
# Poissons Ratio (z) = 0.27914 0.22185
#
# Static dielectric constant tensor:
#      x y z
#    x 3.860530 0.000000 0.000000 
#    y 0.000000 3.509590 0.000000 
#    z 0.000000 0.000000 3.592560 
# 
# 
# High freq. dielectric constant tensor:
#      x y z
#    x 1.791130 0.000000 0.000000 
#    y 0.000000 1.762080 0.000000 
#    z 0.000000 0.000000 1.773010 
# 
# From -- ./inp_files/22195.got.cif
#   From: 2010.03.12/outbox.cif.g09.slc.cpg/sg38_12_cif.got.tgz:22195.got - 2010.04.14 02:38:36.
