data_PCOD8179357
_publ_section_title
;
Structure prediction by ZEFSAII (Michael W. Deem and Ramdas Pophale) SiO2 
 PCOD8179357
Probable space group: A M M 2
;
_chemical_formula_sum "Si O2"
_cell_formula_units_Z 56
_cell_length_a 16.453026
_cell_length_b 8.622931
_cell_length_c 19.914282
_cell_angle_alpha 90.000000
_cell_angle_beta 90.000000
_cell_angle_gamma 90.000000
_cell_volume 2825.305063
_symmetry_space_group_name_H-M "A M M 2"
_symmetry_group_IT_number 38
_symmetry_cell_setting 'orthorhombic'
loop_
_space_group_symop_operation_xyz
x,y,z
-x,-y,z
-x,y,z
x,-y,z
x,1/2+y,1/2+z
-x,1/2-y,1/2+z
-x,1/2+y,1/2+z
x,1/2-y,1/2+z
loop_
_atom_site_type_symbol
_atom_site_label
_atom_site_fract_x
_atom_site_fract_y
_atom_site_fract_z
Si Si1 0.408391 0.181002 0.275660
Si Si2 0.591813 0.823600 0.633870
Si Si3 0.248275 0.319252 0.312308
Si Si4 0.166534 0.819542 0.185888
Si Si5 0.730347 0.321136 0.556187
Si Si6 0.170232 0.317327 0.939042
Si Si7 0.000000 0.315402 0.148745
Si Si8 0.000000 0.316209 0.995820
O O1 0.500000 0.234510 0.295107
O O2 0.391817 0.213729 0.197379
O O3 0.343191 0.272371 0.321301
O O4 0.396300 0.000000 0.288486
O O5 0.500000 0.805438 0.607699
O O6 0.649267 0.774287 0.572829
O O7 0.609930 0.000000 0.656036
O O8 0.237675 0.500000 0.325793
O O9 0.222090 0.274681 0.237386
O O10 0.190224 0.225869 0.362758
O O11 0.201191 0.789629 0.111859
O O12 0.076463 0.751617 0.188552
O O13 0.166640 0.000000 0.205400
O O14 0.706659 0.500000 0.551443
O O15 0.763133 0.264623 0.485143
O O16 0.175343 0.500000 0.950270
O O17 0.080056 0.254796 0.957281
O O18 0.000000 0.500000 0.151881
O O19 0.000000 0.253523 0.072118
O O20 0.000000 0.500000 0.996807
#
# Coordination Sequence:
#
# PCOD8179357 Si02
#       8
#     8   8   8   8   8   8   4   4
#     4  10  20  36  60  89 120 157 201 250 306 366
#     4  10  20  34  57  90 124 159 201 252 307 359
#     4  12  25  41  61  90 126 163 206 253 305 364
#     4  11  23  39  61  90 123 160 201 250 304 358
#     4  11  22  37  60  90 122 158 203 249 299 359
#     4  11  23  42  65  88 122 163 203 250 309 371
#     4  11  21  38  63  94 123 155 205 256 308 359
#     4   9  20  38  63  90 115 153 199 244 298 363
#
# _framework density 19.820868999999998
#
# number of rings (size 3 to 8) (size 9 to 14) (size 15 to 20)
#    0.000    1.286    2.857    3.643    0.000    3.429 
#    0.000    4.286    0.000    4.286    0.000    0.000 
#    0.000    0.000    0.000    0.000    0.000    0.000 
#
# Total GULP energy -347358.084251 kJ/mol
# GULP energy per Si atom -12405.645866 kJ/mol
# Density = 1.977576 g / cm^3
# Si number density = 19.820869 Si / 1000 Ang^3
#
#
#
# Elastic Constant Matrix: (Units=GPa)
#
#
# Indices 1 2 3 4 5 6 
#
# 1 128.2799 36.6725 22.1740 0.0000 0.0000 0.0000
# 2 36.6725 67.8330 12.8102 0.0000 0.0000 0.0000
# 3 22.1740 12.8102 52.1781 0.0000 0.0000 0.0000
# 4 0.0000 0.0000 0.0000 31.6725 0.0000 0.0000
# 5 0.0000 0.0000 0.0000 0.0000 31.4463 0.0000
# 6 0.0000 0.0000 0.0000 0.0000 0.0000 32.1644
#
#
#
# Elastic Compliance Matrix: (Units=1/GPa)
#
#
# Indices 1 2 3 4 5 6 
#
# 1 0.009636 -0.004652 -0.002953 0.000000 0.000000 0.000000
# 2 -0.004652 0.017704 -0.002370 0.000000 0.000000 0.000000
# 3 -0.002953 -0.002370 0.021002 0.000000 0.000000 0.000000
# 4 0.000000 0.000000 0.000000 0.031573 0.000000 0.000000
# 5 0.000000 0.000000 0.000000 0.000000 0.031800 0.000000
# 6 0.000000 0.000000 0.000000 0.000000 0.000000 0.031090
#
#
# Mechanical properties :
#
#
# Convention : Reuss Voigt Hill
#
# Bulk Modulus (GPa) = 35.21954 43.51160 39.36557
# Shear Modulus (GPa) = 29.03287 30.83227 29.93257
#
# Velocity S-wave (km/s) = 3.83137 3.94832 3.89029
# Velocity P-wave (km/s) = 6.11392 6.54108 6.33110
#
# Compressibility (1/GPa) = 0.02839333
#
# Stress axis : x y z
#
# Youngs Moduli (GPa) = 103.78088 56.48297 47.61501
#
# Poissons Ratio (x) = 0.26274 0.14060
# Poissons Ratio (y) = 0.48276 0.11284
# Poissons Ratio (z) = 0.30645 0.13385
#
# Static dielectric constant tensor:
#      x y z
#    x 3.797070 0.000000 0.000000 
#    y 0.000000 3.561010 0.000000 
#    z 0.000000 0.000000 3.302910 
# 
# 
# High freq. dielectric constant tensor:
#      x y z
#    x 1.789120 0.000000 0.000000 
#    y 0.000000 1.778420 0.000000 
#    z 0.000000 0.000000 1.747360 
# 
# From -- ./inp_files/21119.got.cif
#   From: 2010.03.12/outbox.cif.g09.slc.cpg/sg38_11_cif.got.tgz:21119.got - 2010.04.14 02:38:36.
