data_PCOD8179036
_publ_section_title
;
Structure prediction by ZEFSAII (Michael W. Deem and Ramdas Pophale) SiO2 
 PCOD8179036
Probable space group: A M M 2
;
_chemical_formula_sum "Si O2"
_cell_formula_units_Z 64
_cell_length_a 9.002408
_cell_length_b 9.634197
_cell_length_c 41.098401
_cell_angle_alpha 90.000000
_cell_angle_beta 90.000000
_cell_angle_gamma 90.000000
_cell_volume 3564.504272
_symmetry_space_group_name_H-M "A M M 2"
_symmetry_group_IT_number 38
_symmetry_cell_setting 'orthorhombic'
loop_
_space_group_symop_operation_xyz
x,y,z
-x,-y,z
-x,y,z
x,-y,z
x,1/2+y,1/2+z
-x,1/2-y,1/2+z
-x,1/2+y,1/2+z
x,1/2-y,1/2+z
loop_
_atom_site_type_symbol
_atom_site_label
_atom_site_fract_x
_atom_site_fract_y
_atom_site_fract_z
Si Si1 0.167205 0.665112 0.550900
Si Si2 0.672104 0.340409 0.863651
Si Si3 0.825235 0.840321 0.179203
Si Si4 0.325759 0.838813 0.985597
Si Si5 0.332383 0.834581 0.114379
Si Si6 0.829542 0.163312 0.810302
Si Si7 0.823671 0.653349 0.237490
Si Si8 0.826877 0.161200 0.430390
O O1 0.167297 0.500000 0.552448
O O2 0.254049 0.716194 0.519026
O O3 0.247416 0.725855 0.582922
O O4 0.000000 0.723531 0.549618
O O5 0.500000 0.313478 0.871427
O O6 0.701704 0.500000 0.854273
O O7 0.721467 0.245822 0.833866
O O8 0.766994 0.297373 0.895017
O O9 0.747433 0.780267 0.146955
O O10 0.761513 0.758649 0.210441
O O11 0.000000 0.819291 0.174695
O O12 0.783743 0.000000 0.184830
O O13 0.500000 0.813191 0.987861
O O14 0.259613 0.752043 0.956295
O O15 0.287760 0.000000 0.979774
O O16 0.500000 0.778372 0.113803
O O17 0.328358 0.000000 0.113556
O O18 0.777613 0.201650 0.773670
O O19 0.000000 0.208860 0.816178
O O20 0.811852 0.000000 0.816506
O O21 0.759159 0.500000 0.230248
O O22 0.000000 0.647971 0.235988
O O23 0.000000 0.197177 0.431991
O O24 0.795798 0.000000 0.437709
#
# Coordination Sequence:
#
# PCOD8179036 Si02
#       8
#     8   8   8   8   8   8   8   8
#     4   9  16  27  45  69  97 128 162 202 245 287
#     4  10  21  36  53  74 100 130 164 202 246 295
#     4   9  16  26  43  68  93 118 154 197 237 280
#     4  10  20  33  51  77 106 134 165 202 246 295
#     4   9  16  26  41  63  93 126 157 194 243 292
#     4   9  18  33  53  76 100 128 164 204 246 294
#     4   8  15  29  48  69  94 124 157 193 235 284
#     4  10  21  37  56  76  99 131 169 205 244 292
#
# _framework density 17.954810999999999
#
# number of rings (size 3 to 8) (size 9 to 14) (size 15 to 20)
#    0.000    2.750    0.000    2.625    0.000    6.500 
#    0.000    1.875    0.000    3.375    0.000    1.750 
#    0.000    0.000    0.000    0.000    0.000    0.000 
#
# Total GULP energy -396793.551999 kJ/mol
# GULP energy per Si atom -12399.798500 kJ/mol
# Density = 1.791395 g / cm^3
# Si number density = 17.954811 Si / 1000 Ang^3
#
#
#
# Elastic Constant Matrix: (Units=GPa)
#
#
# Indices 1 2 3 4 5 6 
#
# 1 84.4665 31.9481 54.2582 0.0000 0.0000 0.0000
# 2 31.9481 46.2804 56.3822 0.0000 0.0000 0.0000
# 3 54.2582 56.3822 150.8682 0.0000 0.0000 0.0000
# 4 0.0000 0.0000 0.0000 26.2013 0.0000 0.0000
# 5 0.0000 0.0000 0.0000 0.0000 14.9132 0.0000
# 6 0.0000 0.0000 0.0000 0.0000 0.0000 20.2851
#
#
#
# Elastic Compliance Matrix: (Units=1/GPa)
#
#
# Indices 1 2 3 4 5 6 
#
# 1 0.016793 -0.007774 -0.003134 0.000000 0.000000 0.000000
# 2 -0.007774 0.043267 -0.013374 0.000000 0.000000 0.000000
# 3 -0.003134 -0.013374 0.012753 0.000000 0.000000 0.000000
# 4 0.000000 0.000000 0.000000 0.038166 0.000000 0.000000
# 5 0.000000 0.000000 0.000000 0.000000 0.067055 0.000000
# 6 0.000000 0.000000 0.000000 0.000000 0.000000 0.049297
#
#
# Mechanical properties :
#
#
# Convention : Reuss Voigt Hill
#
# Bulk Modulus (GPa) = 41.23850 62.97690 52.10770
# Shear Modulus (GPa) = 17.60701 21.54835 19.57768
#
# Velocity S-wave (km/s) = 3.13490 3.46807 3.30568
# Velocity P-wave (km/s) = 6.01009 7.15458 6.60716
#
# Compressibility (1/GPa) = 0.02424919
#
# Stress axis : x y z
#
# Youngs Moduli (GPa) = 59.55006 23.11237 78.41057
#
# Poissons Ratio (x) = 0.17968 0.24573
# Poissons Ratio (y) = 0.46295 1.04864
# Poissons Ratio (z) = 0.18662 0.30910
#
# Static dielectric constant tensor:
#      x y z
#    x 3.312520 0.000000 0.000000 
#    y 0.000000 3.092910 0.000000 
#    z 0.000000 0.000000 3.534100 
# 
# 
# High freq. dielectric constant tensor:
#      x y z
#    x 1.691780 0.000000 0.000000 
#    y 0.000000 1.659480 0.000000 
#    z 0.000000 0.000000 1.709800 
# 
# From -- ./inp_files/24610.got.cif
#   From: 2010.03.12/outbox.cif.g09.slc.cpg/sg38_13_cif.got.tgz:24610.got - 2010.04.14 02:38:36.
