data_PCOD8179552
_publ_section_title
;
Structure prediction by ZEFSAII (Michael W. Deem and Ramdas Pophale) SiO2 
 PCOD8179552
Probable space group: A M M 2
;
_chemical_formula_sum "Si O2"
_cell_formula_units_Z 40
_cell_length_a 7.534637
_cell_length_b 9.300616
_cell_length_c 29.537386
_cell_angle_alpha 90.000000
_cell_angle_beta 90.000000
_cell_angle_gamma 90.000000
_cell_volume 2069.884470
_symmetry_space_group_name_H-M "A M M 2"
_symmetry_group_IT_number 38
_symmetry_cell_setting 'orthorhombic'
loop_
_space_group_symop_operation_xyz
x,y,z
-x,-y,z
-x,y,z
x,-y,z
x,1/2+y,1/2+z
-x,1/2-y,1/2+z
-x,1/2+y,1/2+z
x,1/2-y,1/2+z
loop_
_atom_site_type_symbol
_atom_site_label
_atom_site_fract_x
_atom_site_fract_y
_atom_site_fract_z
Si Si1 0.789043 0.341453 0.269300
Si Si2 0.196284 0.329220 0.170719
Si Si3 0.790021 0.842151 0.351007
Si Si4 0.500000 0.829144 0.602763
Si Si5 0.206476 0.668965 0.952298
Si Si6 0.500000 0.172754 0.008310
O O1 0.706385 0.500000 0.273125
O O2 0.740506 0.271546 0.220277
O O3 0.705467 0.253054 0.311055
O O4 0.000000 0.348480 0.273509
O O5 0.190044 0.500000 0.175084
O O6 0.328421 0.281793 0.131391
O O7 0.000000 0.269819 0.158582
O O8 0.744668 0.783063 0.401067
O O9 0.000000 0.850207 0.345756
O O10 0.707154 0.000000 0.345804
O O11 0.500000 0.732106 0.558854
O O12 0.500000 0.000000 0.591564
O O13 0.249149 0.500000 0.959567
O O14 0.000000 0.698321 0.962951
O O15 0.322918 0.767343 0.984907
O O16 0.500000 0.000000 0.007777
#
# Coordination Sequence:
#
# PCOD8179552 Si02
#       6
#     8   8   8   4   8   4
#     4   8  13  23  42  69 102 137 168 202 250 306
#     4   8  15  29  50  76 102 130 170 215 254 301
#     4   8  14  26  47  76 106 135 170 211 253 301
#     4  10  20  36  57  74  93 131 180 225 267 314
#     4   9  19  38  62  83 106 143 189 228 262 314
#     4  12  26  40  55  80 113 141 172 227 291 340
#
# _framework density 19.324749000000001
#
# number of rings (size 3 to 8) (size 9 to 14) (size 15 to 20)
#    0.000    3.200    0.000    3.300    0.000    2.000 
#    0.000    6.000    0.000    2.400    0.000    0.000 
#    0.000    0.000    0.000    0.000    0.000    0.000 
#
# Total GULP energy -247825.825967 kJ/mol
# GULP energy per Si atom -12391.291298 kJ/mol
# Density = 1.928077 g / cm^3
# Si number density = 19.324749 Si / 1000 Ang^3
#
#
#
# Elastic Constant Matrix: (Units=GPa)
#
#
# Indices 1 2 3 4 5 6 
#
# 1 87.5065 41.9405 69.4662 0.0000 0.0000 0.0000
# 2 41.9405 85.3701 77.3722 0.0000 0.0000 0.0000
# 3 69.4662 77.3722 186.3802 0.0000 0.0000 0.0000
# 4 0.0000 0.0000 0.0000 35.2409 0.0000 0.0000
# 5 0.0000 0.0000 0.0000 0.0000 112.8197 0.0000
# 6 0.0000 0.0000 0.0000 0.0000 0.0000 13.7207
#
#
#
# Elastic Compliance Matrix: (Units=1/GPa)
#
#
# Indices 1 2 3 4 5 6 
#
# 1 0.017126 -0.004214 -0.004634 0.000000 0.000000 0.000000
# 2 -0.004214 0.019816 -0.006656 0.000000 0.000000 0.000000
# 3 -0.004634 -0.006656 0.009855 0.000000 0.000000 0.000000
# 4 0.000000 0.000000 0.000000 0.028376 0.000000 0.000000
# 5 0.000000 0.000000 0.000000 0.000000 0.008864 0.000000
# 6 0.000000 0.000000 0.000000 0.000000 0.000000 0.072882
#
#
# Mechanical properties :
#
#
# Convention : Reuss Voigt Hill
#
# Bulk Modulus (GPa) = 63.32865 81.86829 72.59847
# Shear Modulus (GPa) = 25.88133 43.72147 34.80140
#
# Velocity S-wave (km/s) = 3.66359 4.76169 4.24827
# Velocity P-wave (km/s) = 7.12305 8.52573 7.85576
#
# Compressibility (1/GPa) = 0.01579064
#
# Stress axis : x y z
#
# Youngs Moduli (GPa) = 58.39146 50.46412 101.46769
#
# Poissons Ratio (x) = 0.21266 0.47016
# Poissons Ratio (y) = 0.24606 0.67533
# Poissons Ratio (z) = 0.27056 0.33587
#
# Static dielectric constant tensor:
#      x y z
#    x 3.474270 0.000000 0.000000 
#    y 0.000000 3.451490 0.000000 
#    z 0.000000 0.000000 3.748190 
# 
# 
# High freq. dielectric constant tensor:
#      x y z
#    x 1.742640 0.000000 0.000000 
#    y 0.000000 1.709810 0.000000 
#    z 0.000000 0.000000 1.760920 
# 
# From -- ./inp_files/23271.got.cif
#   From: 2010.03.12/outbox.cif.g09.slc.cpg/sg38_12_cif.got.tgz:23271.got - 2010.04.14 02:38:36.
