data_PCOD8179972
_publ_section_title
;
Structure prediction by ZEFSAII (Michael W. Deem and Ramdas Pophale) SiO2 
 PCOD8179972
Probable space group: A M M 2
;
_chemical_formula_sum "Si O2"
_cell_formula_units_Z 64
_cell_length_a 13.812401
_cell_length_b 8.891558
_cell_length_c 25.902216
_cell_angle_alpha 90.000000
_cell_angle_beta 90.000000
_cell_angle_gamma 90.000000
_cell_volume 3181.148659
_symmetry_space_group_name_H-M "A M M 2"
_symmetry_group_IT_number 38
_symmetry_cell_setting 'orthorhombic'
loop_
_space_group_symop_operation_xyz
x,y,z
-x,-y,z
-x,y,z
x,-y,z
x,1/2+y,1/2+z
-x,1/2-y,1/2+z
-x,1/2+y,1/2+z
x,1/2-y,1/2+z
loop_
_atom_site_type_symbol
_atom_site_label
_atom_site_fract_x
_atom_site_fract_y
_atom_site_fract_z
Si Si1 0.788204 0.677183 0.371230
Si Si2 0.614899 0.330427 0.225747
Si Si3 0.112146 0.325274 0.171392
Si Si4 0.115083 0.671650 0.774567
Si Si5 0.388836 0.823789 0.121570
Si Si6 0.887284 0.674753 0.967192
Si Si7 0.775713 0.176679 0.569925
Si Si8 0.610162 0.177785 0.330454
O O1 0.776194 0.500000 0.370790
O O2 0.844789 0.729255 0.320774
O O3 0.848819 0.725767 0.420687
O O4 0.680770 0.751173 0.373426
O O5 0.500000 0.328437 0.224389
O O6 0.655399 0.500000 0.230310
O O7 0.653201 0.257595 0.172812
O O8 0.649623 0.234039 0.274878
O O9 0.130527 0.500000 0.181755
O O10 0.155936 0.235414 0.220299
O O11 0.161136 0.270731 0.118692
O O12 0.000000 0.287999 0.164818
O O13 0.149529 0.500000 0.781560
O O14 0.000000 0.684969 0.775460
O O15 0.500000 0.780415 0.111061
O O16 0.326854 0.763797 0.073000
O O17 0.376383 0.000000 0.129240
O O18 0.869568 0.500000 0.954374
O O19 0.000000 0.707574 0.976059
O O20 0.830978 0.725472 0.018414
O O21 0.755909 0.000000 0.570455
O O22 0.500000 0.232095 0.340811
O O23 0.616889 0.000000 0.332146
#
# Coordination Sequence:
#
# PCOD8179972 Si02
#       8
#     8   8   8   8   8   8   8   8
#     4  12  25  39  60  88 119 156 199 246 299 357
#     4   9  17  31  53  81 115 155 197 241 289 344
#     4   9  18  34  56  84 118 151 185 232 293 360
#     4  10  21  37  57  83 117 156 196 241 295 355
#     4  10  21  36  54  80 118 162 204 245 292 347
#     4  10  22  43  68  91 117 152 197 250 304 361
#     4  10  21  37  61  89 116 150 196 246 301 358
#     4  10  21  38  60  86 118 156 199 246 296 353
#
# _framework density 20.118518999999999
#
# number of rings (size 3 to 8) (size 9 to 14) (size 15 to 20)
#    0.000    2.000    0.000    3.375    1.750    8.000 
#    0.000    0.625    0.000    3.000    0.000    0.000 
#    0.000    0.000    0.000    0.000    0.000    0.000 
#
# Total GULP energy -396910.253262 kJ/mol
# GULP energy per Si atom -12403.445414 kJ/mol
# Density = 2.007273 g / cm^3
# Si number density = 20.118519 Si / 1000 Ang^3
#
#
#
# Elastic Constant Matrix: (Units=GPa)
#
#
# Indices 1 2 3 4 5 6 
#
# 1 69.9387 37.7566 48.1006 0.0000 0.0000 0.0000
# 2 37.7566 97.4794 45.9307 0.0000 0.0000 0.0000
# 3 48.1006 45.9307 108.4734 0.0000 0.0000 0.0000
# 4 0.0000 0.0000 0.0000 33.4431 0.0000 0.0000
# 5 0.0000 0.0000 0.0000 0.0000 37.3990 0.0000
# 6 0.0000 0.0000 0.0000 0.0000 0.0000 29.6592
#
#
#
# Elastic Compliance Matrix: (Units=1/GPa)
#
#
# Indices 1 2 3 4 5 6 
#
# 1 0.022354 -0.004982 -0.007803 0.000000 0.000000 0.000000
# 2 -0.004982 0.013926 -0.003687 0.000000 0.000000 0.000000
# 3 -0.007803 -0.003687 0.014240 0.000000 0.000000 0.000000
# 4 0.000000 0.000000 0.000000 0.029902 0.000000 0.000000
# 5 0.000000 0.000000 0.000000 0.000000 0.026739 0.000000
# 6 0.000000 0.000000 0.000000 0.000000 0.000000 0.033716
#
#
# Mechanical properties :
#
#
# Convention : Reuss Voigt Hill
#
# Bulk Modulus (GPa) = 56.89715 59.94081 58.41898
# Shear Modulus (GPa) = 27.82720 29.70717 28.76718
#
# Velocity S-wave (km/s) = 3.72313 3.84683 3.78549
# Velocity P-wave (km/s) = 6.84285 7.04197 6.94313
#
# Compressibility (1/GPa) = 0.01757557
#
# Stress axis : x y z
#
# Youngs Moduli (GPa) = 44.73398 71.81017 70.22261
#
# Poissons Ratio (x) = 0.35774 0.54796
# Poissons Ratio (y) = 0.22285 0.25894
# Poissons Ratio (z) = 0.34907 0.26479
#
# Static dielectric constant tensor:
#      x y z
#    x 3.853890 0.000000 0.000000 
#    y 0.000000 3.620240 0.000000 
#    z 0.000000 0.000000 3.648050 
# 
# 
# High freq. dielectric constant tensor:
#      x y z
#    x 1.802060 0.000000 0.000000 
#    y 0.000000 1.784130 0.000000 
#    z 0.000000 0.000000 1.768960 
# 
# From -- ./inp_files/22878.got.cif
#   From: 2010.03.12/outbox.cif.g09.slc.cpg/sg38_12_cif.got.tgz:22878.got - 2010.04.14 02:38:36.
