data_PCOD8179647
_publ_section_title
;
Structure prediction by ZEFSAII (Michael W. Deem and Ramdas Pophale) SiO2 
 PCOD8179647
Probable space group: A M M 2
;
_chemical_formula_sum "Si O2"
_cell_formula_units_Z 46
_cell_length_a 7.552289
_cell_length_b 21.408274
_cell_length_c 13.972376
_cell_angle_alpha 90.000000
_cell_angle_beta 90.000000
_cell_angle_gamma 90.000000
_cell_volume 2259.074322
_symmetry_space_group_name_H-M "A M M 2"
_symmetry_group_IT_number 38
_symmetry_cell_setting 'orthorhombic'
loop_
_space_group_symop_operation_xyz
x,y,z
-x,-y,z
-x,y,z
x,-y,z
x,1/2+y,1/2+z
-x,1/2-y,1/2+z
-x,1/2+y,1/2+z
x,1/2-y,1/2+z
loop_
_atom_site_type_symbol
_atom_site_label
_atom_site_fract_x
_atom_site_fract_y
_atom_site_fract_z
Si Si1 0.789939 0.803640 0.804720
Si Si2 0.500000 0.928709 0.499433
Si Si3 0.792262 0.324379 0.709542
Si Si4 0.500000 0.000000 0.798323
Si Si5 0.201510 0.070830 0.350057
Si Si6 0.207218 0.500000 0.452918
Si Si7 0.500000 0.873872 0.694738
Si Si8 0.208333 0.361089 0.505893
O O1 0.733063 0.733002 0.777275
O O2 0.682965 0.843395 0.728056
O O3 0.000000 0.815244 0.792669
O O4 0.722811 0.824282 0.911016
O O5 0.677470 0.915834 0.440496
O O6 0.500000 0.876213 0.580507
O O7 0.500000 0.000000 0.537014
O O8 0.732513 0.387287 0.762149
O O9 0.710378 0.327768 0.601380
O O10 0.000000 0.321590 0.696335
O O11 0.680846 0.000000 0.857167
O O12 0.500000 0.056717 0.728712
O O13 0.000000 0.087176 0.379657
O O14 0.219569 0.000000 0.314072
O O15 0.257859 0.435380 0.507975
O O16 0.000000 0.500000 0.425761
O O17 0.000000 0.354292 0.506430
#
# Coordination Sequence:
#
# PCOD8179647 Si02
#       8
#     8   4   8   2   8   4   4   8
#     4  10  22  40  58  85 123 156 196 243 290 351
#     4  10  22  39  56  82 117 149 192 247 292 343
#     4   9  19  36  61  89 119 158 196 239 295 353
#     4  12  22  38  60  86 114 148 200 248 300 356
#     4   9  19  37  60  86 116 152 195 242 294 349
#     4  10  20  36  60  89 121 155 191 244 302 347
#     4  12  24  39  61  85 114 157 200 244 299 349
#     4   9  18  34  59  88 119 157 196 238 292 349
#
# _framework density 20.362321999999999
#
# number of rings (size 3 to 8) (size 9 to 14) (size 15 to 20)
#    0.000    2.261    2.174    0.000    1.217    2.783 
#    0.000    6.957    0.000    0.000    0.000    0.000 
#    0.000    0.000    0.000    0.000    0.000    0.000 
#
# Total GULP energy -284992.761253 kJ/mol
# GULP energy per Si atom -12390.989620 kJ/mol
# Density = 2.031598 g / cm^3
# Si number density = 20.362322 Si / 1000 Ang^3
#
#
#
# Elastic Constant Matrix: (Units=GPa)
#
#
# Indices 1 2 3 4 5 6 
#
# 1 69.9189 29.8955 36.5950 0.0000 0.0000 0.0000
# 2 29.8955 142.5926 92.4689 0.0000 0.0000 0.0000
# 3 36.5950 92.4689 168.0306 0.0000 0.0000 0.0000
# 4 0.0000 0.0000 0.0000 31.6590 0.0000 0.0000
# 5 0.0000 0.0000 0.0000 0.0000 -13.6661 0.0000
# 6 0.0000 0.0000 0.0000 0.0000 0.0000 16.2477
#
#
#
# Elastic Compliance Matrix: (Units=1/GPa)
#
#
# Indices 1 2 3 4 5 6 
#
# 1 0.016417 -0.001747 -0.002614 0.000000 0.000000 0.000000
# 2 -0.001747 0.011090 -0.005723 0.000000 0.000000 0.000000
# 3 -0.002614 -0.005723 0.009670 0.000000 0.000000 0.000000
# 4 0.000000 0.000000 0.000000 0.031587 0.000000 0.000000
# 5 0.000000 0.000000 0.000000 0.000000 -0.073174 0.000000
# 6 0.000000 0.000000 0.000000 0.000000 0.000000 0.061547
#
#
# Mechanical properties :
#
#
# Convention : Reuss Voigt Hill
#
# Bulk Modulus (GPa) = 58.78804 77.60677 68.19740
# Shear Modulus (GPa) = 60.25894 21.62028 40.93961
#
# Velocity S-wave (km/s) = 5.44588 3.26203 4.48879
# Velocity P-wave (km/s) = 8.27509 7.23764 7.77369
#
# Compressibility (1/GPa) = 0.01701026
#
# Stress axis : x y z
#
# Youngs Moduli (GPa) = 60.91089 90.16942 103.41379
#
# Poissons Ratio (x) = 0.15750 0.27035
# Poissons Ratio (y) = 0.10639 0.59180
# Poissons Ratio (z) = 0.15924 0.51601
#
# Static dielectric constant tensor:
#      x y z
#    x 3.769920 0.000000 0.000000 
#    y 0.000000 3.998690 0.000000 
#    z 0.000000 0.000000 3.863290 
# 
# 
# High freq. dielectric constant tensor:
#      x y z
#    x 1.787230 0.000000 0.000000 
#    y 0.000000 1.801250 0.000000 
#    z 0.000000 0.000000 1.789930 
# 
# From -- ./inp_files/8185.got.cif
#   From: 2010.03.12/outbox.cif.g09.slc.cpg/sg38_5_cif.got.tgz:8185.got - 2010.04.14 02:38:36.
