data_PCOD8179661
_publ_section_title
;
Structure prediction by ZEFSAII (Michael W. Deem and Ramdas Pophale) SiO2 
 PCOD8179661
Probable space group: A M M 2
;
_chemical_formula_sum "Si O2"
_cell_formula_units_Z 64
_cell_length_a 23.726734
_cell_length_b 8.678649
_cell_length_c 15.137553
_cell_angle_alpha 90.000000
_cell_angle_beta 90.000000
_cell_angle_gamma 90.000000
_cell_volume 3117.064308
_symmetry_space_group_name_H-M "A M M 2"
_symmetry_group_IT_number 38
_symmetry_cell_setting 'orthorhombic'
loop_
_space_group_symop_operation_xyz
x,y,z
-x,-y,z
-x,y,z
x,-y,z
x,1/2+y,1/2+z
-x,1/2-y,1/2+z
-x,1/2+y,1/2+z
x,1/2-y,1/2+z
loop_
_atom_site_type_symbol
_atom_site_label
_atom_site_fract_x
_atom_site_fract_y
_atom_site_fract_z
Si Si1 0.934898 0.177466 0.953080
Si Si2 0.242954 0.676005 0.342614
Si Si3 0.131166 0.678858 0.794040
Si Si4 0.359772 0.320052 0.854352
Si Si5 0.435441 0.679989 0.211205
Si Si6 0.874987 0.821134 0.614831
Si Si7 0.236652 0.675884 0.550593
Si Si8 0.353270 0.679929 0.055594
O O1 0.899368 0.220898 0.867710
O O2 0.000000 0.208236 0.932479
O O3 0.922454 0.000000 0.976063
O O4 0.916451 0.280348 0.035278
O O5 0.235915 0.500000 0.312169
O O6 0.197515 0.780142 0.291799
O O7 0.305200 0.731939 0.316676
O O8 0.233054 0.696559 0.446115
O O9 0.121835 0.500000 0.814135
O O10 0.104965 0.723361 0.699583
O O11 0.348303 0.500000 0.845817
O O12 0.413102 0.271733 0.796131
O O13 0.371894 0.274032 0.956236
O O14 0.500000 0.726605 0.196480
O O15 0.428314 0.500000 0.230575
O O16 0.402874 0.728277 0.122037
O O17 0.810449 0.783897 0.592335
O O18 0.880412 0.000000 0.637110
O O19 0.225686 0.500000 0.579122
O O20 0.297610 0.728269 0.585136
O O21 0.339326 0.500000 0.060999
#
# Coordination Sequence:
#
# PCOD8179661 Si02
#       8
#     8   8   8   8   8   8   8   8
#     4  11  25  47  71  95 129 170 214 265 317 373
#     4  10  20  37  62  90 127 166 204 252 313 377
#     4  12  25  41  65  96 130 168 214 262 315 377
#     4  10  21  37  59  88 120 155 201 254 308 366
#     4  10  22  40  60  83 116 160 207 253 308 376
#     4  12  25  41  65  95 130 170 213 260 316 377
#     4  10  20  36  61  91 127 162 203 256 313 374
#     4   9  20  38  59  84 117 158 204 248 304 371
#
# _framework density 20.532140999999999
#
# number of rings (size 3 to 8) (size 9 to 14) (size 15 to 20)
#    0.000    1.500    1.250    3.750    1.750    4.250 
#    0.000    1.250    0.000    0.000    0.000    0.000 
#    0.000    0.000    0.000    0.000    0.000    0.000 
#
# Total GULP energy -397010.293742 kJ/mol
# GULP energy per Si atom -12406.571679 kJ/mol
# Density = 2.048541 g / cm^3
# Si number density = 20.532141 Si / 1000 Ang^3
#
#
#
# Elastic Constant Matrix: (Units=GPa)
#
#
# Indices 1 2 3 4 5 6 
#
# 1 93.4608 30.9863 26.0189 0.0000 0.0000 0.0000
# 2 30.9863 76.2502 16.2931 0.0000 0.0000 0.0000
# 3 26.0189 16.2931 71.1119 0.0000 0.0000 0.0000
# 4 0.0000 0.0000 0.0000 33.8688 0.0000 0.0000
# 5 0.0000 0.0000 0.0000 0.0000 9.6830 0.0000
# 6 0.0000 0.0000 0.0000 0.0000 0.0000 31.8657
#
#
#
# Elastic Compliance Matrix: (Units=1/GPa)
#
#
# Indices 1 2 3 4 5 6 
#
# 1 0.013279 -0.004583 -0.003809 0.000000 0.000000 0.000000
# 2 -0.004583 0.015371 -0.001845 0.000000 0.000000 0.000000
# 3 -0.003809 -0.001845 0.015879 0.000000 0.000000 0.000000
# 4 0.000000 0.000000 0.000000 0.029526 0.000000 0.000000
# 5 0.000000 0.000000 0.000000 0.000000 0.103274 0.000000
# 6 0.000000 0.000000 0.000000 0.000000 0.000000 0.031382
#
#
# Mechanical properties :
#
#
# Convention : Reuss Voigt Hill
#
# Bulk Modulus (GPa) = 41.56920 43.04663 42.30791
# Shear Modulus (GPa) = 21.07905 26.25180 23.66542
#
# Velocity S-wave (km/s) = 3.20759 3.57959 3.39868
# Velocity P-wave (km/s) = 5.83164 6.17216 6.00432
#
# Compressibility (1/GPa) = 0.02405627
#
# Stress axis : x y z
#
# Youngs Moduli (GPa) = 75.30502 65.05659 62.97757
#
# Poissons Ratio (x) = 0.29813 0.23987
# Poissons Ratio (y) = 0.34509 0.11620
# Poissons Ratio (z) = 0.28682 0.12004
#
# Static dielectric constant tensor:
#      x y z
#    x 3.705750 0.000000 0.000000 
#    y 0.000000 3.707670 0.000000 
#    z 0.000000 0.000000 3.813630 
# 
# 
# High freq. dielectric constant tensor:
#      x y z
#    x 1.796860 0.000000 0.000000 
#    y 0.000000 1.806770 0.000000 
#    z 0.000000 0.000000 1.810720 
# 
# From -- ./inp_files/15869.got.cif
#   From: 2010.03.12/outbox.cif.g09.slc.cpg/sg38_8_cif.got.tgz:15869.got - 2010.04.14 02:38:36.
