data_PCOD8179000
_publ_section_title
;
Structure prediction by ZEFSAII (Michael W. Deem and Ramdas Pophale) SiO2 
 PCOD8179000
Probable space group: A M M 2
;
_chemical_formula_sum "Si O2"
_cell_formula_units_Z 64
_cell_length_a 9.360119
_cell_length_b 20.583037
_cell_length_c 19.342406
_cell_angle_alpha 90.000000
_cell_angle_beta 90.000000
_cell_angle_gamma 90.000000
_cell_volume 3726.501667
_symmetry_space_group_name_H-M "A M M 2"
_symmetry_group_IT_number 38
_symmetry_cell_setting 'orthorhombic'
loop_
_space_group_symop_operation_xyz
x,y,z
-x,-y,z
-x,y,z
x,-y,z
x,1/2+y,1/2+z
-x,1/2-y,1/2+z
-x,1/2+y,1/2+z
x,1/2-y,1/2+z
loop_
_atom_site_type_symbol
_atom_site_label
_atom_site_fract_x
_atom_site_fract_y
_atom_site_fract_z
Si Si1 0.165381 0.573736 0.302670
Si Si2 0.167554 0.124844 0.947830
Si Si3 0.164121 0.385697 0.597600
Si Si4 0.669035 0.813309 0.729770
Si Si5 0.833510 0.769383 0.445516
Si Si6 0.336529 0.427648 0.724383
Si Si7 0.837852 0.232738 0.602644
Si Si8 0.331769 0.688340 0.819804
O O1 0.192540 0.500000 0.278583
O O2 0.205701 0.578321 0.384034
O O3 0.265424 0.620444 0.258914
O O4 0.000000 0.593785 0.292153
O O5 0.229139 0.196782 0.933934
O O6 0.000000 0.134814 0.959097
O O7 0.223534 0.095749 0.020735
O O8 0.253731 0.425779 0.652436
O O9 0.185820 0.309320 0.608965
O O10 0.000000 0.406138 0.606709
O O11 0.500000 0.820953 0.725602
O O12 0.728924 0.803733 0.652857
O O13 0.714183 0.752708 0.777676
O O14 0.806824 0.791222 0.524529
O O15 0.746107 0.815251 0.393645
O O16 0.000000 0.773884 0.426395
O O17 0.500000 0.410684 0.707772
O O18 0.320123 0.500000 0.756096
O O19 0.276646 0.374846 0.778270
O O20 0.000000 0.214866 0.623588
O O21 0.500000 0.686208 0.832559
#
# Coordination Sequence:
#
# PCOD8179000 Si02
#       8
#     8   8   8   8   8   8   8   8
#     4  10  20  34  53  75 102 139 176 211 256 307
#     4   8  15  29  48  73 102 132 167 203 246 299
#     4   9  17  30  50  75 102 132 168 210 248 292
#     4  11  21  33  52  77 104 136 173 216 255 296
#     4   9  17  31  53  78 102 129 164 210 257 299
#     4  10  21  36  50  68 102 142 173 205 249 303
#     4   9  18  32  52  79 105 130 165 210 259 306
#     4  10  20  33  50  75 101 131 172 212 254 300
#
# _framework density 17.174285000000001
#
# number of rings (size 3 to 8) (size 9 to 14) (size 15 to 20)
#    0.000    2.500    2.500    1.875    0.000    2.500 
#    0.000    3.750    0.000    0.750    0.000    3.500 
#    0.000    0.000    0.000    0.000    0.000    0.000 
#
# Total GULP energy -396741.981245 kJ/mol
# GULP energy per Si atom -12398.186914 kJ/mol
# Density = 1.713520 g / cm^3
# Si number density = 17.174285 Si / 1000 Ang^3
#
#
#
# Elastic Constant Matrix: (Units=GPa)
#
#
# Indices 1 2 3 4 5 6 
#
# 1 59.8462 37.4911 48.1703 0.0000 0.0000 0.0000
# 2 37.4911 83.2129 47.1328 0.0000 0.0000 0.0000
# 3 48.1703 47.1328 102.0401 0.0000 0.0000 0.0000
# 4 0.0000 0.0000 0.0000 23.7485 0.0000 0.0000
# 5 0.0000 0.0000 0.0000 0.0000 20.0690 0.0000
# 6 0.0000 0.0000 0.0000 0.0000 0.0000 21.6914
#
#
#
# Elastic Compliance Matrix: (Units=1/GPa)
#
#
# Indices 1 2 3 4 5 6 
#
# 1 0.030007 -0.007443 -0.010727 0.000000 0.000000 0.000000
# 2 -0.007443 0.018122 -0.004857 0.000000 0.000000 0.000000
# 3 -0.010727 -0.004857 0.017107 0.000000 0.000000 0.000000
# 4 0.000000 0.000000 0.000000 0.042108 0.000000 0.000000
# 5 0.000000 0.000000 0.000000 0.000000 0.049828 0.000000
# 6 0.000000 0.000000 0.000000 0.000000 0.000000 0.046101
#
#
# Mechanical properties :
#
#
# Convention : Reuss Voigt Hill
#
# Bulk Modulus (GPa) = 52.13388 56.74307 54.43847
# Shear Modulus (GPa) = 19.55249 20.58879 20.07064
#
# Velocity S-wave (km/s) = 3.37779 3.46615 3.42225
# Velocity P-wave (km/s) = 6.75532 7.00929 6.88348
#
# Compressibility (1/GPa) = 0.01918139
#
# Stress axis : x y z
#
# Youngs Moduli (GPa) = 33.32572 55.18194 58.45394
#
# Poissons Ratio (x) = 0.41074 0.62705
# Poissons Ratio (y) = 0.24806 0.28390
# Poissons Ratio (z) = 0.35749 0.26801
#
# Static dielectric constant tensor:
#      x y z
#    x 3.014900 0.000000 0.000000 
#    y 0.000000 3.027320 0.000000 
#    z 0.000000 0.000000 3.263660 
# 
# 
# High freq. dielectric constant tensor:
#      x y z
#    x 1.646780 0.000000 0.000000 
#    y 0.000000 1.641670 0.000000 
#    z 0.000000 0.000000 1.664370 
# 
# From -- ./inp_files/17172.got.cif
#   From: 2010.03.12/outbox.cif.g09.slc.cpg/sg38_9_cif.got.tgz:17172.got - 2010.04.14 02:38:36.
