data_PCOD8179161
_publ_section_title
;
Structure prediction by ZEFSAII (Michael W. Deem and Ramdas Pophale) SiO2 
 PCOD8179161
Probable space group: A M M 2
;
_chemical_formula_sum "Si O2"
_cell_formula_units_Z 40
_cell_length_a 12.760386
_cell_length_b 9.091907
_cell_length_c 18.549000
_cell_angle_alpha 90.000000
_cell_angle_beta 90.000000
_cell_angle_gamma 90.000000
_cell_volume 2151.985288
_symmetry_space_group_name_H-M "A M M 2"
_symmetry_group_IT_number 38
_symmetry_cell_setting 'orthorhombic'
loop_
_space_group_symop_operation_xyz
x,y,z
-x,-y,z
-x,y,z
x,-y,z
x,1/2+y,1/2+z
-x,1/2-y,1/2+z
-x,1/2+y,1/2+z
x,1/2-y,1/2+z
loop_
_atom_site_type_symbol
_atom_site_label
_atom_site_fract_x
_atom_site_fract_y
_atom_site_fract_z
Si Si1 0.500000 0.325136 0.820750
Si Si2 0.117613 0.673705 0.814186
Si Si3 0.881911 0.169504 0.668836
Si Si4 0.500000 0.175172 0.156111
Si Si5 0.696074 0.325159 0.910841
Si Si6 0.686977 0.672445 0.073686
O O1 0.500000 0.500000 0.822650
O O2 0.500000 0.269450 0.738698
O O3 0.601668 0.262792 0.862128
O O4 0.124713 0.500000 0.806327
O O5 0.154112 0.738747 0.738075
O O6 0.194635 0.731208 0.876832
O O7 0.000000 0.725408 0.833875
O O8 0.803273 0.204019 0.603608
O O9 0.000000 0.212757 0.644339
O O10 0.876497 0.000000 0.691220
O O11 0.396681 0.237227 0.118931
O O12 0.500000 0.000000 0.150709
O O13 0.694049 0.500000 0.911876
O O14 0.684840 0.266861 0.992130
O O15 0.658519 0.500000 0.077487
#
# Coordination Sequence:
#
# PCOD8179161 Si02
#       6
#     4   8   8   4   8   8
#     4   9  17  29  47  69  92 121 156 196 242 289
#     4   9  17  30  50  74  98 128 168 209 245 286
#     4   9  18  32  50  74 104 136 168 203 246 296
#     4  11  22  35  53  75 100 129 164 208 254 301
#     4   9  17  30  49  72  96 123 159 202 245 289
#     4  10  20  34  53  75 101 133 167 205 250 299
#
# _framework density 18.587488
#
# number of rings (size 3 to 8) (size 9 to 14) (size 15 to 20)
#    0.000    2.600    0.000    2.100    0.000    4.800 
#    0.000    5.000    0.000    7.200    0.000    5.600 
#    0.000    0.000    0.000    0.000    0.000    0.000 
#
# Total GULP energy -247992.063828 kJ/mol
# GULP energy per Si atom -12399.603191 kJ/mol
# Density = 1.854518 g / cm^3
# Si number density = 18.587488 Si / 1000 Ang^3
#
#
#
# Elastic Constant Matrix: (Units=GPa)
#
#
# Indices 1 2 3 4 5 6 
#
# 1 137.1002 29.2417 96.0664 0.0000 0.0000 0.0000
# 2 29.2417 27.1301 31.4392 0.0000 0.0000 0.0000
# 3 96.0664 31.4392 179.4242 0.0000 0.0000 0.0000
# 4 0.0000 0.0000 0.0000 25.2825 0.0000 0.0000
# 5 0.0000 0.0000 0.0000 0.0000 33.8008 0.0000
# 6 0.0000 0.0000 0.0000 0.0000 0.0000 21.0725
#
#
#
# Elastic Compliance Matrix: (Units=1/GPa)
#
#
# Indices 1 2 3 4 5 6 
#
# 1 0.012732 -0.007307 -0.005536 0.000000 0.000000 0.000000
# 2 -0.007307 0.050444 -0.004927 0.000000 0.000000 0.000000
# 3 -0.005536 -0.004927 0.009401 0.000000 0.000000 0.000000
# 4 0.000000 0.000000 0.000000 0.039553 0.000000 0.000000
# 5 0.000000 0.000000 0.000000 0.000000 0.029585 0.000000
# 6 0.000000 0.000000 0.000000 0.000000 0.000000 0.047455
#
#
# Mechanical properties :
#
#
# Convention : Reuss Voigt Hill
#
# Bulk Modulus (GPa) = 27.00019 73.01656 50.00837
# Shear Modulus (GPa) = 21.09203 28.49163 24.79183
#
# Velocity S-wave (km/s) = 3.37225 3.91940 3.65607
# Velocity P-wave (km/s) = 5.45163 7.73629 6.69218
#
# Compressibility (1/GPa) = 0.03703678
#
# Stress axis : x y z
#
# Youngs Moduli (GPa) = 78.54335 19.82387 106.37203
#
# Poissons Ratio (x) = 0.14485 0.58893
# Poissons Ratio (y) = 0.57391 0.52407
# Poissons Ratio (z) = 0.43485 0.09767
#
# Static dielectric constant tensor:
#      x y z
#    x 3.747730 0.000000 0.000000 
#    y 0.000000 3.087520 0.000000 
#    z 0.000000 0.000000 3.585550 
# 
# 
# High freq. dielectric constant tensor:
#      x y z
#    x 1.738800 0.000000 0.000000 
#    y 0.000000 1.681240 0.000000 
#    z 0.000000 0.000000 1.725040 
# 
# From -- ./inp_files/14287.got.cif
#   From: 2010.03.12/outbox.cif.g09.slc.cpg/sg38_8_cif.got.tgz:14287.got - 2010.04.14 02:38:36.
