data_PCOD8179866
_publ_section_title
;
Structure prediction by ZEFSAII (Michael W. Deem and Ramdas Pophale) SiO2 
 PCOD8179866
Probable space group: A M M 2
;
_chemical_formula_sum "Si O2"
_cell_formula_units_Z 64
_cell_length_a 9.871205
_cell_length_b 9.118838
_cell_length_c 40.841035
_cell_angle_alpha 90.000000
_cell_angle_beta 90.000000
_cell_angle_gamma 90.000000
_cell_volume 3676.261627
_symmetry_space_group_name_H-M "A M M 2"
_symmetry_group_IT_number 38
_symmetry_cell_setting 'orthorhombic'
loop_
_space_group_symop_operation_xyz
x,y,z
-x,-y,z
-x,y,z
x,-y,z
x,1/2+y,1/2+z
-x,1/2-y,1/2+z
-x,1/2+y,1/2+z
x,1/2-y,1/2+z
loop_
_atom_site_type_symbol
_atom_site_label
_atom_site_fract_x
_atom_site_fract_y
_atom_site_fract_z
Si Si1 0.155509 0.672404 0.438540
Si Si2 0.657842 0.669900 0.134520
Si Si3 0.155188 0.172519 0.504542
Si Si4 0.651894 0.825762 0.809190
Si Si5 0.844261 0.828462 0.752368
Si Si6 0.350391 0.825901 0.560824
Si Si7 0.844319 0.327843 0.685902
Si Si8 0.348087 0.825732 0.881779
O O1 0.177010 0.500000 0.443049
O O2 0.205807 0.750054 0.471553
O O3 0.243750 0.736843 0.408566
O O4 0.000000 0.711620 0.431003
O O5 0.500000 0.694868 0.142710
O O6 0.696494 0.500000 0.139575
O O7 0.689952 0.722007 0.097490
O O8 0.749692 0.769317 0.157320
O O9 0.242904 0.235936 0.534699
O O10 0.000000 0.212924 0.512065
O O11 0.175701 0.000000 0.500087
O O12 0.500000 0.773295 0.800293
O O13 0.756075 0.763772 0.782344
O O14 0.691987 0.767816 0.845489
O O15 0.658403 0.000000 0.809334
O O16 0.798231 0.746022 0.719713
O O17 0.000000 0.796352 0.760924
O O18 0.817333 0.000000 0.746834
O O19 0.500000 0.765040 0.552005
O O20 0.353116 0.000000 0.559701
O O21 0.823903 0.500000 0.689421
O O22 0.000000 0.287152 0.677889
O O23 0.500000 0.773257 0.890671
O O24 0.341514 0.000000 0.881787
#
# Coordination Sequence:
#
# PCOD8179866 Si02
#       8
#     8   8   8   8   8   8   8   8
#     4   9  17  28  42  62  88 116 146 181 219 258
#     4   9  18  33  53  75  96 119 152 195 238 279
#     4   9  17  29  45  65  89 117 148 180 216 261
#     4   8  14  25  42  65  90 113 141 182 228 268
#     4   9  17  29  46  68  91 115 148 190 230 268
#     4   8  15  29  48  69  91 114 144 184 226 266
#     4  10  21  35  49  68  97 130 160 190 228 276
#     4   8  14  25  41  62  88 115 143 179 223 267
#
# _framework density 17.408988000000001
#
# number of rings (size 3 to 8) (size 9 to 14) (size 15 to 20)
#    0.000    3.250    0.000    1.875    0.000    3.000 
#    0.000    5.625    0.000    3.000    0.000    5.250 
#    0.000    0.000    0.000    0.000    0.000    0.000 
#
# Total GULP energy -396689.259759 kJ/mol
# GULP energy per Si atom -12396.539367 kJ/mol
# Density = 1.736936 g / cm^3
# Si number density = 17.408988 Si / 1000 Ang^3
#
#
#
# Elastic Constant Matrix: (Units=GPa)
#
#
# Indices 1 2 3 4 5 6 
#
# 1 99.8064 26.8968 101.2800 0.0000 0.0000 0.0000
# 2 26.8968 27.4919 35.9982 0.0000 0.0000 0.0000
# 3 101.2800 35.9982 171.8290 0.0000 0.0000 0.0000
# 4 0.0000 0.0000 0.0000 19.5514 0.0000 0.0000
# 5 0.0000 0.0000 0.0000 0.0000 41.2079 0.0000
# 6 0.0000 0.0000 0.0000 0.0000 0.0000 16.3586
#
#
#
# Elastic Compliance Matrix: (Units=1/GPa)
#
#
# Indices 1 2 3 4 5 6 
#
# 1 0.025979 -0.007395 -0.013763 0.000000 0.000000 0.000000
# 2 -0.007395 0.052230 -0.006584 0.000000 0.000000 0.000000
# 3 -0.013763 -0.006584 0.015311 0.000000 0.000000 0.000000
# 4 0.000000 0.000000 0.000000 0.051147 0.000000 0.000000
# 5 0.000000 0.000000 0.000000 0.000000 0.024267 0.000000
# 6 0.000000 0.000000 0.000000 0.000000 0.000000 0.061130
#
#
# Mechanical properties :
#
#
# Convention : Reuss Voigt Hill
#
# Bulk Modulus (GPa) = 26.29037 69.71970 48.00503
# Shear Modulus (GPa) = 16.76585 24.42040 20.59313
#
# Velocity S-wave (km/s) = 3.10668 3.74939 3.44307
# Velocity P-wave (km/s) = 5.29179 7.67326 6.59098
#
# Compressibility (1/GPa) = 0.03803674
#
# Stress axis : x y z
#
# Youngs Moduli (GPa) = 38.49326 19.14627 65.31106
#
# Poissons Ratio (x) = 0.14158 0.89889
# Poissons Ratio (y) = 0.28464 0.42998
# Poissons Ratio (z) = 0.52979 0.12605
#
# Static dielectric constant tensor:
#      x y z
#    x 3.420730 0.000000 0.000000 
#    y 0.000000 2.815880 0.000000 
#    z 0.000000 0.000000 3.542840 
# 
# 
# High freq. dielectric constant tensor:
#      x y z
#    x 1.673790 0.000000 0.000000 
#    y 0.000000 1.627830 0.000000 
#    z 0.000000 0.000000 1.682340 
# 
# From -- ./inp_files/24936.got.cif
#   From: 2010.03.12/outbox.cif.g09.slc.cpg/sg38_13_cif.got.tgz:24936.got - 2010.04.14 02:38:36.
