data_PCOD8179876
_publ_section_title
;
Structure prediction by ZEFSAII (Michael W. Deem and Ramdas Pophale) SiO2 
 PCOD8179876
Probable space group: A M M 2
;
_chemical_formula_sum "Si O2"
_cell_formula_units_Z 64
_cell_length_a 9.683502
_cell_length_b 9.088410
_cell_length_c 40.744820
_cell_angle_alpha 90.000000
_cell_angle_beta 90.000000
_cell_angle_gamma 90.000000
_cell_volume 3585.855304
_symmetry_space_group_name_H-M "A M M 2"
_symmetry_group_IT_number 38
_symmetry_cell_setting 'orthorhombic'
loop_
_space_group_symop_operation_xyz
x,y,z
-x,-y,z
-x,y,z
x,-y,z
x,1/2+y,1/2+z
-x,1/2-y,1/2+z
-x,1/2+y,1/2+z
x,1/2-y,1/2+z
loop_
_atom_site_type_symbol
_atom_site_label
_atom_site_fract_x
_atom_site_fract_y
_atom_site_fract_z
Si Si1 0.158182 0.672796 0.449180
Si Si2 0.660270 0.828424 0.142813
Si Si3 0.841088 0.828793 0.515270
Si Si4 0.652637 0.674771 0.822447
Si Si5 0.840474 0.328840 0.763916
Si Si6 0.340768 0.830236 0.576159
Si Si7 0.839674 0.172276 0.697494
Si Si8 0.661886 0.669455 0.895816
O O1 0.175537 0.500000 0.452230
O O2 0.209716 0.743029 0.483175
O O3 0.251920 0.729254 0.419859
O O4 0.000000 0.718613 0.442225
O O5 0.500000 0.797258 0.150390
O O6 0.700898 0.767379 0.107231
O O7 0.750865 0.745219 0.169271
O O8 0.695092 0.000000 0.143970
O O9 0.750456 0.774075 0.545838
O O10 0.000000 0.793620 0.523438
O O11 0.816500 0.000000 0.508458
O O12 0.500000 0.736895 0.814474
O O13 0.648787 0.500000 0.821771
O O14 0.757878 0.735014 0.795154
O O15 0.698522 0.723353 0.858921
O O16 0.808195 0.500000 0.757631
O O17 0.792120 0.239916 0.732068
O O18 0.000000 0.301778 0.771699
O O19 0.500000 0.807875 0.566563
O O20 0.308692 0.000000 0.584614
O O21 0.000000 0.207437 0.690861
O O22 0.809902 0.000000 0.698184
O O23 0.500000 0.690119 0.902713
O O24 0.704829 0.500000 0.900996
#
# Coordination Sequence:
#
# PCOD8179876 Si02
#       8
#     8   8   8   8   8   8   8   8
#     4  10  21  35  50  72 103 136 170 209 253 299
#     4  10  21  36  54  77 104 134 169 208 250 297
#     4   9  18  33  52  73  98 130 168 207 246 292
#     4   8  15  29  49  73  99 126 160 204 250 296
#     4   9  17  30  49  73 100 129 163 204 249 297
#     4   9  18  33  52  74 101 131 163 202 247 295
#     4  10  21  36  53  74 102 136 172 209 250 297
#     4   9  18  33  53  76 101 131 169 210 251 299
#
# _framework density 17.847904
#
# number of rings (size 3 to 8) (size 9 to 14) (size 15 to 20)
#    0.000    2.750    0.000    1.875    0.000    5.000 
#    0.000    5.625    0.000    2.250    0.000    0.000 
#    0.000    0.000    0.000    0.000    0.000    0.000 
#
# Total GULP energy -396838.001521 kJ/mol
# GULP energy per Si atom -12401.187548 kJ/mol
# Density = 1.780728 g / cm^3
# Si number density = 17.847904 Si / 1000 Ang^3
#
#
#
# Elastic Constant Matrix: (Units=GPa)
#
#
# Indices 1 2 3 4 5 6 
#
# 1 76.3285 41.8340 87.2835 0.0000 0.0000 0.0000
# 2 41.8340 66.6519 64.0837 0.0000 0.0000 0.0000
# 3 87.2835 64.0837 170.4899 0.0000 0.0000 0.0000
# 4 0.0000 0.0000 0.0000 28.2879 0.0000 0.0000
# 5 0.0000 0.0000 0.0000 0.0000 43.4990 0.0000
# 6 0.0000 0.0000 0.0000 0.0000 0.0000 23.2167
#
#
#
# Elastic Compliance Matrix: (Units=1/GPa)
#
#
# Indices 1 2 3 4 5 6 
#
# 1 0.033637 -0.007133 -0.014540 0.000000 0.000000 0.000000
# 2 -0.007133 0.025006 -0.005748 0.000000 0.000000 0.000000
# 3 -0.014540 -0.005748 0.015470 0.000000 0.000000 0.000000
# 4 0.000000 0.000000 0.000000 0.035351 0.000000 0.000000
# 5 0.000000 0.000000 0.000000 0.000000 0.022989 0.000000
# 6 0.000000 0.000000 0.000000 0.000000 0.000000 0.043072
#
#
# Mechanical properties :
#
#
# Convention : Reuss Voigt Hill
#
# Bulk Modulus (GPa) = 51.88684 77.76363 64.82523
# Shear Modulus (GPa) = 21.11575 27.01867 24.06721
#
# Velocity S-wave (km/s) = 3.44335 3.89502 3.67612
# Velocity P-wave (km/s) = 6.70400 7.99331 7.37688
#
# Compressibility (1/GPa) = 0.01927271
#
# Stress axis : x y z
#
# Youngs Moduli (GPa) = 29.72911 39.98961 64.64303
#
# Poissons Ratio (x) = 0.28524 0.93989
# Poissons Ratio (y) = 0.21205 0.37155
# Poissons Ratio (z) = 0.43225 0.22985
#
# Static dielectric constant tensor:
#      x y z
#    x 3.048320 0.000000 0.000000 
#    y 0.000000 3.179920 0.000000 
#    z 0.000000 0.000000 3.478120 
# 
# 
# High freq. dielectric constant tensor:
#      x y z
#    x 1.688030 0.000000 0.000000 
#    y 0.000000 1.677650 0.000000 
#    z 0.000000 0.000000 1.700000 
# 
# From -- ./inp_files/24932.got.cif
#   From: 2010.03.12/outbox.cif.g09.slc.cpg/sg38_13_cif.got.tgz:24932.got - 2010.04.14 02:38:36.
