data_PCOD8179825
_publ_section_title
;
Structure prediction by ZEFSAII (Michael W. Deem and Ramdas Pophale) SiO2 
 PCOD8179825
Probable space group: A M M 2
;
_chemical_formula_sum "Si O2"
_cell_formula_units_Z 48
_cell_length_a 7.830801
_cell_length_b 33.845380
_cell_length_c 8.980869
_cell_angle_alpha 90.000000
_cell_angle_beta 90.000000
_cell_angle_gamma 90.000000
_cell_volume 2380.257508
_symmetry_space_group_name_H-M "A M M 2"
_symmetry_group_IT_number 38
_symmetry_cell_setting 'orthorhombic'
loop_
_space_group_symop_operation_xyz
x,y,z
-x,-y,z
-x,y,z
x,-y,z
x,1/2+y,1/2+z
-x,1/2-y,1/2+z
-x,1/2+y,1/2+z
x,1/2-y,1/2+z
loop_
_atom_site_type_symbol
_atom_site_label
_atom_site_fract_x
_atom_site_fract_y
_atom_site_fract_z
Si Si1 0.500000 0.206796 0.320580
Si Si2 0.803300 0.652330 0.174561
Si Si3 0.500000 0.709161 0.169999
Si Si4 0.803787 0.928645 0.828601
Si Si5 0.304739 0.923075 0.163544
Si Si6 0.687116 0.500000 0.138714
Si Si7 0.809713 0.347949 0.830127
Si Si8 0.192393 0.000000 0.321702
O O1 0.500000 0.248054 0.239323
O O2 0.500000 0.214604 0.494569
O O3 0.330014 0.183144 0.271623
O O4 0.672606 0.686833 0.222305
O O5 0.751163 0.614638 0.272139
O O6 0.000000 0.665489 0.205245
O O7 0.775349 0.641195 0.002100
O O8 0.000000 0.936903 0.794889
O O9 0.700131 0.961477 0.740810
O O10 0.767606 0.932763 0.002119
O O11 0.500000 0.909589 0.153786
O O12 0.197087 0.887887 0.235787
O O13 0.290442 0.961551 0.265239
O O14 0.500000 0.500000 0.066330
O O15 0.817441 0.500000 0.001249
O O16 0.000000 0.329713 0.810565
O O17 0.000000 0.000000 0.259485
#
# Coordination Sequence:
#
# PCOD8179825 Si02
#       8
#     4   8   4   8   8   4   8   4
#     4  10  22  40  58  95 116 161 192 246 295 364
#     4   9  21  39  63  89 117 159 204 245 296 361
#     4  10  22  38  64  85 128 151 198 242 303 352
#     4  11  23  40  60  87 122 160 201 248 303 357
#     4  12  24  39  60  90 123 157 202 253 304 354
#     4  12  25  40  61  88 118 160 208 254 301 352
#     4  10  20  40  64  88 120 159 203 247 296 360
#     4  12  25  42  61  84 118 164 208 249 300 357
#
# _framework density 20.165884999999999
#
# number of rings (size 3 to 8) (size 9 to 14) (size 15 to 20)
#    0.000    1.333    0.833    5.000    2.333    3.333 
#    0.000    0.000    0.000    0.000    0.000    0.000 
#    0.000    0.000    0.000    0.000    0.000    0.000 
#
# Total GULP energy -297714.508986 kJ/mol
# GULP energy per Si atom -12404.771208 kJ/mol
# Density = 2.011999 g / cm^3
# Si number density = 20.165885 Si / 1000 Ang^3
#
#
#
# Elastic Constant Matrix: (Units=GPa)
#
#
# Indices 1 2 3 4 5 6 
#
# 1 117.3647 60.3797 17.2630 0.0000 0.0000 0.0000
# 2 60.3797 141.5518 56.9095 0.0000 0.0000 0.0000
# 3 17.2630 56.9095 87.6950 0.0000 0.0000 0.0000
# 4 0.0000 0.0000 0.0000 39.3040 0.0000 0.0000
# 5 0.0000 0.0000 0.0000 0.0000 25.7072 0.0000
# 6 0.0000 0.0000 0.0000 0.0000 0.0000 19.6692
#
#
#
# Elastic Compliance Matrix: (Units=1/GPa)
#
#
# Indices 1 2 3 4 5 6 
#
# 1 0.011007 -0.005174 0.001191 0.000000 0.000000 0.000000
# 2 -0.005174 0.011990 -0.006763 0.000000 0.000000 0.000000
# 3 0.001191 -0.006763 0.015557 0.000000 0.000000 0.000000
# 4 0.000000 0.000000 0.000000 0.025443 0.000000 0.000000
# 5 0.000000 0.000000 0.000000 0.000000 0.038900 0.000000
# 6 0.000000 0.000000 0.000000 0.000000 0.000000 0.050841
#
#
# Mechanical properties :
#
#
# Convention : Reuss Voigt Hill
#
# Bulk Modulus (GPa) = 58.60508 68.41287 63.50898
# Shear Modulus (GPa) = 27.63699 31.07339 29.35519
#
# Velocity S-wave (km/s) = 3.70602 3.92967 3.81948
# Velocity P-wave (km/s) = 6.88748 7.38840 7.14233
#
# Compressibility (1/GPa) = 0.01706337
#
# Stress axis : x y z
#
# Youngs Moduli (GPa) = 90.85082 83.40054 64.27835
#
# Poissons Ratio (x) = 0.43150 -0.07654
# Poissons Ratio (y) = 0.47005 0.43469
# Poissons Ratio (z) = -0.10819 0.56401
#
# Static dielectric constant tensor:
#      x y z
#    x 3.883200 0.000000 0.000000 
#    y 0.000000 3.538770 0.000000 
#    z 0.000000 0.000000 3.588030 
# 
# 
# High freq. dielectric constant tensor:
#      x y z
#    x 1.807110 0.000000 0.000000 
#    y 0.000000 1.778910 0.000000 
#    z 0.000000 0.000000 1.786690 
# 
# From -- ./inp_files/3860.got.cif
#   From: 2010.03.12/outbox.cif.g09.slc.cpg/sg38_2_cif.got.tgz:3860.got - 2010.04.14 02:38:36.
