data_PCOD8179678
_publ_section_title
;
Structure prediction by ZEFSAII (Michael W. Deem and Ramdas Pophale) SiO2 
 PCOD8179678
Probable space group: A M M 2
;
_chemical_formula_sum "Si O2"
_cell_formula_units_Z 64
_cell_length_a 19.135967
_cell_length_b 9.444934
_cell_length_c 19.878798
_cell_angle_alpha 90.000000
_cell_angle_beta 90.000000
_cell_angle_gamma 90.000000
_cell_volume 3592.853106
_symmetry_space_group_name_H-M "A M M 2"
_symmetry_group_IT_number 38
_symmetry_cell_setting 'orthorhombic'
loop_
_space_group_symop_operation_xyz
x,y,z
-x,-y,z
-x,y,z
x,-y,z
x,1/2+y,1/2+z
-x,1/2-y,1/2+z
-x,1/2+y,1/2+z
x,1/2-y,1/2+z
loop_
_atom_site_type_symbol
_atom_site_label
_atom_site_fract_x
_atom_site_fract_y
_atom_site_fract_z
Si Si1 0.644638 0.336206 0.363190
Si Si2 0.418584 0.162926 0.247613
Si Si3 0.796664 0.161239 0.657437
Si Si4 0.794580 0.663792 0.311815
Si Si5 0.076429 0.159820 0.153518
Si Si6 0.643127 0.834498 0.625486
Si Si7 0.923292 0.660011 0.813476
Si Si8 0.580707 0.339448 0.506011
O O1 0.631416 0.500000 0.342352
O O2 0.595602 0.234369 0.319489
O O3 0.725482 0.294505 0.352994
O O4 0.626672 0.309657 0.440534
O O5 0.500000 0.169718 0.230870
O O6 0.377869 0.251808 0.192172
O O7 0.392632 0.000000 0.248106
O O8 0.781838 0.207551 0.734342
O O9 0.860008 0.248452 0.623505
O O10 0.726189 0.185703 0.614866
O O11 0.820954 0.000000 0.655386
O O12 0.812003 0.500000 0.318878
O O13 0.861047 0.745090 0.343693
O O14 0.078279 0.169921 0.233457
O O15 0.000000 0.214067 0.128315
O O16 0.087890 0.000000 0.129069
O O17 0.602707 0.771590 0.562321
O O18 0.624105 0.000000 0.633927
O O19 0.910589 0.500000 0.837440
O O20 0.000000 0.712093 0.838792
O O21 0.500000 0.315706 0.487530
O O22 0.592847 0.500000 0.532316
#
# Coordination Sequence:
#
# PCOD8179678 Si02
#       8
#     8   8   8   8   8   8   8   8
#     4  10  20  37  57  77 104 138 172 211 263 316
#     4  11  23  36  53  79 106 131 168 215 259 311
#     4   9  17  29  45  69  99 130 167 207 248 300
#     4   9  16  28  46  70  99 129 166 207 248 301
#     4   8  14  24  39  63  96 132 166 199 242 296
#     4  11  22  37  55  76 104 138 174 214 262 313
#     4   8  14  24  38  61  96 134 167 199 242 295
#     4  10  22  39  57  77 102 134 174 218 264 316
#
# _framework density 17.813141999999999
#
# number of rings (size 3 to 8) (size 9 to 14) (size 15 to 20)
#    0.000    2.500    1.250    2.250    0.000    5.750 
#    0.000    2.500    0.000    0.000    0.000    0.875 
#    0.000    1.000    0.000    0.000    0.000    0.000 
#
# Total GULP energy -396727.497856 kJ/mol
# GULP energy per Si atom -12397.734308 kJ/mol
# Density = 1.777260 g / cm^3
# Si number density = 17.813142 Si / 1000 Ang^3
#
#
#
# Elastic Constant Matrix: (Units=GPa)
#
#
# Indices 1 2 3 4 5 6 
#
# 1 104.8838 47.2980 14.0850 0.0000 0.0000 0.0000
# 2 47.2980 89.0331 25.8219 0.0000 0.0000 0.0000
# 3 14.0850 25.8219 37.9327 0.0000 0.0000 0.0000
# 4 0.0000 0.0000 0.0000 21.3930 0.0000 0.0000
# 5 0.0000 0.0000 0.0000 0.0000 17.6470 0.0000
# 6 0.0000 0.0000 0.0000 0.0000 0.0000 36.3922
#
#
#
# Elastic Compliance Matrix: (Units=1/GPa)
#
#
# Indices 1 2 3 4 5 6 
#
# 1 0.012539 -0.006617 -0.000151 0.000000 0.000000 0.000000
# 2 -0.006617 0.017487 -0.009447 0.000000 0.000000 0.000000
# 3 -0.000151 -0.009447 0.032849 0.000000 0.000000 0.000000
# 4 0.000000 0.000000 0.000000 0.046744 0.000000 0.000000
# 5 0.000000 0.000000 0.000000 0.000000 0.056667 0.000000
# 6 0.000000 0.000000 0.000000 0.000000 0.000000 0.027478
#
#
# Mechanical properties :
#
#
# Convention : Reuss Voigt Hill
#
# Bulk Modulus (GPa) = 32.84671 45.13992 38.99332
# Shear Modulus (GPa) = 21.15567 24.72942 22.94254
#
# Velocity S-wave (km/s) = 3.44996 3.72999 3.59270
# Velocity P-wave (km/s) = 5.86082 6.62920 6.25682
#
# Compressibility (1/GPa) = 0.03044445
#
# Stress axis : x y z
#
# Youngs Moduli (GPa) = 79.75274 57.18561 30.44198
#
# Poissons Ratio (x) = 0.37841 0.00461
# Poissons Ratio (y) = 0.52774 0.28758
# Poissons Ratio (z) = 0.01207 0.54022
#
# Static dielectric constant tensor:
#      x y z
#    x 3.654200 0.000000 0.000000 
#    y 0.000000 3.402220 0.000000 
#    z 0.000000 0.000000 2.854130 
# 
# 
# High freq. dielectric constant tensor:
#      x y z
#    x 1.705740 0.000000 0.000000 
#    y 0.000000 1.691650 0.000000 
#    z 0.000000 0.000000 1.636070 
# 
# From -- ./inp_files/21430.got.cif
#   From: 2010.03.12/outbox.cif.g09.slc.cpg/sg38_11_cif.got.tgz:21430.got - 2010.04.14 02:38:36.
