data_PCOD8179795
_publ_section_title
;
Structure prediction by ZEFSAII (Michael W. Deem and Ramdas Pophale) SiO2 
 PCOD8179795
Probable space group: A M M 2
;
_chemical_formula_sum "Si O2"
_cell_formula_units_Z 56
_cell_length_a 13.344157
_cell_length_b 19.390249
_cell_length_c 9.796908
_cell_angle_alpha 90.000000
_cell_angle_beta 90.000000
_cell_angle_gamma 90.000000
_cell_volume 2534.915920
_symmetry_space_group_name_H-M "A M M 2"
_symmetry_group_IT_number 38
_symmetry_cell_setting 'orthorhombic'
loop_
_space_group_symop_operation_xyz
x,y,z
-x,-y,z
-x,y,z
x,-y,z
x,1/2+y,1/2+z
-x,1/2-y,1/2+z
-x,1/2+y,1/2+z
x,1/2-y,1/2+z
loop_
_atom_site_type_symbol
_atom_site_label
_atom_site_fract_x
_atom_site_fract_y
_atom_site_fract_z
Si Si1 0.382580 0.424140 0.588240
Si Si2 0.112390 0.801760 0.027346
Si Si3 0.112949 0.078805 0.838231
Si Si4 0.725966 0.576401 0.862101
Si Si5 0.385472 0.816810 0.867118
Si Si6 0.206826 0.281767 0.804820
Si Si7 0.693719 0.077720 0.671823
O O1 0.500000 0.423319 0.568437
O O2 0.341024 0.500000 0.541823
O O3 0.358512 0.411912 0.746990
O O4 0.340585 0.361431 0.494850
O O5 0.187100 0.774105 0.143634
O O6 0.000000 0.797168 0.084444
O O7 0.137587 0.879458 0.977246
O O8 0.121826 0.755587 0.891761
O O9 0.192078 0.097107 0.717942
O O10 0.000000 0.096428 0.785339
O O11 0.121607 0.000000 0.881971
O O12 0.775886 0.500000 0.848712
O O13 0.805336 0.637402 0.841667
O O14 0.677787 0.584219 0.010704
O O15 0.500000 0.791830 0.889515
O O16 0.316128 0.749953 0.842165
O O17 0.382860 0.868309 0.738082
O O18 0.667673 0.000000 0.719814
#
# Coordination Sequence:
#
# PCOD8179795 Si02
#       7
#     8   8   8   8   8   8   8
#     4   9  19  38  63  90 121 162 215 266 313 368
#     4  11  24  43  68  95 127 167 212 263 323 391
#     4   9  19  38  67  99 128 164 214 269 323 381
#     4  10  23  40  60  88 124 166 206 256 322 381
#     4  11  23  40  63  93 126 169 219 268 316 378
#     4  12  24  42  63  93 129 167 212 263 325 383
#     4  10  20  38  63  93 130 169 212 263 317 381
#
# _framework density 22.091463000000001
#
# number of rings (size 3 to 8) (size 9 to 14) (size 15 to 20)
#    0.000    1.714    1.429    2.571    0.000    2.571 
#    0.000    5.714    0.000    2.143    0.000    0.000 
#    0.000    0.000    0.000    0.000    0.000    0.000 
#
# Total GULP energy -347068.150470 kJ/mol
# GULP energy per Si atom -12395.291088 kJ/mol
# Density = 2.204118 g / cm^3
# Si number density = 22.091463 Si / 1000 Ang^3
#
#
#
# Elastic Constant Matrix: (Units=GPa)
#
#
# Indices 1 2 3 4 5 6 
#
# 1 77.6769 33.4667 30.6709 0.0000 0.0000 0.0000
# 2 33.4667 120.0110 51.4385 0.0000 0.0000 0.0000
# 3 30.6709 51.4385 142.4566 0.0000 0.0000 0.0000
# 4 0.0000 0.0000 0.0000 35.2773 0.0000 0.0000
# 5 0.0000 0.0000 0.0000 0.0000 26.1209 0.0000
# 6 0.0000 0.0000 0.0000 0.0000 0.0000 25.7964
#
#
#
# Elastic Compliance Matrix: (Units=1/GPa)
#
#
# Indices 1 2 3 4 5 6 
#
# 1 0.015122 -0.003338 -0.002050 0.000000 0.000000 0.000000
# 2 -0.003338 0.010595 -0.003107 0.000000 0.000000 0.000000
# 3 -0.002050 -0.003107 0.008583 0.000000 0.000000 0.000000
# 4 0.000000 0.000000 0.000000 0.028347 0.000000 0.000000
# 5 0.000000 0.000000 0.000000 0.000000 0.038283 0.000000
# 6 0.000000 0.000000 0.000000 0.000000 0.000000 0.038765
#
#
# Mechanical properties :
#
#
# Convention : Reuss Voigt Hill
#
# Bulk Modulus (GPa) = 57.77383 63.47742 60.62563
# Shear Modulus (GPa) = 30.77762 32.41016 31.59389
#
# Velocity S-wave (km/s) = 3.73660 3.83442 3.78582
# Velocity P-wave (km/s) = 6.69515 6.95701 6.82734
#
# Compressibility (1/GPa) = 0.01730887
#
# Stress axis : x y z
#
# Youngs Moduli (GPa) = 66.13049 94.38281 116.50905
#
# Poissons Ratio (x) = 0.31505 0.23889
# Poissons Ratio (y) = 0.22075 0.36200
# Poissons Ratio (z) = 0.13559 0.29325
#
# Static dielectric constant tensor:
#      x y z
#    x 3.751300 0.000000 0.000000 
#    y 0.000000 4.316630 0.000000 
#    z 0.000000 0.000000 3.959620 
# 
# 
# High freq. dielectric constant tensor:
#      x y z
#    x 1.846680 0.000000 0.000000 
#    y 0.000000 1.882440 0.000000 
#    z 0.000000 0.000000 1.867950 
# 
# From -- ./inp_files/5681.got.cif
#   From: 2010.03.12/outbox.cif.g09.slc.cpg/sg38_3_cif.got.tgz:5681.got - 2010.04.14 02:38:36.
