data_PCOD8179952
_publ_section_title
;
Structure prediction by ZEFSAII (Michael W. Deem and Ramdas Pophale) SiO2 
 PCOD8179952
Probable space group: A M M 2
;
_chemical_formula_sum "Si O2"
_cell_formula_units_Z 64
_cell_length_a 9.164253
_cell_length_b 9.531685
_cell_length_c 41.056202
_cell_angle_alpha 90.000000
_cell_angle_beta 90.000000
_cell_angle_gamma 90.000000
_cell_volume 3586.290975
_symmetry_space_group_name_H-M "A M M 2"
_symmetry_group_IT_number 38
_symmetry_cell_setting 'orthorhombic'
loop_
_space_group_symop_operation_xyz
x,y,z
-x,-y,z
-x,y,z
x,-y,z
x,1/2+y,1/2+z
-x,1/2-y,1/2+z
-x,1/2+y,1/2+z
x,1/2-y,1/2+z
loop_
_atom_site_type_symbol
_atom_site_label
_atom_site_fract_x
_atom_site_fract_y
_atom_site_fract_z
Si Si1 0.669777 0.836395 0.555720
Si Si2 0.835411 0.667117 0.302035
Si Si3 0.335411 0.332883 0.364542
Si Si4 0.830222 0.336395 0.610857
Si Si5 0.330345 0.162439 0.738235
Si Si6 0.169655 0.337561 0.428342
Si Si7 0.831731 0.837782 0.490458
Si Si8 0.331731 0.337781 0.676118
O O1 0.500000 0.798673 0.556015
O O2 0.750000 0.750001 0.583289
O O3 0.735067 0.791260 0.521029
O O4 0.697916 0.000000 0.562278
O O5 0.832885 0.500000 0.303046
O O6 0.750000 0.727951 0.333288
O O7 0.757817 0.720389 0.269225
O O8 0.000000 0.724867 0.302791
O O9 0.500000 0.275134 0.363786
O O10 0.332884 0.500000 0.363531
O O11 0.257818 0.279611 0.397352
O O12 0.802082 0.500000 0.604298
O O13 0.764933 0.291261 0.645548
O O14 0.000000 0.298675 0.610562
O O15 0.500000 0.187342 0.745574
O O16 0.277872 0.248190 0.706831
O O17 0.296230 0.000000 0.731541
O O18 0.203770 0.500000 0.435036
O O19 0.222128 0.251810 0.459746
O O20 0.000000 0.312658 0.421003
O O21 0.000000 0.805496 0.498845
O O22 0.807958 0.000000 0.481817
O O23 0.500000 0.305495 0.667731
O O24 0.307959 0.500000 0.684760
#
# Coordination Sequence:
#
# PCOD8179952 Si02
#       8
#     8   8   8   8   8   8   8   8
#     4  10  21  36  54  76 101 130 165 204 246 293
#     4   9  16  26  42  65  93 123 154 191 236 282
#     4   9  16  26  42  65  93 123 154 191 236 282
#     4  10  21  36  54  76 101 130 165 204 246 293
#     4   9  17  29  46  69  95 122 155 195 236 279
#     4   9  17  29  46  69  95 122 155 195 236 279
#     4   9  18  33  51  70  96 130 162 193 236 289
#     4   9  18  33  51  70  96 130 162 193 236 289
#
# _framework density 17.845735000000001
#
# number of rings (size 3 to 8) (size 9 to 14) (size 15 to 20)
#    0.000    2.750    0.000    1.500    0.000    6.500 
#    0.000    2.500    0.000    0.750    0.000    0.000 
#    0.000    0.000    0.000    0.000    0.000    0.000 
#
# Total GULP energy -396863.189284 kJ/mol
# GULP energy per Si atom -12401.974665 kJ/mol
# Density = 1.780512 g / cm^3
# Si number density = 17.845735 Si / 1000 Ang^3
#
#
#
# Elastic Constant Matrix: (Units=GPa)
#
#
# Indices 1 2 3 4 5 6 
#
# 1 123.2202 41.5166 105.1131 0.0000 0.0000 0.0000
# 2 41.5166 43.2078 66.2537 0.0000 0.0000 0.0000
# 3 105.1131 66.2537 198.4520 0.0000 0.0000 0.0000
# 4 0.0000 0.0000 0.0000 26.8370 0.0000 0.0000
# 5 0.0000 0.0000 0.0000 0.0000 40.9545 0.0000
# 6 0.0000 0.0000 0.0000 0.0000 0.0000 18.2503
#
#
#
# Elastic Compliance Matrix: (Units=1/GPa)
#
#
# Indices 1 2 3 4 5 6 
#
# 1 0.015247 -0.004645 -0.006525 0.000000 0.000000 0.000000
# 2 -0.004645 0.048833 -0.013843 0.000000 0.000000 0.000000
# 3 -0.006525 -0.013843 0.013117 0.000000 0.000000 0.000000
# 4 0.000000 0.000000 0.000000 0.037262 0.000000 0.000000
# 5 0.000000 0.000000 0.000000 0.000000 0.024417 0.000000
# 6 0.000000 0.000000 0.000000 0.000000 0.000000 0.054794
#
#
# Mechanical properties :
#
#
# Convention : Reuss Voigt Hill
#
# Bulk Modulus (GPa) = 36.80353 87.84967 62.32660
# Shear Modulus (GPa) = 19.78222 27.34144 23.56183
#
# Velocity S-wave (km/s) = 3.33305 3.91845 3.63754
# Velocity P-wave (km/s) = 5.95652 8.35503 7.25557
#
# Compressibility (1/GPa) = 0.02717130
#
# Stress axis : x y z
#
# Youngs Moduli (GPa) = 65.58840 20.47777 76.23916
#
# Poissons Ratio (x) = 0.09511 0.49746
# Poissons Ratio (y) = 0.30463 1.05539
# Poissons Ratio (z) = 0.42796 0.28348
#
# Static dielectric constant tensor:
#      x y z
#    x 3.441730 0.000000 0.000000 
#    y 0.000000 3.015350 0.000000 
#    z 0.000000 0.000000 3.463020 
# 
# 
# High freq. dielectric constant tensor:
#      x y z
#    x 1.696120 0.000000 0.000000 
#    y 0.000000 1.654700 0.000000 
#    z 0.000000 0.000000 1.703170 
# 
# From -- ./inp_files/24618.got.cif
#   From: 2010.03.12/outbox.cif.g09.slc.cpg/sg38_13_cif.got.tgz:24618.got - 2010.04.14 02:38:36.
