data_PCOD8179648
_publ_section_title
;
Structure prediction by ZEFSAII (Michael W. Deem and Ramdas Pophale) SiO2 
 PCOD8179648
Probable space group: A M M 2
;
_chemical_formula_sum "Si O2"
_cell_formula_units_Z 64
_cell_length_a 15.186577
_cell_length_b 8.999091
_cell_length_c 23.867129
_cell_angle_alpha 90.000000
_cell_angle_beta 90.000000
_cell_angle_gamma 90.000000
_cell_volume 3261.810455
_symmetry_space_group_name_H-M "A M M 2"
_symmetry_group_IT_number 38
_symmetry_cell_setting 'orthorhombic'
loop_
_space_group_symop_operation_xyz
x,y,z
-x,-y,z
-x,y,z
x,-y,z
x,1/2+y,1/2+z
-x,1/2-y,1/2+z
-x,1/2+y,1/2+z
x,1/2-y,1/2+z
loop_
_atom_site_type_symbol
_atom_site_label
_atom_site_fract_x
_atom_site_fract_y
_atom_site_fract_z
Si Si1 0.599504 0.329775 0.111880
Si Si2 0.900356 0.670674 0.334817
Si Si3 0.098814 0.830212 0.611956
Si Si4 0.750437 0.823878 0.043547
Si Si5 0.253873 0.674703 0.416228
Si Si6 0.398958 0.827472 0.344112
Si Si7 0.351010 0.829764 0.221232
Si Si8 0.143944 0.670006 0.721449
O O1 0.500000 0.315655 0.089030
O O2 0.631172 0.500000 0.112022
O O3 0.662040 0.236044 0.071695
O O4 0.601406 0.269274 0.175039
O O5 0.881427 0.500000 0.317921
O O6 0.834522 0.723600 0.383735
O O7 0.885400 0.774200 0.281818
O O8 0.000000 0.689757 0.357110
O O9 0.162503 0.733886 0.573663
O O10 0.096754 0.769133 0.675037
O O11 0.000000 0.818825 0.587539
O O12 0.131750 0.000000 0.612843
O O13 0.749664 0.000000 0.048925
O O14 0.753877 0.768205 0.979696
O O15 0.266366 0.500000 0.414699
O O16 0.340247 0.744269 0.389170
O O17 0.500000 0.798228 0.359929
O O18 0.379038 0.766819 0.281822
O O19 0.374089 0.000000 0.346334
O O20 0.247509 0.814560 0.213206
O O21 0.382371 0.000000 0.214543
O O22 0.113546 0.500000 0.715042
#
# Coordination Sequence:
#
# PCOD8179648 Si02
#       8
#     8   8   8   8   8   8   8   8
#     4  11  24  40  61  90 121 156 197 243 297 354
#     4  10  21  38  60  86 118 156 194 237 292 349
#     4  11  24  41  62  89 121 157 195 241 298 354
#     4  11  24  42  63  87 115 156 203 248 297 346
#     4  10  23  41  61  85 115 152 198 247 292 341
#     4  10  21  38  61  88 119 155 192 234 289 349
#     4  10  20  36  60  89 121 157 194 237 294 353
#     4  11  21  35  60  92 122 155 193 237 291 349
#
# _framework density 19.621006000000001
#
# number of rings (size 3 to 8) (size 9 to 14) (size 15 to 20)
#    0.000    1.500    2.500    2.250    0.000    7.500 
#    0.000    3.750    0.000    0.000    0.000    0.000 
#    0.000    0.000    0.000    0.000    0.000    0.000 
#
# Total GULP energy -396955.864131 kJ/mol
# GULP energy per Si atom -12404.870754 kJ/mol
# Density = 1.957635 g / cm^3
# Si number density = 19.621006 Si / 1000 Ang^3
#
#
#
# Elastic Constant Matrix: (Units=GPa)
#
#
# Indices 1 2 3 4 5 6 
#
# 1 106.7852 40.0957 53.5705 0.0000 0.0000 0.0000
# 2 40.0957 71.2582 51.2880 0.0000 0.0000 0.0000
# 3 53.5705 51.2880 147.0818 0.0000 0.0000 0.0000
# 4 0.0000 0.0000 0.0000 27.1683 0.0000 0.0000
# 5 0.0000 0.0000 0.0000 0.0000 30.9784 0.0000
# 6 0.0000 0.0000 0.0000 0.0000 0.0000 20.4751
#
#
#
# Elastic Compliance Matrix: (Units=1/GPa)
#
#
# Indices 1 2 3 4 5 6 
#
# 1 0.012710 -0.005100 -0.002851 0.000000 0.000000 0.000000
# 2 -0.005100 0.020782 -0.005389 0.000000 0.000000 0.000000
# 3 -0.002851 -0.005389 0.009717 0.000000 0.000000 0.000000
# 4 0.000000 0.000000 0.000000 0.036808 0.000000 0.000000
# 5 0.000000 0.000000 0.000000 0.000000 0.032281 0.000000
# 6 0.000000 0.000000 0.000000 0.000000 0.000000 0.048840
#
#
# Mechanical properties :
#
#
# Convention : Reuss Voigt Hill
#
# Bulk Modulus (GPa) = 60.50162 68.33708 64.41935
# Shear Modulus (GPa) = 25.86319 27.73577 26.79948
#
# Velocity S-wave (km/s) = 3.63456 3.76383 3.69976
# Velocity P-wave (km/s) = 6.96530 7.33435 7.15221
#
# Compressibility (1/GPa) = 0.01652848
#
# Stress axis : x y z
#
# Youngs Moduli (GPa) = 78.68101 48.11881 102.91678
#
# Poissons Ratio (x) = 0.24538 0.29340
# Poissons Ratio (y) = 0.40124 0.55466
# Poissons Ratio (z) = 0.22431 0.25933
#
# Static dielectric constant tensor:
#      x y z
#    x 1.232000 0.000000 0.000000 
#    y 0.000000 3.599230 0.000000 
#    z 0.000000 0.000000 3.619760 
# 
# 
# High freq. dielectric constant tensor:
#      x y z
#    x 1.779660 0.000000 0.000000 
#    y 0.000000 1.765820 0.000000 
#    z 0.000000 0.000000 1.760220 
# 
# From -- ./inp_files/22881.got.cif
#   From: 2010.03.12/outbox.cif.g09.slc.cpg/sg38_12_cif.got.tgz:22881.got - 2010.04.14 02:38:36.
