data_PCOD8179287
_publ_section_title
;
Structure prediction by ZEFSAII (Michael W. Deem and Ramdas Pophale) SiO2 
 PCOD8179287
Probable space group: A M M 2
;
_chemical_formula_sum "Si O2"
_cell_formula_units_Z 48
_cell_length_a 7.851931
_cell_length_b 9.336313
_cell_length_c 33.844564
_cell_angle_alpha 90.000000
_cell_angle_beta 90.000000
_cell_angle_gamma 90.000000
_cell_volume 2481.080190
_symmetry_space_group_name_H-M "A M M 2"
_symmetry_group_IT_number 38
_symmetry_cell_setting 'orthorhombic'
loop_
_space_group_symop_operation_xyz
x,y,z
-x,-y,z
-x,y,z
x,-y,z
x,1/2+y,1/2+z
-x,1/2-y,1/2+z
-x,1/2+y,1/2+z
x,1/2-y,1/2+z
loop_
_atom_site_type_symbol
_atom_site_label
_atom_site_fract_x
_atom_site_fract_y
_atom_site_fract_z
Si Si1 0.805865 0.337525 0.593600
Si Si2 0.801973 0.165806 0.753443
Si Si3 0.699277 0.836705 0.666933
Si Si4 0.000000 0.829641 0.379900
Si Si5 0.690065 0.834664 0.326968
Si Si6 0.689942 0.164989 0.521354
Si Si7 0.000000 0.170081 0.468151
O O1 0.738451 0.500000 0.596847
O O2 0.794806 0.263582 0.636090
O O3 0.693769 0.253261 0.561818
O O4 0.000000 0.333802 0.579144
O O5 0.745889 0.220405 0.710382
O O6 0.696953 0.252384 0.785724
O O7 0.000000 0.195030 0.760039
O O8 0.754334 0.000000 0.758186
O O9 0.500000 0.826092 0.659347
O O10 0.764200 0.000000 0.661919
O O11 0.169821 0.773737 0.357646
O O12 0.000000 0.764366 0.424063
O O13 0.000000 0.000000 0.382210
O O14 0.500000 0.814979 0.344981
O O15 0.729429 0.000000 0.318142
O O16 0.500000 0.180936 0.503013
O O17 0.829390 0.224170 0.490371
O O18 0.729548 0.000000 0.531842
O O19 0.000000 0.000000 0.465801
#
# Coordination Sequence:
#
# PCOD8179287 Si02
#       7
#     8   8   8   4   8   8   4
#     4  11  23  37  54  78 109 147 186 224 271 324
#     4  10  20  35  56  80 107 144 187 229 273 319
#     4  10  21  36  54  78 107 141 184 231 275 319
#     4   9  18  34  55  82 115 144 175 222 275 325
#     4  10  20  34  55  82 112 148 184 221 271 326
#     4  10  20  35  58  85 110 142 183 224 271 325
#     4   9  18  34  57  84 113 142 175 224 275 321
#
# _framework density 19.346411
#
# number of rings (size 3 to 8) (size 9 to 14) (size 15 to 20)
#    0.000    2.000    1.667    2.000    0.000    6.667 
#    0.000    3.333    0.000    2.000    0.000    2.333 
#    0.000    0.000    0.000    0.000    0.000    0.000 
#
# Total GULP energy -297654.338677 kJ/mol
# GULP energy per Si atom -12402.264112 kJ/mol
# Density = 1.930238 g / cm^3
# Si number density = 19.346411 Si / 1000 Ang^3
#
#
#
# Elastic Constant Matrix: (Units=GPa)
#
#
# Indices 1 2 3 4 5 6 
#
# 1 117.3130 30.7762 55.7204 0.0000 0.0000 0.0000
# 2 30.7762 60.9049 44.7908 0.0000 0.0000 0.0000
# 3 55.7204 44.7908 142.0858 0.0000 0.0000 0.0000
# 4 0.0000 0.0000 0.0000 21.1465 0.0000 0.0000
# 5 0.0000 0.0000 0.0000 0.0000 23.1347 0.0000
# 6 0.0000 0.0000 0.0000 0.0000 0.0000 18.5453
#
#
#
# Elastic Compliance Matrix: (Units=1/GPa)
#
#
# Indices 1 2 3 4 5 6 
#
# 1 0.010901 -0.003078 -0.003305 0.000000 0.000000 0.000000
# 2 -0.003078 0.022244 -0.005805 0.000000 0.000000 0.000000
# 3 -0.003305 -0.005805 0.010164 0.000000 0.000000 0.000000
# 4 0.000000 0.000000 0.000000 0.047289 0.000000 0.000000
# 5 0.000000 0.000000 0.000000 0.000000 0.043225 0.000000
# 6 0.000000 0.000000 0.000000 0.000000 0.000000 0.053922
#
#
# Mechanical properties :
#
#
# Convention : Reuss Voigt Hill
#
# Bulk Modulus (GPa) = 52.81732 64.76428 58.79080
# Shear Modulus (GPa) = 22.89044 25.16639 24.02841
#
# Velocity S-wave (km/s) = 3.44348 3.61061 3.52804
# Velocity P-wave (km/s) = 6.57040 7.13659 6.85934
#
# Compressibility (1/GPa) = 0.01893318
#
# Stress axis : x y z
#
# Youngs Moduli (GPa) = 91.73115 44.95681 98.38765
#
# Poissons Ratio (x) = 0.13839 0.32514
# Poissons Ratio (y) = 0.28238 0.57112
# Poissons Ratio (z) = 0.30314 0.26097
#
# Static dielectric constant tensor:
#      x y z
#    x 3.659650 0.000000 0.000000 
#    y 0.000000 3.299760 0.000000 
#    z 0.000000 0.000000 3.520700 
# 
# 
# High freq. dielectric constant tensor:
#      x y z
#    x 1.769410 0.000000 0.000000 
#    y 0.000000 1.723450 0.000000 
#    z 0.000000 0.000000 1.745990 
# 
# From -- ./inp_files/24355.got.cif
#   From: 2010.03.12/outbox.cif.g09.slc.cpg/sg38_13_cif.got.tgz:24355.got - 2010.04.14 02:38:36.
