data_PCOD8179102
_publ_section_title
;
Structure prediction by ZEFSAII (Michael W. Deem and Ramdas Pophale) SiO2 
 PCOD8179102
Probable space group: A M M 2
;
_chemical_formula_sum "Si O2"
_cell_formula_units_Z 56
_cell_length_a 8.786552
_cell_length_b 16.688223
_cell_length_c 19.641198
_cell_angle_alpha 90.000000
_cell_angle_beta 90.000000
_cell_angle_gamma 90.000000
_cell_volume 2880.026951
_symmetry_space_group_name_H-M "A M M 2"
_symmetry_group_IT_number 38
_symmetry_cell_setting 'orthorhombic'
loop_
_space_group_symop_operation_xyz
x,y,z
-x,-y,z
-x,y,z
x,-y,z
x,1/2+y,1/2+z
-x,1/2-y,1/2+z
-x,1/2+y,1/2+z
x,1/2-y,1/2+z
loop_
_atom_site_type_symbol
_atom_site_label
_atom_site_fract_x
_atom_site_fract_y
_atom_site_fract_z
Si Si1 0.179415 0.840626 0.767450
Si Si2 0.319116 0.500000 0.206756
Si Si3 0.322640 0.734247 0.878875
Si Si4 0.827034 0.589743 0.808709
Si Si5 0.172219 0.235623 0.139276
Si Si6 0.174076 0.669275 0.006226
Si Si7 0.672239 0.413245 0.667213
Si Si8 0.820086 0.500000 0.056027
O O1 0.235847 0.806350 0.840166
O O2 0.220667 0.773061 0.711642
O O3 0.000000 0.857202 0.769965
O O4 0.262452 0.922752 0.748473
O O5 0.500000 0.500000 0.205433
O O6 0.260786 0.500000 0.129298
O O7 0.500000 0.752685 0.873855
O O8 0.285589 0.647335 0.848537
O O9 0.273058 0.726727 0.957680
O O10 0.809320 0.500000 0.838246
O O11 0.787231 0.590622 0.729776
O O12 0.000000 0.620587 0.817460
O O13 0.278763 0.159970 0.118902
O O14 0.000000 0.204924 0.141225
O O15 0.195466 0.302858 0.083281
O O16 0.000000 0.675319 0.981236
O O17 0.226633 0.576460 0.009702
O O18 0.500000 0.401533 0.692792
O O19 0.689192 0.500000 0.630204
O O20 0.000000 0.500000 0.071704
#
# Coordination Sequence:
#
# PCOD8179102 Si02
#       8
#     8   4   8   8   8   8   8   4
#     4  11  22  41  66  91 120 161 209 254 303 368
#     4  12  24  38  64 100 132 159 200 263 326 370
#     4  12  25  39  57  87 123 159 198 250 311 369
#     4  10  20  34  53  78 111 153 195 231 272 335
#     4  10  20  36  62  88 113 152 202 252 298 358
#     4  10  22  40  61  86 119 162 208 250 302 373
#     4  10  20  33  53  83 117 149 185 238 298 348
#     4  10  20  40  64  90 128 171 214 255 304 378
#
# _framework density 19.444262999999999
#
# number of rings (size 3 to 8) (size 9 to 14) (size 15 to 20)
#    0.000    1.429    2.857    3.214    1.000    3.429 
#    0.000    0.000    1.571    0.000    0.000    0.000 
#    0.000    0.000    0.000    0.000    0.000    0.000 
#
# Total GULP energy -347155.053800 kJ/mol
# GULP energy per Si atom -12398.394779 kJ/mol
# Density = 1.940001 g / cm^3
# Si number density = 19.444263 Si / 1000 Ang^3
#
#
#
# Elastic Constant Matrix: (Units=GPa)
#
#
# Indices 1 2 3 4 5 6 
#
# 1 97.5175 51.8915 31.5387 0.0000 0.0000 0.0000
# 2 51.8915 113.6824 31.3288 0.0000 0.0000 0.0000
# 3 31.5387 31.3288 71.1420 0.0000 0.0000 0.0000
# 4 0.0000 0.0000 0.0000 24.5805 0.0000 0.0000
# 5 0.0000 0.0000 0.0000 0.0000 26.5647 0.0000
# 6 0.0000 0.0000 0.0000 0.0000 0.0000 31.7932
#
#
#
# Elastic Compliance Matrix: (Units=1/GPa)
#
#
# Indices 1 2 3 4 5 6 
#
# 1 0.014477 -0.005508 -0.003992 0.000000 0.000000 0.000000
# 2 -0.005508 0.012107 -0.002890 0.000000 0.000000 0.000000
# 3 -0.003992 -0.002890 0.017099 0.000000 0.000000 0.000000
# 4 0.000000 0.000000 0.000000 0.040683 0.000000 0.000000
# 5 0.000000 0.000000 0.000000 0.000000 0.037644 0.000000
# 6 0.000000 0.000000 0.000000 0.000000 0.000000 0.031453
#
#
# Mechanical properties :
#
#
# Convention : Reuss Voigt Hill
#
# Bulk Modulus (GPa) = 52.90292 56.87333 54.88813
# Shear Modulus (GPa) = 27.09398 27.75987 27.42692
#
# Velocity S-wave (km/s) = 3.73690 3.78254 3.75979
# Velocity P-wave (km/s) = 6.77390 6.95627 6.86569
#
# Compressibility (1/GPa) = 0.01890255
#
# Stress axis : x y z
#
# Youngs Moduli (GPa) = 69.07713 82.59762 58.48349
#
# Poissons Ratio (x) = 0.45493 0.23348
# Poissons Ratio (y) = 0.38046 0.16901
# Poissons Ratio (z) = 0.27578 0.23869
#
# Static dielectric constant tensor:
#      x y z
#    x 3.570300 0.000000 0.000000 
#    y 0.000000 3.802510 0.000000 
#    z 0.000000 0.000000 3.348230 
# 
# 
# High freq. dielectric constant tensor:
#      x y z
#    x 1.758120 0.000000 0.000000 
#    y 0.000000 1.765810 0.000000 
#    z 0.000000 0.000000 1.731510 
# 
# From -- ./inp_files/19879.got.cif
#   From: 2010.03.12/outbox.cif.g09.slc.cpg/sg38_10_cif.got.tgz:19879.got - 2010.04.14 02:38:36.
