data_PCOD8179013
_publ_section_title
;
Structure prediction by ZEFSAII (Michael W. Deem and Ramdas Pophale) SiO2 
 PCOD8179013
Probable space group: A M M 2
;
_chemical_formula_sum "Si O2"
_cell_formula_units_Z 64
_cell_length_a 8.855535
_cell_length_b 23.164552
_cell_length_c 18.776146
_cell_angle_alpha 90.000000
_cell_angle_beta 90.000000
_cell_angle_gamma 90.000000
_cell_volume 3851.635340
_symmetry_space_group_name_H-M "A M M 2"
_symmetry_group_IT_number 38
_symmetry_cell_setting 'orthorhombic'
loop_
_space_group_symop_operation_xyz
x,y,z
-x,-y,z
-x,y,z
x,-y,z
x,1/2+y,1/2+z
-x,1/2-y,1/2+z
-x,1/2+y,1/2+z
x,1/2-y,1/2+z
loop_
_atom_site_type_symbol
_atom_site_label
_atom_site_fract_x
_atom_site_fract_y
_atom_site_fract_z
Si Si1 0.327710 0.263376 0.045150
Si Si2 0.674008 0.732173 0.700979
Si Si3 0.827317 0.229721 0.910070
Si Si4 0.821496 0.613898 0.048056
Si Si5 0.326078 0.566933 0.907298
Si Si6 0.326262 0.433040 0.189181
Si Si7 0.175897 0.840565 0.314349
Si Si8 0.822530 0.161044 0.774132
O O1 0.500000 0.283641 0.035780
O O2 0.308852 0.224945 0.116059
O O3 0.223300 0.319414 0.047372
O O4 0.278754 0.223504 0.978779
O O5 0.500000 0.736197 0.724523
O O6 0.750655 0.677435 0.739084
O O7 0.756967 0.791164 0.721232
O O8 0.794946 0.290509 0.871836
O O9 0.788585 0.177761 0.855929
O O10 0.000000 0.226317 0.934903
O O11 0.762868 0.582484 0.118162
O O12 0.000000 0.609482 0.045358
O O13 0.756771 0.580517 0.980615
O O14 0.500000 0.584903 0.915284
O O15 0.307531 0.500000 0.888988
O O16 0.252830 0.601276 0.841765
O O17 0.500000 0.415160 0.178482
O O18 0.308408 0.500000 0.206550
O O19 0.256711 0.399524 0.256762
O O20 0.000000 0.851400 0.301920
O O21 0.000000 0.157096 0.759647
#
# Coordination Sequence:
#
# PCOD8179013 Si02
#       8
#     8   8   8   8   8   8   8   8
#     4  11  21  32  51  77 104 136 171 206 252 307
#     4  10  20  33  51  74 103 135 169 210 256 305
#     4   9  19  33  50  74 102 131 166 208 256 304
#     4  12  23  34  50  72 103 139 176 215 250 296
#     4  11  23  37  53  73 101 138 177 215 255 302
#     4  11  23  37  52  72 101 137 177 216 255 304
#     4  10  20  34  52  75 101 133 172 213 256 302
#     4  10  20  34  52  74 100 132 172 214 255 303
#
# _framework density 16.616319000000001
#
# number of rings (size 3 to 8) (size 9 to 14) (size 15 to 20)
#    0.000    1.500    2.500    4.500    0.000    7.500 
#    0.000    0.000    0.000    0.000    0.000    0.875 
#    0.000    5.000    0.000    0.000    0.000    0.000 
#
# Total GULP energy -396922.428799 kJ/mol
# GULP energy per Si atom -12403.825900 kJ/mol
# Density = 1.657850 g / cm^3
# Si number density = 16.616319 Si / 1000 Ang^3
#
#
#
# Elastic Constant Matrix: (Units=GPa)
#
#
# Indices 1 2 3 4 5 6 
#
# 1 151.8943 59.3193 68.2175 0.0000 0.0000 0.0000
# 2 59.3193 84.0793 53.0040 0.0000 0.0000 0.0000
# 3 68.2175 53.0040 104.0378 0.0000 0.0000 0.0000
# 4 0.0000 0.0000 0.0000 22.2142 0.0000 0.0000
# 5 0.0000 0.0000 0.0000 0.0000 28.4888 0.0000
# 6 0.0000 0.0000 0.0000 0.0000 0.0000 20.6474
#
#
#
# Elastic Compliance Matrix: (Units=1/GPa)
#
#
# Indices 1 2 3 4 5 6 
#
# 1 0.010353 -0.004456 -0.004518 0.000000 0.000000 0.000000
# 2 -0.004456 0.019438 -0.006982 0.000000 0.000000 0.000000
# 3 -0.004518 -0.006982 0.016131 0.000000 0.000000 0.000000
# 4 0.000000 0.000000 0.000000 0.045016 0.000000 0.000000
# 5 0.000000 0.000000 0.000000 0.000000 0.035101 0.000000
# 6 0.000000 0.000000 0.000000 0.000000 0.000000 0.048432
#
#
# Mechanical properties :
#
#
# Convention : Reuss Voigt Hill
#
# Bulk Modulus (GPa) = 71.37064 77.89922 74.63493
# Shear Modulus (GPa) = 23.69059 24.90147 24.29603
#
# Velocity S-wave (km/s) = 3.78000 3.87539 3.82799
# Velocity P-wave (km/s) = 7.88014 8.18583 8.03444
#
# Compressibility (1/GPa) = 0.01401136
#
# Stress axis : x y z
#
# Youngs Moduli (GPa) = 96.59175 51.44463 61.99077
#
# Poissons Ratio (x) = 0.22922 0.28009
# Poissons Ratio (y) = 0.43039 0.43279
# Poissons Ratio (z) = 0.43643 0.35917
#
# Static dielectric constant tensor:
#      x y z
#    x 3.339300 0.000000 0.000000 
#    y 0.000000 2.985090 0.000000 
#    z 0.000000 0.000000 3.170610 
# 
# 
# High freq. dielectric constant tensor:
#      x y z
#    x 1.662360 0.000000 0.000000 
#    y 0.000000 1.611340 0.000000 
#    z 0.000000 0.000000 1.633960 
# 
# From -- ./inp_files/20233.got.cif
#   From: 2010.03.12/outbox.cif.g09.slc.cpg/sg38_11_cif.got.tgz:20233.got - 2010.04.14 02:38:36.
