data_PCOD8179761
_publ_section_title
;
Structure prediction by ZEFSAII (Michael W. Deem and Ramdas Pophale) SiO2 
 PCOD8179761
Probable space group: A M M 2
;
_chemical_formula_sum "Si O2"
_cell_formula_units_Z 48
_cell_length_a 7.767189
_cell_length_b 17.980651
_cell_length_c 17.001260
_cell_angle_alpha 90.000000
_cell_angle_beta 90.000000
_cell_angle_gamma 90.000000
_cell_volume 2374.380920
_symmetry_space_group_name_H-M "A M M 2"
_symmetry_group_IT_number 38
_symmetry_cell_setting 'orthorhombic'
loop_
_space_group_symop_operation_xyz
x,y,z
-x,-y,z
-x,y,z
x,-y,z
x,1/2+y,1/2+z
-x,1/2-y,1/2+z
-x,1/2+y,1/2+z
x,1/2-y,1/2+z
loop_
_atom_site_type_symbol
_atom_site_label
_atom_site_fract_x
_atom_site_fract_y
_atom_site_fract_z
Si Si1 0.000000 0.412202 0.047450
Si Si2 0.196375 0.322969 0.619929
Si Si3 0.702851 0.582178 0.299783
Si Si4 0.000000 0.411394 0.871293
Si Si5 0.308226 0.586733 0.765517
Si Si6 0.702214 0.085853 0.974218
Si Si7 0.303330 0.841095 0.642910
O O1 0.824675 0.384567 0.086322
O O2 0.000000 0.500000 0.048970
O O3 0.000000 0.379821 0.959173
O O4 0.286210 0.378332 0.680194
O O5 0.202324 0.358989 0.533681
O O6 0.297340 0.245751 0.624541
O O7 0.000000 0.308120 0.643693
O O8 0.500000 0.576169 0.307273
O O9 0.775837 0.500000 0.277328
O O10 0.770478 0.606208 0.386226
O O11 0.755762 0.641576 0.232927
O O12 0.829589 0.380839 0.827348
O O13 0.000000 0.500000 0.872631
O O14 0.500000 0.603728 0.797828
O O15 0.277476 0.500000 0.753454
O O16 0.500000 0.099493 0.982605
O O17 0.747960 0.000000 0.993134
O O18 0.500000 0.869054 0.629252
#
# Coordination Sequence:
#
# PCOD8179761 Si02
#       7
#     4   8   8   4   8   8   8
#     4  11  24  43  66  93 120 153 206 261 306 359
#     4  12  23  38  56  85 130 165 201 253 306 362
#     4   8  16  35  63  90 116 151 199 252 302 359
#     4   9  20  39  60  87 121 149 194 259 303 351
#     4  10  20  37  63  90 119 162 207 247 300 365
#     4   9  18  35  60  90 122 158 204 253 300 360
#     4  11  23  42  63  89 125 163 203 249 311 371
#
# _framework density 20.215796000000001
#
# number of rings (size 3 to 8) (size 9 to 14) (size 15 to 20)
#    0.000    2.000    1.667    3.500    0.000    4.000 
#    4.500    1.667    0.000    0.000    0.000    0.000 
#    0.000    0.000    0.000    0.000    0.000    0.000 
#
# Total GULP energy -297566.748566 kJ/mol
# GULP energy per Si atom -12398.614524 kJ/mol
# Density = 2.016978 g / cm^3
# Si number density = 20.215796 Si / 1000 Ang^3
#
#
#
# Elastic Constant Matrix: (Units=GPa)
#
#
# Indices 1 2 3 4 5 6 
#
# 1 113.1653 35.0260 50.3153 0.0000 0.0000 0.0000
# 2 35.0260 73.5390 69.8263 0.0000 0.0000 0.0000
# 3 50.3153 69.8263 160.4903 0.0000 0.0000 0.0000
# 4 0.0000 0.0000 0.0000 7.9895 0.0000 0.0000
# 5 0.0000 0.0000 0.0000 0.0000 29.2794 0.0000
# 6 0.0000 0.0000 0.0000 0.0000 0.0000 0.4677
#
#
#
# Elastic Compliance Matrix: (Units=1/GPa)
#
#
# Indices 1 2 3 4 5 6 
#
# 1 0.010707 -0.003259 -0.001939 0.000000 0.000000 0.000000
# 2 -0.003259 0.024162 -0.009491 0.000000 0.000000 0.000000
# 3 -0.001939 -0.009491 0.010968 0.000000 0.000000 0.000000
# 4 0.000000 0.000000 0.000000 0.125164 0.000000 0.000000
# 5 0.000000 0.000000 0.000000 0.000000 0.034154 0.000000
# 6 0.000000 0.000000 0.000000 0.000000 0.000000 2.138069
#
#
# Mechanical properties :
#
#
# Convention : Reuss Voigt Hill
#
# Bulk Modulus (GPa) = 60.75201 73.05887 66.90544
# Shear Modulus (GPa) = 2.10253 20.34913 11.22583
#
# Velocity S-wave (km/s) = 1.02093 3.17613 2.35904
# Velocity P-wave (km/s) = 5.61309 7.04758 6.37084
#
# Compressibility (1/GPa) = 0.01646036
#
# Stress axis : x y z
#
# Youngs Moduli (GPa) = 93.39357 41.38745 91.17351
#
# Poissons Ratio (x) = 0.13487 0.17679
# Poissons Ratio (y) = 0.30433 0.86531
# Poissons Ratio (z) = 0.18110 0.39280
#
# Static dielectric constant tensor:
#      x y z
#    x 3.634050 0.000000 0.000000 
#    y 0.000000 3.886870 0.000000 
#    z 0.000000 0.000000 3.929830 
# 
# 
# High freq. dielectric constant tensor:
#      x y z
#    x 1.791640 0.000000 0.000000 
#    y 0.000000 1.770560 0.000000 
#    z 0.000000 0.000000 1.792850 
# 
# From -- ./inp_files/12126.got.cif
#   From: 2010.03.12/outbox.cif.g09.slc.cpg/sg38_7_cif.got.tgz:12126.got - 2010.04.14 02:38:36.
