data_PCOD8179259
_publ_section_title
;
Structure prediction by ZEFSAII (Michael W. Deem and Ramdas Pophale) SiO2 
 PCOD8179259
Probable space group: A M M 2
;
_chemical_formula_sum "Si O2"
_cell_formula_units_Z 64
_cell_length_a 9.316900
_cell_length_b 24.548198
_cell_length_c 15.066152
_cell_angle_alpha 90.000000
_cell_angle_beta 90.000000
_cell_angle_gamma 90.000000
_cell_volume 3445.826419
_symmetry_space_group_name_H-M "A M M 2"
_symmetry_group_IT_number 38
_symmetry_cell_setting 'orthorhombic'
loop_
_space_group_symop_operation_xyz
x,y,z
-x,-y,z
-x,y,z
x,-y,z
x,1/2+y,1/2+z
-x,1/2-y,1/2+z
-x,1/2+y,1/2+z
x,1/2-y,1/2+z
loop_
_atom_site_type_symbol
_atom_site_label
_atom_site_fract_x
_atom_site_fract_y
_atom_site_fract_z
Si Si1 0.834477 0.361192 0.104250
Si Si2 0.165572 0.563348 0.940341
Si Si3 0.832189 0.356344 0.450688
Si Si4 0.163202 0.437899 0.601735
Si Si5 0.163459 0.234983 0.482633
Si Si6 0.666921 0.398828 0.767927
Si Si7 0.669556 0.339269 0.273799
Si Si8 0.663855 0.219071 0.313844
O O1 0.735869 0.370849 0.190038
O O2 0.000000 0.369563 0.131398
O O3 0.788913 0.403883 0.028475
O O4 0.806199 0.299257 0.071393
O O5 0.189974 0.500000 0.960389
O O6 0.263605 0.581763 0.859263
O O7 0.000000 0.575770 0.916123
O O8 0.781185 0.401750 0.520072
O O9 0.797482 0.298236 0.496704
O O10 0.738886 0.364216 0.362399
O O11 0.000000 0.361944 0.426412
O O12 0.173048 0.500000 0.570281
O O13 0.261136 0.430123 0.687159
O O14 0.000000 0.421692 0.626660
O O15 0.251753 0.208142 0.403780
O O16 0.000000 0.228270 0.452981
O O17 0.500000 0.414251 0.770901
O O18 0.688834 0.333798 0.752226
O O19 0.500000 0.348971 0.275844
O O20 0.711857 0.275059 0.266045
O O21 0.500000 0.224776 0.342746
#
# Coordination Sequence:
#
# PCOD8179259 Si02
#       8
#     8   8   8   8   8   8   8   8
#     4  10  20  34  54  82 111 141 181 226 271 317
#     4  10  21  38  58  79 108 146 185 224 267 319
#     4   9  19  37  58  80 106 138 181 230 276 318
#     4  10  22  39  58  80 107 142 184 226 270 322
#     4   9  17  31  53  80 105 135 176 222 267 312
#     4  11  22  35  54  82 114 147 180 219 268 322
#     4  10  21  36  55  80 112 147 180 220 272 329
#     4   9  19  34  50  76 112 146 177 210 261 323
#
# _framework density 18.573194000000001
#
# number of rings (size 3 to 8) (size 9 to 14) (size 15 to 20)
#    0.000    2.250    1.250    1.125    1.750    4.500 
#    0.000    0.625    0.000    3.750    0.000    0.000 
#    0.000    0.000    0.000    0.000    0.000    0.000 
#
# Total GULP energy -396815.175029 kJ/mol
# GULP energy per Si atom -12400.474220 kJ/mol
# Density = 1.853092 g / cm^3
# Si number density = 18.573194 Si / 1000 Ang^3
#
#
#
# Elastic Constant Matrix: (Units=GPa)
#
#
# Indices 1 2 3 4 5 6 
#
# 1 77.4689 38.6421 63.6003 0.0000 0.0000 0.0000
# 2 38.6421 95.1318 60.2501 0.0000 0.0000 0.0000
# 3 63.6003 60.2501 128.6942 0.0000 0.0000 0.0000
# 4 0.0000 0.0000 0.0000 27.3529 0.0000 0.0000
# 5 0.0000 0.0000 0.0000 0.0000 -53.6590 0.0000
# 6 0.0000 0.0000 0.0000 0.0000 0.0000 21.8069
#
#
#
# Elastic Compliance Matrix: (Units=1/GPa)
#
#
# Indices 1 2 3 4 5 6 
#
# 1 0.022290 -0.002953 -0.009633 0.000000 0.000000 0.000000
# 2 -0.002953 0.015333 -0.005719 0.000000 0.000000 0.000000
# 3 -0.009633 -0.005719 0.015209 0.000000 0.000000 0.000000
# 4 0.000000 0.000000 0.000000 0.036559 0.000000 0.000000
# 5 0.000000 0.000000 0.000000 0.000000 -0.018636 0.000000
# 6 0.000000 0.000000 0.000000 0.000000 0.000000 0.045857
#
#
# Mechanical properties :
#
#
# Convention : Reuss Voigt Hill
#
# Bulk Modulus (GPa) = 61.64779 69.58667 65.61723
# Shear Modulus (GPa) = 31.51993 8.35366 19.93680
#
# Velocity S-wave (km/s) = 4.12402 2.12308 3.27986
# Velocity P-wave (km/s) = 7.47934 6.59981 7.05330
#
# Compressibility (1/GPa) = 0.01622118
#
# Stress axis : x y z
#
# Youngs Moduli (GPa) = 44.86303 65.21714 65.75260
#
# Poissons Ratio (x) = 0.19260 0.63340
# Poissons Ratio (y) = 0.13249 0.37605
# Poissons Ratio (z) = 0.43217 0.37298
#
# Static dielectric constant tensor:
#      x y z
#    x 3.424490 0.000000 0.000000 
#    y 0.000000 3.550650 0.000000 
#    z 0.000000 0.000000 3.224030 
# 
# 
# High freq. dielectric constant tensor:
#      x y z
#    x 1.719710 0.000000 0.000000 
#    y 0.000000 1.720500 0.000000 
#    z 0.000000 0.000000 1.708190 
# 
# From -- ./inp_files/12734.got.cif
#   From: 2010.03.12/outbox.cif.g09.slc.cpg/sg38_7_cif.got.tgz:12734.got - 2010.04.14 02:38:36.
