data_PCOD8179930
_publ_section_title
;
Structure prediction by ZEFSAII (Michael W. Deem and Ramdas Pophale) SiO2 
 PCOD8179930
Probable space group: A M M 2
;
_chemical_formula_sum "Si O2"
_cell_formula_units_Z 56
_cell_length_a 8.646930
_cell_length_b 14.472784
_cell_length_c 22.886726
_cell_angle_alpha 90.000000
_cell_angle_beta 90.000000
_cell_angle_gamma 90.000000
_cell_volume 2864.162762
_symmetry_space_group_name_H-M "A M M 2"
_symmetry_group_IT_number 38
_symmetry_cell_setting 'orthorhombic'
loop_
_space_group_symop_operation_xyz
x,y,z
-x,-y,z
-x,y,z
x,-y,z
x,1/2+y,1/2+z
-x,1/2-y,1/2+z
-x,1/2+y,1/2+z
x,1/2-y,1/2+z
loop_
_atom_site_type_symbol
_atom_site_label
_atom_site_fract_x
_atom_site_fract_y
_atom_site_fract_z
Si Si1 0.177719 0.106848 0.340570
Si Si2 0.816259 0.100025 0.472623
Si Si3 0.815644 0.287306 0.519215
Si Si4 0.183610 0.101868 0.909674
Si Si5 0.320417 0.714595 0.737595
Si Si6 0.817533 0.105691 0.778590
Si Si7 0.183277 0.395342 0.631153
O O1 0.238149 0.121596 0.406590
O O2 0.284311 0.169673 0.300035
O O3 0.000000 0.139788 0.334019
O O4 0.193100 0.000000 0.322023
O O5 0.760922 0.179881 0.517413
O O6 0.000000 0.095338 0.470778
O O7 0.750539 0.000000 0.493325
O O8 0.748900 0.331744 0.459615
O O9 0.747195 0.339416 0.575616
O O10 0.000000 0.293981 0.520076
O O11 0.234305 0.131947 0.844665
O O12 0.000000 0.100893 0.912022
O O13 0.248061 0.000000 0.923137
O O14 0.500000 0.708873 0.723504
O O15 0.267615 0.822004 0.736015
O O16 0.229236 0.656988 0.689442
O O17 0.000000 0.116626 0.770462
O O18 0.768327 0.000000 0.763727
O O19 0.249500 0.500000 0.630927
O O20 0.000000 0.398534 0.627154
#
# Coordination Sequence:
#
# PCOD8179930 Si02
#       7
#     8   8   8   8   8   8   8
#     4   9  17  31  53  79 106 136 170 210 256 306
#     4   8  14  25  45  76 107 129 154 198 257 312
#     4   9  15  25  45  72 101 130 161 204 255 302
#     4   8  13  23  45  78 106 124 150 196 253 303
#     4  12  24  35  50  72 102 140 176 213 258 304
#     4   9  18  34  57  82 106 133 166 205 250 303
#     4  10  21  36  53  73  98 131 174 220 259 299
#
# _framework density 19.551960999999999
#
# number of rings (size 3 to 8) (size 9 to 14) (size 15 to 20)
#    0.000    2.714    0.000    4.714    0.000    6.571 
#    0.000    0.714    0.000    6.000    0.000    4.000 
#    0.000    0.000    0.000    0.000    0.000    0.000 
#
# Total GULP energy -347037.363189 kJ/mol
# GULP energy per Si atom -12394.191542 kJ/mol
# Density = 1.950746 g / cm^3
# Si number density = 19.551961 Si / 1000 Ang^3
#
#
#
# Elastic Constant Matrix: (Units=GPa)
#
#
# Indices 1 2 3 4 5 6 
#
# 1 15.8927 12.8758 5.2777 0.0000 0.0000 0.0000
# 2 12.8758 158.2978 78.3721 0.0000 0.0000 0.0000
# 3 5.2777 78.3721 82.0229 0.0000 0.0000 0.0000
# 4 0.0000 0.0000 0.0000 35.2821 0.0000 0.0000
# 5 0.0000 0.0000 0.0000 0.0000 1.0544 0.0000
# 6 0.0000 0.0000 0.0000 0.0000 0.0000 9.1782
#
#
#
# Elastic Compliance Matrix: (Units=1/GPa)
#
#
# Indices 1 2 3 4 5 6 
#
# 1 0.067487 -0.006337 0.001713 0.000000 0.000000 0.000000
# 2 -0.006337 0.012583 -0.011616 0.000000 0.000000 0.000000
# 3 0.001713 -0.011616 0.023180 0.000000 0.000000 0.000000
# 4 0.000000 0.000000 0.000000 0.028343 0.000000 0.000000
# 5 0.000000 0.000000 0.000000 0.000000 0.948388 0.000000
# 6 0.000000 0.000000 0.000000 0.000000 0.000000 0.108953
#
#
# Mechanical properties :
#
#
# Convention : Reuss Voigt Hill
#
# Bulk Modulus (GPa) = 14.13015 49.91830 32.02423
# Shear Modulus (GPa) = 4.01605 19.74882 11.88243
#
# Velocity S-wave (km/s) = 1.43475 3.18161 2.46790
# Velocity P-wave (km/s) = 3.16027 6.25167 4.95332
#
# Compressibility (1/GPa) = 0.07077064
#
# Stress axis : x y z
#
# Youngs Moduli (GPa) = 14.81760 79.46924 43.14045
#
# Poissons Ratio (x) = 0.50363 -0.07389
# Poissons Ratio (y) = 0.09390 0.50110
# Poissons Ratio (z) = -0.02538 0.92308
#
# Static dielectric constant tensor:
#      x y z
#    x 2.904270 0.000000 0.000000 
#    y 0.000000 4.040660 0.000000 
#    z 0.000000 0.000000 3.512940 
# 
# 
# High freq. dielectric constant tensor:
#      x y z
#    x 1.695040 0.000000 0.000000 
#    y 0.000000 1.784140 0.000000 
#    z 0.000000 0.000000 1.744560 
# 
# From -- ./inp_files/19822.got.cif
#   From: 2010.03.12/outbox.cif.g09.slc.cpg/sg38_10_cif.got.tgz:19822.got - 2010.04.14 02:38:36.
