data_PCOD8179547
_publ_section_title
;
Structure prediction by ZEFSAII (Michael W. Deem and Ramdas Pophale) SiO2 
 PCOD8179547
Probable space group: A M M 2
;
_chemical_formula_sum "Si O2"
_cell_formula_units_Z 48
_cell_length_a 9.239645
_cell_length_b 7.673296
_cell_length_c 34.525229
_cell_angle_alpha 90.000000
_cell_angle_beta 90.000000
_cell_angle_gamma 90.000000
_cell_volume 2447.788019
_symmetry_space_group_name_H-M "A M M 2"
_symmetry_group_IT_number 38
_symmetry_cell_setting 'orthorhombic'
loop_
_space_group_symop_operation_xyz
x,y,z
-x,-y,z
-x,y,z
x,-y,z
x,1/2+y,1/2+z
-x,1/2-y,1/2+z
-x,1/2+y,1/2+z
x,1/2-y,1/2+z
loop_
_atom_site_type_symbol
_atom_site_label
_atom_site_fract_x
_atom_site_fract_y
_atom_site_fract_z
Si Si1 0.163213 0.707909 0.520990
Si Si2 0.832541 0.500000 0.812328
Si Si3 0.167681 0.300321 0.371548
Si Si4 0.662673 0.206844 0.947390
Si Si5 0.328993 0.193267 0.678316
Si Si6 0.327560 0.500000 0.732146
Si Si7 0.663277 0.206667 0.094856
O O1 0.164226 0.500000 0.520488
O O2 0.249960 0.782490 0.484039
O O3 0.239192 0.778830 0.559873
O O4 0.000000 0.779921 0.519504
O O5 0.793775 0.325327 0.835987
O O6 0.734916 0.500000 0.774744
O O7 0.000000 0.500000 0.800332
O O8 0.206240 0.500000 0.360086
O O9 0.259397 0.233970 0.408076
O O10 0.000000 0.284017 0.383141
O O11 0.500000 0.282478 0.947893
O O12 0.660029 0.000000 0.949832
O O13 0.500000 0.218697 0.675652
O O14 0.267599 0.330741 0.709298
O O15 0.267538 0.226164 0.635171
O O16 0.285334 0.000000 0.692401
O O17 0.500000 0.500000 0.735140
O O18 0.500000 0.277589 0.089081
O O19 0.662393 0.000000 0.095581
#
# Coordination Sequence:
#
# PCOD8179547 Si02
#       7
#     8   4   8   8   8   4   8
#     4   9  16  25  41  69 103 139 177 215 257 307
#     4  10  22  38  56  80 108 138 172 212 262 318
#     4   9  18  34  55  76 102 138 174 210 257 312
#     4   9  16  27  46  74 105 136 175 219 259 302
#     4   9  17  31  53  78 103 134 171 213 262 313
#     4  10  20  36  56  80 106 134 172 216 262 314
#     4   9  15  26  46  70  97 131 173 217 259 304
#
# _framework density 19.609539000000002
#
# number of rings (size 3 to 8) (size 9 to 14) (size 15 to 20)
#    0.000    2.833    0.833    1.000    0.000    5.333 
#    0.000    0.833    1.833    1.500    0.000    0.000 
#    0.000    0.000    0.000    0.000    0.000    0.000 
#
# Total GULP energy -297562.368895 kJ/mol
# GULP energy per Si atom -12398.432037 kJ/mol
# Density = 1.956491 g / cm^3
# Si number density = 19.609539 Si / 1000 Ang^3
#
#
#
# Elastic Constant Matrix: (Units=GPa)
#
#
# Indices 1 2 3 4 5 6 
#
# 1 99.5630 29.6253 76.7296 0.0000 0.0000 0.0000
# 2 29.6253 82.8568 62.2865 0.0000 0.0000 0.0000
# 3 76.7296 62.2865 179.3466 0.0000 0.0000 0.0000
# 4 0.0000 0.0000 0.0000 2.3546 0.0000 0.0000
# 5 0.0000 0.0000 0.0000 0.0000 21.9643 0.0000
# 6 0.0000 0.0000 0.0000 0.0000 0.0000 6.9887
#
#
#
# Elastic Compliance Matrix: (Units=1/GPa)
#
#
# Indices 1 2 3 4 5 6 
#
# 1 0.015017 -0.000730 -0.006171 0.000000 0.000000 0.000000
# 2 -0.000730 0.016369 -0.005372 0.000000 0.000000 0.000000
# 3 -0.006171 -0.005372 0.010082 0.000000 0.000000 0.000000
# 4 0.000000 0.000000 0.000000 0.424694 0.000000 0.000000
# 5 0.000000 0.000000 0.000000 0.000000 0.045528 0.000000
# 6 0.000000 0.000000 0.000000 0.000000 0.000000 0.143089
#
#
# Mechanical properties :
#
#
# Convention : Reuss Voigt Hill
#
# Bulk Modulus (GPa) = 59.10148 77.67215 68.38681
# Shear Modulus (GPa) = 7.29963 19.13652 13.21807
#
# Velocity S-wave (km/s) = 1.93147 3.12729 2.59909
# Velocity P-wave (km/s) = 5.93116 7.26191 6.63001
#
# Compressibility (1/GPa) = 0.01692005
#
# Stress axis : x y z
#
# Youngs Moduli (GPa) = 66.59108 61.09206 99.18886
#
# Poissons Ratio (x) = 0.04461 0.61210
# Poissons Ratio (y) = 0.04863 0.53288
# Poissons Ratio (z) = 0.41094 0.32821
#
# Static dielectric constant tensor:
#      x y z
#    x 3.479520 0.000000 0.000000 
#    y 0.000000 3.443370 0.000000 
#    z 0.000000 0.000000 3.574460 
# 
# 
# High freq. dielectric constant tensor:
#      x y z
#    x 1.740140 0.000000 0.000000 
#    y 0.000000 1.750530 0.000000 
#    z 0.000000 0.000000 1.764120 
# 
# From -- ./inp_files/24364.got.cif
#   From: 2010.03.12/outbox.cif.g09.slc.cpg/sg38_13_cif.got.tgz:24364.got - 2010.04.14 02:38:36.
