data_PCOD8179775
_publ_section_title
;
Structure prediction by ZEFSAII (Michael W. Deem and Ramdas Pophale) SiO2 
 PCOD8179775
Probable space group: A M M 2
;
_chemical_formula_sum "Si O2"
_cell_formula_units_Z 56
_cell_length_a 23.223098
_cell_length_b 7.809548
_cell_length_c 15.243547
_cell_angle_alpha 90.000000
_cell_angle_beta 90.000000
_cell_angle_gamma 90.000000
_cell_volume 2764.598624
_symmetry_space_group_name_H-M "A M M 2"
_symmetry_group_IT_number 38
_symmetry_cell_setting 'orthorhombic'
loop_
_space_group_symop_operation_xyz
x,y,z
-x,-y,z
-x,y,z
x,-y,z
x,1/2+y,1/2+z
-x,1/2-y,1/2+z
-x,1/2+y,1/2+z
x,1/2-y,1/2+z
loop_
_atom_site_type_symbol
_atom_site_label
_atom_site_fract_x
_atom_site_fract_y
_atom_site_fract_z
Si Si1 0.936323 0.000000 0.913180
Si Si2 0.435879 0.298976 0.720067
Si Si3 0.144052 0.308955 0.711074
Si Si4 0.773380 0.306492 0.069694
Si Si5 0.643022 0.203645 0.065297
Si Si6 0.064039 0.000000 0.705945
Si Si7 0.435828 0.798651 0.910326
Si Si8 0.854096 0.696743 0.912590
O O1 0.904210 0.173534 0.943409
O O2 0.941472 0.000000 0.809454
O O3 0.000000 0.000000 0.955627
O O4 0.500000 0.218943 0.707102
O O5 0.440155 0.500000 0.707573
O O6 0.391327 0.224652 0.649523
O O7 0.411450 0.251478 0.815350
O O8 0.116906 0.500000 0.707022
O O9 0.199603 0.306697 0.647762
O O10 0.097487 0.171751 0.675719
O O11 0.163398 0.267758 0.811225
O O12 0.788018 0.500000 0.094920
O O13 0.705748 0.282328 0.064465
O O14 0.799408 0.261650 0.973987
O O15 0.647893 0.000000 0.065197
O O16 0.608420 0.275319 0.981357
O O17 0.000000 0.000000 0.663739
O O18 0.500000 0.719597 0.923749
O O19 0.439724 0.000000 0.921352
O O20 0.875203 0.500000 0.924862
#
# Coordination Sequence:
#
# PCOD8179775 Si02
#       8
#     4   8   8   8   8   4   8   8
#     4   9  18  34  62  90 113 147 190 233 281 339
#     4   9  18  34  55  78 108 143 180 227 282 339
#     4  10  20  38  61  84 114 155 192 232 290 344
#     4  11  23  39  57  79 114 150 191 244 286 336
#     4  10  21  35  53  79 105 145 189 228 279 341
#     4   9  18  36  60  90 119 147 190 239 283 337
#     4   9  18  34  55  79 109 142 181 230 281 337
#     4   9  21  38  58  83 115 152 188 233 287 338
#
# _framework density 20.256103
#
# number of rings (size 3 to 8) (size 9 to 14) (size 15 to 20)
#    0.000    2.429    0.714    0.857    2.000    4.571 
#    0.000    7.857    0.000    4.286    0.000    0.000 
#    0.000    0.000    0.000    0.000    0.000    0.000 
#
# Total GULP energy -347139.452373 kJ/mol
# GULP energy per Si atom -12397.837585 kJ/mol
# Density = 2.021000 g / cm^3
# Si number density = 20.256103 Si / 1000 Ang^3
#
#
#
# Elastic Constant Matrix: (Units=GPa)
#
#
# Indices 1 2 3 4 5 6 
#
# 1 152.0616 41.2528 79.7718 0.0000 0.0000 0.0000
# 2 41.2528 76.5423 33.8660 0.0000 0.0000 0.0000
# 3 79.7718 33.8660 126.0919 0.0000 0.0000 0.0000
# 4 0.0000 0.0000 0.0000 24.8318 0.0000 0.0000
# 5 0.0000 0.0000 0.0000 0.0000 20.2542 0.0000
# 6 0.0000 0.0000 0.0000 0.0000 0.0000 25.0109
#
#
#
# Elastic Compliance Matrix: (Units=1/GPa)
#
#
# Indices 1 2 3 4 5 6 
#
# 1 0.010442 -0.003070 -0.005782 0.000000 0.000000 0.000000
# 2 -0.003070 0.015729 -0.002282 0.000000 0.000000 0.000000
# 3 -0.005782 -0.002282 0.012202 0.000000 0.000000 0.000000
# 4 0.000000 0.000000 0.000000 0.040271 0.000000 0.000000
# 5 0.000000 0.000000 0.000000 0.000000 0.049373 0.000000
# 6 0.000000 0.000000 0.000000 0.000000 0.000000 0.039983
#
#
# Mechanical properties :
#
#
# Convention : Reuss Voigt Hill
#
# Bulk Modulus (GPa) = 62.09312 73.83078 67.96195
# Shear Modulus (GPa) = 25.55779 27.33971 26.44875
#
# Velocity S-wave (km/s) = 3.55594 3.67782 3.61739
# Velocity P-wave (km/s) = 6.89784 7.38667 7.14644
#
# Compressibility (1/GPa) = 0.01610484
#
# Stress axis : x y z
#
# Youngs Moduli (GPa) = 95.76542 63.57686 81.95670
#
# Poissons Ratio (x) = 0.19516 0.47385
# Poissons Ratio (y) = 0.29397 0.18706
# Poissons Ratio (z) = 0.55369 0.14511
#
# Static dielectric constant tensor:
#      x y z
#    x 3.698920 0.000000 0.000000 
#    y 0.000000 3.660230 0.000000 
#    z 0.000000 0.000000 3.818470 
# 
# 
# High freq. dielectric constant tensor:
#      x y z
#    x 1.775130 0.000000 0.000000 
#    y 0.000000 1.790830 0.000000 
#    z 0.000000 0.000000 1.791710 
# 
# From -- ./inp_files/15555.got.cif
#   From: 2010.03.12/outbox.cif.g09.slc.cpg/sg38_8_cif.got.tgz:15555.got - 2010.04.14 02:38:36.
