data_PCOD8179507
_publ_section_title
;
Structure prediction by ZEFSAII (Michael W. Deem and Ramdas Pophale) SiO2 
 PCOD8179507
Probable space group: A M M 2
;
_chemical_formula_sum "Si O2"
_cell_formula_units_Z 56
_cell_length_a 8.958862
_cell_length_b 18.319587
_cell_length_c 17.110621
_cell_angle_alpha 90.000000
_cell_angle_beta 90.000000
_cell_angle_gamma 90.000000
_cell_volume 2808.240493
_symmetry_space_group_name_H-M "A M M 2"
_symmetry_group_IT_number 38
_symmetry_cell_setting 'orthorhombic'
loop_
_space_group_symop_operation_xyz
x,y,z
-x,-y,z
-x,y,z
x,-y,z
x,1/2+y,1/2+z
-x,1/2-y,1/2+z
-x,1/2+y,1/2+z
x,1/2-y,1/2+z
loop_
_atom_site_type_symbol
_atom_site_label
_atom_site_fract_x
_atom_site_fract_y
_atom_site_fract_z
Si Si1 0.823554 0.315649 0.943210
Si Si2 0.674745 0.916434 0.329337
Si Si3 0.323387 0.083017 0.741275
Si Si4 0.174779 0.814500 0.622307
Si Si5 0.675729 0.828261 0.892479
Si Si6 0.169360 0.585145 0.524463
Si Si7 0.172658 0.343024 0.686111
O O1 0.759722 0.390303 0.907260
O O2 0.757728 0.249122 0.892780
O O3 0.000000 0.314084 0.935512
O O4 0.771323 0.309734 0.032797
O O5 0.500000 0.906682 0.342772
O O6 0.723562 0.867763 0.256339
O O7 0.719019 0.000000 0.313684
O O8 0.500000 0.085036 0.735457
O O9 0.257509 0.118603 0.663304
O O10 0.267256 0.127088 0.817154
O O11 0.265199 0.000000 0.747902
O O12 0.217698 0.739243 0.664382
O O13 0.000000 0.829670 0.626206
O O14 0.500000 0.815060 0.890097
O O15 0.715758 0.873413 0.969537
O O16 0.190373 0.500000 0.511085
O O17 0.206236 0.604088 0.613586
O O18 0.000000 0.610667 0.504957
O O19 0.000000 0.348218 0.711547
#
# Coordination Sequence:
#
# PCOD8179507 Si02
#       7
#     8   8   8   8   8   8   8
#     4  11  23  42  65  89 120 157 203 252 303 361
#     4  11  25  42  60  89 126 160 201 251 303 361
#     4  10  23  41  59  84 121 160 197 242 297 356
#     4  10  22  40  63  90 118 151 198 252 298 351
#     4  11  22  38  61  89 122 159 201 247 302 364
#     4  10  20  35  58  88 123 162 202 246 298 357
#     4  10  20  39  63  88 120 158 202 249 300 358
#
# _framework density 19.941313000000001
#
# number of rings (size 3 to 8) (size 9 to 14) (size 15 to 20)
#    0.000    1.571    1.429    3.000    0.000    9.143 
#    0.000    2.857    0.000    0.000    0.000    0.000 
#    0.000    0.000    0.000    0.000    0.000    0.000 
#
# Total GULP energy -347374.754172 kJ/mol
# GULP energy per Si atom -12406.241220 kJ/mol
# Density = 1.989593 g / cm^3
# Si number density = 19.941313 Si / 1000 Ang^3
#
#
#
# Elastic Constant Matrix: (Units=GPa)
#
#
# Indices 1 2 3 4 5 6 
#
# 1 61.2739 44.0585 44.1955 0.0000 0.0000 0.0000
# 2 44.0585 106.1567 67.7147 0.0000 0.0000 0.0000
# 3 44.1955 67.7147 108.3372 0.0000 0.0000 0.0000
# 4 0.0000 0.0000 0.0000 36.7797 0.0000 0.0000
# 5 0.0000 0.0000 0.0000 0.0000 31.7782 0.0000
# 6 0.0000 0.0000 0.0000 0.0000 0.0000 32.9930
#
#
#
# Elastic Compliance Matrix: (Units=1/GPa)
#
#
# Indices 1 2 3 4 5 6 
#
# 1 0.025632 -0.006599 -0.006332 0.000000 0.000000 0.000000
# 2 -0.006599 0.017365 -0.008162 0.000000 0.000000 0.000000
# 3 -0.006332 -0.008162 0.016915 0.000000 0.000000 0.000000
# 4 0.000000 0.000000 0.000000 0.027189 0.000000 0.000000
# 5 0.000000 0.000000 0.000000 0.000000 0.031468 0.000000
# 6 0.000000 0.000000 0.000000 0.000000 0.000000 0.030309
#
#
# Mechanical properties :
#
#
# Convention : Reuss Voigt Hill
#
# Bulk Modulus (GPa) = 56.41211 65.30059 60.85635
# Shear Modulus (GPa) = 25.38419 28.29679 26.84049
#
# Velocity S-wave (km/s) = 3.57171 3.77105 3.67273
# Velocity P-wave (km/s) = 6.73498 7.19573 6.96916
#
# Compressibility (1/GPa) = 0.01772669
#
# Stress axis : x y z
#
# Youngs Moduli (GPa) = 39.01324 57.58672 59.12012
#
# Poissons Ratio (x) = 0.38004 0.37433
# Poissons Ratio (y) = 0.25747 0.48252
# Poissons Ratio (z) = 0.24702 0.47000
#
# Static dielectric constant tensor:
#      x y z
#    x 3.506170 0.000000 0.000000 
#    y 0.000000 3.829520 0.000000 
#    z 0.000000 0.000000 3.701400 
# 
# 
# High freq. dielectric constant tensor:
#      x y z
#    x 1.772060 0.000000 0.000000 
#    y 0.000000 1.789030 0.000000 
#    z 0.000000 0.000000 1.786040 
# 
# From -- ./inp_files/12398.got.cif
#   From: 2010.03.12/outbox.cif.g09.slc.cpg/sg38_7_cif.got.tgz:12398.got - 2010.04.14 02:38:36.
