data_PCOD8179938
_publ_section_title
;
Structure prediction by ZEFSAII (Michael W. Deem and Ramdas Pophale) SiO2 
 PCOD8179938
Probable space group: A M M 2
;
_chemical_formula_sum "Si O2"
_cell_formula_units_Z 48
_cell_length_a 8.952597
_cell_length_b 9.704840
_cell_length_c 30.564525
_cell_angle_alpha 90.000000
_cell_angle_beta 90.000000
_cell_angle_gamma 90.000000
_cell_volume 2655.553564
_symmetry_space_group_name_H-M "A M M 2"
_symmetry_group_IT_number 38
_symmetry_cell_setting 'orthorhombic'
loop_
_space_group_symop_operation_xyz
x,y,z
-x,-y,z
-x,y,z
x,-y,z
x,1/2+y,1/2+z
-x,1/2-y,1/2+z
-x,1/2+y,1/2+z
x,1/2-y,1/2+z
loop_
_atom_site_type_symbol
_atom_site_label
_atom_site_fract_x
_atom_site_fract_y
_atom_site_fract_z
Si Si1 0.325132 0.341479 0.055000
Si Si2 0.674541 0.159532 0.218118
Si Si3 0.328110 0.661689 0.379540
Si Si4 0.826456 0.158136 0.308086
Si Si5 0.322596 0.847728 0.977513
Si Si6 0.824489 0.658931 0.144406
O O1 0.500000 0.314671 0.061960
O O2 0.289931 0.500000 0.045219
O O3 0.241624 0.290064 0.098326
O O4 0.260115 0.257358 0.013707
O O5 0.500000 0.190703 0.216551
O O6 0.734987 0.203499 0.265414
O O7 0.755615 0.250350 0.182321
O O8 0.710554 0.000000 0.208655
O O9 0.500000 0.705446 0.372186
O O10 0.308206 0.500000 0.370392
O O11 0.222016 0.746798 0.347962
O O12 0.274717 0.698165 0.428798
O O13 0.000000 0.181105 0.298138
O O14 0.791796 0.000000 0.320331
O O15 0.500000 0.851752 0.978981
O O16 0.259072 0.000000 0.987937
O O17 0.781103 0.500000 0.152728
O O18 0.000000 0.681230 0.143513
#
# Coordination Sequence:
#
# PCOD8179938 Si02
#       6
#     8   8   8   8   8   8
#     4   9  17  30  49  73 100 131 169 211 252 295
#     4  10  21  37  57  79 101 129 168 212 256 302
#     4   9  18  33  53  77 104 135 172 212 253 299
#     4  10  21  36  53  75 104 136 169 207 253 304
#     4   8  15  29  49  73 100 129 165 210 254 295
#     4  10  21  36  53  75 105 139 171 205 250 303
#
# _framework density 18.075327000000001
#
# number of rings (size 3 to 8) (size 9 to 14) (size 15 to 20)
#    0.000    2.667    0.000    2.500    0.000    5.333 
#    0.000    4.167    0.000    3.000    0.000    0.000 
#    0.000    0.000    0.000    0.000    0.000    0.000 
#
# Total GULP energy -297620.759614 kJ/mol
# GULP energy per Si atom -12400.864984 kJ/mol
# Density = 1.803419 g / cm^3
# Si number density = 18.075327 Si / 1000 Ang^3
#
#
#
# Elastic Constant Matrix: (Units=GPa)
#
#
# Indices 1 2 3 4 5 6 
#
# 1 30.1783 20.4680 20.8990 0.0000 0.0000 0.0000
# 2 20.4680 67.1008 65.2946 0.0000 0.0000 0.0000
# 3 20.8990 65.2946 129.5732 0.0000 0.0000 0.0000
# 4 0.0000 0.0000 0.0000 41.1417 0.0000 0.0000
# 5 0.0000 0.0000 0.0000 0.0000 -5.5664 0.0000
# 6 0.0000 0.0000 0.0000 0.0000 0.0000 26.0096
#
#
#
# Elastic Compliance Matrix: (Units=1/GPa)
#
#
# Indices 1 2 3 4 5 6 
#
# 1 0.041805 -0.012147 -0.000622 0.000000 0.000000 0.000000
# 2 -0.012147 0.032771 -0.014555 0.000000 0.000000 0.000000
# 3 -0.000622 -0.014555 0.015152 0.000000 0.000000 0.000000
# 4 0.000000 0.000000 0.000000 0.024306 0.000000 0.000000
# 5 0.000000 0.000000 0.000000 0.000000 -0.179649 0.000000
# 6 0.000000 0.000000 0.000000 0.000000 0.000000 0.038447
#
#
# Mechanical properties :
#
#
# Convention : Reuss Voigt Hill
#
# Bulk Modulus (GPa) = 28.50478 48.90839 38.70659
# Shear Modulus (GPa) = 127.62989 20.32969 73.97979
#
# Velocity S-wave (km/s) = 8.41209 3.35732 6.40449
# Velocity P-wave (km/s) = 10.49549 6.49197 8.72642
#
# Compressibility (1/GPa) = 0.03508183
#
# Stress axis : x y z
#
# Youngs Moduli (GPa) = 23.92031 30.51439 65.99587
#
# Poissons Ratio (x) = 0.37066 0.04103
# Poissons Ratio (y) = 0.29056 0.96057
# Poissons Ratio (z) = 0.01487 0.44414
#
# Static dielectric constant tensor:
#      x y z
#    x 3.231090 0.000000 0.000000 
#    y 0.000000 3.405200 0.000000 
#    z 0.000000 0.000000 3.550590 
# 
# 
# High freq. dielectric constant tensor:
#      x y z
#    x 1.687190 0.000000 0.000000 
#    y 0.000000 1.697240 0.000000 
#    z 0.000000 0.000000 1.710270 
# 
# From -- ./inp_files/24261.got.cif
#   From: 2010.03.12/outbox.cif.g09.slc.cpg/sg38_13_cif.got.tgz:24261.got - 2010.04.14 02:38:36.
