data_PCOD8179635
_publ_section_title
;
Structure prediction by ZEFSAII (Michael W. Deem and Ramdas Pophale) SiO2 
 PCOD8179635
Probable space group: A M M 2
;
_chemical_formula_sum "Si O2"
_cell_formula_units_Z 64
_cell_length_a 18.563230
_cell_length_b 9.007477
_cell_length_c 19.511372
_cell_angle_alpha 90.000000
_cell_angle_beta 90.000000
_cell_angle_gamma 90.000000
_cell_volume 3262.454900
_symmetry_space_group_name_H-M "A M M 2"
_symmetry_group_IT_number 38
_symmetry_cell_setting 'orthorhombic'
loop_
_space_group_symop_operation_xyz
x,y,z
-x,-y,z
-x,y,z
x,-y,z
x,1/2+y,1/2+z
-x,1/2-y,1/2+z
-x,1/2+y,1/2+z
x,1/2-y,1/2+z
loop_
_atom_site_type_symbol
_atom_site_label
_atom_site_fract_x
_atom_site_fract_y
_atom_site_fract_z
Si Si1 0.581382 0.832437 0.796190
Si Si2 0.915681 0.827285 0.648540
Si Si3 0.658434 0.673854 0.681550
Si Si4 0.417642 0.825337 0.559605
Si Si5 0.191978 0.323993 0.748606
Si Si6 0.916996 0.327708 0.509784
Si Si7 0.652066 0.330878 0.437195
Si Si8 0.807818 0.171728 0.894338
O O1 0.500000 0.810962 0.821015
O O2 0.597365 0.718571 0.735608
O O3 0.632682 0.795552 0.859068
O O4 0.594557 0.000000 0.769107
O O5 0.876133 0.746100 0.710677
O O6 0.889407 0.763333 0.575574
O O7 0.000000 0.796438 0.658619
O O8 0.896902 0.000000 0.650729
O O9 0.657285 0.500000 0.669409
O O10 0.639492 0.750086 0.610047
O O11 0.735930 0.728290 0.708979
O O12 0.500000 0.772276 0.572861
O O13 0.393102 0.780574 0.483770
O O14 0.412331 0.000000 0.568127
O O15 0.184962 0.500000 0.748090
O O16 0.193544 0.270968 0.826783
O O17 0.903357 0.500000 0.526223
O O18 0.874285 0.278373 0.441916
O O19 0.000000 0.292946 0.494384
O O20 0.631640 0.500000 0.456923
O O21 0.737438 0.303369 0.441672
O O22 0.813997 0.000000 0.871685
#
# Coordination Sequence:
#
# PCOD8179635 Si02
#       8
#     8   8   8   8   8   8   8   8
#     4  10  20  36  60  86 113 150 194 239 292 350
#     4  10  22  40  63  91 121 156 199 243 289 345
#     4  11  24  40  59  85 117 154 197 243 293 352
#     4  11  25  42  60  85 117 153 196 247 302 358
#     4  11  24  40  60  88 122 158 198 243 294 350
#     4   9  19  37  61  90 124 158 193 237 288 343
#     4  10  21  38  60  86 118 155 197 244 292 350
#     4  10  21  38  61  88 120 159 200 240 289 348
#
# _framework density 19.617128999999998
#
# number of rings (size 3 to 8) (size 9 to 14) (size 15 to 20)
#    0.000    1.750    1.250    2.250    1.750    7.500 
#    0.000    1.250    0.000    0.000    0.000    0.000 
#    0.000    0.000    0.000    0.000    0.000    0.000 
#
# Total GULP energy -396940.487106 kJ/mol
# GULP energy per Si atom -12404.390222 kJ/mol
# Density = 1.957248 g / cm^3
# Si number density = 19.617129 Si / 1000 Ang^3
#
#
#
# Elastic Constant Matrix: (Units=GPa)
#
#
# Indices 1 2 3 4 5 6 
#
# 1 79.1400 39.1133 41.6644 0.0000 0.0000 0.0000
# 2 39.1133 73.8139 47.1437 0.0000 0.0000 0.0000
# 3 41.6644 47.1437 89.7578 0.0000 0.0000 0.0000
# 4 0.0000 0.0000 0.0000 41.5840 0.0000 0.0000
# 5 0.0000 0.0000 0.0000 0.0000 37.4527 0.0000
# 6 0.0000 0.0000 0.0000 0.0000 0.0000 28.5806
#
#
#
# Elastic Compliance Matrix: (Units=1/GPa)
#
#
# Indices 1 2 3 4 5 6 
#
# 1 0.018605 -0.006535 -0.005204 0.000000 0.000000 0.000000
# 2 -0.006535 0.022682 -0.008880 0.000000 0.000000 0.000000
# 3 -0.005204 -0.008880 0.018221 0.000000 0.000000 0.000000
# 4 0.000000 0.000000 0.000000 0.024048 0.000000 0.000000
# 5 0.000000 0.000000 0.000000 0.000000 0.026700 0.000000
# 6 0.000000 0.000000 0.000000 0.000000 0.000000 0.034989
#
#
# Mechanical properties :
#
#
# Convention : Reuss Voigt Hill
#
# Bulk Modulus (GPa) = 54.73373 55.39493 55.06433
# Shear Modulus (GPa) = 25.96429 29.17613 27.57021
#
# Velocity S-wave (km/s) = 3.64201 3.86071 3.75295
# Velocity P-wave (km/s) = 6.75627 6.94066 6.84909
#
# Compressibility (1/GPa) = 0.01827027
#
# Stress axis : x y z
#
# Youngs Moduli (GPa) = 53.74786 44.08822 54.88306
#
# Poissons Ratio (x) = 0.28812 0.28561
# Poissons Ratio (y) = 0.35125 0.48734
# Poissons Ratio (z) = 0.27970 0.39149
#
# Static dielectric constant tensor:
#      x y z
#    x 3.711410 0.000000 0.000000 
#    y 0.000000 3.550440 0.000000 
#    z 0.000000 0.000000 3.481680 
# 
# 
# High freq. dielectric constant tensor:
#      x y z
#    x 1.773150 0.000000 0.000000 
#    y 0.000000 1.761180 0.000000 
#    z 0.000000 0.000000 1.767660 
# 
# From -- ./inp_files/21447.got.cif
#   From: 2010.03.12/outbox.cif.g09.slc.cpg/sg38_11_cif.got.tgz:21447.got - 2010.04.14 02:38:36.
