data_PCOD8179922
_publ_section_title
;
Structure prediction by ZEFSAII (Michael W. Deem and Ramdas Pophale) SiO2 
 PCOD8179922
Probable space group: A M M 2
;
_chemical_formula_sum "Si O2"
_cell_formula_units_Z 64
_cell_length_a 24.376760
_cell_length_b 9.380379
_cell_length_c 15.166764
_cell_angle_alpha 90.000000
_cell_angle_beta 90.000000
_cell_angle_gamma 90.000000
_cell_volume 3468.081512
_symmetry_space_group_name_H-M "A M M 2"
_symmetry_group_IT_number 38
_symmetry_cell_setting 'orthorhombic'
loop_
_space_group_symop_operation_xyz
x,y,z
-x,-y,z
-x,y,z
x,-y,z
x,1/2+y,1/2+z
-x,1/2-y,1/2+z
-x,1/2+y,1/2+z
x,1/2-y,1/2+z
loop_
_atom_site_type_symbol
_atom_site_label
_atom_site_fract_x
_atom_site_fract_y
_atom_site_fract_z
Si Si1 0.560177 0.165820 0.144630
Si Si2 0.256577 0.331908 0.313057
Si Si3 0.936968 0.165858 0.967852
Si Si4 0.063064 0.665988 0.140945
Si Si5 0.336746 0.834006 0.658715
Si Si6 0.558330 0.160842 0.470100
Si Si7 0.676860 0.162625 0.453675
Si Si8 0.132526 0.669344 0.304170
O O1 0.500000 0.189462 0.189729
O O2 0.609059 0.250502 0.193068
O O3 0.575487 0.000000 0.143256
O O4 0.556780 0.222283 0.045552
O O5 0.257981 0.500000 0.328158
O O6 0.287381 0.287967 0.223066
O O7 0.282913 0.262737 0.399628
O O8 0.194711 0.274477 0.304103
O O9 0.919407 0.250511 0.054173
O O10 0.000000 0.194720 0.941967
O O11 0.926535 0.000000 0.985673
O O12 0.898925 0.226316 0.890108
O O13 0.073616 0.500000 0.123685
O O14 0.101113 0.727597 0.218457
O O15 0.000000 0.694878 0.166684
O O16 0.321521 0.794987 0.557558
O O17 0.349583 0.000000 0.667832
O O18 0.500000 0.173518 0.416082
O O19 0.614424 0.184482 0.414994
O O20 0.562473 0.000000 0.510973
O O21 0.696195 0.000000 0.441326
O O22 0.130095 0.500000 0.302927
#
# Coordination Sequence:
#
# PCOD8179922 Si02
#       8
#     8   8   8   8   8   8   8   8
#     4   9  16  26  45  74 100 121 153 200 249 294
#     4  10  21  36  52  71  96 130 173 210 238 281
#     4   9  17  31  52  77 104 132 161 197 245 296
#     4   9  17  31  53  79 103 129 164 203 242 288
#     4   9  19  35  52  69  95 132 166 198 244 298
#     4   8  14  27  48  71  95 126 160 193 240 303
#     4   9  18  33  52  73  98 128 161 201 250 297
#     4   9  18  33  52  72  98 134 170 202 240 289
#
# _framework density 18.454007000000001
#
# number of rings (size 3 to 8) (size 9 to 14) (size 15 to 20)
#    0.000    3.000    0.000    1.500    0.000    5.750 
#    0.000    3.750    0.000    5.250    0.000    0.000 
#    0.000    0.000    0.000    0.000    0.000    0.000 
#
# Total GULP energy -396541.582749 kJ/mol
# GULP energy per Si atom -12391.924461 kJ/mol
# Density = 1.841200 g / cm^3
# Si number density = 18.454007 Si / 1000 Ang^3
#
#
#
# Elastic Constant Matrix: (Units=GPa)
#
#
# Indices 1 2 3 4 5 6 
#
# 1 161.5246 49.4115 87.3241 0.0000 0.0000 0.0000
# 2 49.4115 50.3146 42.4023 0.0000 0.0000 0.0000
# 3 87.3241 42.4023 112.4888 0.0000 0.0000 0.0000
# 4 0.0000 0.0000 0.0000 24.2924 0.0000 0.0000
# 5 0.0000 0.0000 0.0000 0.0000 18.0204 0.0000
# 6 0.0000 0.0000 0.0000 0.0000 0.0000 22.8488
#
#
#
# Elastic Compliance Matrix: (Units=1/GPa)
#
#
# Indices 1 2 3 4 5 6 
#
# 1 0.011654 -0.005599 -0.006936 0.000000 0.000000 0.000000
# 2 -0.005599 0.031818 -0.007647 0.000000 0.000000 0.000000
# 3 -0.006936 -0.007647 0.017157 0.000000 0.000000 0.000000
# 4 0.000000 0.000000 0.000000 0.041165 0.000000 0.000000
# 5 0.000000 0.000000 0.000000 0.000000 0.055493 0.000000
# 6 0.000000 0.000000 0.000000 0.000000 0.000000 0.043766
#
#
# Mechanical properties :
#
#
# Convention : Reuss Voigt Hill
#
# Bulk Modulus (GPa) = 49.34905 75.84486 62.59696
# Shear Modulus (GPa) = 20.14736 22.71167 21.42952
#
# Velocity S-wave (km/s) = 3.30777 3.51196 3.41139
# Velocity P-wave (km/s) = 6.43336 7.59169 7.03640
#
# Compressibility (1/GPa) = 0.02026381
#
# Stress axis : x y z
#
# Youngs Moduli (GPa) = 85.81040 31.42858 58.28625
#
# Poissons Ratio (x) = 0.17597 0.40427
# Poissons Ratio (y) = 0.48047 0.44573
# Poissons Ratio (z) = 0.59518 0.24034
#
# Static dielectric constant tensor:
#      x y z
#    x 3.746530 0.000000 0.000000 
#    y 0.000000 3.203860 0.000000 
#    z 0.000000 0.000000 3.200870 
# 
# 
# High freq. dielectric constant tensor:
#      x y z
#    x 1.726280 0.000000 0.000000 
#    y 0.000000 1.697220 0.000000 
#    z 0.000000 0.000000 1.693530 
# 
# From -- ./inp_files/15847.got.cif
#   From: 2010.03.12/outbox.cif.g09.slc.cpg/sg38_8_cif.got.tgz:15847.got - 2010.04.14 02:38:36.
