data_PCOD8179319
_publ_section_title
;
Structure prediction by ZEFSAII (Michael W. Deem and Ramdas Pophale) SiO2 
 PCOD8179319
Probable space group: A M M 2
;
_chemical_formula_sum "Si O2"
_cell_formula_units_Z 40
_cell_length_a 9.352301
_cell_length_b 23.589168
_cell_length_c 10.182320
_cell_angle_alpha 90.000000
_cell_angle_beta 90.000000
_cell_angle_gamma 90.000000
_cell_volume 2246.352157
_symmetry_space_group_name_H-M "A M M 2"
_symmetry_group_IT_number 38
_symmetry_cell_setting 'orthorhombic'
loop_
_space_group_symop_operation_xyz
x,y,z
-x,-y,z
-x,y,z
x,-y,z
x,1/2+y,1/2+z
-x,1/2-y,1/2+z
-x,1/2+y,1/2+z
x,1/2-y,1/2+z
loop_
_atom_site_type_symbol
_atom_site_label
_atom_site_fract_x
_atom_site_fract_y
_atom_site_fract_z
Si Si1 0.839416 0.637654 0.629510
Si Si2 0.160901 0.737126 0.458071
Si Si3 0.334021 0.434485 0.133285
Si Si4 0.668456 0.863698 0.887056
Si Si5 0.831143 0.636536 0.926364
O O1 0.839991 0.706044 0.601156
O O2 0.735518 0.608616 0.520789
O O3 0.783506 0.626554 0.775846
O O4 0.000000 0.613334 0.612141
O O5 0.262109 0.698792 0.363063
O O6 0.220212 0.800843 0.471349
O O7 0.000000 0.738793 0.398406
O O8 0.500000 0.424791 0.103335
O O9 0.295904 0.500000 0.150539
O O10 0.288148 0.403373 0.266514
O O11 0.246106 0.410595 0.011525
O O12 0.500000 0.857849 0.904492
O O13 0.000000 0.629725 0.943765
#
# Coordination Sequence:
#
# PCOD8179319 Si02
#       5
#     8   8   8   8   8
#     4   8  17  33  52  79 110 137 170 219 274 324
#     4   8  17  31  52  80 113 142 170 217 278 328
#     4  10  23  41  56  76 110 150 190 232 274 317
#     4   9  18  33  54  77 104 141 186 226 264 324
#     4  10  20  34  56  83 111 144 182 224 273 331
#
# _framework density 17.806647000000002
#
# number of rings (size 3 to 8) (size 9 to 14) (size 15 to 20)
#    1.200    1.800    0.000    0.000    2.800    3.600 
#    0.000    1.000    0.000    3.600    0.000    0.000 
#    0.000    0.000    0.000    0.000    0.000    0.000 
#
# Total GULP energy -247800.152792 kJ/mol
# GULP energy per Si atom -12390.007640 kJ/mol
# Density = 1.776612 g / cm^3
# Si number density = 17.806647 Si / 1000 Ang^3
#
#
#
# Elastic Constant Matrix: (Units=GPa)
#
#
# Indices 1 2 3 4 5 6 
#
# 1 59.6891 29.2032 44.9189 0.0000 0.0000 0.0000
# 2 29.2032 73.7629 35.1828 0.0000 0.0000 0.0000
# 3 44.9189 35.1828 114.1968 0.0000 0.0000 0.0000
# 4 0.0000 0.0000 0.0000 24.4342 0.0000 0.0000
# 5 0.0000 0.0000 0.0000 0.0000 32.6458 0.0000
# 6 0.0000 0.0000 0.0000 0.0000 0.0000 24.9618
#
#
#
# Elastic Compliance Matrix: (Units=1/GPa)
#
#
# Indices 1 2 3 4 5 6 
#
# 1 0.026131 -0.006380 -0.008313 0.000000 0.000000 0.000000
# 2 -0.006380 0.017450 -0.002867 0.000000 0.000000 0.000000
# 3 -0.008313 -0.002867 0.012910 0.000000 0.000000 0.000000
# 4 0.000000 0.000000 0.000000 0.040926 0.000000 0.000000
# 5 0.000000 0.000000 0.000000 0.000000 0.030632 0.000000
# 6 0.000000 0.000000 0.000000 0.000000 0.000000 0.040061
#
#
# Mechanical properties :
#
#
# Convention : Reuss Voigt Hill
#
# Bulk Modulus (GPa) = 46.79131 51.80651 49.29891
# Shear Modulus (GPa) = 23.76955 25.63131 24.70043
#
# Velocity S-wave (km/s) = 3.65755 3.79809 3.72848
# Velocity P-wave (km/s) = 6.64616 6.95637 6.80303
#
# Compressibility (1/GPa) = 0.02137149
#
# Stress axis : x y z
#
# Youngs Moduli (GPa) = 38.26896 57.30578 77.46088
#
# Poissons Ratio (x) = 0.36563 0.64391
# Poissons Ratio (y) = 0.24417 0.22204
# Poissons Ratio (z) = 0.31812 0.16427
#
# Static dielectric constant tensor:
#      x y z
#    x 3.182420 0.000000 0.000000 
#    y 0.000000 3.075490 0.000000 
#    z 0.000000 0.000000 3.190940 
# 
# 
# High freq. dielectric constant tensor:
#      x y z
#    x 1.683730 0.000000 0.000000 
#    y 0.000000 1.663040 0.000000 
#    z 0.000000 0.000000 1.685350 
# 
# From -- ./inp_files/3464.got.cif
#   From: 2010.03.12/outbox.cif.g09.slc.cpg/sg38_2_cif.got.tgz:3464.got - 2010.04.14 02:38:36.
