data_PCOD8179712
_publ_section_title
;
Structure prediction by ZEFSAII (Michael W. Deem and Ramdas Pophale) SiO2 
 PCOD8179712
Probable space group: A M M 2
;
_chemical_formula_sum "Si O2"
_cell_formula_units_Z 48
_cell_length_a 14.426646
_cell_length_b 16.958480
_cell_length_c 10.061126
_cell_angle_alpha 90.000000
_cell_angle_beta 90.000000
_cell_angle_gamma 90.000000
_cell_volume 2461.494596
_symmetry_space_group_name_H-M "A M M 2"
_symmetry_group_IT_number 38
_symmetry_cell_setting 'orthorhombic'
loop_
_space_group_symop_operation_xyz
x,y,z
-x,-y,z
-x,y,z
x,-y,z
x,1/2+y,1/2+z
-x,1/2-y,1/2+z
-x,1/2+y,1/2+z
x,1/2-y,1/2+z
loop_
_atom_site_type_symbol
_atom_site_label
_atom_site_fract_x
_atom_site_fract_y
_atom_site_fract_z
Si Si1 0.000000 0.414731 0.533391
Si Si2 0.693976 0.588279 0.986081
Si Si3 0.704543 0.679928 0.730251
Si Si4 0.500000 0.768773 0.270993
Si Si5 0.197344 0.093572 0.011526
Si Si6 0.000000 0.588808 0.221974
Si Si7 0.500000 0.342193 0.040469
Si Si8 0.197644 0.154666 0.720866
O O1 0.902395 0.372031 0.567327
O O2 0.000000 0.427126 0.376405
O O3 0.000000 0.500000 0.605177
O O4 0.706543 0.500000 0.932360
O O5 0.586745 0.603054 0.013459
O O6 0.748127 0.597256 0.122931
O O7 0.734053 0.647560 0.874604
O O8 0.593887 0.689643 0.721034
O O9 0.724646 0.615757 0.616786
O O10 0.765364 0.756930 0.697536
O O11 0.500000 0.684867 0.195024
O O12 0.500000 0.768104 0.433314
O O13 0.190134 0.000000 0.992413
O O14 0.222688 0.131857 0.871025
O O15 0.089429 0.641986 0.184280
O O16 0.000000 0.500000 0.154660
#
# Coordination Sequence:
#
# PCOD8179712 Si02
#       8
#     4   8   8   4   8   4   4   8
#     4   7  14  31  55  79 109 147 182 226 284 336
#     4  11  22  38  59  87 119 153 193 239 294 349
#     4  11  23  38  58  85 118 154 190 239 294 350
#     4  10  22  38  58  82 118 154 186 236 300 342
#     4  10  20  37  60  85 114 152 197 239 285 342
#     4   9  18  35  57  85 120 151 188 242 299 340
#     4  10  21  38  60  84 113 156 192 236 289 350
#     4  11  21  37  61  87 111 155 196 238 286 348
#
# _framework density 19.500346
#
# number of rings (size 3 to 8) (size 9 to 14) (size 15 to 20)
#    0.000    1.833    1.667    4.250    2.333    0.667 
#    0.000    4.583    0.000    1.000    0.000    0.000 
#    0.000    0.000    0.000    0.000    0.000    0.000 
#
# Total GULP energy -297386.690974 kJ/mol
# GULP energy per Si atom -12391.112124 kJ/mol
# Density = 1.945596 g / cm^3
# Si number density = 19.500346 Si / 1000 Ang^3
#
#
#
# Elastic Constant Matrix: (Units=GPa)
#
#
# Indices 1 2 3 4 5 6 
#
# 1 131.5756 36.2126 41.0643 0.0000 0.0000 0.0000
# 2 36.2126 77.3683 16.7123 0.0000 0.0000 0.0000
# 3 41.0643 16.7123 72.4302 0.0000 0.0000 0.0000
# 4 0.0000 0.0000 0.0000 29.0823 0.0000 0.0000
# 5 0.0000 0.0000 0.0000 0.0000 24.0331 0.0000
# 6 0.0000 0.0000 0.0000 0.0000 0.0000 20.1733
#
#
#
# Elastic Compliance Matrix: (Units=1/GPa)
#
#
# Indices 1 2 3 4 5 6 
#
# 1 0.010145 -0.003690 -0.004900 0.000000 0.000000 0.000000
# 2 -0.003690 0.014945 -0.001356 0.000000 0.000000 0.000000
# 3 -0.004900 -0.001356 0.016898 0.000000 0.000000 0.000000
# 4 0.000000 0.000000 0.000000 0.034385 0.000000 0.000000
# 5 0.000000 0.000000 0.000000 0.000000 0.041609 0.000000
# 6 0.000000 0.000000 0.000000 0.000000 0.000000 0.049570
#
#
# Mechanical properties :
#
#
# Convention : Reuss Voigt Hill
#
# Bulk Modulus (GPa) = 45.25995 52.15027 48.70511
# Shear Modulus (GPa) = 25.66586 27.15007 26.40797
#
# Velocity S-wave (km/s) = 3.63185 3.73538 3.68398
# Velocity P-wave (km/s) = 6.39119 6.73836 6.56707
#
# Compressibility (1/GPa) = 0.02209459
#
# Stress axis : x y z
#
# Youngs Moduli (GPa) = 98.56927 66.91080 59.17985
#
# Poissons Ratio (x) = 0.24690 0.29000
# Poissons Ratio (y) = 0.36372 0.08027
# Poissons Ratio (z) = 0.48303 0.09076
#
# Static dielectric constant tensor:
#      x y z
#    x 4.082810 0.000000 0.000000 
#    y 0.000000 3.379780 0.000000 
#    z 0.000000 0.000000 3.489940 
# 
# 
# High freq. dielectric constant tensor:
#      x y z
#    x 1.773400 0.000000 0.000000 
#    y 0.000000 1.744380 0.000000 
#    z 0.000000 0.000000 1.748830 
# 
# From -- ./inp_files/5537.got.cif
#   From: 2010.03.12/outbox.cif.g09.slc.cpg/sg38_3_cif.got.tgz:5537.got - 2010.04.14 02:38:36.
