data_PCOD8179387
_publ_section_title
;
Structure prediction by ZEFSAII (Michael W. Deem and Ramdas Pophale) SiO2 
 PCOD8179387
Probable space group: A M M 2
;
_chemical_formula_sum "Si O2"
_cell_formula_units_Z 64
_cell_length_a 9.016251
_cell_length_b 28.993568
_cell_length_c 12.622334
_cell_angle_alpha 90.000000
_cell_angle_beta 90.000000
_cell_angle_gamma 90.000000
_cell_volume 3299.645814
_symmetry_space_group_name_H-M "A M M 2"
_symmetry_group_IT_number 38
_symmetry_cell_setting 'orthorhombic'
loop_
_space_group_symop_operation_xyz
x,y,z
-x,-y,z
-x,y,z
x,-y,z
x,1/2+y,1/2+z
-x,1/2-y,1/2+z
-x,1/2+y,1/2+z
x,1/2-y,1/2+z
loop_
_atom_site_type_symbol
_atom_site_label
_atom_site_fract_x
_atom_site_fract_y
_atom_site_fract_z
Si Si1 0.825517 0.381096 0.713720
Si Si2 0.172111 0.946554 0.024017
Si Si3 0.176775 0.618309 0.144008
Si Si4 0.327913 0.255459 0.947136
Si Si5 0.838141 0.797445 0.785051
Si Si6 0.676771 0.640284 0.925513
Si Si7 0.162636 0.282626 0.632607
Si Si8 0.671391 0.445545 0.309831
O O1 0.778088 0.420694 0.631098
O O2 0.735487 0.387459 0.822914
O O3 0.778697 0.333199 0.659425
O O4 0.000000 0.382431 0.739699
O O5 0.000000 0.937062 0.999487
O O6 0.205023 0.000000 0.044444
O O7 0.263887 0.928194 0.922659
O O8 0.227140 0.665485 0.202644
O O9 0.236460 0.575939 0.213297
O O10 0.000000 0.615139 0.130339
O O11 0.252141 0.616890 0.029078
O O12 0.500000 0.255086 0.930631
O O13 0.265773 0.210691 0.885388
O O14 0.269223 0.306403 0.915728
O O15 0.283564 0.245515 0.066928
O O16 0.852885 0.746300 0.738989
O O17 0.000000 0.815169 0.822539
O O18 0.500000 0.636143 0.933204
O O19 0.000000 0.284835 0.576016
O O20 0.500000 0.430623 0.302645
O O21 0.691595 0.500000 0.300268
#
# Coordination Sequence:
#
# PCOD8179387 Si02
#       8
#     8   8   8   8   8   8   8   8
#     4  10  21  37  59  84 111 151 197 238 284 339
#     4   9  19  38  63  90 118 147 186 236 286 339
#     4  11  23  39  61  86 113 152 199 240 284 341
#     4  11  23  35  51  77 112 151 189 236 290 339
#     4  10  21  36  55  78 108 149 192 234 279 332
#     4  11  23  38  56  81 117 156 193 238 291 344
#     4  10  20  35  54  77 109 149 194 237 277 333
#     4  10  22  41  64  90 120 150 182 230 293 350
#
# _framework density 19.396023
#
# number of rings (size 3 to 8) (size 9 to 14) (size 15 to 20)
#    0.000    1.750    2.500    1.500    1.750    4.250 
#    0.000    0.625    0.000    2.250    0.000    0.000 
#    0.000    0.000    0.000    0.000    0.000    0.000 
#
# Total GULP energy -396749.011078 kJ/mol
# GULP energy per Si atom -12398.406596 kJ/mol
# Density = 1.935188 g / cm^3
# Si number density = 19.396023 Si / 1000 Ang^3
#
#
#
# Elastic Constant Matrix: (Units=GPa)
#
#
# Indices 1 2 3 4 5 6 
#
# 1 72.6034 32.1270 58.0144 0.0000 0.0000 0.0000
# 2 32.1270 63.5102 41.9605 0.0000 0.0000 0.0000
# 3 58.0144 41.9605 126.7122 0.0000 0.0000 0.0000
# 4 0.0000 0.0000 0.0000 34.3925 0.0000 0.0000
# 5 0.0000 0.0000 0.0000 0.0000 20.9170 0.0000
# 6 0.0000 0.0000 0.0000 0.0000 0.0000 24.6908
#
#
#
# Elastic Compliance Matrix: (Units=1/GPa)
#
#
# Indices 1 2 3 4 5 6 
#
# 1 0.023430 -0.006099 -0.008708 0.000000 0.000000 0.000000
# 2 -0.006099 0.021743 -0.004408 0.000000 0.000000 0.000000
# 3 -0.008708 -0.004408 0.013338 0.000000 0.000000 0.000000
# 4 0.000000 0.000000 0.000000 0.029076 0.000000 0.000000
# 5 0.000000 0.000000 0.000000 0.000000 0.047808 0.000000
# 6 0.000000 0.000000 0.000000 0.000000 0.000000 0.040501
#
#
# Mechanical properties :
#
#
# Convention : Reuss Voigt Hill
#
# Bulk Modulus (GPa) = 49.79499 58.55885 54.17692
# Shear Modulus (GPa) = 22.62243 24.71500 23.66872
#
# Velocity S-wave (km/s) = 3.41888 3.57351 3.49705
# Velocity P-wave (km/s) = 6.42756 6.87629 6.65571
#
# Compressibility (1/GPa) = 0.02008234
#
# Stress axis : x y z
#
# Youngs Moduli (GPa) = 42.67977 45.99200 74.97253
#
# Poissons Ratio (x) = 0.28052 0.65283
# Poissons Ratio (y) = 0.26032 0.33045
# Poissons Ratio (z) = 0.37164 0.20271
#
# Static dielectric constant tensor:
#      x y z
#    x 3.515670 0.000000 0.000000 
#    y 0.000000 3.474950 0.000000 
#    z 0.000000 0.000000 3.490090 
# 
# 
# High freq. dielectric constant tensor:
#      x y z
#    x 1.752260 0.000000 0.000000 
#    y 0.000000 1.742010 0.000000 
#    z 0.000000 0.000000 1.757860 
# 
# From -- ./inp_files/8576.got.cif
#   From: 2010.03.12/outbox.cif.g09.slc.cpg/sg38_5_cif.got.tgz:8576.got - 2010.04.14 02:38:36.
