data_PCOD8179861
_publ_section_title
;
Structure prediction by ZEFSAII (Michael W. Deem and Ramdas Pophale) SiO2 
 PCOD8179861
Probable space group: A M M 2
;
_chemical_formula_sum "Si O2"
_cell_formula_units_Z 48
_cell_length_a 9.032393
_cell_length_b 9.949992
_cell_length_c 30.580899
_cell_angle_alpha 90.000000
_cell_angle_beta 90.000000
_cell_angle_gamma 90.000000
_cell_volume 2748.373836
_symmetry_space_group_name_H-M "A M M 2"
_symmetry_group_IT_number 38
_symmetry_cell_setting 'orthorhombic'
loop_
_space_group_symop_operation_xyz
x,y,z
-x,-y,z
-x,y,z
x,-y,z
x,1/2+y,1/2+z
-x,1/2-y,1/2+z
-x,1/2+y,1/2+z
x,1/2-y,1/2+z
loop_
_atom_site_type_symbol
_atom_site_label
_atom_site_fract_x
_atom_site_fract_y
_atom_site_fract_z
Si Si1 0.171840 0.156443 0.044810
Si Si2 0.326070 0.653771 0.976621
Si Si3 0.823720 0.650280 0.215198
Si Si4 0.824152 0.148402 0.143482
Si Si5 0.175964 0.650615 0.312363
Si Si6 0.826026 0.153851 0.387079
O O1 0.219642 0.191242 0.094418
O O2 0.000000 0.190251 0.036967
O O3 0.202429 0.000000 0.034591
O O4 0.270920 0.249491 0.014582
O O5 0.500000 0.669660 0.971462
O O6 0.281534 0.500000 0.987668
O O7 0.252002 0.700074 0.931463
O O8 0.768373 0.500000 0.204519
O O9 0.754479 0.749319 0.178830
O O10 0.769268 0.692728 0.263769
O O11 0.000000 0.655440 0.213392
O O12 0.000000 0.145695 0.147057
O O13 0.761331 0.000000 0.153828
O O14 0.231763 0.500000 0.323600
O O15 0.239046 0.755029 0.347855
O O16 0.000000 0.653780 0.313129
O O17 0.000000 0.175907 0.393361
O O18 0.788212 0.000000 0.375561
#
# Coordination Sequence:
#
# PCOD8179861 Si02
#       6
#     8   8   8   8   8   8
#     4   9  18  32  49  70  95 122 154 192 232 274
#     4  10  21  35  49  67  92 121 154 193 236 280
#     4   8  13  21  34  56  87 118 145 175 214 260
#     4   8  14  24  38  59  88 118 146 178 217 261
#     4   8  14  24  38  59  88 118 146 178 217 261
#     4   9  17  29  45  65  88 115 149 187 226 269
#
# _framework density 17.464872
#
# number of rings (size 3 to 8) (size 9 to 14) (size 15 to 20)
#    0.000    3.333    0.000    2.500    0.000    3.333 
#    0.000    6.667    0.000    0.000    0.000    1.167 
#    0.000    4.000    0.000    0.000    0.000    0.000 
#
# Total GULP energy -297478.541007 kJ/mol
# GULP energy per Si atom -12394.939209 kJ/mol
# Density = 1.742512 g / cm^3
# Si number density = 17.464872 Si / 1000 Ang^3
#
#
#
# Elastic Constant Matrix: (Units=GPa)
#
#
# Indices 1 2 3 4 5 6 
#
# 1 21.7148 22.0399 27.4607 0.0000 0.0000 0.0000
# 2 22.0399 106.8872 101.9801 0.0000 0.0000 0.0000
# 3 27.4607 101.9801 162.7888 0.0000 0.0000 0.0000
# 4 0.0000 0.0000 0.0000 41.8082 0.0000 0.0000
# 5 0.0000 0.0000 0.0000 0.0000 -1.1136 0.0000
# 6 0.0000 0.0000 0.0000 0.0000 0.0000 14.4684
#
#
#
# Elastic Compliance Matrix: (Units=1/GPa)
#
#
# Indices 1 2 3 4 5 6 
#
# 1 0.060465 -0.006801 -0.005939 0.000000 0.000000 0.000000
# 2 -0.006801 0.024020 -0.013900 0.000000 0.000000 0.000000
# 3 -0.005939 -0.013900 0.015853 0.000000 0.000000 0.000000
# 4 0.000000 0.000000 0.000000 0.023919 0.000000 0.000000
# 5 0.000000 0.000000 0.000000 0.000000 -0.898022 0.000000
# 6 0.000000 0.000000 0.000000 0.000000 0.000000 0.069116
#
#
# Mechanical properties :
#
#
# Convention : Reuss Voigt Hill
#
# Bulk Modulus (GPa) = 21.25090 66.03913 43.64502
# Shear Modulus (GPa) = -7.86557 20.35995 6.24719
#
# Velocity S-wave (km/s) = -2.12448 3.41804 1.89335
# Velocity P-wave (km/s) = 2.48522 7.31245 5.46115
#
# Compressibility (1/GPa) = 0.04705682
#
# Stress axis : x y z
#
# Youngs Moduli (GPa) = 16.53838 41.63150 63.08051
#
# Poissons Ratio (x) = 0.28315 0.37464
# Poissons Ratio (y) = 0.11248 0.87684
# Poissons Ratio (z) = 0.09822 0.57869
#
# Static dielectric constant tensor:
#      x y z
#    x 2.686100 0.000000 0.000000 
#    y 0.000000 3.499180 0.000000 
#    z 0.000000 0.000000 3.528540 
# 
# 
# High freq. dielectric constant tensor:
#      x y z
#    x 1.616590 0.000000 0.000000 
#    y 0.000000 1.678200 0.000000 
#    z 0.000000 0.000000 1.684930 
# 
# From -- ./inp_files/21874.got.cif
#   From: 2010.03.12/outbox.cif.g09.slc.cpg/sg38_11_cif.got.tgz:21874.got - 2010.04.14 02:38:36.
