data_PCOD8179020
_publ_section_title
;
Structure prediction by ZEFSAII (Michael W. Deem and Ramdas Pophale) SiO2 
 PCOD8179020
Probable space group: A M M 2
;
_chemical_formula_sum "Si O2"
_cell_formula_units_Z 40
_cell_length_a 9.715860
_cell_length_b 7.682672
_cell_length_c 29.134341
_cell_angle_alpha 90.000000
_cell_angle_beta 90.000000
_cell_angle_gamma 90.000000
_cell_volume 2174.696920
_symmetry_space_group_name_H-M "A M M 2"
_symmetry_group_IT_number 38
_symmetry_cell_setting 'orthorhombic'
loop_
_space_group_symop_operation_xyz
x,y,z
-x,-y,z
-x,y,z
x,-y,z
x,1/2+y,1/2+z
-x,1/2-y,1/2+z
-x,1/2+y,1/2+z
x,1/2-y,1/2+z
loop_
_atom_site_type_symbol
_atom_site_label
_atom_site_fract_x
_atom_site_fract_y
_atom_site_fract_z
Si Si1 0.162830 0.000000 0.791311
Si Si2 0.161122 0.700418 0.858786
Si Si3 0.156973 0.193260 0.124982
Si Si4 0.163394 0.500000 0.189246
Si Si5 0.659546 0.297871 0.043821
Si Si6 0.651909 0.793783 0.441842
O O1 0.210581 0.824241 0.817330
O O2 0.228410 0.000000 0.740358
O O3 0.000000 0.000000 0.787720
O O4 0.198746 0.500000 0.846647
O O5 0.237942 0.768178 0.904392
O O6 0.000000 0.721080 0.868543
O O7 0.215601 0.328634 0.162446
O O8 0.246639 0.193353 0.079047
O O9 0.000000 0.242186 0.112066
O O10 0.164829 0.000000 0.146582
O O11 0.000000 0.500000 0.193207
O O12 0.500000 0.264760 0.055409
O O13 0.696780 0.500000 0.048275
O O14 0.693254 0.226914 0.992596
O O15 0.500000 0.722539 0.428499
O O16 0.646202 0.000000 0.444182
#
# Coordination Sequence:
#
# PCOD8179020 Si02
#       6
#     4   8   8   4   8   8
#     4   9  18  32  51  75 101 129 165 209 254 297
#     4   9  17  30  49  73  99 128 164 204 246 292
#     4  10  20  33  51  76 102 131 170 211 254 303
#     4   9  18  34  53  73 101 133 165 211 262 301
#     4   9  17  31  52  75 101 137 174 206 248 302
#     4   8  15  29  49  72  99 133 168 200 242 296
#
# _framework density 18.393367000000001
#
# number of rings (size 3 to 8) (size 9 to 14) (size 15 to 20)
#    0.000    3.000    1.000    1.200    0.000    2.000 
#    1.800    6.500    0.000    2.400    0.000    2.800 
#    0.000    0.000    0.000    0.000    0.000    0.000 
#
# Total GULP energy -247915.172150 kJ/mol
# GULP energy per Si atom -12395.758607 kJ/mol
# Density = 1.835150 g / cm^3
# Si number density = 18.393367 Si / 1000 Ang^3
#
#
#
# Elastic Constant Matrix: (Units=GPa)
#
#
# Indices 1 2 3 4 5 6 
#
# 1 48.8325 29.6569 52.4688 0.0000 0.0000 0.0000
# 2 29.6569 97.8726 62.7891 0.0000 0.0000 0.0000
# 3 52.4688 62.7891 157.8426 0.0000 0.0000 0.0000
# 4 0.0000 0.0000 0.0000 15.6219 0.0000 0.0000
# 5 0.0000 0.0000 0.0000 0.0000 5.4201 0.0000
# 6 0.0000 0.0000 0.0000 0.0000 0.0000 12.6004
#
#
#
# Elastic Compliance Matrix: (Units=1/GPa)
#
#
# Indices 1 2 3 4 5 6 
#
# 1 0.032968 -0.003973 -0.009378 0.000000 0.000000 0.000000
# 2 -0.003973 0.014197 -0.004327 0.000000 0.000000 0.000000
# 3 -0.009378 -0.004327 0.011174 0.000000 0.000000 0.000000
# 4 0.000000 0.000000 0.000000 0.064013 0.000000 0.000000
# 5 0.000000 0.000000 0.000000 0.000000 0.184497 0.000000
# 6 0.000000 0.000000 0.000000 0.000000 0.000000 0.079362
#
#
# Mechanical properties :
#
#
# Convention : Reuss Voigt Hill
#
# Bulk Modulus (GPa) = 43.51165 66.04191 54.77678
# Shear Modulus (GPa) = 11.64879 17.37069 14.50974
#
# Velocity S-wave (km/s) = 2.51930 3.07644 2.81171
# Velocity P-wave (km/s) = 5.67186 6.97155 6.35502
#
# Compressibility (1/GPa) = 0.02298235
#
# Stress axis : x y z
#
# Youngs Moduli (GPa) = 30.33247 70.43687 89.49246
#
# Poissons Ratio (x) = 0.27986 0.83930
# Poissons Ratio (y) = 0.12052 0.38722
# Poissons Ratio (z) = 0.28447 0.30477
#
# Static dielectric constant tensor:
#      x y z
#    x 3.231840 0.000000 0.000000 
#    y 0.000000 3.351790 0.000000 
#    z 0.000000 0.000000 3.575170 
# 
# 
# High freq. dielectric constant tensor:
#      x y z
#    x 1.683640 0.000000 0.000000 
#    y 0.000000 1.712950 0.000000 
#    z 0.000000 0.000000 1.705830 
# 
# From -- ./inp_files/23234.got.cif
#   From: 2010.03.12/outbox.cif.g09.slc.cpg/sg38_12_cif.got.tgz:23234.got - 2010.04.14 02:38:36.
