data_PCOD8179723
_publ_section_title
;
Structure prediction by ZEFSAII (Michael W. Deem and Ramdas Pophale) SiO2 
 PCOD8179723
Probable space group: A M M 2
;
_chemical_formula_sum "Si O2"
_cell_formula_units_Z 48
_cell_length_a 9.193623
_cell_length_b 7.728392
_cell_length_c 34.031556
_cell_angle_alpha 90.000000
_cell_angle_beta 90.000000
_cell_angle_gamma 90.000000
_cell_volume 2418.007478
_symmetry_space_group_name_H-M "A M M 2"
_symmetry_group_IT_number 38
_symmetry_cell_setting 'orthorhombic'
loop_
_space_group_symop_operation_xyz
x,y,z
-x,-y,z
-x,y,z
x,-y,z
x,1/2+y,1/2+z
-x,1/2-y,1/2+z
-x,1/2+y,1/2+z
x,1/2-y,1/2+z
loop_
_atom_site_type_symbol
_atom_site_label
_atom_site_fract_x
_atom_site_fract_y
_atom_site_fract_z
Si Si1 0.840878 0.302302 0.026410
Si Si2 0.670943 0.300413 0.101598
Si Si3 0.167608 0.195796 0.790608
Si Si4 0.671996 0.000000 0.158321
Si Si5 0.834762 0.298051 0.877170
Si Si6 0.673294 0.500000 0.746971
Si Si7 0.336980 0.300401 0.452859
O O1 0.865069 0.500000 0.036683
O O2 0.745676 0.225921 0.062021
O O3 0.000000 0.210630 0.024033
O O4 0.760749 0.293782 0.984875
O O5 0.500000 0.282797 0.094465
O O6 0.712142 0.500000 0.111645
O O7 0.725442 0.175532 0.136671
O O8 0.204171 0.202879 0.836757
O O9 0.269897 0.326235 0.767271
O O10 0.000000 0.249964 0.783812
O O11 0.196895 0.000000 0.775859
O O12 0.500000 0.000000 0.159583
O O13 0.733276 0.000000 0.202430
O O14 0.810546 0.500000 0.870589
O O15 0.727114 0.226968 0.909842
O O16 0.000000 0.257372 0.890174
O O17 0.500000 0.500000 0.749216
O O18 0.500000 0.223328 0.453871
O O19 0.338911 0.500000 0.463789
#
# Coordination Sequence:
#
# PCOD8179723 Si02
#       7
#     8   8   8   4   8   4   8
#     4  10  21  37  56  80 111 146 188 237 291 348
#     4   9  18  35  59  83 111 150 193 240 292 347
#     4  10  21  40  65  89 119 162 206 249 302 366
#     4   9  20  37  59  87 117 153 197 241 295 363
#     4  10  20  37  61  84 110 148 196 246 295 349
#     4  11  23  39  61  93 129 161 199 253 309 367
#     4  11  24  37  51  78 115 152 192 239 288 344
#
# _framework density 19.851057000000001
#
# number of rings (size 3 to 8) (size 9 to 14) (size 15 to 20)
#    0.000    2.000    0.833    2.250    1.167    7.000 
#    0.000    3.333    0.000    2.000    0.000    0.000 
#    0.000    0.000    0.000    0.000    0.000    0.000 
#
# Total GULP energy -297593.935346 kJ/mol
# GULP energy per Si atom -12399.747306 kJ/mol
# Density = 1.980587 g / cm^3
# Si number density = 19.851057 Si / 1000 Ang^3
#
#
#
# Elastic Constant Matrix: (Units=GPa)
#
#
# Indices 1 2 3 4 5 6 
#
# 1 109.6769 38.6270 65.5249 0.0000 0.0000 0.0000
# 2 38.6270 90.2013 46.4627 0.0000 0.0000 0.0000
# 3 65.5249 46.4627 130.0389 0.0000 0.0000 0.0000
# 4 0.0000 0.0000 0.0000 16.8549 0.0000 0.0000
# 5 0.0000 0.0000 0.0000 0.0000 27.6611 0.0000
# 6 0.0000 0.0000 0.0000 0.0000 0.0000 16.7861
#
#
#
# Elastic Compliance Matrix: (Units=1/GPa)
#
#
# Indices 1 2 3 4 5 6 
#
# 1 0.013603 -0.002812 -0.005850 0.000000 0.000000 0.000000
# 2 -0.002812 0.014168 -0.003645 0.000000 0.000000 0.000000
# 3 -0.005850 -0.003645 0.011940 0.000000 0.000000 0.000000
# 4 0.000000 0.000000 0.000000 0.059330 0.000000 0.000000
# 5 0.000000 0.000000 0.000000 0.000000 0.036152 0.000000
# 6 0.000000 0.000000 0.000000 0.000000 0.000000 0.059573
#
#
# Mechanical properties :
#
#
# Convention : Reuss Voigt Hill
#
# Bulk Modulus (GPa) = 66.23750 70.12733 68.18242
# Shear Modulus (GPa) = 22.28041 24.21391 23.24716
#
# Velocity S-wave (km/s) = 3.35383 3.49632 3.42582
# Velocity P-wave (km/s) = 6.95969 7.19044 7.07600
#
# Compressibility (1/GPa) = 0.01509719
#
# Stress axis : x y z
#
# Youngs Moduli (GPa) = 73.51445 70.58047 83.75228
#
# Poissons Ratio (x) = 0.19847 0.48991
# Poissons Ratio (y) = 0.20673 0.30530
# Poissons Ratio (z) = 0.43002 0.25729
#
# Static dielectric constant tensor:
#      x y z
#    x 3.533510 0.000000 0.000000 
#    y 0.000000 3.652340 0.000000 
#    z 0.000000 0.000000 3.649360 
# 
# 
# High freq. dielectric constant tensor:
#      x y z
#    x 1.766850 0.000000 0.000000 
#    y 0.000000 1.780240 0.000000 
#    z 0.000000 0.000000 1.770610 
# 
# From -- ./inp_files/24362.got.cif
#   From: 2010.03.12/outbox.cif.g09.slc.cpg/sg38_13_cif.got.tgz:24362.got - 2010.04.14 02:38:36.
