data_PCOD8179365
_publ_section_title
;
Structure prediction by ZEFSAII (Michael W. Deem and Ramdas Pophale) SiO2 
 PCOD8179365
Probable space group: A M M 2
;
_chemical_formula_sum "Si O2"
_cell_formula_units_Z 56
_cell_length_a 16.263546
_cell_length_b 20.056063
_cell_length_c 8.902426
_cell_angle_alpha 90.000000
_cell_angle_beta 90.000000
_cell_angle_gamma 90.000000
_cell_volume 2903.817378
_symmetry_space_group_name_H-M "A M M 2"
_symmetry_group_IT_number 38
_symmetry_cell_setting 'orthorhombic'
loop_
_space_group_symop_operation_xyz
x,y,z
-x,-y,z
-x,y,z
x,-y,z
x,1/2+y,1/2+z
-x,1/2-y,1/2+z
-x,1/2+y,1/2+z
x,1/2-y,1/2+z
loop_
_atom_site_type_symbol
_atom_site_label
_atom_site_fract_x
_atom_site_fract_y
_atom_site_fract_z
Si Si1 0.239893 0.180806 0.987030
Si Si2 0.408945 0.838794 0.448517
Si Si3 0.821090 0.312087 0.156553
Si Si4 0.406842 0.206889 0.116622
Si Si5 0.000000 0.845089 0.266348
Si Si6 0.842781 0.424577 0.682467
Si Si7 0.000000 0.717337 0.093947
Si Si8 0.257265 0.074482 0.473817
O O1 0.227127 0.189545 0.811593
O O2 0.208806 0.248251 0.064244
O O3 0.336751 0.167869 0.021960
O O4 0.186166 0.117798 0.039486
O O5 0.500000 0.869056 0.444159
O O6 0.388072 0.801768 0.292434
O O7 0.398997 0.785316 0.581500
O O8 0.350376 0.900406 0.481645
O O9 0.802325 0.380004 0.070997
O O10 0.919469 0.311509 0.177017
O O11 0.500000 0.181941 0.074942
O O12 0.078897 0.892249 0.263453
O O13 0.000000 0.799745 0.416889
O O14 0.000000 0.797284 0.119949
O O15 0.863559 0.500000 0.630512
O O16 0.768993 0.424232 0.800837
O O17 0.253176 0.000000 0.540112
#
# Coordination Sequence:
#
# PCOD8179365 Si02
#       8
#     8   8   8   8   4   8   4   8
#     4  12  22  39  66  90 125 161 206 254 311 364
#     4  10  20  35  59  91 124 156 200 258 310 363
#     4  12  24  39  63  92 123 161 205 262 309 360
#     4  10  20  34  58  93 123 153 197 253 312 360
#     4  12  23  40  63  93 122 158 205 256 315 358
#     4  11  24  41  62  87 123 165 206 251 304 368
#     4  12  24  38  61  95 121 152 205 258 308 360
#     4  11  23  41  60  85 121 167 211 248 305 370
#
# _framework density 19.284958
#
# number of rings (size 3 to 8) (size 9 to 14) (size 15 to 20)
#    0.000    0.857    5.714    2.786    0.000    0.857 
#    0.000    0.357    0.000    0.429    0.000    0.000 
#    0.000    0.000    0.000    0.000    0.000    0.000 
#
# Total GULP energy -347241.297018 kJ/mol
# GULP energy per Si atom -12401.474893 kJ/mol
# Density = 1.924106 g / cm^3
# Si number density = 19.284958 Si / 1000 Ang^3
#
#
#
# Elastic Constant Matrix: (Units=GPa)
#
#
# Indices 1 2 3 4 5 6 
#
# 1 117.4399 37.9560 4.6038 0.0000 0.0000 0.0000
# 2 37.9560 132.9055 37.5703 0.0000 0.0000 0.0000
# 3 4.6038 37.5703 61.9691 0.0000 0.0000 0.0000
# 4 0.0000 0.0000 0.0000 25.5752 0.0000 0.0000
# 5 0.0000 0.0000 0.0000 0.0000 29.0963 0.0000
# 6 0.0000 0.0000 0.0000 0.0000 0.0000 21.7258
#
#
#
# Elastic Compliance Matrix: (Units=1/GPa)
#
#
# Indices 1 2 3 4 5 6 
#
# 1 0.009446 -0.003016 0.001127 0.000000 0.000000 0.000000
# 2 -0.003016 0.010043 -0.005865 0.000000 0.000000 0.000000
# 3 0.001127 -0.005865 0.019609 0.000000 0.000000 0.000000
# 4 0.000000 0.000000 0.000000 0.039100 0.000000 0.000000
# 5 0.000000 0.000000 0.000000 0.000000 0.034369 0.000000
# 6 0.000000 0.000000 0.000000 0.000000 0.000000 0.046028
#
#
# Mechanical properties :
#
#
# Convention : Reuss Voigt Hill
#
# Bulk Modulus (GPa) = 42.39137 52.50831 47.44984
# Shear Modulus (GPa) = 27.47749 30.75843 29.11796
#
# Velocity S-wave (km/s) = 3.77877 3.99801 3.88993
# Velocity P-wave (km/s) = 6.40844 6.97128 6.69578
#
# Compressibility (1/GPa) = 0.02358971
#
# Stress axis : x y z
#
# Youngs Moduli (GPa) = 105.86934 99.56741 50.99651
#
# Poissons Ratio (x) = 0.30030 -0.05746
# Poissons Ratio (y) = 0.31931 0.29910
# Poissons Ratio (z) = -0.11930 0.58397
#
# Static dielectric constant tensor:
#      x y z
#    x 3.916950 0.000000 0.000000 
#    y 0.000000 3.457310 0.000000 
#    z 0.000000 0.000000 3.409660 
# 
# 
# High freq. dielectric constant tensor:
#      x y z
#    x 1.773900 0.000000 0.000000 
#    y 0.000000 1.729830 0.000000 
#    z 0.000000 0.000000 1.742540 
# 
# From -- ./inp_files/5775.got.cif
#   From: 2010.03.12/outbox.cif.g09.slc.cpg/sg38_3_cif.got.tgz:5775.got - 2010.04.14 02:38:36.
