data_PCOD8179229
_publ_section_title
;
Structure prediction by ZEFSAII (Michael W. Deem and Ramdas Pophale) SiO2 
 PCOD8179229
Probable space group: A M M 2
;
_chemical_formula_sum "Si O2"
_cell_formula_units_Z 64
_cell_length_a 19.119120
_cell_length_b 8.934502
_cell_length_c 19.780908
_cell_angle_alpha 90.000000
_cell_angle_beta 90.000000
_cell_angle_gamma 90.000000
_cell_volume 3378.971062
_symmetry_space_group_name_H-M "A M M 2"
_symmetry_group_IT_number 38
_symmetry_cell_setting 'orthorhombic'
loop_
_space_group_symop_operation_xyz
x,y,z
-x,-y,z
-x,y,z
x,-y,z
x,1/2+y,1/2+z
-x,1/2-y,1/2+z
-x,1/2+y,1/2+z
x,1/2-y,1/2+z
loop_
_atom_site_type_symbol
_atom_site_label
_atom_site_fract_x
_atom_site_fract_y
_atom_site_fract_z
Si Si1 0.578055 0.677716 0.864030
Si Si2 0.421602 0.322275 0.014782
Si Si3 0.840919 0.175060 0.548208
Si Si4 0.303310 0.822221 0.263361
Si Si5 0.076148 0.676730 0.177059
Si Si6 0.303001 0.321755 0.115646
Si Si7 0.834228 0.675358 0.299348
Si Si8 0.079245 0.825273 0.930463
O O1 0.500000 0.735148 0.846249
O O2 0.579481 0.500000 0.865184
O O3 0.630342 0.737084 0.806446
O O4 0.599312 0.735383 0.939441
O O5 0.500000 0.266938 0.032953
O O6 0.418694 0.500000 0.015063
O O7 0.368401 0.261462 0.071571
O O8 0.899371 0.219185 0.602543
O O9 0.765870 0.230845 0.575039
O O10 0.864081 0.254696 0.480170
O O11 0.838131 0.000000 0.533758
O O12 0.305572 0.750701 0.189323
O O13 0.236784 0.768656 0.307138
O O14 0.302742 0.000000 0.256344
O O15 0.071566 0.500000 0.186762
O O16 0.131478 0.738026 0.230650
O O17 0.000000 0.749500 0.188723
O O18 0.302796 0.500000 0.125283
O O19 0.815467 0.500000 0.295982
O O20 0.890787 0.710223 0.356716
O O21 0.000000 0.758772 0.936666
O O22 0.076290 0.000000 0.944744
#
# Coordination Sequence:
#
# PCOD8179229 Si02
#       8
#     8   8   8   8   8   8   8   8
#     4   8  16  32  53  78 107 140 179 219 262 314
#     4   8  15  30  54  81 106 137 181 225 259 303
#     4  10  20  34  54  79 107 140 179 222 262 310
#     4  11  22  34  54  82 111 141 176 222 270 315
#     4   9  16  30  54  76  94 130 182 219 247 298
#     4  10  20  35  55  79 109 143 181 220 263 317
#     4  10  20  37  56  76 105 141 178 218 262 317
#     4  10  22  38  56  80 109 140 174 219 275 326
#
# _framework density 18.940677999999998
#
# number of rings (size 3 to 8) (size 9 to 14) (size 15 to 20)
#    0.000    2.500    1.250    1.875    1.750    3.750 
#    0.000    0.000    0.000    2.250    0.000    3.500 
#    0.000    0.000    0.000    0.000    0.000    0.000 
#
# Total GULP energy -396665.805205 kJ/mol
# GULP energy per Si atom -12395.806413 kJ/mol
# Density = 1.889757 g / cm^3
# Si number density = 18.940678 Si / 1000 Ang^3
#
#
#
# Elastic Constant Matrix: (Units=GPa)
#
#
# Indices 1 2 3 4 5 6 
#
# 1 142.6324 27.4574 53.8493 0.0000 0.0000 0.0000
# 2 27.4574 26.8595 28.8065 0.0000 0.0000 0.0000
# 3 53.8493 28.8065 89.5964 0.0000 0.0000 0.0000
# 4 0.0000 0.0000 0.0000 23.1859 0.0000 0.0000
# 5 0.0000 0.0000 0.0000 0.0000 3.2071 0.0000
# 6 0.0000 0.0000 0.0000 0.0000 0.0000 18.7775
#
#
#
# Elastic Compliance Matrix: (Units=1/GPa)
#
#
# Indices 1 2 3 4 5 6 
#
# 1 0.009577 -0.005520 -0.003981 0.000000 0.000000 0.000000
# 2 -0.005520 0.060008 -0.015975 0.000000 0.000000 0.000000
# 3 -0.003981 -0.015975 0.018690 0.000000 0.000000 0.000000
# 4 0.000000 0.000000 0.000000 0.043130 0.000000 0.000000
# 5 0.000000 0.000000 0.000000 0.000000 0.311809 0.000000
# 6 0.000000 0.000000 0.000000 0.000000 0.000000 0.053255
#
#
# Mechanical properties :
#
#
# Convention : Reuss Voigt Hill
#
# Bulk Modulus (GPa) = 26.79465 53.25720 40.02593
# Shear Modulus (GPa) = 8.93078 18.96577 13.94828
#
# Velocity S-wave (km/s) = 2.17379 3.16780 2.71665
# Velocity P-wave (km/s) = 4.52524 6.44662 5.56941
#
# Compressibility (1/GPa) = 0.03732088
#
# Stress axis : x y z
#
# Youngs Moduli (GPa) = 104.42038 16.66457 53.50429
#
# Poissons Ratio (x) = 0.09200 0.21299
# Poissons Ratio (y) = 0.57644 0.85475
# Poissons Ratio (z) = 0.41569 0.26622
#
# Static dielectric constant tensor:
#      x y z
#    x 3.896530 0.000000 0.000000 
#    y 0.000000 3.013910 0.000000 
#    z 0.000000 0.000000 3.605950 
# 
# 
# High freq. dielectric constant tensor:
#      x y z
#    x 1.752320 0.000000 0.000000 
#    y 0.000000 1.686200 0.000000 
#    z 0.000000 0.000000 1.745680 
# 
# From -- ./inp_files/18958.got.cif
#   From: 2010.03.12/outbox.cif.g09.slc.cpg/sg38_10_cif.got.tgz:18958.got - 2010.04.14 02:38:36.
