data_PCOD8179602
_publ_section_title
;
Structure prediction by ZEFSAII (Michael W. Deem and Ramdas Pophale) SiO2 
 PCOD8179602
Probable space group: A M M 2
;
_chemical_formula_sum "Si O2"
_cell_formula_units_Z 48
_cell_length_a 17.068891
_cell_length_b 9.150901
_cell_length_c 15.868888
_cell_angle_alpha 90.000000
_cell_angle_beta 90.000000
_cell_angle_gamma 90.000000
_cell_volume 2478.652573
_symmetry_space_group_name_H-M "A M M 2"
_symmetry_group_IT_number 38
_symmetry_cell_setting 'orthorhombic'
loop_
_space_group_symop_operation_xyz
x,y,z
-x,-y,z
-x,y,z
x,-y,z
x,1/2+y,1/2+z
-x,1/2-y,1/2+z
-x,1/2+y,1/2+z
x,1/2-y,1/2+z
loop_
_atom_site_type_symbol
_atom_site_label
_atom_site_fract_x
_atom_site_fract_y
_atom_site_fract_z
Si Si1 0.500000 0.167743 0.250000
Si Si2 0.500000 0.342982 0.402570
Si Si3 0.179518 0.667665 0.175445
Si Si4 0.356849 0.167628 0.671564
Si Si5 0.089095 0.171288 0.322208
Si Si6 0.805858 0.327911 0.980717
Si Si7 0.342235 0.164504 0.005089
O O1 0.500000 0.195792 0.348929
O O2 0.580350 0.237284 0.219892
O O3 0.500000 0.000000 0.224576
O O4 0.500000 0.500000 0.352357
O O5 0.578207 0.340588 0.455194
O O6 0.154306 0.500000 0.183715
O O7 0.269067 0.690506 0.206650
O O8 0.126381 0.758789 0.238849
O O9 0.168389 0.715767 0.076811
O O10 0.357690 0.218770 0.576652
O O11 0.382529 0.000000 0.676697
O O12 0.128828 0.213768 0.411519
O O13 0.000000 0.225358 0.328909
O O14 0.095083 0.000000 0.307985
O O15 0.785069 0.500000 0.978459
O O16 0.730725 0.230922 0.952774
O O17 0.321515 0.000000 0.036888
#
# Coordination Sequence:
#
# PCOD8179602 Si02
#       7
#     4   4   8   8   8   8   8
#     4  12  25  36  53  83 115 151 197 242 283 334
#     4  10  23  38  51  77 117 155 187 234 287 336
#     4   9  20  38  61  87 115 152 195 239 290 352
#     4  10  21  39  60  81 113 153 191 236 293 348
#     4  10  22  39  60  87 119 153 191 241 298 355
#     4   9  20  39  60  84 116 156 197 237 293 357
#     4  10  20  36  59  84 112 148 194 241 286 338
#
# _framework density 19.365359999999999
#
# number of rings (size 3 to 8) (size 9 to 14) (size 15 to 20)
#    0.000    2.167    0.000    3.250    2.333    7.000 
#    0.000    1.667    0.000    0.000    0.000    0.000 
#    0.000    0.000    0.000    0.000    0.000    0.000 
#
# Total GULP energy -297410.415318 kJ/mol
# GULP energy per Si atom -12392.100638 kJ/mol
# Density = 1.932128 g / cm^3
# Si number density = 19.365360 Si / 1000 Ang^3
#
#
#
# Elastic Constant Matrix: (Units=GPa)
#
#
# Indices 1 2 3 4 5 6 
#
# 1 145.5486 70.1466 75.3523 0.0000 0.0000 0.0000
# 2 70.1466 95.3932 43.7661 0.0000 0.0000 0.0000
# 3 75.3523 43.7661 91.6635 0.0000 0.0000 0.0000
# 4 0.0000 0.0000 0.0000 45.7879 0.0000 0.0000
# 5 0.0000 0.0000 0.0000 0.0000 28.5023 0.0000
# 6 0.0000 0.0000 0.0000 0.0000 0.0000 76.7529
#
#
#
# Elastic Compliance Matrix: (Units=1/GPa)
#
#
# Indices 1 2 3 4 5 6 
#
# 1 0.014720 -0.006752 -0.008877 0.000000 0.000000 0.000000
# 2 -0.006752 0.016520 -0.002338 0.000000 0.000000 0.000000
# 3 -0.008877 -0.002338 0.019323 0.000000 0.000000 0.000000
# 4 0.000000 0.000000 0.000000 0.021840 0.000000 0.000000
# 5 0.000000 0.000000 0.000000 0.000000 0.035085 0.000000
# 6 0.000000 0.000000 0.000000 0.000000 0.000000 0.013029
#
#
# Mechanical properties :
#
#
# Convention : Reuss Voigt Hill
#
# Bulk Modulus (GPa) = 68.34929 79.01503 73.68216
# Shear Modulus (GPa) = 30.99294 39.76464 35.37879
#
# Velocity S-wave (km/s) = 4.00488 4.53635 4.27888
# Velocity P-wave (km/s) = 7.53370 8.26612 7.90840
#
# Compressibility (1/GPa) = 0.01463073
#
# Stress axis : x y z
#
# Youngs Moduli (GPa) = 67.93325 60.53212 51.75136
#
# Poissons Ratio (x) = 0.40869 0.45941
# Poissons Ratio (y) = 0.45866 0.12097
# Poissons Ratio (z) = 0.60306 0.14150
#
# Static dielectric constant tensor:
#      x y z
#    x 3.375060 0.000000 0.000000 
#    y 0.000000 3.796850 0.000000 
#    z 0.000000 0.000000 3.540430 
# 
# 
# High freq. dielectric constant tensor:
#      x y z
#    x 1.759950 0.000000 0.000000 
#    y 0.000000 1.757440 0.000000 
#    z 0.000000 0.000000 1.748740 
# 
# From -- ./inp_files/15020.got.cif
#   From: 2010.03.12/outbox.cif.g09.slc.cpg/sg38_8_cif.got.tgz:15020.got - 2010.04.14 02:38:36.
