data_PCOD8179366
_publ_section_title
;
Structure prediction by ZEFSAII (Michael W. Deem and Ramdas Pophale) SiO2 
 PCOD8179366
Probable space group: A M M 2
;
_chemical_formula_sum "Si O2"
_cell_formula_units_Z 64
_cell_length_a 9.373406
_cell_length_b 14.385614
_cell_length_c 23.926589
_cell_angle_alpha 90.000000
_cell_angle_beta 90.000000
_cell_angle_gamma 90.000000
_cell_volume 3226.313913
_symmetry_space_group_name_H-M "A M M 2"
_symmetry_group_IT_number 38
_symmetry_cell_setting 'orthorhombic'
loop_
_space_group_symop_operation_xyz
x,y,z
-x,-y,z
-x,y,z
x,-y,z
x,1/2+y,1/2+z
-x,1/2-y,1/2+z
-x,1/2+y,1/2+z
x,1/2-y,1/2+z
loop_
_atom_site_type_symbol
_atom_site_label
_atom_site_fract_x
_atom_site_fract_y
_atom_site_fract_z
Si Si1 0.669975 0.238977 0.413490
Si Si2 0.157097 0.394275 0.109328
Si Si3 0.332039 0.248922 0.541397
Si Si4 0.330910 0.897299 0.126437
Si Si5 0.258319 0.102596 0.732184
Si Si6 0.158648 0.104347 0.853372
Si Si7 0.657740 0.802576 0.239383
Si Si8 0.168258 0.108663 0.337521
O O1 0.500000 0.229189 0.405648
O O2 0.716769 0.251765 0.477447
O O3 0.722378 0.328089 0.378792
O O4 0.749358 0.146033 0.392170
O O5 0.180041 0.500000 0.091226
O O6 0.272593 0.338585 0.074466
O O7 0.168050 0.383945 0.176042
O O8 0.000000 0.359216 0.092202
O O9 0.500000 0.239843 0.546078
O O10 0.277310 0.343163 0.571326
O O11 0.500000 0.904468 0.126127
O O12 0.280889 0.841547 0.181161
O O13 0.261903 0.000000 0.126298
O O14 0.156894 0.107057 0.786131
O O15 0.363489 0.190898 0.736282
O O16 0.336014 0.000000 0.730884
O O17 0.000000 0.134286 0.873226
O O18 0.194090 0.000000 0.874245
O O19 0.500000 0.843738 0.252716
O O20 0.770836 0.833940 0.285424
O O21 0.000000 0.128284 0.342886
O O22 0.200636 0.000000 0.330248
#
# Coordination Sequence:
#
# PCOD8179366 Si02
#       8
#     8   8   8   8   8   8   8   8
#     4  11  24  40  61  87 117 156 203 254 301 351
#     4  10  21  37  59  88 120 155 194 237 292 357
#     4  10  22  40  59  84 116 154 201 248 297 347
#     4   9  18  35  59  86 118 154 191 235 290 348
#     4  10  20  34  58  93 128 157 190 235 295 359
#     4  10  21  38  61  88 121 159 195 236 293 360
#     4  11  21  36  62  93 124 157 194 240 294 357
#     4  11  25  43  63  87 118 157 199 247 304 363
#
# _framework density 19.836879
#
# number of rings (size 3 to 8) (size 9 to 14) (size 15 to 20)
#    0.000    1.750    2.500    1.500    0.000    6.250 
#    0.000    6.250    0.000    0.375    0.000    0.000 
#    0.000    0.000    0.000    0.000    0.000    0.000 
#
# Total GULP energy -396658.497788 kJ/mol
# GULP energy per Si atom -12395.578056 kJ/mol
# Density = 1.979173 g / cm^3
# Si number density = 19.836879 Si / 1000 Ang^3
#
#
#
# Elastic Constant Matrix: (Units=GPa)
#
#
# Indices 1 2 3 4 5 6 
#
# 1 67.8329 40.8001 38.1372 0.0000 0.0000 0.0000
# 2 40.8001 144.9359 62.2830 0.0000 0.0000 0.0000
# 3 38.1372 62.2830 139.7273 0.0000 0.0000 0.0000
# 4 0.0000 0.0000 0.0000 16.1224 0.0000 0.0000
# 5 0.0000 0.0000 0.0000 0.0000 18.5058 0.0000
# 6 0.0000 0.0000 0.0000 0.0000 0.0000 25.6717
#
#
#
# Elastic Compliance Matrix: (Units=1/GPa)
#
#
# Indices 1 2 3 4 5 6 
#
# 1 0.019015 -0.003862 -0.003468 0.000000 0.000000 0.000000
# 2 -0.003862 0.009319 -0.003100 0.000000 0.000000 0.000000
# 3 -0.003468 -0.003100 0.009485 0.000000 0.000000 0.000000
# 4 0.000000 0.000000 0.000000 0.062025 0.000000 0.000000
# 5 0.000000 0.000000 0.000000 0.000000 0.054037 0.000000
# 6 0.000000 0.000000 0.000000 0.000000 0.000000 0.038953
#
#
# Mechanical properties :
#
#
# Convention : Reuss Voigt Hill
#
# Bulk Modulus (GPa) = 58.96787 70.54852 64.75820
# Shear Modulus (GPa) = 22.79473 26.14504 24.46989
#
# Velocity S-wave (km/s) = 3.39353 3.63437 3.51601
# Velocity P-wave (km/s) = 6.71905 7.29747 7.01422
#
# Compressibility (1/GPa) = 0.01695839
#
# Stress axis : x y z
#
# Youngs Moduli (GPa) = 52.58928 107.30877 105.42836
#
# Poissons Ratio (x) = 0.41447 0.36566
# Poissons Ratio (y) = 0.20312 0.32679
# Poissons Ratio (z) = 0.18240 0.33262
#
# Static dielectric constant tensor:
#      x y z
#    x 3.334660 0.000000 0.000000 
#    y 0.000000 3.943870 0.000000 
#    z 0.000000 0.000000 3.691480 
# 
# 
# High freq. dielectric constant tensor:
#      x y z
#    x 1.753200 0.000000 0.000000 
#    y 0.000000 1.786920 0.000000 
#    z 0.000000 0.000000 1.771700 
# 
# From -- ./inp_files/22188.got.cif
#   From: 2010.03.12/outbox.cif.g09.slc.cpg/sg38_12_cif.got.tgz:22188.got - 2010.04.14 02:38:36.
