data_PCOD8179921
_publ_section_title
;
Structure prediction by ZEFSAII (Michael W. Deem and Ramdas Pophale) SiO2 
 PCOD8179921
Probable space group: A M M 2
;
_chemical_formula_sum "Si O2"
_cell_formula_units_Z 64
_cell_length_a 9.213186
_cell_length_b 29.629046
_cell_length_c 14.266967
_cell_angle_alpha 90.000000
_cell_angle_beta 90.000000
_cell_angle_gamma 90.000000
_cell_volume 3894.566859
_symmetry_space_group_name_H-M "A M M 2"
_symmetry_group_IT_number 38
_symmetry_cell_setting 'orthorhombic'
loop_
_space_group_symop_operation_xyz
x,y,z
-x,-y,z
-x,y,z
x,-y,z
x,1/2+y,1/2+z
-x,1/2-y,1/2+z
-x,1/2+y,1/2+z
x,1/2-y,1/2+z
loop_
_atom_site_type_symbol
_atom_site_label
_atom_site_fract_x
_atom_site_fract_y
_atom_site_fract_z
Si Si1 0.831788 0.050999 0.149850
Si Si2 0.333664 0.633903 0.714670
Si Si3 0.666821 0.133131 0.882656
Si Si4 0.666894 0.287104 0.243213
Si Si5 0.163195 0.676309 0.551380
Si Si6 0.832523 0.051496 0.932044
Si Si7 0.836976 0.218757 0.552441
Si Si8 0.665900 0.204093 0.371045
O O1 0.739366 0.084521 0.215149
O O2 0.000000 0.055799 0.175960
O O3 0.778959 0.000000 0.169223
O O4 0.806200 0.063843 0.041256
O O5 0.500000 0.629078 0.682921
O O6 0.251573 0.667540 0.645332
O O7 0.321577 0.656836 0.816157
O O8 0.500000 0.129434 0.913410
O O9 0.683991 0.164336 0.792027
O O10 0.732442 0.083041 0.865816
O O11 0.760132 0.153315 0.965351
O O12 0.500000 0.276746 0.217397
O O13 0.757987 0.291438 0.149282
O O14 0.725613 0.246457 0.309430
O O15 0.160641 0.728727 0.531249
O O16 0.000000 0.656838 0.562066
O O17 0.000000 0.058846 0.905635
O O18 0.786674 0.000000 0.913238
O O19 0.755952 0.195796 0.465322
O O20 0.000000 0.199328 0.558678
O O21 0.500000 0.214989 0.398560
#
# Coordination Sequence:
#
# PCOD8179921 Si02
#       8
#     8   8   8   8   8   8   8   8
#     4   9  18  32  49  71 102 136 165 200 252 303
#     4  11  21  32  50  75  99 133 175 208 243 294
#     4  11  21  32  50  75  99 133 175 208 243 294
#     4  10  21  36  52  71 101 137 169 205 251 300
#     4  11  21  31  46  70 103 136 166 208 252 289
#     4   9  18  32  49  71 102 136 165 200 252 303
#     4  11  23  35  51  74  99 132 175 217 248 286
#     4  10  21  36  52  71 101 137 169 205 251 300
#
# _framework density 16.433149
#
# number of rings (size 3 to 8) (size 9 to 14) (size 15 to 20)
#    0.000    1.750    3.750    2.250    0.000    4.000 
#    0.000    1.250    0.000    0.000    0.000    0.875 
#    0.000    7.000    0.000    0.000    0.000    0.000 
#
# Total GULP energy -396815.784409 kJ/mol
# GULP energy per Si atom -12400.493263 kJ/mol
# Density = 1.639575 g / cm^3
# Si number density = 16.433149 Si / 1000 Ang^3
#
#
#
# Elastic Constant Matrix: (Units=GPa)
#
#
# Indices 1 2 3 4 5 6 
#
# 1 100.6994 45.5280 44.1158 0.0000 0.0000 0.0000
# 2 45.5280 87.5291 30.0339 0.0000 0.0000 0.0000
# 3 44.1158 30.0339 71.5837 0.0000 0.0000 0.0000
# 4 0.0000 0.0000 0.0000 14.2288 0.0000 0.0000
# 5 0.0000 0.0000 0.0000 0.0000 76.8885 0.0000
# 6 0.0000 0.0000 0.0000 0.0000 0.0000 29.8373
#
#
#
# Elastic Compliance Matrix: (Units=1/GPa)
#
#
# Indices 1 2 3 4 5 6 
#
# 1 0.015682 -0.005655 -0.007292 0.000000 0.000000 0.000000
# 2 -0.005655 0.015385 -0.002970 0.000000 0.000000 0.000000
# 3 -0.007292 -0.002970 0.019710 0.000000 0.000000 0.000000
# 4 0.000000 0.000000 0.000000 0.070280 0.000000 0.000000
# 5 0.000000 0.000000 0.000000 0.000000 0.013006 0.000000
# 6 0.000000 0.000000 0.000000 0.000000 0.000000 0.033515
#
#
# Mechanical properties :
#
#
# Convention : Reuss Voigt Hill
#
# Bulk Modulus (GPa) = 52.78963 55.46306 54.12635
# Shear Modulus (GPa) = 24.30423 33.53319 28.91871
#
# Velocity S-wave (km/s) = 3.84992 4.52218 4.19952
# Velocity P-wave (km/s) = 7.20806 7.81606 7.51821
#
# Compressibility (1/GPa) = 0.01894311
#
# Stress axis : x y z
#
# Youngs Moduli (GPa) = 63.76881 64.99748 50.73653
#
# Poissons Ratio (x) = 0.36754 0.36996
# Poissons Ratio (y) = 0.36059 0.15070
# Poissons Ratio (z) = 0.46499 0.19305
#
# Static dielectric constant tensor:
#      x y z
#    x 3.238480 0.000000 0.000000 
#    y 0.000000 3.337340 0.000000 
#    z 0.000000 0.000000 2.845430 
# 
# 
# High freq. dielectric constant tensor:
#      x y z
#    x 1.643200 0.000000 0.000000 
#    y 0.000000 1.629160 0.000000 
#    z 0.000000 0.000000 1.599620 
# 
# From -- ./inp_files/13110.got.cif
#   From: 2010.03.12/outbox.cif.g09.slc.cpg/sg38_7_cif.got.tgz:13110.got - 2010.04.14 02:38:36.
