data_PCOD8179758
_publ_section_title
;
Structure prediction by ZEFSAII (Michael W. Deem and Ramdas Pophale) SiO2 
 PCOD8179758
Probable space group: A M M 2
;
_chemical_formula_sum "Si O2"
_cell_formula_units_Z 32
_cell_length_a 11.867233
_cell_length_b 14.042554
_cell_length_c 7.332799
_cell_angle_alpha 90.000000
_cell_angle_beta 90.000000
_cell_angle_gamma 90.000000
_cell_volume 1221.983530
_symmetry_space_group_name_H-M "A M M 2"
_symmetry_group_IT_number 38
_symmetry_cell_setting 'orthorhombic'
loop_
_space_group_symop_operation_xyz
x,y,z
-x,-y,z
-x,y,z
x,-y,z
x,1/2+y,1/2+z
-x,1/2-y,1/2+z
-x,1/2+y,1/2+z
x,1/2-y,1/2+z
loop_
_atom_site_type_symbol
_atom_site_label
_atom_site_fract_x
_atom_site_fract_y
_atom_site_fract_z
Si Si1 0.868842 0.603627 0.422270
Si Si2 0.500000 0.387871 0.157320
Si Si3 0.323507 0.387289 0.860436
Si Si4 0.500000 0.612973 0.566957
Si Si5 0.132531 0.701369 0.051099
O O1 0.809865 0.500000 0.464347
O O2 0.828208 0.643650 0.227676
O O3 0.840018 0.684691 0.571155
O O4 0.000000 0.585271 0.411006
O O5 0.500000 0.500000 0.178826
O O6 0.391542 0.355018 0.042122
O O7 0.500000 0.342733 0.362286
O O8 0.310069 0.500000 0.854116
O O9 0.200298 0.339878 0.877589
O O10 0.388704 0.352156 0.677295
O O11 0.500000 0.500000 0.561432
O O12 0.000000 0.689261 0.005046
#
# Coordination Sequence:
#
# PCOD8179758 Si02
#       5
#     8   4   8   4   8
#     4   9  19  38  62  89 129 179 225 271 323 389
#     4   8  15  31  56  87 126 174 227 283 338 391
#     4   9  17  31  57  94 133 174 223 278 337 404
#     4   8  15  31  56  89 128 172 229 285 332 397
#     4  10  20  37  62  94 133 173 218 270 333 412
#
# _framework density 26.186931000000001
#
# number of rings (size 3 to 8) (size 9 to 14) (size 15 to 20)
#    0.000    3.000    0.000    2.250    0.000    1.500 
#    4.500    2.500    0.000   18.000    0.000   10.500 
#    0.000    2.000    0.000    0.000    0.000    0.000 
#
# Total GULP energy -198220.091992 kJ/mol
# GULP energy per Si atom -12388.755750 kJ/mol
# Density = 2.612733 g / cm^3
# Si number density = 26.186931 Si / 1000 Ang^3
#
#
#
# Elastic Constant Matrix: (Units=GPa)
#
#
# Indices 1 2 3 4 5 6 
#
# 1 61.5251 27.0555 41.0121 0.0000 0.0000 0.0000
# 2 27.0555 118.9080 34.0301 0.0000 0.0000 0.0000
# 3 41.0121 34.0301 168.8460 0.0000 0.0000 0.0000
# 4 0.0000 0.0000 0.0000 14.7566 0.0000 0.0000
# 5 0.0000 0.0000 0.0000 0.0000 12.5831 0.0000
# 6 0.0000 0.0000 0.0000 0.0000 0.0000 -9.0004
#
#
#
# Elastic Compliance Matrix: (Units=1/GPa)
#
#
# Indices 1 2 3 4 5 6 
#
# 1 0.020656 -0.003464 -0.004319 0.000000 0.000000 0.000000
# 2 -0.003464 0.009505 -0.001074 0.000000 0.000000 0.000000
# 3 -0.004319 -0.001074 0.007188 0.000000 0.000000 0.000000
# 4 0.000000 0.000000 0.000000 0.067766 0.000000 0.000000
# 5 0.000000 0.000000 0.000000 0.000000 0.079472 0.000000
# 6 0.000000 0.000000 0.000000 0.000000 0.000000 -0.111107
#
#
# Mechanical properties :
#
#
# Convention : Reuss Voigt Hill
#
# Bulk Modulus (GPa) = 50.93001 61.49717 56.21359
# Shear Modulus (GPa) = 51.15595 20.14663 35.65129
#
# Velocity S-wave (km/s) = 4.42463 2.77671 3.69374
# Velocity P-wave (km/s) = 6.75233 5.81507 6.30115
#
# Compressibility (1/GPa) = 0.01963479
#
# Stress axis : x y z
#
# Youngs Moduli (GPa) = 48.41254 105.20245 139.11678
#
# Poissons Ratio (x) = 0.36440 0.60086
# Poissons Ratio (y) = 0.16769 0.14947
# Poissons Ratio (z) = 0.20910 0.11303
#
# Static dielectric constant tensor:
#      x y z
#    x 4.674750 0.000000 0.000000 
#    y 0.000000 4.797000 0.000000 
#    z 0.000000 0.000000 4.958100 
# 
# 
# High freq. dielectric constant tensor:
#      x y z
#    x 2.037620 0.000000 0.000000 
#    y 0.000000 2.046830 0.000000 
#    z 0.000000 0.000000 2.053700 
# 
# From -- ./inp_files/4163.got.cif
#   From: 2010.03.12/outbox.cif.g09.slc.cpg/sg38_3_cif.got.tgz:4163.got - 2010.04.14 02:38:36.
