data_PCOD8179692
_publ_section_title
;
Structure prediction by ZEFSAII (Michael W. Deem and Ramdas Pophale) SiO2 
 PCOD8179692
Probable space group: A M M 2
;
_chemical_formula_sum "Si O2"
_cell_formula_units_Z 56
_cell_length_a 16.422378
_cell_length_b 9.283185
_cell_length_c 20.068787
_cell_angle_alpha 90.000000
_cell_angle_beta 90.000000
_cell_angle_gamma 90.000000
_cell_volume 3059.526176
_symmetry_space_group_name_H-M "A M M 2"
_symmetry_group_IT_number 38
_symmetry_cell_setting 'orthorhombic'
loop_
_space_group_symop_operation_xyz
x,y,z
-x,-y,z
-x,y,z
x,-y,z
x,1/2+y,1/2+z
-x,1/2-y,1/2+z
-x,1/2+y,1/2+z
x,1/2-y,1/2+z
loop_
_atom_site_type_symbol
_atom_site_label
_atom_site_fract_x
_atom_site_fract_y
_atom_site_fract_z
Si Si1 0.000000 0.336707 0.922611
Si Si2 0.331421 0.167472 0.111542
Si Si3 0.155679 0.333656 0.424461
Si Si4 0.000000 0.337648 0.081326
Si Si5 0.669546 0.166819 0.872899
Si Si6 0.594109 0.335623 0.232232
Si Si7 0.405237 0.665173 0.989644
Si Si8 0.153110 0.836092 0.078119
O O1 0.080867 0.258840 0.895151
O O2 0.000000 0.500000 0.896953
O O3 0.000000 0.326456 0.002028
O O4 0.378491 0.229381 0.174425
O O5 0.234548 0.189065 0.121145
O O6 0.353516 0.000000 0.103276
O O7 0.356782 0.248567 0.045102
O O8 0.132550 0.500000 0.415506
O O9 0.236095 0.292348 0.383243
O O10 0.172457 0.295860 0.501560
O O11 0.918581 0.261544 0.108815
O O12 0.000000 0.500000 0.107571
O O13 0.647501 0.199225 0.796831
O O14 0.612044 0.265140 0.918112
O O15 0.653789 0.000000 0.891533
O O16 0.500000 0.307828 0.249390
O O17 0.607646 0.500000 0.208483
O O18 0.500000 0.675569 0.006131
O O19 0.375695 0.500000 0.989241
O O20 0.123013 0.000000 0.082663
#
# Coordination Sequence:
#
# PCOD8179692 Si02
#       8
#     4   8   8   4   8   8   8   8
#     4   9  17  27  43  74 111 142 171 209 263 318
#     4  11  22  37  57  80 107 144 187 227 270 327
#     4   9  16  30  51  76 105 138 177 218 264 317
#     4   9  17  27  45  76 109 140 171 209 263 320
#     4  10  20  37  59  81 107 143 185 226 271 328
#     4  10  22  39  57  79 109 145 184 229 280 328
#     4  11  23  36  53  80 111 140 175 226 282 327
#     4   9  17  31  50  75 106 139 176 218 265 316
#
# _framework density 18.303487000000001
#
# number of rings (size 3 to 8) (size 9 to 14) (size 15 to 20)
#    0.000    2.143    1.429    2.143    0.000    7.714 
#    0.000    0.000    0.000    0.857    0.000    1.000 
#    0.000    0.000    0.000    0.000    0.000    0.000 
#
# Total GULP energy -347276.496229 kJ/mol
# GULP energy per Si atom -12402.732008 kJ/mol
# Density = 1.826183 g / cm^3
# Si number density = 18.303487 Si / 1000 Ang^3
#
#
#
# Elastic Constant Matrix: (Units=GPa)
#
#
# Indices 1 2 3 4 5 6 
#
# 1 95.3006 47.7026 16.9672 0.0000 0.0000 0.0000
# 2 47.7026 106.5683 30.0603 0.0000 0.0000 0.0000
# 3 16.9672 30.0603 45.9796 0.0000 0.0000 0.0000
# 4 0.0000 0.0000 0.0000 25.0316 0.0000 0.0000
# 5 0.0000 0.0000 0.0000 0.0000 24.0906 0.0000
# 6 0.0000 0.0000 0.0000 0.0000 0.0000 31.1336
#
#
#
# Elastic Compliance Matrix: (Units=1/GPa)
#
#
# Indices 1 2 3 4 5 6 
#
# 1 0.013583 -0.005722 -0.001272 0.000000 0.000000 0.000000
# 2 -0.005722 0.013915 -0.006986 0.000000 0.000000 0.000000
# 3 -0.001272 -0.006986 0.026786 0.000000 0.000000 0.000000
# 4 0.000000 0.000000 0.000000 0.039950 0.000000 0.000000
# 5 0.000000 0.000000 0.000000 0.000000 0.041510 0.000000
# 6 0.000000 0.000000 0.000000 0.000000 0.000000 0.032120
#
#
# Mechanical properties :
#
#
# Convention : Reuss Voigt Hill
#
# Bulk Modulus (GPa) = 37.98655 48.58986 43.28820
# Shear Modulus (GPa) = 24.43817 26.25903 25.34860
#
# Velocity S-wave (km/s) = 3.65795 3.79178 3.72547
# Velocity P-wave (km/s) = 6.21608 6.76569 6.49670
#
# Compressibility (1/GPa) = 0.02632511
#
# Stress axis : x y z
#
# Youngs Moduli (GPa) = 73.61889 71.86290 37.33356
#
# Poissons Ratio (x) = 0.41117 0.04749
# Poissons Ratio (y) = 0.42121 0.26082
# Poissons Ratio (z) = 0.09364 0.50205
#
# Static dielectric constant tensor:
#      x y z
#    x 3.511340 0.000000 0.000000 
#    y 0.000000 3.460040 0.000000 
#    z 0.000000 0.000000 3.032920 
# 
# 
# High freq. dielectric constant tensor:
#      x y z
#    x 1.723620 0.000000 0.000000 
#    y 0.000000 1.715050 0.000000 
#    z 0.000000 0.000000 1.669410 
# 
# From -- ./inp_files/21132.got.cif
#   From: 2010.03.12/outbox.cif.g09.slc.cpg/sg38_11_cif.got.tgz:21132.got - 2010.04.14 02:38:36.
