data_PCOD8179099
_publ_section_title
;
Structure prediction by ZEFSAII (Michael W. Deem and Ramdas Pophale) SiO2 
 PCOD8179099
Probable space group: A M M 2
;
_chemical_formula_sum "Si O2"
_cell_formula_units_Z 64
_cell_length_a 8.902462
_cell_length_b 19.258993
_cell_length_c 20.714646
_cell_angle_alpha 90.000000
_cell_angle_beta 90.000000
_cell_angle_gamma 90.000000
_cell_volume 3551.576877
_symmetry_space_group_name_H-M "A M M 2"
_symmetry_group_IT_number 38
_symmetry_cell_setting 'orthorhombic'
loop_
_space_group_symop_operation_xyz
x,y,z
-x,-y,z
-x,y,z
x,-y,z
x,1/2+y,1/2+z
-x,1/2-y,1/2+z
-x,1/2+y,1/2+z
x,1/2-y,1/2+z
loop_
_atom_site_type_symbol
_atom_site_label
_atom_site_fract_x
_atom_site_fract_y
_atom_site_fract_z
Si Si1 0.323637 0.290328 0.129710
Si Si2 0.176883 0.791704 0.013201
Si Si3 0.324872 0.078882 0.065063
Si Si4 0.825331 0.578773 0.178806
Si Si5 0.173348 0.078440 0.200877
Si Si6 0.670753 0.422360 0.312461
Si Si7 0.673868 0.286675 0.383300
Si Si8 0.324437 0.296523 0.756079
O O1 0.500000 0.289316 0.118174
O O2 0.245848 0.254079 0.069630
O O3 0.267259 0.369608 0.133033
O O4 0.277928 0.251277 0.195567
O O5 0.235552 0.870806 0.017316
O O6 0.000000 0.789554 0.019161
O O7 0.227588 0.761925 0.943888
O O8 0.500000 0.097079 0.061606
O O9 0.271498 0.092333 0.137635
O O10 0.292134 0.000000 0.043729
O O11 0.788030 0.500000 0.157294
O O12 0.780966 0.590028 0.253023
O O13 0.000000 0.595527 0.171507
O O14 0.231950 0.131497 0.255033
O O15 0.000000 0.092636 0.184040
O O16 0.196345 0.000000 0.226471
O O17 0.500000 0.409896 0.287366
O O18 0.689682 0.500000 0.341041
O O19 0.707592 0.367799 0.368729
O O20 0.500000 0.275083 0.400261
O O21 0.722402 0.242106 0.321364
O O22 0.500000 0.313542 0.754596
#
# Coordination Sequence:
#
# PCOD8179099 Si02
#       8
#     8   8   8   8   8   8   8   8
#     4  11  21  37  60  84 109 145 189 231 274 327
#     4  12  25  38  54  81 114 149 185 229 284 336
#     4  10  20  35  55  78 108 149 192 229 268 321
#     4  10  20  33  53  84 118 147 179 226 281 329
#     4  10  20  33  53  83 115 145 180 227 281 331
#     4   9  17  32  54  78 108 148 190 227 266 319
#     4  10  21  38  55  78 111 147 189 232 271 325
#     4  10  20  35  58  84 109 143 188 232 276 325
#
# _framework density 18.020164999999999
#
# number of rings (size 3 to 8) (size 9 to 14) (size 15 to 20)
#    0.000    1.750    2.500    2.625    0.000    4.250 
#    0.000    1.250    0.000    0.750    0.000    3.500 
#    0.000    0.000    0.000    0.000    0.000    0.000 
#
# Total GULP energy -396889.764889 kJ/mol
# GULP energy per Si atom -12402.805153 kJ/mol
# Density = 1.797915 g / cm^3
# Si number density = 18.020165 Si / 1000 Ang^3
#
#
#
# Elastic Constant Matrix: (Units=GPa)
#
#
# Indices 1 2 3 4 5 6 
#
# 1 97.0557 55.4489 56.9228 0.0000 0.0000 0.0000
# 2 55.4489 101.6304 56.9023 0.0000 0.0000 0.0000
# 3 56.9228 56.9023 113.4050 0.0000 0.0000 0.0000
# 4 0.0000 0.0000 0.0000 22.1101 0.0000 0.0000
# 5 0.0000 0.0000 0.0000 0.0000 22.3192 0.0000
# 6 0.0000 0.0000 0.0000 0.0000 0.0000 31.5480
#
#
#
# Elastic Compliance Matrix: (Units=1/GPa)
#
#
# Indices 1 2 3 4 5 6 
#
# 1 0.017067 -0.006279 -0.005416 0.000000 0.000000 0.000000
# 2 -0.006279 0.015994 -0.004873 0.000000 0.000000 0.000000
# 3 -0.005416 -0.004873 0.013982 0.000000 0.000000 0.000000
# 4 0.000000 0.000000 0.000000 0.045228 0.000000 0.000000
# 5 0.000000 0.000000 0.000000 0.000000 0.044805 0.000000
# 6 0.000000 0.000000 0.000000 0.000000 0.000000 0.031698
#
#
# Mechanical properties :
#
#
# Convention : Reuss Voigt Hill
#
# Bulk Modulus (GPa) = 71.91337 72.29323 72.10330
# Shear Modulus (GPa) = 24.20761 24.71659 24.46210
#
# Velocity S-wave (km/s) = 3.66917 3.70754 3.68840
# Velocity P-wave (km/s) = 7.61211 7.65068 7.63142
#
# Compressibility (1/GPa) = 0.01390562
#
# Stress axis : x y z
#
# Youngs Moduli (GPa) = 58.59139 62.52285 71.52177
#
# Poissons Ratio (x) = 0.39261 0.38737
# Poissons Ratio (y) = 0.36792 0.34855
# Poissons Ratio (z) = 0.31733 0.30470
#
# Static dielectric constant tensor:
#      x y z
#    x 3.356930 0.000000 0.000000 
#    y 0.000000 3.554160 0.000000 
#    z 0.000000 0.000000 3.070060 
# 
# 
# High freq. dielectric constant tensor:
#      x y z
#    x 1.703900 0.000000 0.000000 
#    y 0.000000 1.702410 0.000000 
#    z 0.000000 0.000000 1.669920 
# 
# From -- ./inp_files/20107.got.cif
#   From: 2010.03.12/outbox.cif.g09.slc.cpg/sg38_11_cif.got.tgz:20107.got - 2010.04.14 02:38:36.
