data_PCOD8179708
_publ_section_title
;
Structure prediction by ZEFSAII (Michael W. Deem and Ramdas Pophale) SiO2 
 PCOD8179708
Probable space group: A M M 2
;
_chemical_formula_sum "Si O2"
_cell_formula_units_Z 48
_cell_length_a 8.626524
_cell_length_b 15.265284
_cell_length_c 18.979644
_cell_angle_alpha 90.000000
_cell_angle_beta 90.000000
_cell_angle_gamma 90.000000
_cell_volume 2499.359830
_symmetry_space_group_name_H-M "A M M 2"
_symmetry_group_IT_number 38
_symmetry_cell_setting 'orthorhombic'
loop_
_space_group_symop_operation_xyz
x,y,z
-x,-y,z
-x,y,z
x,-y,z
x,1/2+y,1/2+z
-x,1/2-y,1/2+z
-x,1/2+y,1/2+z
x,1/2-y,1/2+z
loop_
_atom_site_type_symbol
_atom_site_label
_atom_site_fract_x
_atom_site_fract_y
_atom_site_fract_z
Si Si1 0.817443 0.651798 0.059460
Si Si2 0.681711 0.161649 0.064059
Si Si3 0.683916 0.000000 0.651631
Si Si4 0.314976 0.000000 0.812109
Si Si5 0.682476 0.155197 0.905842
Si Si6 0.683989 0.649547 0.908078
Si Si7 0.181493 0.000000 0.314280
Si Si8 0.317906 0.000000 0.161840
O O1 0.772970 0.749941 0.082715
O O2 0.750895 0.587282 0.117697
O O3 0.000000 0.641795 0.055052
O O4 0.747010 0.623274 0.984566
O O5 0.500000 0.183468 0.067647
O O6 0.729088 0.086040 0.118132
O O7 0.727541 0.129361 0.985766
O O8 0.741152 0.000000 0.732212
O O9 0.500000 0.000000 0.645234
O O10 0.244789 0.914495 0.851580
O O11 0.500000 0.000000 0.817267
O O12 0.500000 0.153894 0.897022
O O13 0.743108 0.252864 0.888563
O O14 0.500000 0.643590 0.910966
O O15 0.746570 0.586225 0.848349
O O16 0.218608 0.000000 0.232123
O O17 0.000000 0.000000 0.327075
O O18 0.500000 0.000000 0.179332
#
# Coordination Sequence:
#
# PCOD8179708 Si02
#       8
#     8   8   4   4   8   8   4   4
#     4  11  22  37  57  81 111 146 184 229 282 335
#     4   9  18  35  60  86 110 141 186 234 275 323
#     4  11  22  35  53  79 111 147 186 227 270 326
#     4   9  17  30  52  83 112 136 168 215 270 320
#     4   8  15  30  55  84 108 132 169 221 272 315
#     4  10  20  37  60  83 107 139 183 230 273 326
#     4  12  25  38  53  79 115 150 183 226 286 344
#     4  10  21  37  58  83 112 149 191 232 276 330
#
# _framework density 19.204917999999999
#
# number of rings (size 3 to 8) (size 9 to 14) (size 15 to 20)
#    0.000    2.167    0.000    5.000    0.000    4.000 
#    0.000    3.333    0.000    9.000    0.000    0.000 
#    0.000    0.000    0.000    0.000    0.000    0.000 
#
# Total GULP energy -297617.747589 kJ/mol
# GULP energy per Si atom -12400.739483 kJ/mol
# Density = 1.916121 g / cm^3
# Si number density = 19.204918 Si / 1000 Ang^3
#
#
#
# Elastic Constant Matrix: (Units=GPa)
#
#
# Indices 1 2 3 4 5 6 
#
# 1 82.6898 34.5556 42.1218 0.0000 0.0000 0.0000
# 2 34.5556 124.6709 90.4698 0.0000 0.0000 0.0000
# 3 42.1218 90.4698 149.2984 0.0000 0.0000 0.0000
# 4 0.0000 0.0000 0.0000 -13.4300 0.0000 0.0000
# 5 0.0000 0.0000 0.0000 0.0000 11.8560 0.0000
# 6 0.0000 0.0000 0.0000 0.0000 0.0000 5.6756
#
#
#
# Elastic Compliance Matrix: (Units=1/GPa)
#
#
# Indices 1 2 3 4 5 6 
#
# 1 0.014360 -0.001857 -0.002926 0.000000 0.000000 0.000000
# 2 -0.001857 0.014557 -0.008297 0.000000 0.000000 0.000000
# 3 -0.002926 -0.008297 0.012551 0.000000 0.000000 0.000000
# 4 0.000000 0.000000 0.000000 -0.074460 0.000000 0.000000
# 5 0.000000 0.000000 0.000000 0.000000 0.084345 0.000000
# 6 0.000000 0.000000 0.000000 0.000000 0.000000 0.176192
#
#
# Mechanical properties :
#
#
# Convention : Reuss Voigt Hill
#
# Bulk Modulus (GPa) = 65.32579 76.77261 71.04920
# Shear Modulus (GPa) = 19.31942 13.45447 16.38694
#
# Velocity S-wave (km/s) = 3.17513 2.64971 2.92424
# Velocity P-wave (km/s) = 6.89427 7.03019 6.96256
#
# Compressibility (1/GPa) = 0.01530789
#
# Stress axis : x y z
#
# Youngs Moduli (GPa) = 69.63822 68.69726 79.67308
#
# Poissons Ratio (x) = 0.12755 0.23315
# Poissons Ratio (y) = 0.12930 0.66105
# Poissons Ratio (z) = 0.20378 0.56998
#
# Static dielectric constant tensor:
#      x y z
#    x 3.263970 0.000000 0.000000 
#    y 0.000000 3.858050 0.000000 
#    z 0.000000 0.000000 3.576480 
# 
# 
# High freq. dielectric constant tensor:
#      x y z
#    x 1.723840 0.000000 0.000000 
#    y 0.000000 1.763400 0.000000 
#    z 0.000000 0.000000 1.746280 
# 
# From -- ./inp_files/16759.got.cif
#   From: 2010.03.12/outbox.cif.g09.slc.cpg/sg38_9_cif.got.tgz:16759.got - 2010.04.14 02:38:36.
