data_PCOD8179175
_publ_section_title
;
Structure prediction by ZEFSAII (Michael W. Deem and Ramdas Pophale) SiO2 
 PCOD8179175
Probable space group: A M M 2
;
_chemical_formula_sum "Si O2"
_cell_formula_units_Z 64
_cell_length_a 8.964191
_cell_length_b 15.773734
_cell_length_c 23.009176
_cell_angle_alpha 90.000000
_cell_angle_beta 90.000000
_cell_angle_gamma 90.000000
_cell_volume 3253.469055
_symmetry_space_group_name_H-M "A M M 2"
_symmetry_group_IT_number 38
_symmetry_cell_setting 'orthorhombic'
loop_
_space_group_symop_operation_xyz
x,y,z
-x,-y,z
-x,y,z
x,-y,z
x,1/2+y,1/2+z
-x,1/2-y,1/2+z
-x,1/2+y,1/2+z
x,1/2-y,1/2+z
loop_
_atom_site_type_symbol
_atom_site_label
_atom_site_fract_x
_atom_site_fract_y
_atom_site_fract_z
Si Si1 0.325605 0.749320 0.260110
Si Si2 0.168783 0.905562 0.212812
Si Si3 0.837862 0.403114 0.045066
Si Si4 0.172119 0.654300 0.587957
Si Si5 0.823412 0.093868 0.962645
Si Si6 0.822809 0.758149 0.877048
Si Si7 0.325946 0.185424 0.635898
Si Si8 0.676054 0.901405 0.430453
O O1 0.500000 0.744068 0.274437
O O2 0.284359 0.846676 0.246767
O O3 0.230468 0.712167 0.313290
O O4 0.281948 0.694495 0.203342
O O5 0.195715 0.906494 0.143350
O O6 0.000000 0.874763 0.226274
O O7 0.195297 0.000000 0.236231
O O8 0.867313 0.500000 0.034134
O O9 0.760457 0.393737 0.108068
O O10 0.000000 0.356377 0.042336
O O11 0.730695 0.370235 0.993823
O O12 0.226486 0.608491 0.529284
O O13 0.274013 0.736155 0.596574
O O14 0.000000 0.682209 0.582392
O O15 0.762061 0.169766 0.921604
O O16 0.000000 0.093600 0.957922
O O17 0.763255 0.000000 0.943732
O O18 0.752741 0.664544 0.886322
O O19 0.000000 0.750010 0.879787
O O20 0.500000 0.172238 0.628867
O O21 0.500000 0.890370 0.426820
O O22 0.720459 0.000000 0.416884
#
# Coordination Sequence:
#
# PCOD8179175 Si02
#       8
#     8   8   8   8   8   8   8   8
#     4  10  22  38  53  71 100 140 183 224 267 318
#     4   9  17  30  51  80 109 135 166 207 257 316
#     4  10  20  34  54  81 110 137 170 216 268 324
#     4   9  16  29  53  81 108 136 165 204 258 319
#     4   9  18  33  54  81 109 137 173 216 264 318
#     4  11  22  36  57  81 107 144 187 232 275 315
#     4  10  20  34  53  76 104 139 176 217 268 323
#     4  10  21  37  58  84 115 149 181 218 269 329
#
# _framework density 19.671309999999998
#
# number of rings (size 3 to 8) (size 9 to 14) (size 15 to 20)
#    0.000    2.250    0.000    3.000    0.000    6.250 
#    0.000    1.250    0.000    6.375    0.000    0.000 
#    0.000    0.000    0.000    0.000    0.000    0.000 
#
# Total GULP energy -396651.375129 kJ/mol
# GULP energy per Si atom -12395.355473 kJ/mol
# Density = 1.962654 g / cm^3
# Si number density = 19.671310 Si / 1000 Ang^3
#
#
#
# Elastic Constant Matrix: (Units=GPa)
#
#
# Indices 1 2 3 4 5 6 
#
# 1 71.8381 21.4186 34.5637 0.0000 0.0000 0.0000
# 2 21.4186 61.3949 33.1399 0.0000 0.0000 0.0000
# 3 34.5637 33.1399 100.3874 0.0000 0.0000 0.0000
# 4 0.0000 0.0000 0.0000 19.5541 0.0000 0.0000
# 5 0.0000 0.0000 0.0000 0.0000 28.8930 0.0000
# 6 0.0000 0.0000 0.0000 0.0000 0.0000 22.5161
#
#
#
# Elastic Compliance Matrix: (Units=1/GPa)
#
#
# Indices 1 2 3 4 5 6 
#
# 1 0.017256 -0.003423 -0.004811 0.000000 0.000000 0.000000
# 2 -0.003423 0.020499 -0.005589 0.000000 0.000000 0.000000
# 3 -0.004811 -0.005589 0.013463 0.000000 0.000000 0.000000
# 4 0.000000 0.000000 0.000000 0.051140 0.000000 0.000000
# 5 0.000000 0.000000 0.000000 0.000000 0.034611 0.000000
# 6 0.000000 0.000000 0.000000 0.000000 0.000000 0.044413
#
#
# Mechanical properties :
#
#
# Convention : Reuss Voigt Hill
#
# Bulk Modulus (GPa) = 42.42345 45.76276 44.09310
# Shear Modulus (GPa) = 23.05391 23.82584 23.43987
#
# Velocity S-wave (km/s) = 3.42710 3.48400 3.45567
# Velocity P-wave (km/s) = 6.10516 6.28479 6.19563
#
# Compressibility (1/GPa) = 0.02357187
#
# Stress axis : x y z
#
# Youngs Moduli (GPa) = 57.95232 48.78356 74.27879
#
# Poissons Ratio (x) = 0.16698 0.35737
# Poissons Ratio (y) = 0.19837 0.41511
# Poissons Ratio (z) = 0.27882 0.27263
#
# Static dielectric constant tensor:
#      x y z
#    x 3.568590 0.000000 0.000000 
#    y 0.000000 3.621360 0.000000 
#    z 0.000000 0.000000 3.678890 
# 
# 
# High freq. dielectric constant tensor:
#      x y z
#    x 1.755720 0.000000 0.000000 
#    y 0.000000 1.753570 0.000000 
#    z 0.000000 0.000000 1.766050 
# 
# From -- ./inp_files/22171.got.cif
#   From: 2010.03.12/outbox.cif.g09.slc.cpg/sg38_12_cif.got.tgz:22171.got - 2010.04.14 02:38:36.
