data_PCOD8179352
_publ_section_title
;
Structure prediction by ZEFSAII (Michael W. Deem and Ramdas Pophale) SiO2 
 PCOD8179352
Probable space group: A M M 2
;
_chemical_formula_sum "Si O2"
_cell_formula_units_Z 64
_cell_length_a 14.057347
_cell_length_b 8.987365
_cell_length_c 25.755325
_cell_angle_alpha 90.000000
_cell_angle_beta 90.000000
_cell_angle_gamma 90.000000
_cell_volume 3253.889344
_symmetry_space_group_name_H-M "A M M 2"
_symmetry_group_IT_number 38
_symmetry_cell_setting 'orthorhombic'
loop_
_space_group_symop_operation_xyz
x,y,z
-x,-y,z
-x,y,z
x,-y,z
x,1/2+y,1/2+z
-x,1/2-y,1/2+z
-x,1/2+y,1/2+z
x,1/2-y,1/2+z
loop_
_atom_site_type_symbol
_atom_site_label
_atom_site_fract_x
_atom_site_fract_y
_atom_site_fract_z
Si Si1 0.887607 0.164561 0.165540
Si Si2 0.612653 0.165360 0.595911
Si Si3 0.291805 0.324578 0.503019
Si Si4 0.109056 0.325333 0.268514
Si Si5 0.714636 0.324473 0.804799
Si Si6 0.611027 0.672813 0.212305
Si Si7 0.895407 0.176996 0.051985
Si Si8 0.388857 0.674216 0.399229
O O1 0.857866 0.278904 0.210532
O O2 0.856827 0.228079 0.108930
O O3 0.000000 0.148633 0.163291
O O4 0.843819 0.000000 0.176991
O O5 0.500000 0.165336 0.595234
O O6 0.649109 0.278905 0.553265
O O7 0.645589 0.212151 0.653905
O O8 0.650711 0.000000 0.582869
O O9 0.298080 0.500000 0.500072
O O10 0.181878 0.270421 0.509301
O O11 0.335757 0.259790 0.450078
O O12 0.122175 0.500000 0.274564
O O13 0.178409 0.242906 0.309224
O O14 0.000000 0.277310 0.279697
O O15 0.720720 0.500000 0.809469
O O16 0.669703 0.278251 0.750116
O O17 0.648939 0.262280 0.850112
O O18 0.500000 0.707266 0.219569
O O19 0.631438 0.500000 0.225223
O O20 0.000000 0.244549 0.038664
O O21 0.902967 0.000000 0.053316
O O22 0.500000 0.705848 0.406094
O O23 0.368497 0.500000 0.391061
#
# Coordination Sequence:
#
# PCOD8179352 Si02
#       8
#     8   8   8   8   8   8   8   8
#     4   8  14  27  48  75 111 152 188 225 271 321
#     4   9  19  35  54  79 113 149 181 222 284 350
#     4  10  20  34  57  86 113 146 194 240 281 332
#     4  10  21  37  57  82 114 152 193 233 278 340
#     4  12  25  38  58  85 112 145 191 244 294 343
#     4   9  19  37  58  81 114 152 186 228 288 354
#     4   8  15  29  50  79 116 152 185 225 274 327
#     4  10  22  41  61  81 111 150 191 242 299 350
#
# _framework density 19.668769999999999
#
# number of rings (size 3 to 8) (size 9 to 14) (size 15 to 20)
#    0.000    2.500    0.000    3.750    1.750    4.500 
#    0.000    1.875    0.000    2.625    0.000    0.000 
#    0.000    0.000    0.000    0.000    0.000    0.000 
#
# Total GULP energy -396690.835931 kJ/mol
# GULP energy per Si atom -12396.588623 kJ/mol
# Density = 1.962400 g / cm^3
# Si number density = 19.668770 Si / 1000 Ang^3
#
#
#
# Elastic Constant Matrix: (Units=GPa)
#
#
# Indices 1 2 3 4 5 6 
#
# 1 81.1324 36.1752 49.0393 0.0000 0.0000 0.0000
# 2 36.1752 61.0187 31.3877 0.0000 0.0000 0.0000
# 3 49.0393 31.3877 93.4342 0.0000 0.0000 0.0000
# 4 0.0000 0.0000 0.0000 26.6729 0.0000 0.0000
# 5 0.0000 0.0000 0.0000 0.0000 36.1029 0.0000
# 6 0.0000 0.0000 0.0000 0.0000 0.0000 23.3756
#
#
#
# Elastic Compliance Matrix: (Units=1/GPa)
#
#
# Indices 1 2 3 4 5 6 
#
# 1 0.020963 -0.008182 -0.008254 0.000000 0.000000 0.000000
# 2 -0.008182 0.023006 -0.003434 0.000000 0.000000 0.000000
# 3 -0.008254 -0.003434 0.016188 0.000000 0.000000 0.000000
# 4 0.000000 0.000000 0.000000 0.037491 0.000000 0.000000
# 5 0.000000 0.000000 0.000000 0.000000 0.027699 0.000000
# 6 0.000000 0.000000 0.000000 0.000000 0.000000 0.042780
#
#
# Mechanical properties :
#
#
# Convention : Reuss Voigt Hill
#
# Bulk Modulus (GPa) = 48.97869 52.08773 50.53321
# Shear Modulus (GPa) = 23.29145 25.16247 24.22696
#
# Velocity S-wave (km/s) = 3.44493 3.58063 3.51343
# Velocity P-wave (km/s) = 6.38586 6.60564 6.49668
#
# Compressibility (1/GPa) = 0.02041704
#
# Stress axis : x y z
#
# Youngs Moduli (GPa) = 47.70419 43.46767 61.77323
#
# Poissons Ratio (x) = 0.35566 0.50985
# Poissons Ratio (y) = 0.39032 0.21213
# Poissons Ratio (z) = 0.39373 0.14927
#
# Static dielectric constant tensor:
#      x y z
#    x 3.819980 0.000000 0.000000 
#    y 0.000000 3.371560 0.000000 
#    z 0.000000 0.000000 3.665690 
# 
# 
# High freq. dielectric constant tensor:
#      x y z
#    x 1.778090 0.000000 0.000000 
#    y 0.000000 1.742350 0.000000 
#    z 0.000000 0.000000 1.752920 
# 
# From -- ./inp_files/22990.got.cif
#   From: 2010.03.12/outbox.cif.g09.slc.cpg/sg38_12_cif.got.tgz:22990.got - 2010.04.14 02:38:36.
