data_PCOD8179310
_publ_section_title
;
Structure prediction by ZEFSAII (Michael W. Deem and Ramdas Pophale) SiO2 
 PCOD8179310
Probable space group: A M M 2
;
_chemical_formula_sum "Si O2"
_cell_formula_units_Z 64
_cell_length_a 8.691923
_cell_length_b 28.856789
_cell_length_c 12.617236
_cell_angle_alpha 90.000000
_cell_angle_beta 90.000000
_cell_angle_gamma 90.000000
_cell_volume 3164.667600
_symmetry_space_group_name_H-M "A M M 2"
_symmetry_group_IT_number 38
_symmetry_cell_setting 'orthorhombic'
loop_
_space_group_symop_operation_xyz
x,y,z
-x,-y,z
-x,y,z
x,-y,z
x,1/2+y,1/2+z
-x,1/2-y,1/2+z
-x,1/2+y,1/2+z
x,1/2-y,1/2+z
loop_
_atom_site_type_symbol
_atom_site_label
_atom_site_fract_x
_atom_site_fract_y
_atom_site_fract_z
Si Si1 0.674141 0.702610 0.018640
Si Si2 0.183723 0.606661 0.954021
Si Si3 0.679099 0.613099 0.555898
Si Si4 0.182599 0.053169 0.245255
Si Si5 0.823732 0.949667 0.891621
Si Si6 0.180088 0.202745 0.963663
Si Si7 0.327204 0.172524 0.754939
Si Si8 0.176714 0.417389 0.177731
O O1 0.500000 0.710739 0.976466
O O2 0.672098 0.699138 0.144726
O O3 0.742175 0.657732 0.958218
O O4 0.784632 0.745699 0.000671
O O5 0.242696 0.577469 0.853279
O O6 0.000000 0.611935 0.949870
O O7 0.247529 0.578617 0.059171
O O8 0.500000 0.615420 0.581284
O O9 0.761205 0.584347 0.648243
O O10 0.709109 0.586627 0.445306
O O11 0.742523 0.665223 0.543006
O O12 0.000000 0.052143 0.242997
O O13 0.245321 0.000000 0.239039
O O14 0.789471 0.957129 0.764680
O O15 0.000000 0.932462 0.907226
O O16 0.800899 0.000000 0.945062
O O17 0.244787 0.202057 0.844944
O O18 0.000000 0.193239 0.964800
O O19 0.500000 0.160878 0.792232
O O20 0.231377 0.126482 0.742878
O O21 0.000000 0.411862 0.152252
#
# Coordination Sequence:
#
# PCOD8179310 Si02
#       8
#     8   8   8   8   8   8   8   8
#     4  10  22  39  60  89 123 160 200 247 306 368
#     4   9  19  37  61  89 121 159 205 252 301 359
#     4  12  25  40  59  84 117 157 205 257 310 368
#     4  10  22  41  64  89 123 168 215 263 313 368
#     4  10  20  34  55  85 119 153 190 236 293 355
#     4  12  24  39  62  88 117 156 203 253 308 368
#     4  10  20  36  58  83 115 152 188 236 295 355
#     4   9  17  32  56  84 115 152 191 236 291 351
#
# _framework density 20.223293999999999
#
# number of rings (size 3 to 8) (size 9 to 14) (size 15 to 20)
#    0.000    1.750    1.250    3.375    0.000    5.500 
#    0.000    2.500    0.000    0.000    0.000    5.250 
#    0.000    0.000    0.000    0.000    0.000    0.000 
#
# Total GULP energy -396543.817419 kJ/mol
# GULP energy per Si atom -12391.994294 kJ/mol
# Density = 2.017727 g / cm^3
# Si number density = 20.223294 Si / 1000 Ang^3
#
#
#
# Elastic Constant Matrix: (Units=GPa)
#
#
# Indices 1 2 3 4 5 6 
#
# 1 78.6554 28.8891 17.0675 0.0000 0.0000 0.0000
# 2 28.8891 107.2942 47.0336 0.0000 0.0000 0.0000
# 3 17.0675 47.0336 112.0939 0.0000 0.0000 0.0000
# 4 0.0000 0.0000 0.0000 27.0434 0.0000 0.0000
# 5 0.0000 0.0000 0.0000 0.0000 22.5168 0.0000
# 6 0.0000 0.0000 0.0000 0.0000 0.0000 -12.2625
#
#
#
# Elastic Compliance Matrix: (Units=1/GPa)
#
#
# Indices 1 2 3 4 5 6 
#
# 1 0.014151 -0.003512 -0.000681 0.000000 0.000000 0.000000
# 2 -0.003512 0.012292 -0.004623 0.000000 0.000000 0.000000
# 3 -0.000681 -0.004623 0.010965 0.000000 0.000000 0.000000
# 4 0.000000 0.000000 0.000000 0.036978 0.000000 0.000000
# 5 0.000000 0.000000 0.000000 0.000000 0.044411 0.000000
# 6 0.000000 0.000000 0.000000 0.000000 0.000000 -0.081550
#
#
# Mechanical properties :
#
#
# Convention : Reuss Voigt Hill
#
# Bulk Modulus (GPa) = 50.56549 53.78043 52.17296
# Shear Modulus (GPa) = 81.33884 21.12978 51.23431
#
# Velocity S-wave (km/s) = 6.34883 3.23588 5.03878
# Velocity P-wave (km/s) = 8.87702 6.37278 7.72702
#
# Compressibility (1/GPa) = 0.01977633
#
# Stress axis : x y z
#
# Youngs Moduli (GPa) = 70.66501 81.35229 91.20267
#
# Poissons Ratio (x) = 0.28568 0.06213
# Poissons Ratio (y) = 0.24815 0.42163
# Poissons Ratio (z) = 0.04814 0.37609
#
# Static dielectric constant tensor:
#      x y z
#    x 3.634390 0.000000 0.000000 
#    y 0.000000 3.604190 0.000000 
#    z 0.000000 0.000000 3.885530 
# 
# 
# High freq. dielectric constant tensor:
#      x y z
#    x 1.781510 0.000000 0.000000 
#    y 0.000000 1.787270 0.000000 
#    z 0.000000 0.000000 1.800480 
# 
# From -- ./inp_files/8609.got.cif
#   From: 2010.03.12/outbox.cif.g09.slc.cpg/sg38_5_cif.got.tgz:8609.got - 2010.04.14 02:38:36.
