data_PCOD8179672
_publ_section_title
;
Structure prediction by ZEFSAII (Michael W. Deem and Ramdas Pophale) SiO2 
 PCOD8179672
Probable space group: A M M 2
;
_chemical_formula_sum "Si O2"
_cell_formula_units_Z 38
_cell_length_a 11.006621
_cell_length_b 11.722979
_cell_length_c 15.169550
_cell_angle_alpha 90.000000
_cell_angle_beta 90.000000
_cell_angle_gamma 90.000000
_cell_volume 1957.332905
_symmetry_space_group_name_H-M "A M M 2"
_symmetry_group_IT_number 38
_symmetry_cell_setting 'orthorhombic'
loop_
_space_group_symop_operation_xyz
x,y,z
-x,-y,z
-x,y,z
x,-y,z
x,1/2+y,1/2+z
-x,1/2-y,1/2+z
-x,1/2+y,1/2+z
x,1/2-y,1/2+z
loop_
_atom_site_type_symbol
_atom_site_label
_atom_site_fract_x
_atom_site_fract_y
_atom_site_fract_z
Si Si1 0.500000 0.375142 0.623840
Si Si2 0.142401 0.273668 0.434665
Si Si3 0.752143 0.500000 0.360571
Si Si4 0.352722 0.500000 0.170178
Si Si5 0.857254 0.372028 0.772368
Si Si6 0.735327 0.240321 0.621507
Si Si7 0.500000 0.500000 0.456962
O O1 0.500000 0.500000 0.669441
O O2 0.618375 0.309491 0.653601
O O3 0.500000 0.386563 0.517405
O O4 0.167674 0.392912 0.387784
O O5 0.188253 0.175079 0.367456
O O6 0.216269 0.270566 0.525261
O O7 0.000000 0.261746 0.456058
O O8 0.725111 0.500000 0.258273
O O9 0.619371 0.500000 0.400578
O O10 0.500000 0.500000 0.181486
O O11 0.304001 0.390975 0.117512
O O12 0.802702 0.500000 0.755393
O O13 0.830923 0.280052 0.695330
O O14 0.000000 0.381881 0.776824
#
# Coordination Sequence:
#
# PCOD8179672 Si02
#       7
#     4   8   4   4   8   8   2
#     4  10  20  36  62  94 119 156 211 261 305 372
#     4  11  24  41  63  92 126 169 212 261 318 385
#     4  12  21  42  65  93 127 164 217 269 320 383
#     4  12  26  41  65  96 133 172 213 271 330 379
#     4  10  23  42  62  89 124 162 209 260 315 380
#     4  12  23  42  64  91 127 167 211 261 317 382
#     4  10  20  36  64  94 118 164 208 266 318 360
#
# _framework density 19.414173999999999
#
# number of rings (size 3 to 8) (size 9 to 14) (size 15 to 20)
#    0.316    0.632    5.789    1.579    2.947    0.000 
#    0.000    2.632    0.000    0.000    0.000    0.000 
#    0.000    0.000    0.000    0.000    0.000    0.000 
#
# Total GULP energy -235487.040973 kJ/mol
# GULP energy per Si atom -12394.054788 kJ/mol
# Density = 1.936999 g / cm^3
# Si number density = 19.414174 Si / 1000 Ang^3
#
#
#
# Elastic Constant Matrix: (Units=GPa)
#
#
# Indices 1 2 3 4 5 6 
#
# 1 41.4230 26.1870 17.7435 0.0000 0.0000 0.0000
# 2 26.1870 135.0168 17.2435 0.0000 0.0000 0.0000
# 3 17.7435 17.2435 81.0942 0.0000 0.0000 0.0000
# 4 0.0000 0.0000 0.0000 36.9727 0.0000 0.0000
# 5 0.0000 0.0000 0.0000 0.0000 14.3594 0.0000
# 6 0.0000 0.0000 0.0000 0.0000 0.0000 39.2367
#
#
#
# Elastic Compliance Matrix: (Units=1/GPa)
#
#
# Indices 1 2 3 4 5 6 
#
# 1 0.029660 -0.005061 -0.005413 0.000000 0.000000 0.000000
# 2 -0.005061 0.008477 -0.000695 0.000000 0.000000 0.000000
# 3 -0.005413 -0.000695 0.013664 0.000000 0.000000 0.000000
# 4 0.000000 0.000000 0.000000 0.027047 0.000000 0.000000
# 5 0.000000 0.000000 0.000000 0.000000 0.069641 0.000000
# 6 0.000000 0.000000 0.000000 0.000000 0.000000 0.025486
#
#
# Mechanical properties :
#
#
# Convention : Reuss Voigt Hill
#
# Bulk Modulus (GPa) = 33.94347 42.20911 38.07629
# Shear Modulus (GPa) = 24.25609 31.20443 27.73026
#
# Velocity S-wave (km/s) = 3.53852 4.01347 3.78345
# Velocity P-wave (km/s) = 5.84950 6.57767 6.22425
#
# Compressibility (1/GPa) = 0.02946075
#
# Stress axis : x y z
#
# Youngs Moduli (GPa) = 33.71589 117.96757 73.18719
#
# Poissons Ratio (x) = 0.59706 0.39619
# Poissons Ratio (y) = 0.17064 0.05087
# Poissons Ratio (z) = 0.18252 0.08200
#
# Static dielectric constant tensor:
#      x y z
#    x 3.457130 0.000000 0.000000 
#    y 0.000000 3.872400 0.000000 
#    z 0.000000 0.000000 3.445460 
# 
# 
# High freq. dielectric constant tensor:
#      x y z
#    x 1.758620 0.000000 0.000000 
#    y 0.000000 1.766210 0.000000 
#    z 0.000000 0.000000 1.753410 
# 
# From -- ./inp_files/13560.got.cif
#   From: 2010.03.12/outbox.cif.g09.slc.cpg/sg38_7_cif.got.tgz:13560.got - 2010.04.14 02:38:36.
