data_PCOD8179630
_publ_section_title
;
Structure prediction by ZEFSAII (Michael W. Deem and Ramdas Pophale) SiO2 
 PCOD8179630
Probable space group: A M M 2
;
_chemical_formula_sum "Si O2"
_cell_formula_units_Z 64
_cell_length_a 20.512606
_cell_length_b 15.992821
_cell_length_c 9.596740
_cell_angle_alpha 90.000000
_cell_angle_beta 90.000000
_cell_angle_gamma 90.000000
_cell_volume 3148.253128
_symmetry_space_group_name_H-M "A M M 2"
_symmetry_group_IT_number 38
_symmetry_cell_setting 'orthorhombic'
loop_
_space_group_symop_operation_xyz
x,y,z
-x,-y,z
-x,y,z
x,-y,z
x,1/2+y,1/2+z
-x,1/2-y,1/2+z
-x,1/2+y,1/2+z
x,1/2-y,1/2+z
loop_
_atom_site_type_symbol
_atom_site_label
_atom_site_fract_x
_atom_site_fract_y
_atom_site_fract_z
Si Si1 0.424232 0.905712 0.012080
Si Si2 0.255928 0.738243 0.199634
Si Si3 0.925715 0.335329 0.372406
Si Si4 0.424335 0.405419 0.838168
Si Si5 0.345083 0.751187 0.449107
Si Si6 0.878644 0.683436 0.682723
Si Si7 0.837185 0.093146 0.667091
Si Si8 0.927758 0.404149 0.925820
O O1 0.500000 0.896539 0.976102
O O2 0.411863 0.890881 0.175182
O O3 0.400686 0.000000 0.970734
O O4 0.386711 0.833913 0.924857
O O5 0.280120 0.751289 0.356406
O O6 0.199066 0.805165 0.165929
O O7 0.228846 0.644859 0.181932
O O8 0.319682 0.750249 0.106482
O O9 0.912974 0.320359 0.534556
O O10 0.909110 0.253353 0.283890
O O11 0.878752 0.407469 0.310998
O O12 0.000000 0.362818 0.350810
O O13 0.500000 0.394943 0.874104
O O14 0.401628 0.500000 0.878982
O O15 0.386262 0.335509 0.925756
O O16 0.894971 0.600579 0.772253
O O17 0.881226 0.136328 0.544808
O O18 0.815813 0.000000 0.627888
O O19 0.935606 0.500000 0.966667
O O20 0.000000 0.361470 0.929603
#
# Coordination Sequence:
#
# PCOD8179630 Si02
#       8
#     8   8   8   8   8   8   8   8
#     4   9  19  38  63  92 126 161 198 245 305 362
#     4  11  24  37  57  81 117 158 201 238 283 353
#     4  11  21  34  59  83 104 140 187 243 300 360
#     4   9  19  38  64  94 125 156 197 250 306 359
#     4  12  21  39  61  92 120 162 210 248 291 352
#     4  11  22  39  53  80 114 146 186 238 296 347
#     4  10  22  40  56  78 115 155 189 237 303 362
#     4  10  20  36  60  84 108 142 188 244 306 368
#
# _framework density 20.328735000000002
#
# number of rings (size 3 to 8) (size 9 to 14) (size 15 to 20)
#    0.000    1.625    1.250    6.375    0.000    2.250 
#    0.000    1.250    0.000    1.500    0.000    0.000 
#    0.000    0.000    0.000    0.000    0.000    0.000 
#
# Total GULP energy -396718.766817 kJ/mol
# GULP energy per Si atom -12397.461463 kJ/mol
# Density = 2.028247 g / cm^3
# Si number density = 20.328735 Si / 1000 Ang^3
#
#
#
# Elastic Constant Matrix: (Units=GPa)
#
#
# Indices 1 2 3 4 5 6 
#
# 1 98.2267 45.9580 19.8466 0.0000 0.0000 0.0000
# 2 45.9580 93.5318 14.5194 0.0000 0.0000 0.0000
# 3 19.8466 14.5194 90.0622 0.0000 0.0000 0.0000
# 4 0.0000 0.0000 0.0000 26.6895 0.0000 0.0000
# 5 0.0000 0.0000 0.0000 0.0000 27.9341 0.0000
# 6 0.0000 0.0000 0.0000 0.0000 0.0000 28.4270
#
#
#
# Elastic Compliance Matrix: (Units=1/GPa)
#
#
# Indices 1 2 3 4 5 6 
#
# 1 0.013549 -0.006353 -0.001962 0.000000 0.000000 0.000000
# 2 -0.006353 0.013945 -0.000848 0.000000 0.000000 0.000000
# 3 -0.001962 -0.000848 0.011672 0.000000 0.000000 0.000000
# 4 0.000000 0.000000 0.000000 0.037468 0.000000 0.000000
# 5 0.000000 0.000000 0.000000 0.000000 0.035799 0.000000
# 6 0.000000 0.000000 0.000000 0.000000 0.000000 0.035178
#
#
# Mechanical properties :
#
#
# Convention : Reuss Voigt Hill
#
# Bulk Modulus (GPa) = 47.98234 49.16320 48.57277
# Shear Modulus (GPa) = 28.92118 30.04323 29.48221
#
# Velocity S-wave (km/s) = 3.77593 3.84848 3.81238
# Velocity P-wave (km/s) = 6.53182 6.63207 6.58213
#
# Compressibility (1/GPa) = 0.02084100
#
# Stress axis : x y z
#
# Youngs Moduli (GPa) = 73.80427 71.71083 85.67196
#
# Poissons Ratio (x) = 0.45559 0.16805
# Poissons Ratio (y) = 0.46889 0.07266
# Poissons Ratio (z) = 0.14477 0.06082
#
# Static dielectric constant tensor:
#      x y z
#    x 3.671560 0.000000 0.000000 
#    y 0.000000 3.766220 0.000000 
#    z 0.000000 0.000000 3.721610 
# 
# 
# High freq. dielectric constant tensor:
#      x y z
#    x 1.793060 0.000000 0.000000 
#    y 0.000000 1.791070 0.000000 
#    z 0.000000 0.000000 1.789770 
# 
# From -- ./inp_files/6814.got.cif
#   From: 2010.03.12/outbox.cif.g09.slc.cpg/sg38_4_cif.got.tgz:6814.got - 2010.04.14 02:38:36.
