data_PCOD8179012
_publ_section_title
;
Structure prediction by ZEFSAII (Michael W. Deem and Ramdas Pophale) SiO2 
 PCOD8179012
Probable space group: A M M 2
;
_chemical_formula_sum "Si O2"
_cell_formula_units_Z 40
_cell_length_a 9.101122
_cell_length_b 28.679058
_cell_length_c 9.217884
_cell_angle_alpha 90.000000
_cell_angle_beta 90.000000
_cell_angle_gamma 90.000000
_cell_volume 2405.974704
_symmetry_space_group_name_H-M "A M M 2"
_symmetry_group_IT_number 38
_symmetry_cell_setting 'orthorhombic'
loop_
_space_group_symop_operation_xyz
x,y,z
-x,-y,z
-x,y,z
x,-y,z
x,1/2+y,1/2+z
-x,1/2-y,1/2+z
-x,1/2+y,1/2+z
x,1/2-y,1/2+z
loop_
_atom_site_type_symbol
_atom_site_label
_atom_site_fract_x
_atom_site_fract_y
_atom_site_fract_z
Si Si1 0.169495 0.203939 0.378130
Si Si2 0.666278 0.627007 0.707292
Si Si3 0.826608 0.446162 0.547603
Si Si4 0.666277 0.373008 0.387857
Si Si5 0.830506 0.296077 0.217047
O O1 0.260968 0.159544 0.326975
O O2 0.228082 0.250012 0.297612
O O3 0.194026 0.211115 0.547591
O O4 0.000000 0.195056 0.338473
O O5 0.500000 0.615863 0.755864
O O6 0.756935 0.578308 0.691646
O O7 0.668695 0.651745 0.547564
O O8 0.782413 0.500000 0.547624
O O9 0.756940 0.421703 0.403538
O O10 0.000000 0.438588 0.547603
O O11 0.500000 0.384157 0.339294
O O12 0.739027 0.340477 0.268152
O O13 0.000000 0.304966 0.256692
#
# Coordination Sequence:
#
# PCOD8179012 Si02
#       5
#     8   8   8   8   8
#     4  10  20  33  51  74 101 138 178 215 256 303
#     4   9  19  32  49  75 104 135 168 207 256 306
#     4   9  17  31  55  81 103 131 169 215 260 305
#     4   9  19  32  49  75 104 135 168 207 256 306
#     4  10  20  33  51  74 101 138 178 215 256 303
#
# _framework density 16.625278999999999
#
# number of rings (size 3 to 8) (size 9 to 14) (size 15 to 20)
#    1.200    1.400    0.000    2.400    0.000    4.800 
#    0.000    0.000    0.000    1.200    0.000    8.400 
#    0.000    0.000    0.000    0.000    0.000    0.000 
#
# Total GULP energy -247861.423868 kJ/mol
# GULP energy per Si atom -12393.071193 kJ/mol
# Density = 1.658744 g / cm^3
# Si number density = 16.625279 Si / 1000 Ang^3
#
#
#
# Elastic Constant Matrix: (Units=GPa)
#
#
# Indices 1 2 3 4 5 6 
#
# 1 107.2309 73.0355 37.1384 0.0000 0.0000 0.0000
# 2 73.0355 136.3542 44.3781 0.0000 0.0000 0.0000
# 3 37.1384 44.3781 60.1432 0.0000 0.0000 0.0000
# 4 0.0000 0.0000 0.0000 27.0657 0.0000 0.0000
# 5 0.0000 0.0000 0.0000 0.0000 21.5815 0.0000
# 6 0.0000 0.0000 0.0000 0.0000 0.0000 9.0344
#
#
#
# Elastic Compliance Matrix: (Units=1/GPa)
#
#
# Indices 1 2 3 4 5 6 
#
# 1 0.015576 -0.006860 -0.004556 0.000000 0.000000 0.000000
# 2 -0.006860 0.012673 -0.005115 0.000000 0.000000 0.000000
# 3 -0.004556 -0.005115 0.023215 0.000000 0.000000 0.000000
# 4 0.000000 0.000000 0.000000 0.036947 0.000000 0.000000
# 5 0.000000 0.000000 0.000000 0.000000 0.046336 0.000000
# 6 0.000000 0.000000 0.000000 0.000000 0.000000 0.110687
#
#
# Mechanical properties :
#
#
# Convention : Reuss Voigt Hill
#
# Bulk Modulus (GPa) = 54.34483 68.09247 61.21865
# Shear Modulus (GPa) = 17.56658 21.48142 19.52400
#
# Velocity S-wave (km/s) = 3.25409 3.59847 3.43061
# Velocity P-wave (km/s) = 6.84674 7.63619 7.25222
#
# Compressibility (1/GPa) = 0.01840101
#
# Stress axis : x y z
#
# Youngs Moduli (GPa) = 64.20039 78.90721 43.07605
#
# Poissons Ratio (x) = 0.54132 0.19627
# Poissons Ratio (y) = 0.44043 0.22033
# Poissons Ratio (z) = 0.29252 0.40361
#
# Static dielectric constant tensor:
#      x y z
#    x 3.155760 0.000000 0.000000 
#    y 0.000000 2.947430 0.000000 
#    z 0.000000 0.000000 2.861680 
# 
# 
# High freq. dielectric constant tensor:
#      x y z
#    x 1.651530 0.000000 0.000000 
#    y 0.000000 1.625880 0.000000 
#    z 0.000000 0.000000 1.615500 
# 
# From -- ./inp_files/3460.got.cif
#   From: 2010.03.12/outbox.cif.g09.slc.cpg/sg38_2_cif.got.tgz:3460.got - 2010.04.14 02:38:36.
