data_PCOD8179144
_publ_section_title
;
Structure prediction by ZEFSAII (Michael W. Deem and Ramdas Pophale) SiO2 
 PCOD8179144
Probable space group: A M M 2
;
_chemical_formula_sum "Si O2"
_cell_formula_units_Z 48
_cell_length_a 7.722500
_cell_length_b 9.363443
_cell_length_c 34.551948
_cell_angle_alpha 90.000000
_cell_angle_beta 90.000000
_cell_angle_gamma 90.000000
_cell_volume 2498.423323
_symmetry_space_group_name_H-M "A M M 2"
_symmetry_group_IT_number 38
_symmetry_cell_setting 'orthorhombic'
loop_
_space_group_symop_operation_xyz
x,y,z
-x,-y,z
-x,y,z
x,-y,z
x,1/2+y,1/2+z
-x,1/2-y,1/2+z
-x,1/2+y,1/2+z
x,1/2-y,1/2+z
loop_
_atom_site_type_symbol
_atom_site_label
_atom_site_fract_x
_atom_site_fract_y
_atom_site_fract_z
Si Si1 0.205482 0.836295 0.783080
Si Si2 0.296231 0.159208 0.127543
Si Si3 0.000000 0.830823 0.411603
Si Si4 0.000000 0.669352 0.997728
Si Si5 0.201663 0.158906 0.211100
Si Si6 0.698714 0.832081 0.553722
Si Si7 0.694409 0.336158 0.856975
O O1 0.278465 0.762626 0.743976
O O2 0.293560 0.758475 0.818904
O O3 0.000000 0.822530 0.786769
O O4 0.265363 0.000000 0.782538
O O5 0.500000 0.151955 0.126215
O O6 0.238044 0.225128 0.168713
O O7 0.230664 0.258702 0.092819
O O8 0.216508 0.000000 0.122757
O O9 0.000000 0.763424 0.454648
O O10 0.171823 0.778253 0.389176
O O11 0.000000 0.000000 0.415050
O O12 0.000000 0.500000 0.995362
O O13 0.824831 0.720363 0.019349
O O14 0.000000 0.146240 0.218320
O O15 0.286255 0.000000 0.214070
O O16 0.500000 0.788542 0.543722
O O17 0.713662 0.000000 0.560476
O O18 0.500000 0.324227 0.873963
O O19 0.739384 0.500000 0.846053
#
# Coordination Sequence:
#
# PCOD8179144 Si02
#       7
#     8   8   4   4   8   8   8
#     4  10  20  34  52  75 106 143 178 216 264 313
#     4   9  18  32  49  70  99 135 173 215 259 300
#     4   9  18  34  55  80 109 132 165 218 261 305
#     4   9  18  32  53  80 105 134 167 206 259 309
#     4   9  18  31  48  71 100 136 176 218 260 301
#     4   9  18  32  50  74 104 136 170 209 254 305
#     4  10  20  34  56  82 105 137 177 215 261 313
#
# _framework density 19.212116000000002
#
# number of rings (size 3 to 8) (size 9 to 14) (size 15 to 20)
#    0.000    2.667    0.833    0.500    1.167    3.000 
#    0.000    5.000    0.000    2.000    0.000    2.333 
#    0.000    0.000    0.000    0.000    0.000    0.000 
#
# Total GULP energy -297538.288068 kJ/mol
# GULP energy per Si atom -12397.428670 kJ/mol
# Density = 1.916839 g / cm^3
# Si number density = 19.212116 Si / 1000 Ang^3
#
#
#
# Elastic Constant Matrix: (Units=GPa)
#
#
# Indices 1 2 3 4 5 6 
#
# 1 85.2309 29.7148 63.6892 0.0000 0.0000 0.0000
# 2 29.7148 64.1405 56.6986 0.0000 0.0000 0.0000
# 3 63.6892 56.6986 183.6832 0.0000 0.0000 0.0000
# 4 0.0000 0.0000 0.0000 20.9794 0.0000 0.0000
# 5 0.0000 0.0000 0.0000 0.0000 14.2494 0.0000
# 6 0.0000 0.0000 0.0000 0.0000 0.0000 15.0043
#
#
#
# Elastic Compliance Matrix: (Units=1/GPa)
#
#
# Indices 1 2 3 4 5 6 
#
# 1 0.016399 -0.003536 -0.004595 0.000000 0.000000 0.000000
# 2 -0.003536 0.022204 -0.005628 0.000000 0.000000 0.000000
# 3 -0.004595 -0.005628 0.008774 0.000000 0.000000 0.000000
# 4 0.000000 0.000000 0.000000 0.047666 0.000000 0.000000
# 5 0.000000 0.000000 0.000000 0.000000 0.070179 0.000000
# 6 0.000000 0.000000 0.000000 0.000000 0.000000 0.066648
#
#
# Mechanical properties :
#
#
# Convention : Reuss Voigt Hill
#
# Bulk Modulus (GPa) = 50.35073 70.36221 60.35647
# Shear Modulus (GPa) = 18.79661 22.24341 20.52001
#
# Velocity S-wave (km/s) = 3.13129 3.40631 3.27169
# Velocity P-wave (km/s) = 6.27200 7.22315 6.76432
#
# Compressibility (1/GPa) = 0.01986069
#
# Stress axis : x y z
#
# Youngs Moduli (GPa) = 60.97973 45.03782 113.96733
#
# Poissons Ratio (x) = 0.15924 0.52364
# Poissons Ratio (y) = 0.21560 0.64138
# Poissons Ratio (z) = 0.28018 0.25346
#
# Static dielectric constant tensor:
#      x y z
#    x 3.502820 0.000000 0.000000 
#    y 0.000000 3.471830 0.000000 
#    z 0.000000 0.000000 3.708280 
# 
# 
# High freq. dielectric constant tensor:
#      x y z
#    x 1.748200 0.000000 0.000000 
#    y 0.000000 1.717280 0.000000 
#    z 0.000000 0.000000 1.745480 
# 
# From -- ./inp_files/24322.got.cif
#   From: 2010.03.12/outbox.cif.g09.slc.cpg/sg38_13_cif.got.tgz:24322.got - 2010.04.14 02:38:36.
