data_PCOD8179422
_publ_section_title
;
Structure prediction by ZEFSAII (Michael W. Deem and Ramdas Pophale) SiO2 
 PCOD8179422
Probable space group: A M M 2
;
_chemical_formula_sum "Si O2"
_cell_formula_units_Z 40
_cell_length_a 17.045105
_cell_length_b 12.785491
_cell_length_c 8.693461
_cell_angle_alpha 90.000000
_cell_angle_beta 90.000000
_cell_angle_gamma 90.000000
_cell_volume 1894.566274
_symmetry_space_group_name_H-M "A M M 2"
_symmetry_group_IT_number 38
_symmetry_cell_setting 'orthorhombic'
loop_
_space_group_symop_operation_xyz
x,y,z
-x,-y,z
-x,y,z
x,-y,z
x,1/2+y,1/2+z
-x,1/2-y,1/2+z
-x,1/2+y,1/2+z
x,1/2-y,1/2+z
loop_
_atom_site_type_symbol
_atom_site_label
_atom_site_fract_x
_atom_site_fract_y
_atom_site_fract_z
Si Si1 0.265274 0.881232 0.889020
Si Si2 0.179946 0.249011 0.632417
Si Si3 0.408254 0.613527 0.891826
Si Si4 0.592157 0.184769 0.724814
Si Si5 0.092401 0.879416 0.378741
O O1 0.221354 0.834420 0.741533
O O2 0.358717 0.880450 0.851034
O O3 0.237771 0.000000 0.917477
O O4 0.246172 0.810834 0.036640
O O5 0.120932 0.185628 0.524934
O O6 0.130714 0.335027 0.724247
O O7 0.500000 0.599805 0.908944
O O8 0.369315 0.500000 0.857254
O O9 0.387871 0.692444 0.754092
O O10 0.377559 0.657158 0.054835
O O11 0.500000 0.161040 0.751654
O O12 0.000000 0.866730 0.364558
O O13 0.117254 0.000000 0.398106
#
# Coordination Sequence:
#
# PCOD8179422 Si02
#       5
#     8   8   8   8   8
#     4  11  22  37  56  78 111 151 185 227 280 326
#     4  10  22  38  56  84 116 146 182 222 268 330
#     4   9  18  34  53  73 101 133 170 227 287 329
#     4  10  20  35  56  80 105 141 192 238 277 325
#     4  10  20  37  62  88 114 145 180 220 266 320
#
# _framework density 21.113011
#
# number of rings (size 3 to 8) (size 9 to 14) (size 15 to 20)
#    0.000    2.000    0.000    3.600    0.000    1.200 
#    0.000    9.000    0.000   21.600    0.000    0.000 
#    0.000    0.000    0.000    0.000    0.000    0.000 
#
# Total GULP energy -247968.988918 kJ/mol
# GULP energy per Si atom -12398.449446 kJ/mol
# Density = 2.106496 g / cm^3
# Si number density = 21.113011 Si / 1000 Ang^3
#
#
#
# Elastic Constant Matrix: (Units=GPa)
#
#
# Indices 1 2 3 4 5 6 
#
# 1 64.3027 12.1501 7.3580 0.0000 0.0000 0.0000
# 2 12.1501 126.3345 23.4682 0.0000 0.0000 0.0000
# 3 7.3580 23.4682 59.7917 0.0000 0.0000 0.0000
# 4 0.0000 0.0000 0.0000 29.4657 0.0000 0.0000
# 5 0.0000 0.0000 0.0000 0.0000 22.1933 0.0000
# 6 0.0000 0.0000 0.0000 0.0000 0.0000 27.2795
#
#
#
# Elastic Compliance Matrix: (Units=1/GPa)
#
#
# Indices 1 2 3 4 5 6 
#
# 1 0.015958 -0.001262 -0.001468 0.000000 0.000000 0.000000
# 2 -0.001262 0.008638 -0.003235 0.000000 0.000000 0.000000
# 3 -0.001468 -0.003235 0.018175 0.000000 0.000000 0.000000
# 4 0.000000 0.000000 0.000000 0.033938 0.000000 0.000000
# 5 0.000000 0.000000 0.000000 0.000000 0.045059 0.000000
# 6 0.000000 0.000000 0.000000 0.000000 0.000000 0.036658
#
#
# Mechanical properties :
#
#
# Convention : Reuss Voigt Hill
#
# Bulk Modulus (GPa) = 32.42542 37.37572 34.90057
# Shear Modulus (GPa) = 27.68001 29.61787 28.64894
#
# Velocity S-wave (km/s) = 3.62476 3.74949 3.68765
# Velocity P-wave (km/s) = 5.73671 6.04037 5.89050
#
# Compressibility (1/GPa) = 0.03084000
#
# Stress axis : x y z
#
# Youngs Moduli (GPa) = 62.66477 115.77010 55.02007
#
# Poissons Ratio (x) = 0.14610 0.08080
# Poissons Ratio (y) = 0.07908 0.17799
# Poissons Ratio (z) = 0.09202 0.37452
#
# Static dielectric constant tensor:
#      x y z
#    x 3.737250 0.000000 0.000000 
#    y 0.000000 4.249710 0.000000 
#    z 0.000000 0.000000 3.826980 
# 
# 
# High freq. dielectric constant tensor:
#      x y z
#    x 1.819130 0.000000 0.000000 
#    y 0.000000 1.838940 0.000000 
#    z 0.000000 0.000000 1.828420 
# 
# From -- ./inp_files/5237.got.cif
#   From: 2010.03.12/outbox.cif.g09.slc.cpg/sg38_3_cif.got.tgz:5237.got - 2010.04.14 02:38:36.
