data_PCOD8179131
_publ_section_title
;
Structure prediction by ZEFSAII (Michael W. Deem and Ramdas Pophale) SiO2 
 PCOD8179131
Probable space group: A M M 2
;
_chemical_formula_sum "Si O2"
_cell_formula_units_Z 64
_cell_length_a 33.905203
_cell_length_b 11.222905
_cell_length_c 8.735348
_cell_angle_alpha 90.000000
_cell_angle_beta 90.000000
_cell_angle_gamma 90.000000
_cell_volume 3323.929828
_symmetry_space_group_name_H-M "A M M 2"
_symmetry_group_IT_number 38
_symmetry_cell_setting 'orthorhombic'
loop_
_space_group_symop_operation_xyz
x,y,z
-x,-y,z
-x,y,z
x,-y,z
x,1/2+y,1/2+z
-x,1/2-y,1/2+z
-x,1/2+y,1/2+z
x,1/2-y,1/2+z
loop_
_atom_site_type_symbol
_atom_site_label
_atom_site_fract_x
_atom_site_fract_y
_atom_site_fract_z
Si Si1 0.594458 0.784102 0.545070
Si Si2 0.645075 0.865566 0.274726
Si Si3 0.045346 0.133606 0.154285
Si Si4 0.167593 0.368339 0.327827
Si Si5 0.216622 0.286205 0.054352
Si Si6 0.922136 0.362883 0.324828
Si Si7 0.267146 0.365629 0.781624
Si Si8 0.455931 0.866016 0.815558
O O1 0.620116 0.863818 0.430957
O O2 0.624610 0.703738 0.638353
O O3 0.569393 0.864664 0.660200
O O4 0.563573 0.707019 0.450811
O O5 0.688858 0.811649 0.303608
O O6 0.648216 0.000000 0.218248
O O7 0.053232 0.251250 0.257005
O O8 0.000000 0.140068 0.102695
O O9 0.052936 0.000000 0.231048
O O10 0.072754 0.142179 0.006362
O O11 0.168720 0.500000 0.398558
O O12 0.193771 0.368717 0.174185
O O13 0.183744 0.281961 0.457241
O O14 0.123046 0.333956 0.284254
O O15 0.245014 0.198607 0.144949
O O16 0.243744 0.362353 0.941371
O O17 0.933642 0.500000 0.267999
O O18 0.270540 0.500000 0.727138
O O19 0.500000 0.816079 0.783969
O O20 0.458068 0.000000 0.875020
#
# Coordination Sequence:
#
# PCOD8179131 Si02
#       8
#     8   8   8   8   8   8   8   8
#     4  10  20  34  52  74 100 131 166 205 250 298
#     4  10  20  34  52  74 101 132 167 207 250 298
#     4  10  21  37  56  80 110 142 178 221 267 316
#     4  10  20  35  54  77 105 136 172 214 258 306
#     4  10  20  34  53  76 103 135 170 209 255 304
#     4  10  21  37  57  81 109 142 180 221 266 317
#     4  10  20  34  52  75 102 133 169 208 251 300
#     4  10  20  34  52  74 100 130 165 205 249 298
#
# _framework density 19.254318999999999
#
# number of rings (size 3 to 8) (size 9 to 14) (size 15 to 20)
#    0.000    2.000    0.000    3.750    0.000    1.250 
#    0.000    3.125    0.000   18.000    0.000    0.000 
#    0.000    0.000    0.000    0.000    0.000    0.000 
#
# Total GULP energy -396624.311871 kJ/mol
# GULP energy per Si atom -12394.509746 kJ/mol
# Density = 1.921050 g / cm^3
# Si number density = 19.254319 Si / 1000 Ang^3
#
#
#
# Elastic Constant Matrix: (Units=GPa)
#
#
# Indices 1 2 3 4 5 6 
#
# 1 103.1627 35.3336 13.5083 0.0000 0.0000 0.0000
# 2 35.3336 96.8490 24.3109 0.0000 0.0000 0.0000
# 3 13.5083 24.3109 51.7605 0.0000 0.0000 0.0000
# 4 0.0000 0.0000 0.0000 9.9710 0.0000 0.0000
# 5 0.0000 0.0000 0.0000 0.0000 15.3121 0.0000
# 6 0.0000 0.0000 0.0000 0.0000 0.0000 29.9604
#
#
#
# Elastic Compliance Matrix: (Units=1/GPa)
#
#
# Indices 1 2 3 4 5 6 
#
# 1 0.011136 -0.003779 -0.001131 0.000000 0.000000 0.000000
# 2 -0.003779 0.012988 -0.005114 0.000000 0.000000 0.000000
# 3 -0.001131 -0.005114 0.022017 0.000000 0.000000 0.000000
# 4 0.000000 0.000000 0.000000 0.100291 0.000000 0.000000
# 5 0.000000 0.000000 0.000000 0.000000 0.065308 0.000000
# 6 0.000000 0.000000 0.000000 0.000000 0.000000 0.033377
#
#
# Mechanical properties :
#
#
# Convention : Reuss Voigt Hill
#
# Bulk Modulus (GPa) = 38.32537 44.23086 41.27812
# Shear Modulus (GPa) = 18.25735 22.95665 20.60700
#
# Velocity S-wave (km/s) = 3.08266 3.45669 3.27502
# Velocity P-wave (km/s) = 5.71125 6.24127 5.98213
#
# Compressibility (1/GPa) = 0.02609237
#
# Stress axis : x y z
#
# Youngs Moduli (GPa) = 89.80060 76.99650 45.41961
#
# Poissons Ratio (x) = 0.29094 0.05139
# Poissons Ratio (y) = 0.33933 0.23227
# Poissons Ratio (z) = 0.10160 0.39375
#
# Static dielectric constant tensor:
#      x y z
#    x 3.759340 0.000000 0.000000 
#    y 0.000000 3.490080 0.000000 
#    z 0.000000 0.000000 3.350940 
# 
# 
# High freq. dielectric constant tensor:
#      x y z
#    x 1.767310 0.000000 0.000000 
#    y 0.000000 1.750510 0.000000 
#    z 0.000000 0.000000 1.740980 
# 
# From -- ./inp_files/7046.got.cif
#   From: 2010.03.12/outbox.cif.g09.slc.cpg/sg38_4_cif.got.tgz:7046.got - 2010.04.14 02:38:36.
