data_PCOD8179783
_publ_section_title
;
Structure prediction by ZEFSAII (Michael W. Deem and Ramdas Pophale) SiO2 
 PCOD8179783
Probable space group: A M M 2
;
_chemical_formula_sum "Si O2"
_cell_formula_units_Z 48
_cell_length_a 8.447527
_cell_length_b 10.050846
_cell_length_c 27.800812
_cell_angle_alpha 90.000000
_cell_angle_beta 90.000000
_cell_angle_gamma 90.000000
_cell_volume 2360.422187
_symmetry_space_group_name_H-M "A M M 2"
_symmetry_group_IT_number 38
_symmetry_cell_setting 'orthorhombic'
loop_
_space_group_symop_operation_xyz
x,y,z
-x,-y,z
-x,y,z
x,-y,z
x,1/2+y,1/2+z
-x,1/2-y,1/2+z
-x,1/2+y,1/2+z
x,1/2-y,1/2+z
loop_
_atom_site_type_symbol
_atom_site_label
_atom_site_fract_x
_atom_site_fract_y
_atom_site_fract_z
Si Si1 0.185506 0.653301 0.629540
Si Si2 0.687935 0.000000 0.472904
Si Si3 0.684492 0.153882 0.708870
Si Si4 0.185053 0.237064 0.809481
Si Si5 0.813801 0.000000 0.364634
Si Si6 0.312085 0.749740 0.031254
Si Si7 0.318028 0.000000 0.978302
Si Si8 0.316250 0.500000 0.366010
O O1 0.252031 0.500000 0.633118
O O2 0.223023 0.740002 0.676474
O O3 0.260226 0.737688 0.586272
O O4 0.000000 0.645557 0.622429
O O5 0.757471 0.123116 0.503237
O O6 0.500000 0.000000 0.472647
O O7 0.738987 0.000000 0.417454
O O8 0.500000 0.161920 0.696639
O O9 0.712775 0.201662 0.762988
O O10 0.743566 0.000000 0.702088
O O11 0.242050 0.374700 0.833057
O O12 0.222034 0.127746 0.849002
O O13 0.000000 0.239336 0.795961
O O14 0.000000 0.000000 0.372185
O O15 0.500000 0.743569 0.029553
O O16 0.237163 0.872087 0.001873
O O17 0.500000 0.000000 0.993883
O O18 0.298534 0.000000 0.922310
O O19 0.500000 0.500000 0.349273
#
# Coordination Sequence:
#
# PCOD8179783 Si02
#       8
#     8   4   8   8   4   8   4   4
#     4  11  25  43  64  93 127 164 205 252 310 376
#     4  10  22  38  61  92 125 164 210 257 307 360
#     4  11  25  44  67  95 123 157 206 259 311 374
#     4  11  23  41  63  90 126 166 205 254 312 368
#     4  10  24  42  61  90 129 170 211 253 306 370
#     4  10  20  38  61  88 123 162 206 256 305 359
#     4   9  18  33  58  85 116 159 202 251 305 351
#     4  11  21  37  62  93 124 159 207 257 304 367
#
# _framework density 20.335346000000001
#
# number of rings (size 3 to 8) (size 9 to 14) (size 15 to 20)
#    0.000    1.500    1.667    2.750    2.333    5.333 
#    0.000    1.667    0.000    0.000    0.000    0.000 
#    0.000    0.000    0.000    0.000    0.000    0.000 
#
# Total GULP energy -297556.602894 kJ/mol
# GULP energy per Si atom -12398.191787 kJ/mol
# Density = 2.028906 g / cm^3
# Si number density = 20.335346 Si / 1000 Ang^3
#
#
#
# Elastic Constant Matrix: (Units=GPa)
#
#
# Indices 1 2 3 4 5 6 
#
# 1 28.6738 22.7244 9.6029 0.0000 0.0000 0.0000
# 2 22.7244 174.4903 65.3059 0.0000 0.0000 0.0000
# 3 9.6029 65.3059 71.3990 0.0000 0.0000 0.0000
# 4 0.0000 0.0000 0.0000 58.1480 0.0000 0.0000
# 5 0.0000 0.0000 0.0000 0.0000 24.1371 0.0000
# 6 0.0000 0.0000 0.0000 0.0000 0.0000 3.0558
#
#
#
# Elastic Compliance Matrix: (Units=1/GPa)
#
#
# Indices 1 2 3 4 5 6 
#
# 1 0.038928 -0.004729 -0.000910 0.000000 0.000000 0.000000
# 2 -0.004729 0.009289 -0.007860 0.000000 0.000000 0.000000
# 3 -0.000910 -0.007860 0.021317 0.000000 0.000000 0.000000
# 4 0.000000 0.000000 0.000000 0.017197 0.000000 0.000000
# 5 0.000000 0.000000 0.000000 0.000000 0.041430 0.000000
# 6 0.000000 0.000000 0.000000 0.000000 0.000000 0.327241
#
#
# Mechanical properties :
#
#
# Convention : Reuss Voigt Hill
#
# Bulk Modulus (GPa) = 23.50979 52.20327 37.85653
# Shear Modulus (GPa) = 10.06889 28.86352 19.46621
#
# Velocity S-wave (km/s) = 2.22759 3.77155 3.09732
# Velocity P-wave (km/s) = 4.26642 6.68529 5.60783
#
# Compressibility (1/GPa) = 0.04253546
#
# Stress axis : x y z
#
# Youngs Moduli (GPa) = 25.68868 107.65975 46.91027
#
# Poissons Ratio (x) = 0.50912 0.04270
# Poissons Ratio (y) = 0.12148 0.36871
# Poissons Ratio (z) = 0.02338 0.84619
#
# Static dielectric constant tensor:
#      x y z
#    x 3.530560 0.000000 0.000000 
#    y 0.000000 4.182720 0.000000 
#    z 0.000000 0.000000 3.694280 
# 
# 
# High freq. dielectric constant tensor:
#      x y z
#    x 1.778920 0.000000 0.000000 
#    y 0.000000 1.815090 0.000000 
#    z 0.000000 0.000000 1.807180 
# 
# From -- ./inp_files/24496.got.cif
#   From: 2010.03.12/outbox.cif.g09.slc.cpg/sg38_13_cif.got.tgz:24496.got - 2010.04.14 02:38:36.
