data_PCOD8179771
_publ_section_title
;
Structure prediction by ZEFSAII (Michael W. Deem and Ramdas Pophale) SiO2 
 PCOD8179771
Probable space group: A M M 2
;
_chemical_formula_sum "Si O2"
_cell_formula_units_Z 40
_cell_length_a 8.884535
_cell_length_b 7.615336
_cell_length_c 29.494019
_cell_angle_alpha 90.000000
_cell_angle_beta 90.000000
_cell_angle_gamma 90.000000
_cell_volume 1995.527550
_symmetry_space_group_name_H-M "A M M 2"
_symmetry_group_IT_number 38
_symmetry_cell_setting 'orthorhombic'
loop_
_space_group_symop_operation_xyz
x,y,z
-x,-y,z
-x,y,z
x,-y,z
x,1/2+y,1/2+z
-x,1/2-y,1/2+z
-x,1/2+y,1/2+z
x,1/2-y,1/2+z
loop_
_atom_site_type_symbol
_atom_site_label
_atom_site_fract_x
_atom_site_fract_y
_atom_site_fract_z
Si Si1 0.667705 0.208095 0.962320
Si Si2 0.176890 0.703947 0.554193
Si Si3 0.169200 0.791721 0.873885
Si Si4 0.678565 0.500000 0.113512
Si Si5 0.177123 0.195232 0.276547
Si Si6 0.179644 0.000000 0.711250
O O1 0.500000 0.284192 0.969156
O O2 0.735962 0.285997 0.915878
O O3 0.663790 0.000000 0.958941
O O4 0.770041 0.266062 0.004549
O O5 0.218611 0.500000 0.563142
O O6 0.000000 0.735295 0.557972
O O7 0.259448 0.822584 0.591042
O O8 0.245366 0.729439 0.826655
O O9 0.000000 0.717595 0.878451
O O10 0.167604 0.000000 0.874966
O O11 0.500000 0.500000 0.110445
O O12 0.731876 0.500000 0.164859
O O13 0.236865 0.330488 0.239191
O O14 0.000000 0.224424 0.281287
O O15 0.219329 0.000000 0.259989
O O16 0.000000 0.000000 0.702799
#
# Coordination Sequence:
#
# PCOD8179771 Si02
#       6
#     8   8   8   4   8   4
#     4   9  17  30  51  81 117 157 193 231 289 353
#     4  10  21  40  65  90 117 153 201 253 297 347
#     4   9  15  27  49  76 108 149 192 235 283 338
#     4  12  26  42  62  90 122 158 196 244 309 374
#     4   9  17  31  54  82 109 141 187 242 294 339
#     4  10  20  38  60  82 110 146 194 250 297 348
#
# _framework density 20.044824999999999
#
# number of rings (size 3 to 8) (size 9 to 14) (size 15 to 20)
#    0.000    2.400    1.000    2.100    0.000    4.400 
#    1.800    3.000    0.000    1.200    0.000    0.000 
#    0.000    0.000    0.000    0.000    0.000    0.000 
#
# Total GULP energy -247969.298135 kJ/mol
# GULP energy per Si atom -12398.464907 kJ/mol
# Density = 1.999920 g / cm^3
# Si number density = 20.044825 Si / 1000 Ang^3
#
#
#
# Elastic Constant Matrix: (Units=GPa)
#
#
# Indices 1 2 3 4 5 6 
#
# 1 103.1493 42.0536 65.0548 0.0000 0.0000 0.0000
# 2 42.0536 101.3256 73.1507 0.0000 0.0000 0.0000
# 3 65.0548 73.1507 187.2098 0.0000 0.0000 0.0000
# 4 0.0000 0.0000 0.0000 -1.2768 0.0000 0.0000
# 5 0.0000 0.0000 0.0000 0.0000 6.0576 0.0000
# 6 0.0000 0.0000 0.0000 0.0000 0.0000 14.9630
#
#
#
# Elastic Compliance Matrix: (Units=1/GPa)
#
#
# Indices 1 2 3 4 5 6 
#
# 1 0.013031 -0.002980 -0.003364 0.000000 0.000000 0.000000
# 2 -0.002980 0.014428 -0.004602 0.000000 0.000000 0.000000
# 3 -0.003364 -0.004602 0.008309 0.000000 0.000000 0.000000
# 4 0.000000 0.000000 0.000000 -0.783204 0.000000 0.000000
# 5 0.000000 0.000000 0.000000 0.000000 0.165083 0.000000
# 6 0.000000 0.000000 0.000000 0.000000 0.000000 0.066831
#
#
# Mechanical properties :
#
#
# Convention : Reuss Voigt Hill
#
# Bulk Modulus (GPa) = 72.06521 83.57812 77.82167
# Shear Modulus (GPa) = -10.22487 18.04380 3.90946
#
# Velocity S-wave (km/s) = -2.26099 3.00354 1.39807
# Velocity P-wave (km/s) = 5.40500 7.33584 6.44315
#
# Compressibility (1/GPa) = 0.01387632
#
# Stress axis : x y z
#
# Youngs Moduli (GPa) = 76.73929 69.30730 120.35308
#
# Poissons Ratio (x) = 0.20652 0.40486
# Poissons Ratio (y) = 0.22867 0.55391
# Poissons Ratio (z) = 0.25815 0.31898
#
# Static dielectric constant tensor:
#      x y z
#    x 3.517350 0.000000 0.000000 
#    y 0.000000 3.633530 0.000000 
#    z 0.000000 0.000000 3.756960 
# 
# 
# High freq. dielectric constant tensor:
#      x y z
#    x 1.754870 0.000000 0.000000 
#    y 0.000000 1.778190 0.000000 
#    z 0.000000 0.000000 1.787820 
# 
# From -- ./inp_files/23233.got.cif
#   From: 2010.03.12/outbox.cif.g09.slc.cpg/sg38_12_cif.got.tgz:23233.got - 2010.04.14 02:38:36.
