data_PCOD8179676
_publ_section_title
;
Structure prediction by ZEFSAII (Michael W. Deem and Ramdas Pophale) SiO2 
 PCOD8179676
Probable space group: A M M 2
;
_chemical_formula_sum "Si O2"
_cell_formula_units_Z 48
_cell_length_a 13.861797
_cell_length_b 8.873310
_cell_length_c 19.801121
_cell_angle_alpha 90.000000
_cell_angle_beta 90.000000
_cell_angle_gamma 90.000000
_cell_volume 2435.538317
_symmetry_space_group_name_H-M "A M M 2"
_symmetry_group_IT_number 38
_symmetry_cell_setting 'orthorhombic'
loop_
_space_group_symop_operation_xyz
x,y,z
-x,-y,z
-x,y,z
x,-y,z
x,1/2+y,1/2+z
-x,1/2-y,1/2+z
-x,1/2+y,1/2+z
x,1/2-y,1/2+z
loop_
_atom_site_type_symbol
_atom_site_label
_atom_site_fract_x
_atom_site_fract_y
_atom_site_fract_z
Si Si1 0.319093 0.330426 0.547570
Si Si2 0.500000 0.674854 0.002277
Si Si3 0.693128 0.175492 0.305638
Si Si4 0.000000 0.678559 0.491866
Si Si5 0.500000 0.678632 0.356125
Si Si6 0.192317 0.175532 0.172482
Si Si7 0.000000 0.177695 0.638939
Si Si8 0.191723 0.670033 0.417925
O O1 0.353889 0.500000 0.565420
O O2 0.408458 0.216786 0.548068
O O3 0.241650 0.275403 0.602306
O O4 0.274077 0.326712 0.473786
O O5 0.500000 0.500000 0.984389
O O6 0.500000 0.766578 0.932919
O O7 0.594688 0.266018 0.316904
O O8 0.733083 0.214804 0.231770
O O9 0.776651 0.221132 0.357884
O O10 0.670137 0.000000 0.314314
O O11 0.000000 0.755557 0.564125
O O12 0.092442 0.731082 0.449292
O O13 0.000000 0.500000 0.504842
O O14 0.500000 0.500000 0.357063
O O15 0.093811 0.268533 0.180410
O O16 0.165067 0.000000 0.172352
O O17 0.000000 0.000000 0.634419
O O18 0.178466 0.500000 0.390315
#
# Coordination Sequence:
#
# PCOD8179676 Si02
#       8
#     8   4   8   4   4   8   4   8
#     4  10  20  38  64  89 117 159 208 246 295 364
#     4  12  24  37  60  93 127 157 201 259 308 356
#     4  11  24  41  64  92 124 160 203 255 304 357
#     4  10  20  39  64  89 121 165 211 249 298 368
#     4  12  24  41  64  87 121 165 203 245 306 374
#     4  10  23  44  66  88 123 168 206 245 300 372
#     4  12  24  37  62  95 125 159 201 257 310 356
#     4  10  20  36  63  91 120 160 203 249 300 360
#
# _framework density 19.708167
#
# number of rings (size 3 to 8) (size 9 to 14) (size 15 to 20)
#    0.000    1.333    3.333    2.750    0.000    4.000 
#    0.000    5.000    0.000    0.000    0.000    0.000 
#    0.000    0.000    0.000    0.000    0.000    0.000 
#
# Total GULP energy -297717.122745 kJ/mol
# GULP energy per Si atom -12404.880114 kJ/mol
# Density = 1.966331 g / cm^3
# Si number density = 19.708167 Si / 1000 Ang^3
#
#
#
# Elastic Constant Matrix: (Units=GPa)
#
#
# Indices 1 2 3 4 5 6 
#
# 1 122.3036 56.4896 17.1617 0.0000 0.0000 0.0000
# 2 56.4896 109.6246 38.1970 0.0000 0.0000 0.0000
# 3 17.1617 38.1970 68.9948 0.0000 0.0000 0.0000
# 4 0.0000 0.0000 0.0000 29.4353 0.0000 0.0000
# 5 0.0000 0.0000 0.0000 0.0000 27.7341 0.0000
# 6 0.0000 0.0000 0.0000 0.0000 0.0000 30.2034
#
#
#
# Elastic Compliance Matrix: (Units=1/GPa)
#
#
# Indices 1 2 3 4 5 6 
#
# 1 0.010743 -0.005706 0.000486 0.000000 0.000000 0.000000
# 2 -0.005706 0.014332 -0.006515 0.000000 0.000000 0.000000
# 3 0.000486 -0.006515 0.017980 0.000000 0.000000 0.000000
# 4 0.000000 0.000000 0.000000 0.033973 0.000000 0.000000
# 5 0.000000 0.000000 0.000000 0.000000 0.036057 0.000000
# 6 0.000000 0.000000 0.000000 0.000000 0.000000 0.033109
#
#
# Mechanical properties :
#
#
# Convention : Reuss Voigt Hill
#
# Bulk Modulus (GPa) = 51.05574 58.29107 54.67340
# Shear Modulus (GPa) = 28.37810 30.07953 29.22881
#
# Velocity S-wave (km/s) = 3.79874 3.91096 3.85526
# Velocity P-wave (km/s) = 6.72329 7.07357 6.90066
#
# Compressibility (1/GPa) = 0.01958644
#
# Stress axis : x y z
#
# Youngs Moduli (GPa) = 93.08031 69.77225 55.61744
#
# Poissons Ratio (x) = 0.39809 -0.02705
# Poissons Ratio (y) = 0.53108 0.36238
# Poissons Ratio (z) = -0.04528 0.45460
#
# Static dielectric constant tensor:
#      x y z
#    x 3.758520 0.000000 0.000000 
#    y 0.000000 3.537490 0.000000 
#    z 0.000000 0.000000 3.531970 
# 
# 
# High freq. dielectric constant tensor:
#      x y z
#    x 1.783230 0.000000 0.000000 
#    y 0.000000 1.760870 0.000000 
#    z 0.000000 0.000000 1.761920 
# 
# From -- ./inp_files/18249.got.cif
#   From: 2010.03.12/outbox.cif.g09.slc.cpg/sg38_10_cif.got.tgz:18249.got - 2010.04.14 02:38:36.
