data_PCOD8179108
_publ_section_title
;
Structure prediction by ZEFSAII (Michael W. Deem and Ramdas Pophale) SiO2 
 PCOD8179108
Probable space group: A M M 2
;
_chemical_formula_sum "Si O2"
_cell_formula_units_Z 56
_cell_length_a 21.596815
_cell_length_b 8.768081
_cell_length_c 15.436055
_cell_angle_alpha 90.000000
_cell_angle_beta 90.000000
_cell_angle_gamma 90.000000
_cell_volume 2923.011868
_symmetry_space_group_name_H-M "A M M 2"
_symmetry_group_IT_number 38
_symmetry_cell_setting 'orthorhombic'
loop_
_space_group_symop_operation_xyz
x,y,z
-x,-y,z
-x,y,z
x,-y,z
x,1/2+y,1/2+z
-x,1/2-y,1/2+z
-x,1/2+y,1/2+z
x,1/2-y,1/2+z
loop_
_atom_site_type_symbol
_atom_site_label
_atom_site_fract_x
_atom_site_fract_y
_atom_site_fract_z
Si Si1 0.369969 0.678916 0.075260
Si Si2 0.710623 0.181517 0.417641
Si Si3 0.931289 0.318714 0.074234
Si Si4 0.928078 0.322722 0.268530
Si Si5 0.150085 0.680468 0.918027
Si Si6 0.500000 0.679368 0.815684
Si Si7 0.628347 0.321288 0.269089
Si Si8 0.500000 0.821087 0.517258
O O1 0.375560 0.500000 0.058112
O O2 0.346411 0.712741 0.172169
O O3 0.438183 0.752048 0.059483
O O4 0.321443 0.745381 0.005265
O O5 0.780387 0.246246 0.415261
O O6 0.674484 0.240112 0.334271
O O7 0.709930 0.000000 0.414997
O O8 0.933479 0.500000 0.069693
O O9 0.910734 0.270438 0.170922
O O10 0.000000 0.254212 0.054091
O O11 0.884085 0.251173 0.003092
O O12 0.913351 0.500000 0.282322
O O13 0.886012 0.225215 0.331903
O O14 0.000000 0.288654 0.287273
O O15 0.151721 0.500000 0.924709
O O16 0.500000 0.500000 0.797768
O O17 0.559783 0.754407 0.773135
O O18 0.500000 0.717458 0.916501
O O19 0.626160 0.500000 0.289091
O O20 0.500000 0.000000 0.534897
#
# Coordination Sequence:
#
# PCOD8179108 Si02
#       8
#     8   8   8   8   8   4   8   4
#     4   9  18  34  56  78 102 139 182 217 257 318
#     4  10  21  38  55  75 107 147 184 215 260 321
#     4   8  15  30  52  77 104 136 177 221 261 310
#     4   9  18  33  54  80 109 139 172 216 271 323
#     4  10  20  33  54  80 105 139 183 224 259 307
#     4  11  20  35  61  84 109 143 172 210 271 328
#     4  11  22  36  58  85 108 134 178 229 267 305
#     4   9  15  29  57  80  97 131 172 208 253 310
#
# _framework density 19.158321999999998
#
# number of rings (size 3 to 8) (size 9 to 14) (size 15 to 20)
#    0.000    2.429    1.429    2.357    0.000    3.714 
#    0.000    5.000    0.000    0.857    0.000    0.000 
#    0.000    0.000    0.000    0.000    0.000    0.000 
#
# Total GULP energy -347136.790065 kJ/mol
# GULP energy per Si atom -12397.742502 kJ/mol
# Density = 1.911472 g / cm^3
# Si number density = 19.158322 Si / 1000 Ang^3
#
#
#
# Elastic Constant Matrix: (Units=GPa)
#
#
# Indices 1 2 3 4 5 6 
#
# 1 143.2971 14.9984 86.8611 0.0000 0.0000 0.0000
# 2 14.9984 17.2321 16.2480 0.0000 0.0000 0.0000
# 3 86.8611 16.2480 132.7911 0.0000 0.0000 0.0000
# 4 0.0000 0.0000 0.0000 27.8053 0.0000 0.0000
# 5 0.0000 0.0000 0.0000 0.0000 14.3462 0.0000
# 6 0.0000 0.0000 0.0000 0.0000 0.0000 19.4784
#
#
#
# Elastic Compliance Matrix: (Units=1/GPa)
#
#
# Indices 1 2 3 4 5 6 
#
# 1 0.011733 -0.003364 -0.007263 0.000000 0.000000 0.000000
# 2 -0.003364 0.066564 -0.005944 0.000000 0.000000 0.000000
# 3 -0.007263 -0.005944 0.013009 0.000000 0.000000 0.000000
# 4 0.000000 0.000000 0.000000 0.035964 0.000000 0.000000
# 5 0.000000 0.000000 0.000000 0.000000 0.069705 0.000000
# 6 0.000000 0.000000 0.000000 0.000000 0.000000 0.051339
#
#
# Mechanical properties :
#
#
# Convention : Reuss Voigt Hill
#
# Bulk Modulus (GPa) = 17.19300 58.83726 38.01513
# Shear Modulus (GPa) = 16.61984 24.00684 20.31334
#
# Velocity S-wave (km/s) = 2.94853 3.54372 3.25974
# Velocity P-wave (km/s) = 4.53712 6.89360 5.83554
#
# Compressibility (1/GPa) = 0.05816322
#
# Stress axis : x y z
#
# Youngs Moduli (GPa) = 85.22678 15.02320 76.86933
#
# Poissons Ratio (x) = 0.05054 0.55834
# Poissons Ratio (y) = 0.28669 0.45693
# Poissons Ratio (z) = 0.61904 0.08930
#
# Static dielectric constant tensor:
#      x y z
#    x 3.801270 0.000000 0.000000 
#    y 0.000000 3.081880 0.000000 
#    z 0.000000 0.000000 3.690610 
# 
# 
# High freq. dielectric constant tensor:
#      x y z
#    x 1.747940 0.000000 0.000000 
#    y 0.000000 1.702070 0.000000 
#    z 0.000000 0.000000 1.760920 
# 
# From -- ./inp_files/15569.got.cif
#   From: 2010.03.12/outbox.cif.g09.slc.cpg/sg38_8_cif.got.tgz:15569.got - 2010.04.14 02:38:36.
