data_PCOD8179237
_publ_section_title
;
Structure prediction by ZEFSAII (Michael W. Deem and Ramdas Pophale) SiO2 
 PCOD8179237
Probable space group: A M M 2
;
_chemical_formula_sum "Si O2"
_cell_formula_units_Z 64
_cell_length_a 8.635889
_cell_length_b 19.628936
_cell_length_c 20.653168
_cell_angle_alpha 90.000000
_cell_angle_beta 90.000000
_cell_angle_gamma 90.000000
_cell_volume 3500.986921
_symmetry_space_group_name_H-M "A M M 2"
_symmetry_group_IT_number 38
_symmetry_cell_setting 'orthorhombic'
loop_
_space_group_symop_operation_xyz
x,y,z
-x,-y,z
-x,y,z
x,-y,z
x,1/2+y,1/2+z
-x,1/2-y,1/2+z
-x,1/2+y,1/2+z
x,1/2-y,1/2+z
loop_
_atom_site_type_symbol
_atom_site_label
_atom_site_fract_x
_atom_site_fract_y
_atom_site_fract_z
Si Si1 0.683808 0.074233 0.822620
Si Si2 0.679080 0.422941 0.561714
Si Si3 0.682395 0.714850 0.377356
Si Si4 0.683474 0.426000 0.177395
Si Si5 0.317929 0.283658 0.131832
Si Si6 0.179708 0.292942 0.510814
Si Si7 0.176218 0.575402 0.697303
Si Si8 0.820605 0.214415 0.256146
O O1 0.500000 0.075277 0.821133
O O2 0.742574 0.137039 0.866288
O O3 0.749554 0.084336 0.749945
O O4 0.739889 0.000000 0.849647
O O5 0.500000 0.407185 0.548237
O O6 0.722204 0.500000 0.541955
O O7 0.779855 0.372581 0.518095
O O8 0.711234 0.410314 0.637252
O O9 0.500000 0.721363 0.367921
O O10 0.729843 0.737739 0.449303
O O11 0.763983 0.764769 0.326809
O O12 0.500000 0.425265 0.182159
O O13 0.739801 0.500000 0.149883
O O14 0.736026 0.363170 0.132217
O O15 0.500000 0.275593 0.119100
O O16 0.225690 0.247069 0.075235
O O17 0.278600 0.251759 0.201233
O O18 0.000000 0.283939 0.497970
O O19 0.208561 0.500000 0.726859
O O20 0.206103 0.632720 0.751343
O O21 0.000000 0.580139 0.671209
O O22 0.000000 0.233395 0.246596
#
# Coordination Sequence:
#
# PCOD8179237 Si02
#       8
#     8   8   8   8   8   8   8   8
#     4   8  14  27  49  77 106 136 173 216 261 308
#     4  10  20  34  54  80 109 144 188 230 268 322
#     4  11  22  37  56  79 107 145 188 231 271 323
#     4   8  14  27  51  83 111 135 170 219 271 317
#     4  11  20  34  58  84 108 142 186 229 269 322
#     4  12  25  39  53  76 112 151 185 229 283 335
#     4   9  18  33  54  80 110 144 180 222 276 329
#     4  11  21  34  55  83 113 145 179 225 279 330
#
# _framework density 18.280560000000001
#
# number of rings (size 3 to 8) (size 9 to 14) (size 15 to 20)
#    0.000    2.000    2.500    3.375    0.000    1.750 
#    0.000    1.250    0.000    4.125    0.000    0.000 
#    0.000    0.000    0.000    0.000    0.000    0.000 
#
# Total GULP energy -396682.569543 kJ/mol
# GULP energy per Si atom -12396.330298 kJ/mol
# Density = 1.823895 g / cm^3
# Si number density = 18.280560 Si / 1000 Ang^3
#
#
#
# Elastic Constant Matrix: (Units=GPa)
#
#
# Indices 1 2 3 4 5 6 
#
# 1 45.1255 22.7666 5.3136 0.0000 0.0000 0.0000
# 2 22.7666 106.5454 37.7818 0.0000 0.0000 0.0000
# 3 5.3136 37.7818 72.8229 0.0000 0.0000 0.0000
# 4 0.0000 0.0000 0.0000 21.9175 0.0000 0.0000
# 5 0.0000 0.0000 0.0000 0.0000 25.9024 0.0000
# 6 0.0000 0.0000 0.0000 0.0000 0.0000 19.9210
#
#
#
# Elastic Compliance Matrix: (Units=1/GPa)
#
#
# Indices 1 2 3 4 5 6 
#
# 1 0.024917 -0.005735 0.001157 0.000000 0.000000 0.000000
# 2 -0.005735 0.012822 -0.006234 0.000000 0.000000 0.000000
# 3 0.001157 -0.006234 0.016882 0.000000 0.000000 0.000000
# 4 0.000000 0.000000 0.000000 0.045626 0.000000 0.000000
# 5 0.000000 0.000000 0.000000 0.000000 0.038606 0.000000
# 6 0.000000 0.000000 0.000000 0.000000 0.000000 0.050198
#
#
# Mechanical properties :
#
#
# Convention : Reuss Voigt Hill
#
# Bulk Modulus (GPa) = 30.30463 39.57977 34.94220
# Shear Modulus (GPa) = 22.55577 24.12362 23.33969
#
# Velocity S-wave (km/s) = 3.51645 3.63662 3.57704
# Velocity P-wave (km/s) = 5.75333 6.27149 6.01799
#
# Compressibility (1/GPa) = 0.03299826
#
# Stress axis : x y z
#
# Youngs Moduli (GPa) = 40.13256 77.99367 59.23604
#
# Poissons Ratio (x) = 0.44727 -0.06854
# Poissons Ratio (y) = 0.23015 0.36925
# Poissons Ratio (z) = -0.04644 0.48618
#
# Static dielectric constant tensor:
#      x y z
#    x 3.220220 0.000000 0.000000 
#    y 0.000000 3.861860 0.000000 
#    z 0.000000 0.000000 3.123290 
# 
# 
# High freq. dielectric constant tensor:
#      x y z
#    x 1.694500 0.000000 0.000000 
#    y 0.000000 1.718000 0.000000 
#    z 0.000000 0.000000 1.678430 
# 
# From -- ./inp_files/20261.got.cif
#   From: 2010.03.12/outbox.cif.g09.slc.cpg/sg38_11_cif.got.tgz:20261.got - 2010.04.14 02:38:36.
