data_PCOD8179784
_publ_section_title
;
Structure prediction by ZEFSAII (Michael W. Deem and Ramdas Pophale) SiO2 
 PCOD8179784
Probable space group: A M M 2
;
_chemical_formula_sum "Si O2"
_cell_formula_units_Z 48
_cell_length_a 9.073045
_cell_length_b 7.485170
_cell_length_c 38.025732
_cell_angle_alpha 90.000000
_cell_angle_beta 90.000000
_cell_angle_gamma 90.000000
_cell_volume 2582.452346
_symmetry_space_group_name_H-M "A M M 2"
_symmetry_group_IT_number 38
_symmetry_cell_setting 'orthorhombic'
loop_
_space_group_symop_operation_xyz
x,y,z
-x,-y,z
-x,y,z
x,-y,z
x,1/2+y,1/2+z
-x,1/2-y,1/2+z
-x,1/2+y,1/2+z
x,1/2-y,1/2+z
loop_
_atom_site_type_symbol
_atom_site_label
_atom_site_fract_x
_atom_site_fract_y
_atom_site_fract_z
Si Si1 0.170405 0.206754 0.136760
Si Si2 0.171813 0.000000 0.334365
Si Si3 0.673942 0.298300 0.460322
Si Si4 0.829410 0.293094 0.215650
Si Si5 0.324816 0.500000 0.091925
Si Si6 0.674863 0.000000 0.512700
Si Si7 0.829215 0.203171 0.889613
Si Si8 0.674531 0.000000 0.260674
O O1 0.222487 0.249855 0.176197
O O2 0.267395 0.321243 0.110252
O O3 0.000000 0.261006 0.132338
O O4 0.197270 0.000000 0.128051
O O5 0.213165 0.175615 0.356538
O O6 0.273512 0.000000 0.300573
O O7 0.000000 0.000000 0.323481
O O8 0.500000 0.283525 0.456326
O O9 0.725151 0.500000 0.468629
O O10 0.741660 0.230271 0.423769
O O11 0.731922 0.175511 0.492167
O O12 0.802785 0.500000 0.224334
O O13 0.000000 0.239546 0.220295
O O14 0.733242 0.178337 0.242228
O O15 0.500000 0.500000 0.093239
O O16 0.262601 0.500000 0.052151
O O17 0.500000 0.000000 0.514116
O O18 0.000000 0.223719 0.898866
O O19 0.787242 0.000000 0.879813
O O20 0.500000 0.000000 0.259003
#
# Coordination Sequence:
#
# PCOD8179784 Si02
#       8
#     8   4   8   8   4   4   8   4
#     4  10  20  38  62  83 107 142 187 233 278 336
#     4  10  21  37  55  75 107 149 189 219 263 334
#     4   9  17  31  53  77 102 139 184 223 263 321
#     4  10  20  39  65  84 104 143 190 230 274 337
#     4  11  23  36  54  84 119 151 187 235 288 336
#     4   9  19  34  50  73 109 149 183 217 265 330
#     4   9  18  33  54  80 107 136 177 229 276 318
#     4  12  26  39  55  86 123 149 179 233 290 334
#
# _framework density 18.586983
#
# number of rings (size 3 to 8) (size 9 to 14) (size 15 to 20)
#    0.000    2.167    1.667    1.500    0.000    3.333 
#    0.000    5.000    0.000    2.000    0.000    0.000 
#    0.000    0.000    0.000    0.000    0.000    0.000 
#
# Total GULP energy -297664.825248 kJ/mol
# GULP energy per Si atom -12402.701052 kJ/mol
# Density = 1.854468 g / cm^3
# Si number density = 18.586983 Si / 1000 Ang^3
#
#
#
# Elastic Constant Matrix: (Units=GPa)
#
#
# Indices 1 2 3 4 5 6 
#
# 1 63.5561 45.3714 59.9258 0.0000 0.0000 0.0000
# 2 45.3714 124.0372 80.0712 0.0000 0.0000 0.0000
# 3 59.9258 80.0712 160.3568 0.0000 0.0000 0.0000
# 4 0.0000 0.0000 0.0000 24.9656 0.0000 0.0000
# 5 0.0000 0.0000 0.0000 0.0000 36.6091 0.0000
# 6 0.0000 0.0000 0.0000 0.0000 0.0000 24.9338
#
#
#
# Elastic Compliance Matrix: (Units=1/GPa)
#
#
# Indices 1 2 3 4 5 6 
#
# 1 0.026094 -0.004796 -0.007357 0.000000 0.000000 0.000000
# 2 -0.004796 0.012778 -0.004588 0.000000 0.000000 0.000000
# 3 -0.007357 -0.004588 0.011276 0.000000 0.000000 0.000000
# 4 0.000000 0.000000 0.000000 0.040055 0.000000 0.000000
# 5 0.000000 0.000000 0.000000 0.000000 0.027316 0.000000
# 6 0.000000 0.000000 0.000000 0.000000 0.000000 0.040106
#
#
# Mechanical properties :
#
#
# Convention : Reuss Voigt Hill
#
# Bulk Modulus (GPa) = 59.99865 79.85410 69.92637
# Shear Modulus (GPa) = 25.42404 28.14048 26.78226
#
# Velocity S-wave (km/s) = 3.70245 3.89522 3.80006
# Velocity P-wave (km/s) = 7.11530 7.95525 7.54697
#
# Compressibility (1/GPa) = 0.01666704
#
# Stress axis : x y z
#
# Youngs Moduli (GPa) = 38.32236 78.25707 88.68009
#
# Poissons Ratio (x) = 0.37532 0.65240
# Poissons Ratio (y) = 0.18379 0.40690
# Poissons Ratio (z) = 0.28193 0.35908
#
# Static dielectric constant tensor:
#      x y z
#    x 3.225300 0.000000 0.000000 
#    y 0.000000 3.695450 0.000000 
#    z 0.000000 0.000000 3.487540 
# 
# 
# High freq. dielectric constant tensor:
#      x y z
#    x 1.702880 0.000000 0.000000 
#    y 0.000000 1.738620 0.000000 
#    z 0.000000 0.000000 1.719500 
# 
# From -- ./inp_files/24457.got.cif
#   From: 2010.03.12/outbox.cif.g09.slc.cpg/sg38_13_cif.got.tgz:24457.got - 2010.04.14 02:38:36.
