data_PCOD8179710
_publ_section_title
;
Structure prediction by ZEFSAII (Michael W. Deem and Ramdas Pophale) SiO2 
 PCOD8179710
Probable space group: A M M 2
;
_chemical_formula_sum "Si O2"
_cell_formula_units_Z 64
_cell_length_a 24.515802
_cell_length_b 8.449243
_cell_length_c 15.064706
_cell_angle_alpha 90.000000
_cell_angle_beta 90.000000
_cell_angle_gamma 90.000000
_cell_volume 3120.502725
_symmetry_space_group_name_H-M "A M M 2"
_symmetry_group_IT_number 38
_symmetry_cell_setting 'orthorhombic'
loop_
_space_group_symop_operation_xyz
x,y,z
-x,-y,z
-x,y,z
x,-y,z
x,1/2+y,1/2+z
-x,1/2-y,1/2+z
-x,1/2+y,1/2+z
x,1/2-y,1/2+z
loop_
_atom_site_type_symbol
_atom_site_label
_atom_site_fract_x
_atom_site_fract_y
_atom_site_fract_z
Si Si1 0.936635 0.316820 0.730820
Si Si2 0.255068 0.819011 0.358458
Si Si3 0.442474 0.681664 0.225099
Si Si4 0.060068 0.812701 0.030612
Si Si5 0.676395 0.681991 0.512560
Si Si6 0.137348 0.816225 0.877293
Si Si7 0.325739 0.685868 0.207779
Si Si8 0.441849 0.679837 0.538676
O O1 0.921972 0.500000 0.747698
O O2 0.922630 0.267019 0.630139
O O3 0.900066 0.204612 0.791185
O O4 0.000000 0.285591 0.751418
O O5 0.285095 0.786104 0.451047
O O6 0.191703 0.784401 0.369267
O O7 0.277843 0.714998 0.277470
O O8 0.263516 0.000000 0.332395
O O9 0.500000 0.761594 0.261235
O O10 0.445136 0.500000 0.253042
O O11 0.382981 0.749291 0.253763
O O12 0.442538 0.697013 0.118788
O O13 0.000000 0.741387 0.008850
O O14 0.056366 0.000000 0.021501
O O15 0.104591 0.746533 0.962006
O O16 0.692742 0.500000 0.498538
O O17 0.685850 0.725271 0.615523
O O18 0.613016 0.712063 0.481798
O O19 0.152161 0.000000 0.889202
O O20 0.330454 0.500000 0.187237
O O21 0.500000 0.698871 0.485089
O O22 0.437706 0.500000 0.576285
#
# Coordination Sequence:
#
# PCOD8179710 Si02
#       8
#     8   8   8   8   8   8   8   8
#     4   9  18  35  59  87 119 152 184 219 267 332
#     4  12  26  42  57  77 110 152 200 246 287 336
#     4   8  14  26  48  78 108 137 171 217 277 342
#     4   8  16  33  58  86 115 147 179 213 262 326
#     4  10  20  37  60  84 112 147 186 231 287 345
#     4  11  22  37  58  83 112 146 189 239 286 332
#     4  10  20  37  60  84 111 145 187 234 286 344
#     4   8  14  26  48  78 108 138 174 218 272 337
#
# _framework density 20.509513999999999
#
# number of rings (size 3 to 8) (size 9 to 14) (size 15 to 20)
#    0.000    2.500    0.000    3.375    0.000    2.750 
#    0.000    5.625    0.000    5.250    0.000    0.000 
#    0.000    0.000    0.000    0.000    0.000    0.000 
#
# Total GULP energy -396458.115250 kJ/mol
# GULP energy per Si atom -12389.316102 kJ/mol
# Density = 2.046283 g / cm^3
# Si number density = 20.509514 Si / 1000 Ang^3
#
#
#
# Elastic Constant Matrix: (Units=GPa)
#
#
# Indices 1 2 3 4 5 6 
#
# 1 131.9656 16.8256 55.4162 0.0000 0.0000 0.0000
# 2 16.8256 43.9816 7.8076 0.0000 0.0000 0.0000
# 3 55.4162 7.8076 84.7415 0.0000 0.0000 0.0000
# 4 0.0000 0.0000 0.0000 25.4473 0.0000 0.0000
# 5 0.0000 0.0000 0.0000 0.0000 44.0609 0.0000
# 6 0.0000 0.0000 0.0000 0.0000 0.0000 24.9647
#
#
#
# Elastic Compliance Matrix: (Units=1/GPa)
#
#
# Indices 1 2 3 4 5 6 
#
# 1 0.010805 -0.002927 -0.006796 0.000000 0.000000 0.000000
# 2 -0.002927 0.023908 -0.000289 0.000000 0.000000 0.000000
# 3 -0.006796 -0.000289 0.016271 0.000000 0.000000 0.000000
# 4 0.000000 0.000000 0.000000 0.039297 0.000000 0.000000
# 5 0.000000 0.000000 0.000000 0.000000 0.022696 0.000000
# 6 0.000000 0.000000 0.000000 0.000000 0.000000 0.040057
#
#
# Mechanical properties :
#
#
# Convention : Reuss Voigt Hill
#
# Bulk Modulus (GPa) = 32.29913 46.75419 39.52666
# Shear Modulus (GPa) = 27.26625 30.93720 29.10172
#
# Velocity S-wave (km/s) = 3.65011 3.88807 3.77097
# Velocity P-wave (km/s) = 5.79197 6.55758 6.18663
#
# Compressibility (1/GPa) = 0.03096058
#
# Stress axis : x y z
#
# Youngs Moduli (GPa) = 92.55150 41.82735 61.45747
#
# Poissons Ratio (x) = 0.12243 0.41767
# Poissons Ratio (y) = 0.27090 0.01774
# Poissons Ratio (z) = 0.62898 0.01207
#
# Static dielectric constant tensor:
#      x y z
#    x 4.259690 0.000000 0.000000 
#    y 0.000000 3.466200 0.000000 
#    z 0.000000 0.000000 3.455540 
# 
# 
# High freq. dielectric constant tensor:
#      x y z
#    x 1.817650 0.000000 0.000000 
#    y 0.000000 1.780970 0.000000 
#    z 0.000000 0.000000 1.777500 
# 
# From -- ./inp_files/15841.got.cif
#   From: 2010.03.12/outbox.cif.g09.slc.cpg/sg38_8_cif.got.tgz:15841.got - 2010.04.14 02:38:36.
