data_PCOD8179346
_publ_section_title
;
Structure prediction by ZEFSAII (Michael W. Deem and Ramdas Pophale) SiO2 
 PCOD8179346
Probable space group: A M M 2
;
_chemical_formula_sum "Si O2"
_cell_formula_units_Z 40
_cell_length_a 7.631463
_cell_length_b 8.885227
_cell_length_c 28.751026
_cell_angle_alpha 90.000000
_cell_angle_beta 90.000000
_cell_angle_gamma 90.000000
_cell_volume 1949.528902
_symmetry_space_group_name_H-M "A M M 2"
_symmetry_group_IT_number 38
_symmetry_cell_setting 'orthorhombic'
loop_
_space_group_symop_operation_xyz
x,y,z
-x,-y,z
-x,y,z
x,-y,z
x,1/2+y,1/2+z
-x,1/2-y,1/2+z
-x,1/2+y,1/2+z
x,1/2-y,1/2+z
loop_
_atom_site_type_symbol
_atom_site_label
_atom_site_fract_x
_atom_site_fract_y
_atom_site_fract_z
Si Si1 0.293120 0.172185 0.777710
Si Si2 0.295979 0.671657 0.870500
Si Si3 0.196948 0.673290 0.971901
Si Si4 0.500000 0.177913 0.628330
Si Si5 0.197673 0.672489 0.685979
Si Si6 0.500000 0.176697 0.028124
O O1 0.500000 0.195547 0.772863
O O2 0.227794 0.225142 0.828381
O O3 0.199598 0.272011 0.738994
O O4 0.238048 0.000000 0.770615
O O5 0.500000 0.697495 0.879880
O O6 0.255105 0.500000 0.856909
O O7 0.197403 0.718663 0.917598
O O8 0.258725 0.500000 0.977316
O O9 0.000000 0.695468 0.991094
O O10 0.325669 0.779681 0.000348
O O11 0.674616 0.229244 0.654508
O O12 0.500000 0.240149 0.576810
O O13 0.500000 0.000000 0.626834
O O14 0.260139 0.500000 0.684236
O O15 0.000000 0.689138 0.666688
O O16 0.500000 0.000000 0.036948
#
# Coordination Sequence:
#
# PCOD8179346 Si02
#       6
#     8   8   8   4   8   4
#     4  10  20  34  56  89 128 169 210 252 302 360
#     4   9  17  32  56  86 124 167 210 254 302 362
#     4  10  21  40  66  94 125 162 208 258 308 366
#     4  12  26  46  71  94 121 158 202 255 313 371
#     4  11  24  42  66  95 127 163 205 253 307 368
#     4  12  26  44  67  92 125 162 200 253 311 373
#
# _framework density 20.517779000000001
#
# number of rings (size 3 to 8) (size 9 to 14) (size 15 to 20)
#    0.000    1.600    2.000    3.000    0.000    5.200 
#    0.000    2.000    0.000    0.000    0.000    0.000 
#    0.000    0.000    0.000    0.000    0.000    0.000 
#
# Total GULP energy -248082.175105 kJ/mol
# GULP energy per Si atom -12404.108755 kJ/mol
# Density = 2.047108 g / cm^3
# Si number density = 20.517779 Si / 1000 Ang^3
#
#
#
# Elastic Constant Matrix: (Units=GPa)
#
#
# Indices 1 2 3 4 5 6 
#
# 1 98.0968 53.8941 47.0785 0.0000 0.0000 0.0000
# 2 53.8941 147.9064 63.3926 0.0000 0.0000 0.0000
# 3 47.0785 63.3926 107.6485 0.0000 0.0000 0.0000
# 4 0.0000 0.0000 0.0000 40.0600 0.0000 0.0000
# 5 0.0000 0.0000 0.0000 0.0000 -5.1951 0.0000
# 6 0.0000 0.0000 0.0000 0.0000 0.0000 20.7678
#
#
#
# Elastic Compliance Matrix: (Units=1/GPa)
#
#
# Indices 1 2 3 4 5 6 
#
# 1 0.014023 -0.003319 -0.004178 0.000000 0.000000 0.000000
# 2 -0.003319 0.009829 -0.004337 0.000000 0.000000 0.000000
# 3 -0.004178 -0.004337 0.013671 0.000000 0.000000 0.000000
# 4 0.000000 0.000000 0.000000 0.024963 0.000000 0.000000
# 5 0.000000 0.000000 0.000000 0.000000 -0.192488 0.000000
# 6 0.000000 0.000000 0.000000 0.000000 0.000000 0.048151
#
#
# Mechanical properties :
#
#
# Convention : Reuss Voigt Hill
#
# Bulk Modulus (GPa) = 72.17726 75.82023 73.99875
# Shear Modulus (GPa) = -93.34283 23.74563 -34.79860
#
# Velocity S-wave (km/s) = -6.75221 3.40563 -4.12275
# Velocity P-wave (km/s) = 5.05327 7.24556 3.67168
#
# Compressibility (1/GPa) = 0.01385478
#
# Stress axis : x y z
#
# Youngs Moduli (GPa) = 71.31389 101.73908 73.14955
#
# Poissons Ratio (x) = 0.33765 0.30563
# Poissons Ratio (y) = 0.23667 0.31723
# Poissons Ratio (z) = 0.29796 0.44122
#
# Static dielectric constant tensor:
#      x y z
#    x 3.718560 0.000000 0.000000 
#    y 0.000000 3.718960 0.000000 
#    z 0.000000 0.000000 3.777070 
# 
# 
# High freq. dielectric constant tensor:
#      x y z
#    x 1.805200 0.000000 0.000000 
#    y 0.000000 1.800890 0.000000 
#    z 0.000000 0.000000 1.801260 
# 
# From -- ./inp_files/23220.got.cif
#   From: 2010.03.12/outbox.cif.g09.slc.cpg/sg38_12_cif.got.tgz:23220.got - 2010.04.14 02:38:36.
