data_PCOD8179964
_publ_section_title
;
Structure prediction by ZEFSAII (Michael W. Deem and Ramdas Pophale) SiO2 
 PCOD8179964
Probable space group: A M M 2
;
_chemical_formula_sum "Si O2"
_cell_formula_units_Z 48
_cell_length_a 26.268291
_cell_length_b 9.611366
_cell_length_c 10.032958
_cell_angle_alpha 90.000000
_cell_angle_beta 90.000000
_cell_angle_gamma 90.000000
_cell_volume 2533.062633
_symmetry_space_group_name_H-M "A M M 2"
_symmetry_group_IT_number 38
_symmetry_cell_setting 'orthorhombic'
loop_
_space_group_symop_operation_xyz
x,y,z
-x,-y,z
-x,y,z
x,-y,z
x,1/2+y,1/2+z
-x,1/2-y,1/2+z
-x,1/2+y,1/2+z
x,1/2-y,1/2+z
loop_
_atom_site_type_symbol
_atom_site_label
_atom_site_fract_x
_atom_site_fract_y
_atom_site_fract_z
Si Si1 0.107664 0.662140 0.756890
Si Si2 0.726214 0.339197 0.975921
Si Si3 0.776423 0.161359 0.201126
Si Si4 0.390701 0.339257 0.962832
Si Si5 0.441445 0.161965 0.738063
Si Si6 0.058711 0.159180 0.532088
O O1 0.097328 0.500000 0.732122
O O2 0.166293 0.702153 0.738231
O O3 0.072486 0.745705 0.656201
O O4 0.092476 0.705123 0.906198
O O5 0.738772 0.500000 0.004371
O O6 0.740209 0.300162 0.824718
O O7 0.667254 0.304889 0.000094
O O8 0.760156 0.249168 0.074140
O O9 0.771518 0.000000 0.163529
O O10 0.397107 0.500000 0.922468
O O11 0.406960 0.248189 0.837974
O O12 0.425702 0.299869 0.087999
O O13 0.500000 0.203649 0.757699
O O14 0.431941 0.000000 0.766406
O O15 0.000000 0.180579 0.494093
O O16 0.070144 0.000000 0.571253
#
# Coordination Sequence:
#
# PCOD8179964 Si02
#       6
#     8   8   8   8   8   8
#     4  10  21  37  56  79 109 143 178 220 269 318
#     4  10  21  37  57  81 109 142 180 222 268 318
#     4  10  21  36  55  81 110 141 180 222 265 318
#     4  10  21  37  57  81 109 142 180 222 268 318
#     4  10  21  36  54  79 110 142 178 220 266 318
#     4  10  21  37  57  81 109 142 180 222 268 318
#
# _framework density 18.949394000000002
#
# number of rings (size 3 to 8) (size 9 to 14) (size 15 to 20)
#    0.000    2.000    0.000    3.000    0.000    6.667 
#    0.000    0.000    0.000    0.000    0.000    0.000 
#    0.000    0.000    0.000    0.000    0.000    0.000 
#
# Total GULP energy -297746.988013 kJ/mol
# GULP energy per Si atom -12406.124501 kJ/mol
# Density = 1.890626 g / cm^3
# Si number density = 18.949394 Si / 1000 Ang^3
#
#
#
# Elastic Constant Matrix: (Units=GPa)
#
#
# Indices 1 2 3 4 5 6 
#
# 1 66.2402 28.3084 17.5665 0.0000 0.0000 0.0000
# 2 28.3084 54.1407 41.1687 0.0000 0.0000 0.0000
# 3 17.5665 41.1687 70.3393 0.0000 0.0000 0.0000
# 4 0.0000 0.0000 0.0000 34.1455 0.0000 0.0000
# 5 0.0000 0.0000 0.0000 0.0000 39.4741 0.0000
# 6 0.0000 0.0000 0.0000 0.0000 0.0000 29.5418
#
#
#
# Elastic Compliance Matrix: (Units=1/GPa)
#
#
# Indices 1 2 3 4 5 6 
#
# 1 0.019594 -0.011756 0.001987 0.000000 0.000000 0.000000
# 2 -0.011756 0.040337 -0.020673 0.000000 0.000000 0.000000
# 3 0.001987 -0.020673 0.025820 0.000000 0.000000 0.000000
# 4 0.000000 0.000000 0.000000 0.029286 0.000000 0.000000
# 5 0.000000 0.000000 0.000000 0.000000 0.025333 0.000000
# 6 0.000000 0.000000 0.000000 0.000000 0.000000 0.033850
#
#
# Mechanical properties :
#
#
# Convention : Reuss Voigt Hill
#
# Bulk Modulus (GPa) = 40.21292 40.53415 40.37354
# Shear Modulus (GPa) = 20.54303 27.54406 24.04355
#
# Velocity S-wave (km/s) = 3.29614 3.81669 3.56593
# Velocity P-wave (km/s) = 5.97941 6.39219 6.18924
#
# Compressibility (1/GPa) = 0.02486763
#
# Stress axis : x y z
#
# Youngs Moduli (GPa) = 51.03713 24.79136 38.72990
#
# Poissons Ratio (x) = 0.29145 -0.07697
# Poissons Ratio (y) = 0.59999 0.80065
# Poissons Ratio (z) = -0.10143 0.51250
#
# Static dielectric constant tensor:
#      x y z
#    x 3.611850 0.000000 0.000000 
#    y 0.000000 3.422580 0.000000 
#    z 0.000000 0.000000 3.384380 
# 
# 
# High freq. dielectric constant tensor:
#      x y z
#    x 1.753340 0.000000 0.000000 
#    y 0.000000 1.730980 0.000000 
#    z 0.000000 0.000000 1.741740 
# 
# From -- ./inp_files/6925.got.cif
#   From: 2010.03.12/outbox.cif.g09.slc.cpg/sg38_4_cif.got.tgz:6925.got - 2010.04.14 02:38:36.
