data_PCOD8179560
_publ_section_title
;
Structure prediction by ZEFSAII (Michael W. Deem and Ramdas Pophale) SiO2 
 PCOD8179560
Probable space group: A M M 2
;
_chemical_formula_sum "Si O2"
_cell_formula_units_Z 64
_cell_length_a 18.819242
_cell_length_b 9.245154
_cell_length_c 19.591599
_cell_angle_alpha 90.000000
_cell_angle_beta 90.000000
_cell_angle_gamma 90.000000
_cell_volume 3408.679430
_symmetry_space_group_name_H-M "A M M 2"
_symmetry_group_IT_number 38
_symmetry_cell_setting 'orthorhombic'
loop_
_space_group_symop_operation_xyz
x,y,z
-x,-y,z
-x,y,z
x,-y,z
x,1/2+y,1/2+z
-x,1/2-y,1/2+z
-x,1/2+y,1/2+z
x,1/2-y,1/2+z
loop_
_atom_site_type_symbol
_atom_site_label
_atom_site_fract_x
_atom_site_fract_y
_atom_site_fract_z
Si Si1 0.201567 0.169497 0.846910
Si Si2 0.666157 0.666669 0.035636
Si Si3 0.919301 0.667685 0.242998
Si Si4 0.666679 0.330536 0.782662
Si Si5 0.919214 0.168889 0.108796
Si Si6 0.800940 0.330210 0.503844
Si Si7 0.581979 0.833573 0.671262
Si Si8 0.577489 0.830607 0.412065
O O1 0.127241 0.204018 0.809627
O O2 0.261035 0.255711 0.805713
O O3 0.219963 0.000000 0.844038
O O4 0.195610 0.224036 0.925244
O O5 0.687999 0.500000 0.026359
O O6 0.738150 0.755407 0.046909
O O7 0.607881 0.685531 0.094142
O O8 0.630712 0.734947 0.967780
O O9 0.914222 0.500000 0.224434
O O10 0.890488 0.751955 0.176612
O O11 0.000000 0.714269 0.260229
O O12 0.681386 0.500000 0.772733
O O13 0.636084 0.264195 0.713654
O O14 0.605976 0.298099 0.837401
O O15 0.873576 0.212601 0.042389
O O16 0.000000 0.215856 0.092989
O O17 0.913044 0.000000 0.123884
O O18 0.787860 0.500000 0.506006
O O19 0.500000 0.781106 0.676822
O O20 0.588341 0.000000 0.694885
O O21 0.500000 0.757579 0.418162
O O22 0.571237 0.000000 0.426610
#
# Coordination Sequence:
#
# PCOD8179560 Si02
#       8
#     8   8   8   8   8   8   8   8
#     4  10  21  37  56  80 113 148 184 228 275 327
#     4  10  20  36  57  80 107 143 184 225 269 325
#     4   9  19  36  58  83 109 142 185 229 271 320
#     4  11  22  36  56  82 112 146 184 228 274 327
#     4   9  19  36  57  82 112 146 182 221 270 326
#     4  10  21  36  55  81 113 146 181 226 274 322
#     4  10  22  39  58  81 110 144 183 229 281 333
#     4   9  17  32  55  79 102 134 179 224 265 313
#
# _framework density 18.775599
#
# number of rings (size 3 to 8) (size 9 to 14) (size 15 to 20)
#    0.000    2.250    1.250    1.125    1.750    4.250 
#    0.000    2.500    0.000    1.875    0.000    5.250 
#    0.000    0.000    0.000    0.000    0.000    0.000 
#
# Total GULP energy -396803.718632 kJ/mol
# GULP energy per Si atom -12400.116207 kJ/mol
# Density = 1.873286 g / cm^3
# Si number density = 18.775599 Si / 1000 Ang^3
#
#
#
# Elastic Constant Matrix: (Units=GPa)
#
#
# Indices 1 2 3 4 5 6 
#
# 1 110.5564 38.4435 41.9384 0.0000 0.0000 0.0000
# 2 38.4435 44.4432 33.2068 0.0000 0.0000 0.0000
# 3 41.9384 33.2068 84.3373 0.0000 0.0000 0.0000
# 4 0.0000 0.0000 0.0000 26.0113 0.0000 0.0000
# 5 0.0000 0.0000 0.0000 0.0000 26.9040 0.0000
# 6 0.0000 0.0000 0.0000 0.0000 0.0000 26.6181
#
#
#
# Elastic Compliance Matrix: (Units=1/GPa)
#
#
# Indices 1 2 3 4 5 6 
#
# 1 0.013446 -0.009401 -0.002985 0.000000 0.000000 0.000000
# 2 -0.009401 0.038452 -0.010465 0.000000 0.000000 0.000000
# 3 -0.002985 -0.010465 0.017462 0.000000 0.000000 0.000000
# 4 0.000000 0.000000 0.000000 0.038445 0.000000 0.000000
# 5 0.000000 0.000000 0.000000 0.000000 0.037169 0.000000
# 6 0.000000 0.000000 0.000000 0.000000 0.000000 0.037568
#
#
# Mechanical properties :
#
#
# Convention : Reuss Voigt Hill
#
# Bulk Modulus (GPa) = 42.26880 51.83493 47.05186
# Shear Modulus (GPa) = 21.17471 24.28989 22.73230
#
# Velocity S-wave (km/s) = 3.36188 3.60070 3.48334
# Velocity P-wave (km/s) = 6.13443 6.70479 6.42594
#
# Compressibility (1/GPa) = 0.02365811
#
# Stress axis : x y z
#
# Youngs Moduli (GPa) = 74.36916 26.00664 57.26710
#
# Poissons Ratio (x) = 0.24449 0.17094
# Poissons Ratio (y) = 0.69913 0.59931
# Poissons Ratio (z) = 0.22199 0.27216
#
# Static dielectric constant tensor:
#      x y z
#    x 3.595050 0.000000 0.000000 
#    y 0.000000 3.286610 0.000000 
#    z 0.000000 0.000000 3.523380 
# 
# 
# High freq. dielectric constant tensor:
#      x y z
#    x 1.738610 0.000000 0.000000 
#    y 0.000000 1.709460 0.000000 
#    z 0.000000 0.000000 1.734480 
# 
# From -- ./inp_files/18988.got.cif
#   From: 2010.03.12/outbox.cif.g09.slc.cpg/sg38_10_cif.got.tgz:18988.got - 2010.04.14 02:38:36.
