data_PCOD8179276
_publ_section_title
;
Structure prediction by ZEFSAII (Michael W. Deem and Ramdas Pophale) SiO2 
 PCOD8179276
Probable space group: A M M 2
;
_chemical_formula_sum "Si O2"
_cell_formula_units_Z 48
_cell_length_a 13.304201
_cell_length_b 25.753884
_cell_length_c 7.514306
_cell_angle_alpha 90.000000
_cell_angle_beta 90.000000
_cell_angle_gamma 90.000000
_cell_volume 2574.663104
_symmetry_space_group_name_H-M "A M M 2"
_symmetry_group_IT_number 38
_symmetry_cell_setting 'orthorhombic'
loop_
_space_group_symop_operation_xyz
x,y,z
-x,-y,z
-x,y,z
x,-y,z
x,1/2+y,1/2+z
-x,1/2-y,1/2+z
-x,1/2+y,1/2+z
x,1/2-y,1/2+z
loop_
_atom_site_type_symbol
_atom_site_label
_atom_site_fract_x
_atom_site_fract_y
_atom_site_fract_z
Si Si1 0.883712 0.302644 0.395230
Si Si2 0.385291 0.369295 0.797781
Si Si3 0.696443 0.060156 0.591760
Si Si4 0.806281 0.305104 0.783004
Si Si5 0.383089 0.441577 0.472844
Si Si6 0.887925 0.121867 0.576520
O O1 0.844557 0.319683 0.587409
O O2 0.816538 0.255964 0.317871
O O3 0.869438 0.351538 0.266903
O O4 0.000000 0.284869 0.404315
O O5 0.500000 0.349426 0.781060
O O6 0.311231 0.319996 0.808065
O O7 0.350904 0.403099 0.628879
O O8 0.377273 0.405326 0.971656
O O9 0.676351 0.074095 0.796195
O O10 0.812002 0.074134 0.549560
O O11 0.675872 0.000000 0.550282
O O12 0.874575 0.335744 0.922586
O O13 0.500000 0.437107 0.428928
O O14 0.355177 0.500000 0.532771
O O15 0.000000 0.098936 0.565112
#
# Coordination Sequence:
#
# PCOD8179276 Si02
#       6
#     8   8   8   8   8   8
#     4  11  20  34  57  80 104 138 179 222 265 317
#     4  10  21  36  53  77 108 142 177 219 268 316
#     4  10  20  34  55  81 108 139 178 222 264 316
#     4  11  21  34  55  79 106 136 181 224 263 315
#     4   9  17  31  53  78 103 135 176 218 259 308
#     4  10  21  35  53  79 109 141 176 219 270 319
#
# _framework density 18.643217
#
# number of rings (size 3 to 8) (size 9 to 14) (size 15 to 20)
#    0.000    1.833    1.667    3.500    0.000    2.000 
#    0.000    0.833    0.000    0.000    0.000    4.667 
#    0.000    0.000    0.000    0.000    0.000    0.000 
#
# Total GULP energy -297680.903995 kJ/mol
# GULP energy per Si atom -12403.371000 kJ/mol
# Density = 1.860078 g / cm^3
# Si number density = 18.643217 Si / 1000 Ang^3
#
#
#
# Elastic Constant Matrix: (Units=GPa)
#
#
# Indices 1 2 3 4 5 6 
#
# 1 90.9847 28.5978 22.6004 0.0000 0.0000 0.0000
# 2 28.5978 37.8736 4.3903 0.0000 0.0000 0.0000
# 3 22.6004 4.3903 83.8023 0.0000 0.0000 0.0000
# 4 0.0000 0.0000 0.0000 21.4958 0.0000 0.0000
# 5 0.0000 0.0000 0.0000 0.0000 26.5716 0.0000
# 6 0.0000 0.0000 0.0000 0.0000 0.0000 12.8635
#
#
#
# Elastic Compliance Matrix: (Units=1/GPa)
#
#
# Indices 1 2 3 4 5 6 
#
# 1 0.015402 -0.011217 -0.003566 0.000000 0.000000 0.000000
# 2 -0.011217 0.034733 0.001205 0.000000 0.000000 0.000000
# 3 -0.003566 0.001205 0.012831 0.000000 0.000000 0.000000
# 4 0.000000 0.000000 0.000000 0.046521 0.000000 0.000000
# 5 0.000000 0.000000 0.000000 0.000000 0.037634 0.000000
# 6 0.000000 0.000000 0.000000 0.000000 0.000000 0.077740
#
#
# Mechanical properties :
#
#
# Convention : Reuss Voigt Hill
#
# Bulk Modulus (GPa) = 27.92343 35.98194 31.95269
# Shear Modulus (GPa) = 18.94272 22.65765 20.80018
#
# Velocity S-wave (km/s) = 3.19104 3.48994 3.34383
# Velocity P-wave (km/s) = 5.34671 5.96504 5.66432
#
# Compressibility (1/GPa) = 0.03581222
#
# Stress axis : x y z
#
# Youngs Moduli (GPa) = 64.92573 28.79079 77.93346
#
# Poissons Ratio (x) = 0.32293 0.27792
# Poissons Ratio (y) = 0.72824 -0.09394
# Poissons Ratio (z) = 0.23154 -0.03470
#
# Static dielectric constant tensor:
#      x y z
#    x 3.390480 0.000000 0.000000 
#    y 0.000000 3.156630 0.000000 
#    z 0.000000 0.000000 3.584970 
# 
# 
# High freq. dielectric constant tensor:
#      x y z
#    x 1.722300 0.000000 0.000000 
#    y 0.000000 1.701850 0.000000 
#    z 0.000000 0.000000 1.741390 
# 
# From -- ./inp_files/4645.got.cif
#   From: 2010.03.12/outbox.cif.g09.slc.cpg/sg38_3_cif.got.tgz:4645.got - 2010.04.14 02:38:36.
