data_PCOD8179932
_publ_section_title
;
Structure prediction by ZEFSAII (Michael W. Deem and Ramdas Pophale) SiO2 
 PCOD8179932
Probable space group: A M M 2
;
_chemical_formula_sum "Si O2"
_cell_formula_units_Z 64
_cell_length_a 14.788998
_cell_length_b 9.468621
_cell_length_c 24.321448
_cell_angle_alpha 90.000000
_cell_angle_beta 90.000000
_cell_angle_gamma 90.000000
_cell_volume 3405.766828
_symmetry_space_group_name_H-M "A M M 2"
_symmetry_group_IT_number 38
_symmetry_cell_setting 'orthorhombic'
loop_
_space_group_symop_operation_xyz
x,y,z
-x,-y,z
-x,y,z
x,-y,z
x,1/2+y,1/2+z
-x,1/2-y,1/2+z
-x,1/2+y,1/2+z
x,1/2-y,1/2+z
loop_
_atom_site_type_symbol
_atom_site_label
_atom_site_fract_x
_atom_site_fract_y
_atom_site_fract_z
Si Si1 0.892941 0.837083 0.242100
Si Si2 0.399729 0.667664 0.240925
Si Si3 0.892794 0.343438 0.344338
Si Si4 0.234980 0.666398 0.167452
Si Si5 0.602370 0.336497 0.962492
Si Si6 0.392821 0.343968 0.361479
Si Si7 0.103704 0.834514 0.966636
Si Si8 0.238076 0.663485 0.040392
O O1 0.858389 0.768326 0.299327
O O2 0.848826 0.753339 0.191667
O O3 0.000000 0.821246 0.235707
O O4 0.862941 0.000000 0.241417
O O5 0.500000 0.729980 0.227413
O O6 0.406950 0.500000 0.241596
O O7 0.327912 0.719084 0.195818
O O8 0.365166 0.716877 0.301467
O O9 0.855068 0.500000 0.329374
O O10 0.859877 0.297516 0.405186
O O11 0.000000 0.350597 0.345614
O O12 0.218554 0.500000 0.177052
O O13 0.242892 0.705363 0.103855
O O14 0.500000 0.287895 0.976477
O O15 0.604955 0.500000 0.947314
O O16 0.643419 0.256341 0.909651
O O17 0.663941 0.300817 0.014933
O O18 0.500000 0.352366 0.363392
O O19 0.351102 0.500000 0.370846
O O20 0.000000 0.786735 0.973055
O O21 0.113751 0.000000 0.977731
O O22 0.160215 0.751912 0.011676
O O23 0.213883 0.500000 0.032418
#
# Coordination Sequence:
#
# PCOD8179932 Si02
#       8
#     8   8   8   8   8   8   8   8
#     4  10  21  36  54  77 105 136 168 206 255 307
#     4   8  15  30  53  78 101 127 164 211 256 298
#     4   8  15  31  55  80 103 128 163 206 253 308
#     4  10  21  36  53  74 101 135 177 219 255 297
#     4   9  18  33  51  72 102 136 166 202 251 304
#     4   8  14  27  49  76 101 125 160 205 252 304
#     4   9  19  36  57  79 103 134 170 208 254 307
#     4  10  22  36  50  74 104 135 176 219 256 297
#
# _framework density 18.791656
#
# number of rings (size 3 to 8) (size 9 to 14) (size 15 to 20)
#    0.000    3.000    0.000    1.875    0.000    4.500 
#    0.000   10.625    0.000    1.125    0.000    1.750 
#    0.000    0.000    0.000    0.000    0.000    0.000 
#
# Total GULP energy -396697.392054 kJ/mol
# GULP energy per Si atom -12396.793502 kJ/mol
# Density = 1.874889 g / cm^3
# Si number density = 18.791656 Si / 1000 Ang^3
#
#
#
# Elastic Constant Matrix: (Units=GPa)
#
#
# Indices 1 2 3 4 5 6 
#
# 1 78.5780 44.7409 64.7046 0.0000 0.0000 0.0000
# 2 44.7409 72.1879 71.0828 0.0000 0.0000 0.0000
# 3 64.7046 71.0828 173.4424 0.0000 0.0000 0.0000
# 4 0.0000 0.0000 0.0000 30.8468 0.0000 0.0000
# 5 0.0000 0.0000 0.0000 0.0000 29.6793 0.0000
# 6 0.0000 0.0000 0.0000 0.0000 0.0000 18.3180
#
#
#
# Elastic Compliance Matrix: (Units=1/GPa)
#
#
# Indices 1 2 3 4 5 6 
#
# 1 0.021401 -0.009058 -0.004272 0.000000 0.000000 0.000000
# 2 -0.009058 0.027059 -0.007711 0.000000 0.000000 0.000000
# 3 -0.004272 -0.007711 0.010519 0.000000 0.000000 0.000000
# 4 0.000000 0.000000 0.000000 0.032418 0.000000 0.000000
# 5 0.000000 0.000000 0.000000 0.000000 0.033694 0.000000
# 6 0.000000 0.000000 0.000000 0.000000 0.000000 0.054591
#
#
# Mechanical properties :
#
#
# Convention : Reuss Voigt Hill
#
# Bulk Modulus (GPa) = 59.17405 76.14054 67.65729
# Shear Modulus (GPa) = 21.98805 25.34746 23.66776
#
# Velocity S-wave (km/s) = 3.42438 3.67668 3.55277
# Velocity P-wave (km/s) = 6.86972 7.65703 7.27404
#
# Compressibility (1/GPa) = 0.01689930
#
# Stress axis : x y z
#
# Youngs Moduli (GPa) = 46.72673 36.95586 95.06264
#
# Poissons Ratio (x) = 0.33473 0.40608
# Poissons Ratio (y) = 0.42324 0.73301
# Poissons Ratio (z) = 0.19960 0.28496
#
# Static dielectric constant tensor:
#      x y z
#    x 3.458360 0.000000 0.000000 
#    y 0.000000 3.402530 0.000000 
#    z 0.000000 0.000000 3.585730 
# 
# 
# High freq. dielectric constant tensor:
#      x y z
#    x 1.727970 0.000000 0.000000 
#    y 0.000000 1.706500 0.000000 
#    z 0.000000 0.000000 1.729960 
# 
# From -- ./inp_files/23006.got.cif
#   From: 2010.03.12/outbox.cif.g09.slc.cpg/sg38_12_cif.got.tgz:23006.got - 2010.04.14 02:38:36.
