data_PCOD8179034
_publ_section_title
;
Structure prediction by ZEFSAII (Michael W. Deem and Ramdas Pophale) SiO2 
 PCOD8179034
Probable space group: A M M 2
;
_chemical_formula_sum "Si O2"
_cell_formula_units_Z 64
_cell_length_a 8.550361
_cell_length_b 29.916092
_cell_length_c 14.347463
_cell_angle_alpha 90.000000
_cell_angle_beta 90.000000
_cell_angle_gamma 90.000000
_cell_volume 3669.986146
_symmetry_space_group_name_H-M "A M M 2"
_symmetry_group_IT_number 38
_symmetry_cell_setting 'orthorhombic'
loop_
_space_group_symop_operation_xyz
x,y,z
-x,-y,z
-x,y,z
x,-y,z
x,1/2+y,1/2+z
-x,1/2-y,1/2+z
-x,1/2+y,1/2+z
x,1/2-y,1/2+z
loop_
_atom_site_type_symbol
_atom_site_label
_atom_site_fract_x
_atom_site_fract_y
_atom_site_fract_z
Si Si1 0.317231 0.949434 0.496000
Si Si2 0.820092 0.724925 0.595684
Si Si3 0.180991 0.949166 0.698264
Si Si4 0.317984 0.699565 0.781552
Si Si5 0.675765 0.683686 0.094736
Si Si6 0.321813 0.132266 0.781123
Si Si7 0.181294 0.864436 0.422948
Si Si8 0.183662 0.785701 0.884137
O O1 0.500000 0.940263 0.485291
O O2 0.271291 0.939945 0.602394
O O3 0.224286 0.916957 0.425252
O O4 0.272757 0.000000 0.467887
O O5 0.719018 0.698081 0.671504
O O6 0.798869 0.777404 0.615268
O O7 0.760716 0.714558 0.491467
O O8 0.000000 0.711852 0.608893
O O9 0.247537 0.917429 0.780685
O O10 0.000000 0.938514 0.680404
O O11 0.206695 0.000000 0.731878
O O12 0.500000 0.691916 0.798034
O O13 0.222159 0.658109 0.824503
O O14 0.271438 0.747230 0.826522
O O15 0.500000 0.703671 0.091046
O O16 0.690870 0.647451 0.174815
O O17 0.712582 0.660513 0.997846
O O18 0.500000 0.130795 0.816825
O O19 0.224002 0.165314 0.846352
O O20 0.000000 0.857515 0.445783
O O21 0.000000 0.776032 0.876450
#
# Coordination Sequence:
#
# PCOD8179034 Si02
#       8
#     8   8   8   8   8   8   8   8
#     4  10  20  34  52  76 107 140 175 217 265 317
#     4  11  23  38  55  76 105 140 180 223 267 311
#     4  10  20  33  51  76 106 140 177 218 265 317
#     4  12  24  37  55  77 106 141 180 222 264 314
#     4  11  21  32  50  76 107 143 181 219 262 309
#     4  11  22  34  52  77 106 143 182 219 263 314
#     4  12  23  35  53  77 106 143 183 221 263 314
#     4  11  23  37  55  77 105 140 179 222 265 313
#
# _framework density 17.438758
#
# number of rings (size 3 to 8) (size 9 to 14) (size 15 to 20)
#    0.000    1.000    3.750    4.500    0.000    4.000 
#    0.000    0.000    0.000    0.000    0.000    0.875 
#    0.000    1.000    0.000    0.000    0.000    0.000 
#
# Total GULP energy -396896.552922 kJ/mol
# GULP energy per Si atom -12403.017279 kJ/mol
# Density = 1.739907 g / cm^3
# Si number density = 17.438758 Si / 1000 Ang^3
#
#
#
# Elastic Constant Matrix: (Units=GPa)
#
#
# Indices 1 2 3 4 5 6 
#
# 1 59.0280 25.1059 28.5879 0.0000 0.0000 0.0000
# 2 25.1059 100.6510 27.4799 0.0000 0.0000 0.0000
# 3 28.5879 27.4799 69.6243 0.0000 0.0000 0.0000
# 4 0.0000 0.0000 0.0000 23.9543 0.0000 0.0000
# 5 0.0000 0.0000 0.0000 0.0000 23.9245 0.0000
# 6 0.0000 0.0000 0.0000 0.0000 0.0000 27.4943
#
#
#
# Elastic Compliance Matrix: (Units=1/GPa)
#
#
# Indices 1 2 3 4 5 6 
#
# 1 0.022142 -0.003408 -0.007747 0.000000 0.000000 0.000000
# 2 -0.003408 0.011660 -0.003203 0.000000 0.000000 0.000000
# 3 -0.007747 -0.003203 0.018808 0.000000 0.000000 0.000000
# 4 0.000000 0.000000 0.000000 0.041746 0.000000 0.000000
# 5 0.000000 0.000000 0.000000 0.000000 0.041798 0.000000
# 6 0.000000 0.000000 0.000000 0.000000 0.000000 0.036371
#
#
# Mechanical properties :
#
#
# Convention : Reuss Voigt Hill
#
# Bulk Modulus (GPa) = 41.84939 43.51673 42.68306
# Shear Modulus (GPa) = 23.90002 24.94995 24.42498
#
# Velocity S-wave (km/s) = 3.70606 3.78659 3.74654
# Velocity P-wave (km/s) = 6.50870 6.64273 6.57606
#
# Compressibility (1/GPa) = 0.02389521
#
# Stress axis : x y z
#
# Youngs Moduli (GPa) = 45.16216 85.76475 53.16995
#
# Poissons Ratio (x) = 0.29230 0.41189
# Poissons Ratio (y) = 0.15392 0.17028
# Poissons Ratio (z) = 0.34985 0.27467
#
# Static dielectric constant tensor:
#      x y z
#    x 3.356490 0.000000 0.000000 
#    y 0.000000 3.407120 0.000000 
#    z 0.000000 0.000000 3.126270 
# 
# 
# High freq. dielectric constant tensor:
#      x y z
#    x 1.692080 0.000000 0.000000 
#    y 0.000000 1.665280 0.000000 
#    z 0.000000 0.000000 1.643790 
# 
# From -- ./inp_files/13109.got.cif
#   From: 2010.03.12/outbox.cif.g09.slc.cpg/sg38_7_cif.got.tgz:13109.got - 2010.04.14 02:38:36.
