data_PCOD8179870
_publ_section_title
;
Structure prediction by ZEFSAII (Michael W. Deem and Ramdas Pophale) SiO2 
 PCOD8179870
Probable space group: A M M 2
;
_chemical_formula_sum "Si O2"
_cell_formula_units_Z 40
_cell_length_a 9.209154
_cell_length_b 9.467676
_cell_length_c 25.637140
_cell_angle_alpha 90.000000
_cell_angle_beta 90.000000
_cell_angle_gamma 90.000000
_cell_volume 2235.283940
_symmetry_space_group_name_H-M "A M M 2"
_symmetry_group_IT_number 38
_symmetry_cell_setting 'orthorhombic'
loop_
_space_group_symop_operation_xyz
x,y,z
-x,-y,z
-x,y,z
x,-y,z
x,1/2+y,1/2+z
-x,1/2-y,1/2+z
-x,1/2+y,1/2+z
x,1/2-y,1/2+z
loop_
_atom_site_type_symbol
_atom_site_label
_atom_site_fract_x
_atom_site_fract_y
_atom_site_fract_z
Si Si1 0.173045 0.158972 0.318100
Si Si2 0.830693 0.336881 0.219509
Si Si3 0.834217 0.666309 0.529457
Si Si4 0.172332 0.843421 0.912526
Si Si5 0.330512 0.836847 0.615482
O O1 0.227493 0.244065 0.267575
O O2 0.235743 0.234369 0.370041
O O3 0.000000 0.158645 0.319708
O O4 0.234557 0.000000 0.315910
O O5 0.798505 0.500000 0.232680
O O6 0.746210 0.285742 0.168377
O O7 0.000000 0.310939 0.209245
O O8 0.818882 0.500000 0.538599
O O9 0.785264 0.706389 0.470686
O O10 0.727512 0.747170 0.567543
O O11 0.000000 0.714283 0.539597
O O12 0.000000 0.851228 0.908242
O O13 0.235745 0.000000 0.901284
O O14 0.500000 0.809335 0.621796
O O15 0.294378 0.000000 0.604631
#
# Coordination Sequence:
#
# PCOD8179870 Si02
#       5
#     8   8   8   8   8
#     4   9  16  25  41  69  99 122 149 190 237 281
#     4   9  17  30  48  68  92 125 161 195 235 284
#     4   9  18  32  51  75 100 127 162 202 241 284
#     4   8  14  26  44  67  96 126 153 185 230 283
#     4  10  21  35  50  70  97 129 165 204 245 289
#
# _framework density 17.894818000000001
#
# number of rings (size 3 to 8) (size 9 to 14) (size 15 to 20)
#    0.000    3.000    0.000    2.400    0.000    5.600 
#    0.000    4.000    0.000    1.200    0.000    2.800 
#    0.000    0.000    0.000    0.000    0.000    0.000 
#
# Total GULP energy -247972.878347 kJ/mol
# GULP energy per Si atom -12398.643917 kJ/mol
# Density = 1.785409 g / cm^3
# Si number density = 17.894818 Si / 1000 Ang^3
#
#
#
# Elastic Constant Matrix: (Units=GPa)
#
#
# Indices 1 2 3 4 5 6 
#
# 1 38.6787 28.6194 43.9376 0.0000 0.0000 0.0000
# 2 28.6194 97.2103 87.8296 0.0000 0.0000 0.0000
# 3 43.9376 87.8296 172.3033 0.0000 0.0000 0.0000
# 4 0.0000 0.0000 0.0000 35.1362 0.0000 0.0000
# 5 0.0000 0.0000 0.0000 0.0000 0.1663 0.0000
# 6 0.0000 0.0000 0.0000 0.0000 0.0000 17.2717
#
#
#
# Elastic Compliance Matrix: (Units=1/GPa)
#
#
# Indices 1 2 3 4 5 6 
#
# 1 0.037403 -0.004438 -0.007275 0.000000 0.000000 0.000000
# 2 -0.004438 0.019596 -0.008857 0.000000 0.000000 0.000000
# 3 -0.007275 -0.008857 0.012174 0.000000 0.000000 0.000000
# 4 0.000000 0.000000 0.000000 0.028461 0.000000 0.000000
# 5 0.000000 0.000000 0.000000 0.000000 6.013604 0.000000
# 6 0.000000 0.000000 0.000000 0.000000 0.000000 0.057898
#
#
# Mechanical properties :
#
#
# Convention : Reuss Voigt Hill
#
# Bulk Modulus (GPa) = 35.67492 69.88506 52.77999
# Shear Modulus (GPa) = 0.80391 20.36854 10.58622
#
# Velocity S-wave (km/s) = 0.67098 3.37744 2.43488
# Velocity P-wave (km/s) = 4.53646 7.37207 6.12074
#
# Compressibility (1/GPa) = 0.02803090
#
# Stress axis : x y z
#
# Youngs Moduli (GPa) = 26.73611 51.03077 82.14418
#
# Poissons Ratio (x) = 0.22649 0.59762
# Poissons Ratio (y) = 0.11866 0.72756
# Poissons Ratio (z) = 0.19451 0.45198
#
# Static dielectric constant tensor:
#      x y z
#    x 2.844920 0.000000 0.000000 
#    y 0.000000 3.421140 0.000000 
#    z 0.000000 0.000000 3.520330 
# 
# 
# High freq. dielectric constant tensor:
#      x y z
#    x 1.642050 0.000000 0.000000 
#    y 0.000000 1.691040 0.000000 
#    z 0.000000 0.000000 1.707120 
# 
# From -- ./inp_files/19460.got.cif
#   From: 2010.03.12/outbox.cif.g09.slc.cpg/sg38_10_cif.got.tgz:19460.got - 2010.04.14 02:38:36.
