data_PCOD8179857
_publ_section_title
;
Structure prediction by ZEFSAII (Michael W. Deem and Ramdas Pophale) SiO2 
 PCOD8179857
Probable space group: A M M 2
;
_chemical_formula_sum "Si O2"
_cell_formula_units_Z 64
_cell_length_a 9.313796
_cell_length_b 18.731774
_cell_length_c 20.827339
_cell_angle_alpha 90.000000
_cell_angle_beta 90.000000
_cell_angle_gamma 90.000000
_cell_volume 3633.619242
_symmetry_space_group_name_H-M "A M M 2"
_symmetry_group_IT_number 38
_symmetry_cell_setting 'orthorhombic'
loop_
_space_group_symop_operation_xyz
x,y,z
-x,-y,z
-x,y,z
x,-y,z
x,1/2+y,1/2+z
-x,1/2-y,1/2+z
-x,1/2+y,1/2+z
x,1/2-y,1/2+z
loop_
_atom_site_type_symbol
_atom_site_label
_atom_site_fract_x
_atom_site_fract_y
_atom_site_fract_z
Si Si1 0.332676 0.666976 0.073880
Si Si2 0.167133 0.175752 0.310688
Si Si3 0.335213 0.677660 0.307932
Si Si4 0.337623 0.334085 0.586209
Si Si5 0.661796 0.185422 0.948210
Si Si6 0.833989 0.325489 0.952632
Si Si7 0.830320 0.419037 0.691969
Si Si8 0.671045 0.079682 0.695448
O O1 0.500000 0.653751 0.064228
O O2 0.298153 0.750113 0.086685
O O3 0.271856 0.621979 0.133439
O O4 0.255280 0.636899 0.009592
O O5 0.253614 0.248141 0.299856
O O6 0.195311 0.141559 0.381599
O O7 0.218194 0.118239 0.258197
O O8 0.000000 0.194664 0.302886
O O9 0.500000 0.694000 0.290463
O O10 0.322157 0.644369 0.380222
O O11 0.271077 0.619579 0.259031
O O12 0.500000 0.345630 0.610665
O O13 0.319402 0.362925 0.512321
O O14 0.232571 0.377526 0.631333
O O15 0.500000 0.220095 0.951882
O O16 0.785383 0.243880 0.948671
O O17 0.000000 0.329636 0.971201
O O18 0.772148 0.500000 0.692726
O O19 0.000000 0.417587 0.684647
O O20 0.500000 0.077276 0.695802
O O21 0.735314 0.000000 0.694719
#
# Coordination Sequence:
#
# PCOD8179857 Si02
#       8
#     8   8   8   8   8   8   8   8
#     4   9  17  30  48  70  96 123 150 185 229 271
#     4   9  18  32  49  69  92 118 150 190 234 274
#     4   9  16  29  51  74  93 118 154 190 223 266
#     4   9  17  30  48  70  93 117 150 191 232 271
#     4   8  15  28  46  70  97 120 145 184 232 272
#     4   9  16  27  46  71  93 115 149 190 229 271
#     4  10  21  35  48  64  90 124 158 190 227 273
#     4   9  17  29  46  69  96 125 156 188 222 264
#
# _framework density 17.613292999999999
#
# number of rings (size 3 to 8) (size 9 to 14) (size 15 to 20)
#    0.000    3.000    0.000    1.875    0.000    4.250 
#    0.000    1.875    0.000    4.500    0.000    0.000 
#    0.000    0.000    0.000    0.000    0.000    0.000 
#
# Total GULP energy -396522.375128 kJ/mol
# GULP energy per Si atom -12391.324223 kJ/mol
# Density = 1.757320 g / cm^3
# Si number density = 17.613293 Si / 1000 Ang^3
#
#
#
# Elastic Constant Matrix: (Units=GPa)
#
#
# Indices 1 2 3 4 5 6 
#
# 1 38.3836 27.1692 43.4135 0.0000 0.0000 0.0000
# 2 27.1692 83.6904 72.1501 0.0000 0.0000 0.0000
# 3 43.4135 72.1501 181.7176 0.0000 0.0000 0.0000
# 4 0.0000 0.0000 0.0000 5.4541 0.0000 0.0000
# 5 0.0000 0.0000 0.0000 0.0000 26.8816 0.0000
# 6 0.0000 0.0000 0.0000 0.0000 0.0000 12.4805
#
#
#
# Elastic Compliance Matrix: (Units=1/GPa)
#
#
# Indices 1 2 3 4 5 6 
#
# 1 0.038139 -0.006882 -0.006379 0.000000 0.000000 0.000000
# 2 -0.006882 0.019409 -0.006062 0.000000 0.000000 0.000000
# 3 -0.006379 -0.006062 0.009434 0.000000 0.000000 0.000000
# 4 0.000000 0.000000 0.000000 0.183350 0.000000 0.000000
# 5 0.000000 0.000000 0.000000 0.000000 0.037200 0.000000
# 6 0.000000 0.000000 0.000000 0.000000 0.000000 0.080125
#
#
# Mechanical properties :
#
#
# Convention : Reuss Voigt Hill
#
# Bulk Modulus (GPa) = 35.29108 65.47303 50.38205
# Shear Modulus (GPa) = 12.02648 19.70049 15.86348
#
# Velocity S-wave (km/s) = 2.61589 3.34803 3.00435
# Velocity P-wave (km/s) = 5.40407 7.22488 6.37977
#
# Compressibility (1/GPa) = 0.02833578
#
# Stress axis : x y z
#
# Youngs Moduli (GPa) = 26.21972 51.52198 105.99877
#
# Poissons Ratio (x) = 0.35457 0.67620
# Poissons Ratio (y) = 0.18044 0.64259
# Poissons Ratio (z) = 0.16726 0.31234
#
# Static dielectric constant tensor:
#      x y z
#    x 3.108250 0.000000 0.000000 
#    y 0.000000 3.003210 0.000000 
#    z 0.000000 0.000000 3.794390 
# 
# 
# High freq. dielectric constant tensor:
#      x y z
#    x 1.663780 0.000000 0.000000 
#    y 0.000000 1.634550 0.000000 
#    z 0.000000 0.000000 1.708380 
# 
# From -- ./inp_files/20053.got.cif
#   From: 2010.03.12/outbox.cif.g09.slc.cpg/sg38_11_cif.got.tgz:20053.got - 2010.04.14 02:38:36.
