data_PCOD8179933
_publ_section_title
;
Structure prediction by ZEFSAII (Michael W. Deem and Ramdas Pophale) SiO2 
 PCOD8179933
Probable space group: A M M 2
;
_chemical_formula_sum "Si O2"
_cell_formula_units_Z 64
_cell_length_a 14.759177
_cell_length_b 9.218340
_cell_length_c 24.273648
_cell_angle_alpha 90.000000
_cell_angle_beta 90.000000
_cell_angle_gamma 90.000000
_cell_volume 3302.553890
_symmetry_space_group_name_H-M "A M M 2"
_symmetry_group_IT_number 38
_symmetry_cell_setting 'orthorhombic'
loop_
_space_group_symop_operation_xyz
x,y,z
-x,-y,z
-x,y,z
x,-y,z
x,1/2+y,1/2+z
-x,1/2-y,1/2+z
-x,1/2+y,1/2+z
x,1/2-y,1/2+z
loop_
_atom_site_type_symbol
_atom_site_label
_atom_site_fract_x
_atom_site_fract_y
_atom_site_fract_z
Si Si1 0.893078 0.332086 0.345150
Si Si2 0.607799 0.836547 0.729024
Si Si3 0.250976 0.169105 0.034394
Si Si4 0.892437 0.661139 0.739277
Si Si5 0.242617 0.670502 0.920752
Si Si6 0.396810 0.166511 0.123991
Si Si7 0.100506 0.827358 0.118724
Si Si8 0.603308 0.331856 0.835516
O O1 0.866446 0.500000 0.347715
O O2 0.858133 0.269272 0.286716
O O3 0.844255 0.247373 0.394193
O O4 0.000000 0.308602 0.352759
O O5 0.500000 0.828785 0.728279
O O6 0.645079 0.759277 0.674110
O O7 0.643083 0.755087 0.783385
O O8 0.644288 0.000000 0.730304
O O9 0.342423 0.196081 0.068324
O O10 0.166921 0.226509 0.070924
O O11 0.239235 0.000000 0.018564
O O12 0.257241 0.267363 0.981121
O O13 0.852032 0.500000 0.750617
O O14 0.862936 0.722394 0.679136
O O15 0.000000 0.651100 0.739445
O O16 0.223338 0.500000 0.923553
O O17 0.334206 0.705957 0.887447
O O18 0.500000 0.210902 0.111468
O O19 0.388513 0.000000 0.142335
O O20 0.000000 0.764524 0.106709
O O21 0.097339 0.000000 0.120206
O O22 0.500000 0.285537 0.849833
O O23 0.607816 0.500000 0.819928
#
# Coordination Sequence:
#
# PCOD8179933 Si02
#       8
#     8   8   8   8   8   8   8   8
#     4  10  21  37  57  81 110 143 176 214 263 317
#     4   9  17  30  52  83 112 136 168 214 267 319
#     4  10  21  36  53  74 101 136 181 223 258 308
#     4   8  14  28  52  80 107 134 168 211 258 311
#     4  11  24  39  55  77 105 139 182 228 271 317
#     4   9  18  33  52  75 107 145 178 211 258 317
#     4   8  15  30  53  78 102 130 165 207 256 308
#     4   9  19  37  58  78 104 140 178 217 267 327
#
# _framework density 19.378943
#
# number of rings (size 3 to 8) (size 9 to 14) (size 15 to 20)
#    0.000    2.750    0.000    1.875    0.000    5.750 
#    0.000    4.375    0.000    0.750    0.000    0.000 
#    0.000    0.000    0.000    0.000    0.000    0.000 
#
# Total GULP energy -396780.031887 kJ/mol
# GULP energy per Si atom -12399.375996 kJ/mol
# Density = 1.933484 g / cm^3
# Si number density = 19.378943 Si / 1000 Ang^3
#
#
#
# Elastic Constant Matrix: (Units=GPa)
#
#
# Indices 1 2 3 4 5 6 
#
# 1 74.6428 43.4803 55.2787 0.0000 0.0000 0.0000
# 2 43.4803 103.2409 79.9454 0.0000 0.0000 0.0000
# 3 55.2787 79.9454 164.2053 0.0000 0.0000 0.0000
# 4 0.0000 0.0000 0.0000 39.1760 0.0000 0.0000
# 5 0.0000 0.0000 0.0000 0.0000 25.0874 0.0000
# 6 0.0000 0.0000 0.0000 0.0000 0.0000 19.1609
#
#
#
# Elastic Compliance Matrix: (Units=1/GPa)
#
#
# Indices 1 2 3 4 5 6 
#
# 1 0.019318 -0.004976 -0.004081 0.000000 0.000000 0.000000
# 2 -0.004976 0.016829 -0.006518 0.000000 0.000000 0.000000
# 3 -0.004081 -0.006518 0.010637 0.000000 0.000000 0.000000
# 4 0.000000 0.000000 0.000000 0.025526 0.000000 0.000000
# 5 0.000000 0.000000 0.000000 0.000000 0.039861 0.000000
# 6 0.000000 0.000000 0.000000 0.000000 0.000000 0.052190
#
#
# Mechanical properties :
#
#
# Convention : Reuss Voigt Hill
#
# Bulk Modulus (GPa) = 63.96175 77.72198 70.84186
# Shear Modulus (GPa) = 24.91012 27.57716 26.24364
#
# Velocity S-wave (km/s) = 3.58917 3.77642 3.68399
# Velocity P-wave (km/s) = 7.08898 7.69471 7.39805
#
# Compressibility (1/GPa) = 0.01563434
#
# Stress axis : x y z
#
# Youngs Moduli (GPa) = 51.76621 59.42016 94.00920
#
# Poissons Ratio (x) = 0.29566 0.38362
# Poissons Ratio (y) = 0.25758 0.61280
# Poissons Ratio (z) = 0.21124 0.38733
#
# Static dielectric constant tensor:
#      x y z
#    x 3.607450 0.000000 0.000000 
#    y 0.000000 3.458940 0.000000 
#    z 0.000000 0.000000 3.582240 
# 
# 
# High freq. dielectric constant tensor:
#      x y z
#    x 1.751210 0.000000 0.000000 
#    y 0.000000 1.737180 0.000000 
#    z 0.000000 0.000000 1.753690 
# 
# From -- ./inp_files/23003.got.cif
#   From: 2010.03.12/outbox.cif.g09.slc.cpg/sg38_12_cif.got.tgz:23003.got - 2010.04.14 02:38:36.
