data_PCOD8179871
_publ_section_title
;
Structure prediction by ZEFSAII (Michael W. Deem and Ramdas Pophale) SiO2 
 PCOD8179871
Probable space group: A M M 2
;
_chemical_formula_sum "Si O2"
_cell_formula_units_Z 64
_cell_length_a 8.936990
_cell_length_b 28.568823
_cell_length_c 14.192191
_cell_angle_alpha 90.000000
_cell_angle_beta 90.000000
_cell_angle_gamma 90.000000
_cell_volume 3623.540065
_symmetry_space_group_name_H-M "A M M 2"
_symmetry_group_IT_number 38
_symmetry_cell_setting 'orthorhombic'
loop_
_space_group_symop_operation_xyz
x,y,z
-x,-y,z
-x,y,z
x,-y,z
x,1/2+y,1/2+z
-x,1/2-y,1/2+z
-x,1/2+y,1/2+z
x,1/2-y,1/2+z
loop_
_atom_site_type_symbol
_atom_site_label
_atom_site_fract_x
_atom_site_fract_y
_atom_site_fract_z
Si Si1 0.677238 0.446658 0.581630
Si Si2 0.323211 0.696817 0.064852
Si Si3 0.677238 0.946658 0.561184
Si Si4 0.323624 0.376145 0.217421
Si Si5 0.323623 0.876145 0.925393
Si Si6 0.824849 0.625811 0.711887
Si Si7 0.824850 0.874189 0.430927
Si Si8 0.676789 0.196818 0.077961
O O1 0.500000 0.442737 0.594625
O O2 0.732172 0.500000 0.577782
O O3 0.728653 0.421542 0.484648
O O4 0.753076 0.421274 0.669877
O O5 0.500000 0.693604 0.048081
O O6 0.276037 0.670722 0.161486
O O7 0.267321 0.750000 0.071407
O O8 0.244255 0.672353 0.976698
O O9 0.500000 0.942737 0.548190
O O10 0.728656 0.921541 0.658165
O O11 0.753074 0.921274 0.472936
O O12 0.732172 0.000000 0.565032
O O13 0.500000 0.377343 0.229273
O O14 0.248215 0.376513 0.321407
O O15 0.500000 0.877340 0.913541
O O16 0.276033 0.829278 0.981329
O O17 0.786454 0.627129 0.821407
O O18 0.755743 0.672353 0.666116
O O19 0.000000 0.624947 0.691781
O O20 0.000000 0.875054 0.451032
O O21 0.500000 0.193604 0.094731
#
# Coordination Sequence:
#
# PCOD8179871 Si02
#       8
#     8   8   8   8   8   8   8   8
#     4   9  18  32  50  72  96 124 161 205 251 294
#     4   9  18  32  51  75 100 127 161 201 242 283
#     4   9  18  32  50  72  96 124 161 205 251 294
#     4   8  14  26  45  70  98 124 153 192 238 288
#     4   8  14  26  45  70  98 124 153 192 238 288
#     4  10  21  35  50  70  98 132 166 199 240 291
#     4  10  21  35  50  70  98 132 166 199 240 291
#     4   9  18  32  51  75 100 127 161 201 242 283
#
# _framework density 17.662285000000001
#
# number of rings (size 3 to 8) (size 9 to 14) (size 15 to 20)
#    0.000    3.000    0.000    2.250    0.000    5.000 
#    0.000    7.500    0.000   12.000    0.000    7.000 
#    0.000    0.000    0.000    0.000    0.000    0.000 
#
# Total GULP energy -396726.340808 kJ/mol
# GULP energy per Si atom -12397.698150 kJ/mol
# Density = 1.762209 g / cm^3
# Si number density = 17.662285 Si / 1000 Ang^3
#
#
#
# Elastic Constant Matrix: (Units=GPa)
#
#
# Indices 1 2 3 4 5 6 
#
# 1 36.6254 39.1642 45.0460 0.0000 0.0000 0.0000
# 2 39.1642 194.3942 92.0695 0.0000 0.0000 0.0000
# 3 45.0460 92.0695 158.5516 0.0000 0.0000 0.0000
# 4 0.0000 0.0000 0.0000 11.1918 0.0000 0.0000
# 5 0.0000 0.0000 0.0000 0.0000 18.2254 0.0000
# 6 0.0000 0.0000 0.0000 0.0000 0.0000 10.5410
#
#
#
# Elastic Compliance Matrix: (Units=1/GPa)
#
#
# Indices 1 2 3 4 5 6 
#
# 1 0.044195 -0.004079 -0.010188 0.000000 0.000000 0.000000
# 2 -0.004079 0.007472 -0.003180 0.000000 0.000000 0.000000
# 3 -0.010188 -0.003180 0.011048 0.000000 0.000000 0.000000
# 4 0.000000 0.000000 0.000000 0.089351 0.000000 0.000000
# 5 0.000000 0.000000 0.000000 0.000000 0.054869 0.000000
# 6 0.000000 0.000000 0.000000 0.000000 0.000000 0.094867
#
#
# Mechanical properties :
#
#
# Convention : Reuss Voigt Hill
#
# Bulk Modulus (GPa) = 35.94276 82.45893 59.20085
# Shear Modulus (GPa) = 14.45212 22.21106 18.33159
#
# Velocity S-wave (km/s) = 2.86361 3.55003 3.22513
# Velocity P-wave (km/s) = 5.59713 7.97442 6.88910
#
# Compressibility (1/GPa) = 0.02782202
#
# Stress axis : x y z
#
# Youngs Moduli (GPa) = 22.62705 133.83061 90.51225
#
# Poissons Ratio (x) = 0.54586 0.92211
# Poissons Ratio (y) = 0.09229 0.28785
# Poissons Ratio (z) = 0.23052 0.42561
#
# Static dielectric constant tensor:
#      x y z
#    x 2.988190 0.000000 0.000000 
#    y 0.000000 3.458430 0.000000 
#    z 0.000000 0.000000 3.490320 
# 
# 
# High freq. dielectric constant tensor:
#      x y z
#    x 1.653460 0.000000 0.000000 
#    y 0.000000 1.688620 0.000000 
#    z 0.000000 0.000000 1.687360 
# 
# From -- ./inp_files/13096.got.cif
#   From: 2010.03.12/outbox.cif.g09.slc.cpg/sg38_7_cif.got.tgz:13096.got - 2010.04.14 02:38:36.
