data_PCOD8179570
_publ_section_title
;
Structure prediction by ZEFSAII (Michael W. Deem and Ramdas Pophale) SiO2 
 PCOD8179570
Probable space group: A M M 2
;
_chemical_formula_sum "Si O2"
_cell_formula_units_Z 64
_cell_length_a 17.764176
_cell_length_b 8.936424
_cell_length_c 20.581942
_cell_angle_alpha 90.000000
_cell_angle_beta 90.000000
_cell_angle_gamma 90.000000
_cell_volume 3267.346425
_symmetry_space_group_name_H-M "A M M 2"
_symmetry_group_IT_number 38
_symmetry_cell_setting 'orthorhombic'
loop_
_space_group_symop_operation_xyz
x,y,z
-x,-y,z
-x,y,z
x,-y,z
x,1/2+y,1/2+z
-x,1/2-y,1/2+z
-x,1/2+y,1/2+z
x,1/2-y,1/2+z
loop_
_atom_site_type_symbol
_atom_site_label
_atom_site_fract_x
_atom_site_fract_y
_atom_site_fract_z
Si Si1 0.338820 0.676766 0.091420
Si Si2 0.084669 0.322020 0.477084
Si Si3 0.415331 0.677980 0.959358
Si Si4 0.177549 0.823051 0.100343
Si Si5 0.322450 0.676948 0.836100
Si Si6 0.838821 0.176766 0.845022
Si Si7 0.086851 0.328738 0.727153
Si Si8 0.413149 0.828738 0.209288
O O1 0.329945 0.500000 0.091107
O O2 0.258472 0.749426 0.102185
O O3 0.394747 0.724009 0.148661
O O4 0.373937 0.735710 0.024052
O O5 0.081319 0.500000 0.478203
O O6 0.130726 0.261202 0.538927
O O7 0.126065 0.264290 0.412390
O O8 0.000000 0.256532 0.479135
O O9 0.500000 0.743467 0.957305
O O10 0.418681 0.500000 0.958238
O O11 0.369272 0.738798 0.897516
O O12 0.134595 0.775050 0.165427
O O13 0.187162 0.000000 0.095756
O O14 0.312835 0.500000 0.840687
O O15 0.241528 0.750577 0.834255
O O16 0.365407 0.724944 0.771016
O O17 0.894749 0.224012 0.787783
O O18 0.829947 0.000000 0.845334
O O19 0.106414 0.500000 0.745113
O O20 0.000000 0.311060 0.708307
O O21 0.500000 0.811059 0.228134
O O22 0.393587 0.000000 0.191327
#
# Coordination Sequence:
#
# PCOD8179570 Si02
#       8
#     8   8   8   8   8   8   8   8
#     4  11  22  35  54  81 113 145 174 211 265 324
#     4   9  18  34  56  80 105 137 179 223 266 313
#     4   9  18  34  56  80 105 137 179 223 266 313
#     4  10  20  36  58  80 104 138 181 225 264 307
#     4  10  20  36  58  80 104 138 181 225 264 307
#     4  11  22  35  54  81 113 145 174 211 265 324
#     4  10  21  37  57  80 105 137 180 226 267 309
#     4  10  21  37  57  80 105 137 180 226 267 309
#
# _framework density 19.587759999999999
#
# number of rings (size 3 to 8) (size 9 to 14) (size 15 to 20)
#    0.000    2.000    0.000    3.750    0.000    8.500 
#    0.000    1.250    0.000    5.250    0.000    0.000 
#    0.000    0.000    0.000    0.000    0.000    0.000 
#
# Total GULP energy -396934.832927 kJ/mol
# GULP energy per Si atom -12404.213529 kJ/mol
# Density = 1.954318 g / cm^3
# Si number density = 19.587760 Si / 1000 Ang^3
#
#
#
# Elastic Constant Matrix: (Units=GPa)
#
#
# Indices 1 2 3 4 5 6 
#
# 1 103.2039 11.7309 27.3248 0.0000 0.0000 0.0000
# 2 11.7309 22.0486 21.1365 0.0000 0.0000 0.0000
# 3 27.3248 21.1365 128.9388 0.0000 0.0000 0.0000
# 4 0.0000 0.0000 0.0000 26.9465 0.0000 0.0000
# 5 0.0000 0.0000 0.0000 0.0000 45.6369 0.0000
# 6 0.0000 0.0000 0.0000 0.0000 0.0000 24.1344
#
#
#
# Elastic Compliance Matrix: (Units=1/GPa)
#
#
# Indices 1 2 3 4 5 6 
#
# 1 0.010573 -0.004126 -0.001564 0.000000 0.000000 0.000000
# 2 -0.004126 0.055420 -0.008211 0.000000 0.000000 0.000000
# 3 -0.001564 -0.008211 0.009433 0.000000 0.000000 0.000000
# 4 0.000000 0.000000 0.000000 0.037111 0.000000 0.000000
# 5 0.000000 0.000000 0.000000 0.000000 0.021912 0.000000
# 6 0.000000 0.000000 0.000000 0.000000 0.000000 0.041435
#
#
# Mechanical properties :
#
#
# Convention : Reuss Voigt Hill
#
# Bulk Modulus (GPa) = 20.99732 41.61951 31.30842
# Shear Modulus (GPa) = 22.77293 32.27685 27.52489
#
# Velocity S-wave (km/s) = 3.41341 4.06372 3.75268
# Velocity P-wave (km/s) = 5.12621 6.58121 5.89874
#
# Compressibility (1/GPa) = 0.04762512
#
# Stress axis : x y z
#
# Youngs Moduli (GPa) = 94.58352 18.04397 106.01033
#
# Poissons Ratio (x) = 0.07444 0.16583
# Poissons Ratio (y) = 0.39021 0.87040
# Poissons Ratio (z) = 0.14795 0.14815
#
# Static dielectric constant tensor:
#      x y z
#    x 3.686460 0.000000 0.000000 
#    y 0.000000 3.269970 0.000000 
#    z 0.000000 0.000000 3.834130 
# 
# 
# High freq. dielectric constant tensor:
#      x y z
#    x 1.782480 0.000000 0.000000 
#    y 0.000000 1.728670 0.000000 
#    z 0.000000 0.000000 1.781190 
# 
# From -- ./inp_files/21434.got.cif
#   From: 2010.03.12/outbox.cif.g09.slc.cpg/sg38_11_cif.got.tgz:21434.got - 2010.04.14 02:38:36.
