data_PCOD8179055
_publ_section_title
;
Structure prediction by ZEFSAII (Michael W. Deem and Ramdas Pophale) SiO2 
 PCOD8179055
Probable space group: A M M 2
;
_chemical_formula_sum "Si O2"
_cell_formula_units_Z 56
_cell_length_a 8.744607
_cell_length_b 16.554662
_cell_length_c 19.501534
_cell_angle_alpha 90.000000
_cell_angle_beta 90.000000
_cell_angle_gamma 90.000000
_cell_volume 2823.120326
_symmetry_space_group_name_H-M "A M M 2"
_symmetry_group_IT_number 38
_symmetry_cell_setting 'orthorhombic'
loop_
_space_group_symop_operation_xyz
x,y,z
-x,-y,z
-x,y,z
x,-y,z
x,1/2+y,1/2+z
-x,1/2-y,1/2+z
-x,1/2+y,1/2+z
x,1/2-y,1/2+z
loop_
_atom_site_type_symbol
_atom_site_label
_atom_site_fract_x
_atom_site_fract_y
_atom_site_fract_z
Si Si1 0.822330 0.764833 0.698090
Si Si2 0.176576 0.911497 0.478929
Si Si3 0.823119 0.160054 0.836639
Si Si4 0.676053 0.157461 0.088178
Si Si5 0.679282 0.000000 0.871245
Si Si6 0.325121 0.746734 0.953551
Si Si7 0.326159 0.089376 0.625812
Si Si8 0.819295 0.000000 0.023313
O O1 0.786705 0.770918 0.779553
O O2 0.733036 0.691388 0.661653
O O3 0.771037 0.852339 0.672941
O O4 0.000000 0.751276 0.682897
O O5 0.271593 0.844492 0.437623
O O6 0.244164 0.915613 0.553822
O O7 0.000000 0.885358 0.481813
O O8 0.194712 0.000000 0.443717
O O9 0.780756 0.193869 0.910782
O O10 0.000000 0.136392 0.834793
O O11 0.727768 0.077831 0.826739
O O12 0.500000 0.132220 0.094726
O O13 0.697832 0.230191 0.033420
O O14 0.768627 0.078732 0.065748
O O15 0.500000 0.000000 0.882561
O O16 0.751981 0.000000 0.947053
O O17 0.500000 0.757456 0.930411
O O18 0.500000 0.121887 0.616713
O O19 0.327478 0.000000 0.659240
O O20 0.000000 0.000000 0.017111
#
# Coordination Sequence:
#
# PCOD8179055 Si02
#       8
#     8   8   8   8   4   8   8   4
#     4  11  24  40  60  87 120 161 206 250 302 368
#     4  10  20  34  56  85 115 150 192 242 294 348
#     4  11  25  42  61  88 124 165 207 254 312 379
#     4  11  23  40  64  94 125 160 205 257 311 372
#     4  12  24  40  62  94 132 169 212 259 316 382
#     4  11  22  37  61  90 119 157 200 252 307 368
#     4  10  20  33  51  80 116 153 191 232 281 338
#     4  12  24  40  68  98 126 161 206 265 322 372
#
# _framework density 19.836207000000002
#
# number of rings (size 3 to 8) (size 9 to 14) (size 15 to 20)
#    0.000    1.143    2.857    3.857    1.000    5.143 
#    0.000    0.000    1.571    0.000    0.000    0.000 
#    0.000    0.000    0.000    0.000    0.000    0.000 
#
# Total GULP energy -347199.499716 kJ/mol
# GULP energy per Si atom -12399.982133 kJ/mol
# Density = 1.979106 g / cm^3
# Si number density = 19.836207 Si / 1000 Ang^3
#
#
#
# Elastic Constant Matrix: (Units=GPa)
#
#
# Indices 1 2 3 4 5 6 
#
# 1 121.4167 45.6990 42.8688 0.0000 0.0000 0.0000
# 2 45.6990 102.8770 20.7940 0.0000 0.0000 0.0000
# 3 42.8688 20.7940 63.7905 0.0000 0.0000 0.0000
# 4 0.0000 0.0000 0.0000 30.0035 0.0000 0.0000
# 5 0.0000 0.0000 0.0000 0.0000 13.6571 0.0000
# 6 0.0000 0.0000 0.0000 0.0000 0.0000 37.7189
#
#
#
# Elastic Compliance Matrix: (Units=1/GPa)
#
#
# Indices 1 2 3 4 5 6 
#
# 1 0.012175 -0.004019 -0.006872 0.000000 0.000000 0.000000
# 2 -0.004019 0.011733 -0.001123 0.000000 0.000000 0.000000
# 3 -0.006872 -0.001123 0.020661 0.000000 0.000000 0.000000
# 4 0.000000 0.000000 0.000000 0.033329 0.000000 0.000000
# 5 0.000000 0.000000 0.000000 0.000000 0.073222 0.000000
# 6 0.000000 0.000000 0.000000 0.000000 0.000000 0.026512
#
#
# Mechanical properties :
#
#
# Convention : Reuss Voigt Hill
#
# Bulk Modulus (GPa) = 48.68721 56.31199 52.49960
# Shear Modulus (GPa) = 23.97990 28.19071 26.08531
#
# Velocity S-wave (km/s) = 3.48069 3.77394 3.63028
# Velocity P-wave (km/s) = 6.38369 6.88769 6.64047
#
# Compressibility (1/GPa) = 0.02053927
#
# Stress axis : x y z
#
# Youngs Moduli (GPa) = 82.13451 85.23063 48.40143
#
# Poissons Ratio (x) = 0.34257 0.33260
# Poissons Ratio (y) = 0.33013 0.05438
# Poissons Ratio (z) = 0.56441 0.09576
#
# Static dielectric constant tensor:
#      x y z
#    x 3.759150 0.000000 0.000000 
#    y 0.000000 3.879590 0.000000 
#    z 0.000000 0.000000 3.369100 
# 
# 
# High freq. dielectric constant tensor:
#      x y z
#    x 1.790770 0.000000 0.000000 
#    y 0.000000 1.778400 0.000000 
#    z 0.000000 0.000000 1.745410 
# 
# From -- ./inp_files/19859.got.cif
#   From: 2010.03.12/outbox.cif.g09.slc.cpg/sg38_10_cif.got.tgz:19859.got - 2010.04.14 02:38:36.
