data_PCOD8179439
_publ_section_title
;
Structure prediction by ZEFSAII (Michael W. Deem and Ramdas Pophale) SiO2 
 PCOD8179439
Probable space group: A M M 2
;
_chemical_formula_sum "Si O2"
_cell_formula_units_Z 48
_cell_length_a 7.611375
_cell_length_b 9.040751
_cell_length_c 34.042048
_cell_angle_alpha 90.000000
_cell_angle_beta 90.000000
_cell_angle_gamma 90.000000
_cell_volume 2342.519999
_symmetry_space_group_name_H-M "A M M 2"
_symmetry_group_IT_number 38
_symmetry_cell_setting 'orthorhombic'
loop_
_space_group_symop_operation_xyz
x,y,z
-x,-y,z
-x,y,z
x,-y,z
x,1/2+y,1/2+z
-x,1/2-y,1/2+z
-x,1/2+y,1/2+z
x,1/2-y,1/2+z
loop_
_atom_site_type_symbol
_atom_site_label
_atom_site_fract_x
_atom_site_fract_y
_atom_site_fract_z
Si Si1 0.196955 0.168639 0.138910
Si Si2 0.208255 0.333807 0.298864
Si Si3 0.791709 0.165228 0.374188
Si Si4 0.795820 0.325628 0.453057
Si Si5 0.500000 0.829790 0.593760
Si Si6 0.701834 0.668052 0.213500
Si Si7 0.500000 0.671556 0.001259
O O1 0.324026 0.258341 0.110592
O O2 0.192171 0.232809 0.182953
O O3 0.000000 0.179670 0.121669
O O4 0.261886 0.000000 0.140715
O O5 0.282024 0.500000 0.303844
O O6 0.286143 0.235380 0.334243
O O7 0.272690 0.267128 0.257343
O O8 0.000000 0.333803 0.300276
O O9 0.733313 0.264902 0.410885
O O10 0.000000 0.160821 0.371534
O O11 0.715200 0.000000 0.379302
O O12 0.763695 0.500000 0.453757
O O13 0.676913 0.248744 0.485852
O O14 0.000000 0.286815 0.461363
O O15 0.500000 0.807886 0.547558
O O16 0.500000 0.000000 0.606409
O O17 0.500000 0.673589 0.200751
O O18 0.774440 0.500000 0.212335
O O19 0.500000 0.500000 0.988890
#
# Coordination Sequence:
#
# PCOD8179439 Si02
#       7
#     8   8   8   8   4   8   4
#     4  11  24  41  64  93 124 160 200 246 302 360
#     4   9  17  30  49  75 110 154 203 251 298 352
#     4   9  17  31  53  80 113 155 202 252 300 347
#     4  10  21  39  64  92 123 162 205 247 297 359
#     4  11  25  45  67  92 123 158 197 245 297 360
#     4  10  20  35  56  83 117 159 205 251 299 353
#     4  11  25  43  65  94 125 156 195 245 303 362
#
# _framework density 20.490753000000002
#
# number of rings (size 3 to 8) (size 9 to 14) (size 15 to 20)
#    0.000    2.000    0.833    2.500    0.000    7.667 
#    1.500    5.000    0.000    0.000    0.000    0.000 
#    0.000    0.000    0.000    0.000    0.000    0.000 
#
# Total GULP energy -297648.077946 kJ/mol
# GULP energy per Si atom -12402.003248 kJ/mol
# Density = 2.044412 g / cm^3
# Si number density = 20.490753 Si / 1000 Ang^3
#
#
#
# Elastic Constant Matrix: (Units=GPa)
#
#
# Indices 1 2 3 4 5 6 
#
# 1 83.3657 52.1065 45.6851 0.0000 0.0000 0.0000
# 2 52.1065 150.4338 78.4361 0.0000 0.0000 0.0000
# 3 45.6851 78.4361 121.3950 0.0000 0.0000 0.0000
# 4 0.0000 0.0000 0.0000 36.6122 0.0000 0.0000
# 5 0.0000 0.0000 0.0000 0.0000 30.1219 0.0000
# 6 0.0000 0.0000 0.0000 0.0000 0.0000 24.5200
#
#
#
# Elastic Compliance Matrix: (Units=1/GPa)
#
#
# Indices 1 2 3 4 5 6 
#
# 1 0.016378 -0.003709 -0.003767 0.000000 0.000000 0.000000
# 2 -0.003709 0.010864 -0.005624 0.000000 0.000000 0.000000
# 3 -0.003767 -0.005624 0.013289 0.000000 0.000000 0.000000
# 4 0.000000 0.000000 0.000000 0.027313 0.000000 0.000000
# 5 0.000000 0.000000 0.000000 0.000000 0.033198 0.000000
# 6 0.000000 0.000000 0.000000 0.000000 0.000000 0.040783
#
#
# Mechanical properties :
#
#
# Convention : Reuss Voigt Hill
#
# Bulk Modulus (GPa) = 69.77662 78.62778 74.20220
# Shear Modulus (GPa) = 28.93462 30.18194 29.55828
#
# Velocity S-wave (km/s) = 3.76184 3.84207 3.80217
# Velocity P-wave (km/s) = 7.27979 7.62480 7.45429
#
# Compressibility (1/GPa) = 0.01433145
#
# Stress axis : x y z
#
# Youngs Moduli (GPa) = 61.05795 92.04379 75.24915
#
# Poissons Ratio (x) = 0.34135 0.28349
# Poissons Ratio (y) = 0.22644 0.42321
# Poissons Ratio (z) = 0.23003 0.51766
#
# Static dielectric constant tensor:
#      x y z
#    x 3.567460 0.000000 0.000000 
#    y 0.000000 3.872670 0.000000 
#    z 0.000000 0.000000 3.721650 
# 
# 
# High freq. dielectric constant tensor:
#      x y z
#    x 1.796990 0.000000 0.000000 
#    y 0.000000 1.803060 0.000000 
#    z 0.000000 0.000000 1.801960 
# 
# From -- ./inp_files/24365.got.cif
#   From: 2010.03.12/outbox.cif.g09.slc.cpg/sg38_13_cif.got.tgz:24365.got - 2010.04.14 02:38:36.
