data_PCOD8179278
_publ_section_title
;
Structure prediction by ZEFSAII (Michael W. Deem and Ramdas Pophale) SiO2 
 PCOD8179278
Probable space group: A M M 2
;
_chemical_formula_sum "Si O2"
_cell_formula_units_Z 56
_cell_length_a 21.468082
_cell_length_b 8.808616
_cell_length_c 15.333708
_cell_angle_alpha 90.000000
_cell_angle_beta 90.000000
_cell_angle_gamma 90.000000
_cell_volume 2899.666907
_symmetry_space_group_name_H-M "A M M 2"
_symmetry_group_IT_number 38
_symmetry_cell_setting 'orthorhombic'
loop_
_space_group_symop_operation_xyz
x,y,z
-x,-y,z
-x,y,z
x,-y,z
x,1/2+y,1/2+z
-x,1/2-y,1/2+z
-x,1/2+y,1/2+z
x,1/2-y,1/2+z
loop_
_atom_site_type_symbol
_atom_site_label
_atom_site_fract_x
_atom_site_fract_y
_atom_site_fract_z
Si Si1 0.848276 0.320407 0.115890
Si Si2 0.072303 0.323728 0.764283
Si Si3 0.620468 0.674005 0.970308
Si Si4 0.930967 0.319582 0.960074
Si Si5 0.626474 0.174400 0.274307
Si Si6 0.708261 0.679284 0.127877
Si Si7 0.500000 0.322972 0.532244
Si Si8 0.500000 0.679387 0.219600
O O1 0.846707 0.500000 0.109074
O O2 0.885046 0.275378 0.202072
O O3 0.778167 0.256393 0.118957
O O4 0.882575 0.251871 0.030376
O O5 0.087680 0.500000 0.750159
O O6 0.088994 0.271725 0.862632
O O7 0.000000 0.291006 0.744376
O O8 0.600127 0.500000 0.987602
O O9 0.649844 0.690967 0.874005
O O10 0.560624 0.781781 0.976413
O O11 0.671366 0.726927 0.040805
O O12 0.933192 0.500000 0.965122
O O13 0.000000 0.255437 0.981374
O O14 0.678037 0.247062 0.212747
O O15 0.560616 0.256839 0.266631
O O16 0.617346 0.000000 0.247426
O O17 0.707446 0.500000 0.141175
O O18 0.500000 0.500000 0.555290
O O19 0.500000 0.224291 0.619124
O O20 0.500000 0.500000 0.227844
#
# Coordination Sequence:
#
# PCOD8179278 Si02
#       8
#     8   8   8   8   8   8   4   4
#     4  10  20  34  55  81 108 144 191 229 270 328
#     4   9  18  33  54  81 111 142 179 226 282 336
#     4  10  22  40  60  82 113 150 185 229 286 337
#     4   8  15  30  53  79 107 141 182 225 270 330
#     4  11  23  39  61  88 112 143 192 236 274 335
#     4  10  22  39  56  78 112 153 187 226 282 335
#     4  12  23  36  61  92 116 142 185 233 278 335
#     4  12  23  38  61  86 118 152 179 225 290 335
#
# _framework density 19.312563000000001
#
# number of rings (size 3 to 8) (size 9 to 14) (size 15 to 20)
#    0.000    2.000    1.429    3.429    0.000    5.429 
#    0.000    3.571    0.000    0.857    0.000    0.000 
#    0.000    0.000    0.000    0.000    0.000    0.000 
#
# Total GULP energy -347239.241126 kJ/mol
# GULP energy per Si atom -12401.401469 kJ/mol
# Density = 1.926861 g / cm^3
# Si number density = 19.312563 Si / 1000 Ang^3
#
#
#
# Elastic Constant Matrix: (Units=GPa)
#
#
# Indices 1 2 3 4 5 6 
#
# 1 137.2153 29.2065 73.7799 0.0000 0.0000 0.0000
# 2 29.2065 40.7536 21.9773 0.0000 0.0000 0.0000
# 3 73.7799 21.9773 138.4059 0.0000 0.0000 0.0000
# 4 0.0000 0.0000 0.0000 30.9976 0.0000 0.0000
# 5 0.0000 0.0000 0.0000 0.0000 12.6676 0.0000
# 6 0.0000 0.0000 0.0000 0.0000 0.0000 19.4413
#
#
#
# Elastic Compliance Matrix: (Units=1/GPa)
#
#
# Indices 1 2 3 4 5 6 
#
# 1 0.011151 -0.005234 -0.005113 0.000000 0.000000 0.000000
# 2 -0.005234 0.029293 -0.001861 0.000000 0.000000 0.000000
# 3 -0.005113 -0.001861 0.010246 0.000000 0.000000 0.000000
# 4 0.000000 0.000000 0.000000 0.032261 0.000000 0.000000
# 5 0.000000 0.000000 0.000000 0.000000 0.078942 0.000000
# 6 0.000000 0.000000 0.000000 0.000000 0.000000 0.051437
#
#
# Mechanical properties :
#
#
# Convention : Reuss Voigt Hill
#
# Bulk Modulus (GPa) = 38.06199 62.92248 50.49223
# Shear Modulus (GPa) = 20.28362 25.38202 22.83282
#
# Velocity S-wave (km/s) = 3.24432 3.62923 3.44216
# Velocity P-wave (km/s) = 5.81252 7.08615 6.48070
#
# Compressibility (1/GPa) = 0.02627293
#
# Stress axis : x y z
#
# Youngs Moduli (GPa) = 89.67544 34.13843 97.59539
#
# Poissons Ratio (x) = 0.17869 0.49903
# Poissons Ratio (y) = 0.46938 0.18163
# Poissons Ratio (z) = 0.45854 0.06353
#
# Static dielectric constant tensor:
#      x y z
#    x 3.721490 0.000000 0.000000 
#    y 0.000000 3.301760 0.000000 
#    z 0.000000 0.000000 3.691380 
# 
# 
# High freq. dielectric constant tensor:
#      x y z
#    x 1.748400 0.000000 0.000000 
#    y 0.000000 1.730610 0.000000 
#    z 0.000000 0.000000 1.766540 
# 
# From -- ./inp_files/15561.got.cif
#   From: 2010.03.12/outbox.cif.g09.slc.cpg/sg38_8_cif.got.tgz:15561.got - 2010.04.14 02:38:36.
