data_PCOD8179890
_publ_section_title
;
Structure prediction by ZEFSAII (Michael W. Deem and Ramdas Pophale) SiO2 
 PCOD8179890
Probable space group: A M M 2
;
_chemical_formula_sum "Si O2"
_cell_formula_units_Z 64
_cell_length_a 9.119326
_cell_length_b 24.424591
_cell_length_c 14.807327
_cell_angle_alpha 90.000000
_cell_angle_beta 90.000000
_cell_angle_gamma 90.000000
_cell_volume 3298.121940
_symmetry_space_group_name_H-M "A M M 2"
_symmetry_group_IT_number 38
_symmetry_cell_setting 'orthorhombic'
loop_
_space_group_symop_operation_xyz
x,y,z
-x,-y,z
-x,y,z
x,-y,z
x,1/2+y,1/2+z
-x,1/2-y,1/2+z
-x,1/2+y,1/2+z
x,1/2-y,1/2+z
loop_
_atom_site_type_symbol
_atom_site_label
_atom_site_fract_x
_atom_site_fract_y
_atom_site_fract_z
Si Si1 0.330100 0.754316 0.530050
Si Si2 0.829128 0.764112 0.342533
Si Si3 0.169121 0.062447 0.191297
Si Si4 0.826096 0.937952 0.692274
Si Si5 0.671693 0.369796 0.832509
Si Si6 0.666550 0.624880 0.042357
Si Si7 0.828954 0.143906 0.840436
Si Si8 0.172572 0.849300 0.044169
O O1 0.500000 0.743511 0.504335
O O2 0.228530 0.758620 0.443200
O O3 0.316414 0.812843 0.580540
O O4 0.261767 0.703080 0.585483
O O5 0.744081 0.813682 0.293427
O O6 0.799877 0.704449 0.297688
O O7 0.000000 0.778797 0.342690
O O8 0.266004 0.079069 0.277250
O O9 0.210982 0.098220 0.104148
O O10 0.000000 0.070681 0.217686
O O11 0.204342 0.000000 0.166174
O O12 0.769354 0.916073 0.596685
O O13 0.758473 0.901364 0.773869
O O14 0.000000 0.933943 0.689790
O O15 0.772874 0.000000 0.706967
O O16 0.500000 0.364735 0.817656
O O17 0.712328 0.377889 0.937283
O O18 0.500000 0.604885 0.053744
O O19 0.000000 0.132062 0.846899
O O20 0.767631 0.138451 0.942684
O O21 0.000000 0.835460 0.044992
#
# Coordination Sequence:
#
# PCOD8179890 Si02
#       8
#     8   8   8   8   8   8   8   8
#     4   9  17  31  52  80 110 138 172 214 263 320
#     4   9  16  30  54  81 108 138 172 213 262 317
#     4  10  22  38  55  78 106 138 182 229 269 317
#     4  10  21  35  52  76 103 134 176 219 255 298
#     4  10  21  37  56  78 106 140 175 216 270 327
#     4   9  20  37  54  74 103 138 172 209 259 315
#     4   8  16  32  53  78 107 136 167 207 258 311
#     4   9  18  34  56  80 107 141 176 214 264 318
#
# _framework density 19.404983000000001
#
# number of rings (size 3 to 8) (size 9 to 14) (size 15 to 20)
#    0.000    2.750    0.000    2.625    0.000    6.000 
#    0.000   11.875    0.000    0.000    0.000    1.750 
#    0.000    0.000    0.000    0.000    0.000    0.000 
#
# Total GULP energy -396624.338834 kJ/mol
# GULP energy per Si atom -12394.510589 kJ/mol
# Density = 1.936082 g / cm^3
# Si number density = 19.404983 Si / 1000 Ang^3
#
#
#
# Elastic Constant Matrix: (Units=GPa)
#
#
# Indices 1 2 3 4 5 6 
#
# 1 51.1384 40.8291 25.6769 0.0000 0.0000 0.0000
# 2 40.8291 116.9780 39.8221 0.0000 0.0000 0.0000
# 3 25.6769 39.8221 65.7158 0.0000 0.0000 0.0000
# 4 0.0000 0.0000 0.0000 33.1528 0.0000 0.0000
# 5 0.0000 0.0000 0.0000 0.0000 13.8174 0.0000
# 6 0.0000 0.0000 0.0000 0.0000 0.0000 16.7076
#
#
#
# Elastic Compliance Matrix: (Units=1/GPa)
#
#
# Indices 1 2 3 4 5 6 
#
# 1 0.029216 -0.007951 -0.006597 0.000000 0.000000 0.000000
# 2 -0.007951 0.012935 -0.004731 0.000000 0.000000 0.000000
# 3 -0.006597 -0.004731 0.020662 0.000000 0.000000 0.000000
# 4 0.000000 0.000000 0.000000 0.030163 0.000000 0.000000
# 5 0.000000 0.000000 0.000000 0.000000 0.072373 0.000000
# 6 0.000000 0.000000 0.000000 0.000000 0.000000 0.059853
#
#
# Mechanical properties :
#
#
# Convention : Reuss Voigt Hill
#
# Bulk Modulus (GPa) = 41.23260 49.60983 45.42121
# Shear Modulus (GPa) = 18.39290 21.23583 19.81437
#
# Velocity S-wave (km/s) = 3.08205 3.31168 3.19893
# Velocity P-wave (km/s) = 5.82752 6.34382 6.09114
#
# Compressibility (1/GPa) = 0.02425265
#
# Stress axis : x y z
#
# Youngs Moduli (GPa) = 34.22823 77.31251 48.39895
#
# Poissons Ratio (x) = 0.61475 0.31929
# Poissons Ratio (y) = 0.27216 0.22898
# Poissons Ratio (z) = 0.22580 0.36578
#
# Static dielectric constant tensor:
#      x y z
#    x 3.415150 0.000000 0.000000 
#    y 0.000000 3.984950 0.000000 
#    z 0.000000 0.000000 3.395180 
# 
# 
# High freq. dielectric constant tensor:
#      x y z
#    x 1.740530 0.000000 0.000000 
#    y 0.000000 1.762300 0.000000 
#    z 0.000000 0.000000 1.736380 
# 
# From -- ./inp_files/12816.got.cif
#   From: 2010.03.12/outbox.cif.g09.slc.cpg/sg38_7_cif.got.tgz:12816.got - 2010.04.14 02:38:36.
