data_PCOD8179223
_publ_section_title
;
Structure prediction by ZEFSAII (Michael W. Deem and Ramdas Pophale) SiO2 
 PCOD8179223
Probable space group: A M M 2
;
_chemical_formula_sum "Si O2"
_cell_formula_units_Z 48
_cell_length_a 9.072121
_cell_length_b 9.289643
_cell_length_c 31.006055
_cell_angle_alpha 90.000000
_cell_angle_beta 90.000000
_cell_angle_gamma 90.000000
_cell_volume 2613.090021
_symmetry_space_group_name_H-M "A M M 2"
_symmetry_group_IT_number 38
_symmetry_cell_setting 'orthorhombic'
loop_
_space_group_symop_operation_xyz
x,y,z
-x,-y,z
-x,y,z
x,-y,z
x,1/2+y,1/2+z
-x,1/2-y,1/2+z
-x,1/2+y,1/2+z
x,1/2-y,1/2+z
loop_
_atom_site_type_symbol
_atom_site_label
_atom_site_fract_x
_atom_site_fract_y
_atom_site_fract_z
Si Si1 0.669717 0.170223 0.818130
Si Si2 0.670514 0.833178 0.481902
Si Si3 0.833751 0.328811 0.233218
Si Si4 0.324682 0.662514 0.564887
Si Si5 0.327440 0.667088 0.147894
Si Si6 0.171567 0.832632 0.394373
O O1 0.500000 0.216516 0.816667
O O2 0.746387 0.229508 0.774761
O O3 0.746299 0.240872 0.858792
O O4 0.688163 0.000000 0.822203
O O5 0.500000 0.797960 0.472200
O O6 0.732625 0.742062 0.522057
O O7 0.765053 0.787308 0.440666
O O8 0.691753 0.000000 0.493530
O O9 0.830996 0.500000 0.233330
O O10 0.755442 0.272331 0.189964
O O11 0.000000 0.269106 0.234901
O O12 0.500000 0.666383 0.565223
O O13 0.263929 0.500000 0.565249
O O14 0.265684 0.745104 0.607047
O O15 0.500000 0.692346 0.155317
O O16 0.292548 0.500000 0.139624
O O17 0.000000 0.795012 0.393263
O O18 0.201809 0.000000 0.385423
#
# Coordination Sequence:
#
# PCOD8179223 Si02
#       6
#     8   8   8   8   8   8
#     4  10  20  34  54  79 104 132 169 211 253 299
#     4   9  17  31  51  72  95 127 167 207 246 292
#     4   9  17  30  49  73 100 130 165 205 247 292
#     4   9  17  29  47  72  99 125 158 203 250 293
#     4   9  16  28  48  71  94 124 164 205 243 288
#     4  10  21  36  53  75 104 136 169 207 253 304
#
# _framework density 18.369057000000002
#
# number of rings (size 3 to 8) (size 9 to 14) (size 15 to 20)
#    0.000    2.667    0.000    2.000    0.000    6.667 
#    0.000    3.333    0.000    8.500    0.000    0.000 
#    0.000    0.000    0.000    0.000    0.000    0.000 
#
# Total GULP energy -297635.413108 kJ/mol
# GULP energy per Si atom -12401.475546 kJ/mol
# Density = 1.832725 g / cm^3
# Si number density = 18.369057 Si / 1000 Ang^3
#
#
#
# Elastic Constant Matrix: (Units=GPa)
#
#
# Indices 1 2 3 4 5 6 
#
# 1 101.9523 38.7207 80.1226 0.0000 0.0000 0.0000
# 2 38.7207 60.4674 66.7448 0.0000 0.0000 0.0000
# 3 80.1226 66.7448 186.8011 0.0000 0.0000 0.0000
# 4 0.0000 0.0000 0.0000 32.0122 0.0000 0.0000
# 5 0.0000 0.0000 0.0000 0.0000 3.1104 0.0000
# 6 0.0000 0.0000 0.0000 0.0000 0.0000 17.5536
#
#
#
# Elastic Compliance Matrix: (Units=1/GPa)
#
#
# Indices 1 2 3 4 5 6 
#
# 1 0.015431 -0.004253 -0.005099 0.000000 0.000000 0.000000
# 2 -0.004253 0.028480 -0.008352 0.000000 0.000000 0.000000
# 3 -0.005099 -0.008352 0.010525 0.000000 0.000000 0.000000
# 4 0.000000 0.000000 0.000000 0.031238 0.000000 0.000000
# 5 0.000000 0.000000 0.000000 0.000000 0.321503 0.000000
# 6 0.000000 0.000000 0.000000 0.000000 0.000000 0.056968
#
#
# Mechanical properties :
#
#
# Convention : Reuss Voigt Hill
#
# Bulk Modulus (GPa) = 52.55430 80.04413 66.29922
# Shear Modulus (GPa) = 9.88345 21.44408 15.66376
#
# Velocity S-wave (km/s) = 2.32210 3.42043 2.92331
# Velocity P-wave (km/s) = 5.98848 7.69865 6.89678
#
# Compressibility (1/GPa) = 0.01902794
#
# Stress axis : x y z
#
# Youngs Moduli (GPa) = 64.80456 35.11204 95.01577
#
# Poissons Ratio (x) = 0.14933 0.48449
# Poissons Ratio (y) = 0.27561 0.79357
# Poissons Ratio (z) = 0.33044 0.29325
#
# Static dielectric constant tensor:
#      x y z
#    x 3.322800 0.000000 0.000000 
#    y 0.000000 3.216270 0.000000 
#    z 0.000000 0.000000 3.584050 
# 
# 
# High freq. dielectric constant tensor:
#      x y z
#    x 1.698460 0.000000 0.000000 
#    y 0.000000 1.687460 0.000000 
#    z 0.000000 0.000000 1.729310 
# 
# From -- ./inp_files/23345.got.cif
#   From: 2010.03.12/outbox.cif.g09.slc.cpg/sg38_12_cif.got.tgz:23345.got - 2010.04.14 02:38:36.
