data_PCOD8179567
_publ_section_title
;
Structure prediction by ZEFSAII (Michael W. Deem and Ramdas Pophale) SiO2 
 PCOD8179567
Probable space group: A M M 2
;
_chemical_formula_sum "Si O2"
_cell_formula_units_Z 48
_cell_length_a 9.021748
_cell_length_b 18.062382
_cell_length_c 14.919646
_cell_angle_alpha 90.000000
_cell_angle_beta 90.000000
_cell_angle_gamma 90.000000
_cell_volume 2431.219854
_symmetry_space_group_name_H-M "A M M 2"
_symmetry_group_IT_number 38
_symmetry_cell_setting 'orthorhombic'
loop_
_space_group_symop_operation_xyz
x,y,z
-x,-y,z
-x,y,z
x,-y,z
x,1/2+y,1/2+z
-x,1/2-y,1/2+z
-x,1/2+y,1/2+z
x,1/2-y,1/2+z
loop_
_atom_site_type_symbol
_atom_site_label
_atom_site_fract_x
_atom_site_fract_y
_atom_site_fract_z
Si Si1 0.329093 0.418157 0.327760
Si Si2 0.826064 0.000000 0.504245
Si Si3 0.175793 0.500000 0.805517
Si Si4 0.335134 0.106027 0.627110
Si Si5 0.175657 0.657820 0.733797
Si Si6 0.175295 0.726736 0.388789
Si Si7 0.668686 0.268284 0.575033
O O1 0.500000 0.393773 0.341921
O O2 0.300794 0.500000 0.370302
O O3 0.290798 0.425089 0.223377
O O4 0.221627 0.357884 0.370831
O O5 0.756919 0.000000 0.405228
O O6 0.776621 0.925825 0.554183
O O7 0.000000 0.000000 0.498099
O O8 0.230579 0.575050 0.757646
O O9 0.000000 0.500000 0.809311
O O10 0.500000 0.079662 0.600851
O O11 0.325621 0.193827 0.632463
O O12 0.227653 0.716493 0.810528
O O13 0.248243 0.672263 0.636941
O O14 0.000000 0.662685 0.723004
O O15 0.251053 0.748975 0.481716
O O16 0.000000 0.730930 0.400455
O O17 0.500000 0.294454 0.557071
#
# Coordination Sequence:
#
# PCOD8179567 Si02
#       7
#     8   4   4   8   8   8   8
#     4  10  20  38  61  84 118 157 195 241 294 355
#     4  11  21  33  57  90 123 154 193 243 300 366
#     4   9  20  39  59  84 119 158 193 241 304 352
#     4  10  20  36  57  84 120 156 193 240 297 357
#     4  10  21  40  64  87 119 158 200 251 301 354
#     4  11  23  39  62  91 122 155 200 252 303 361
#     4  11  23  39  62  88 118 159 204 247 298 359
#
# _framework density 19.743175999999998
#
# number of rings (size 3 to 8) (size 9 to 14) (size 15 to 20)
#    0.000    1.667    2.500    2.250    0.000    4.333 
#    1.500    2.083    0.000    0.000    0.000    0.000 
#    0.000    0.000    0.000    0.000    0.000    0.000 
#
# Total GULP energy -297576.487368 kJ/mol
# GULP energy per Si atom -12399.020307 kJ/mol
# Density = 1.969824 g / cm^3
# Si number density = 19.743176 Si / 1000 Ang^3
#
#
#
# Elastic Constant Matrix: (Units=GPa)
#
#
# Indices 1 2 3 4 5 6 
#
# 1 64.8229 21.7904 32.6690 0.0000 0.0000 0.0000
# 2 21.7904 109.7764 25.6069 0.0000 0.0000 0.0000
# 3 32.6690 25.6069 79.9877 0.0000 0.0000 0.0000
# 4 0.0000 0.0000 0.0000 37.2678 0.0000 0.0000
# 5 0.0000 0.0000 0.0000 0.0000 30.6122 0.0000
# 6 0.0000 0.0000 0.0000 0.0000 0.0000 28.2999
#
#
#
# Elastic Compliance Matrix: (Units=1/GPa)
#
#
# Indices 1 2 3 4 5 6 
#
# 1 0.019914 -0.002222 -0.007422 0.000000 0.000000 0.000000
# 2 -0.002222 0.010092 -0.002324 0.000000 0.000000 0.000000
# 3 -0.007422 -0.002324 0.016277 0.000000 0.000000 0.000000
# 4 0.000000 0.000000 0.000000 0.026833 0.000000 0.000000
# 5 0.000000 0.000000 0.000000 0.000000 0.032667 0.000000
# 6 0.000000 0.000000 0.000000 0.000000 0.000000 0.035336
#
#
# Mechanical properties :
#
#
# Convention : Reuss Voigt Hill
#
# Bulk Modulus (GPa) = 44.74487 46.07996 45.41242
# Shear Modulus (GPa) = 28.98494 30.87068 29.92781
#
# Velocity S-wave (km/s) = 3.83573 3.95854 3.89762
# Velocity P-wave (km/s) = 6.50614 6.65461 6.58079
#
# Compressibility (1/GPa) = 0.02234893
#
# Stress axis : x y z
#
# Youngs Moduli (GPa) = 50.21585 99.08428 61.43563
#
# Poissons Ratio (x) = 0.22012 0.45599
# Poissons Ratio (y) = 0.11156 0.14275
# Poissons Ratio (z) = 0.37271 0.23023
#
# Static dielectric constant tensor:
#      x y z
#    x 3.456780 0.000000 0.000000 
#    y 0.000000 3.484880 0.000000 
#    z 0.000000 0.000000 3.527190 
# 
# 
# High freq. dielectric constant tensor:
#      x y z
#    x 1.757270 0.000000 0.000000 
#    y 0.000000 1.779660 0.000000 
#    z 0.000000 0.000000 1.764970 
# 
# From -- ./inp_files/12078.got.cif
#   From: 2010.03.12/outbox.cif.g09.slc.cpg/sg38_7_cif.got.tgz:12078.got - 2010.04.14 02:38:36.
