data_PCOD8179200
_publ_section_title
;
Structure prediction by ZEFSAII (Michael W. Deem and Ramdas Pophale) SiO2 
 PCOD8179200
Probable space group: A M M 2
;
_chemical_formula_sum "Si O2"
_cell_formula_units_Z 64
_cell_length_a 8.905212
_cell_length_b 25.049936
_cell_length_c 15.007251
_cell_angle_alpha 90.000000
_cell_angle_beta 90.000000
_cell_angle_gamma 90.000000
_cell_volume 3347.742377
_symmetry_space_group_name_H-M "A M M 2"
_symmetry_group_IT_number 38
_symmetry_cell_setting 'orthorhombic'
loop_
_space_group_symop_operation_xyz
x,y,z
-x,-y,z
-x,y,z
x,-y,z
x,1/2+y,1/2+z
-x,1/2-y,1/2+z
-x,1/2+y,1/2+z
x,1/2-y,1/2+z
loop_
_atom_site_type_symbol
_atom_site_label
_atom_site_fract_x
_atom_site_fract_y
_atom_site_fract_z
Si Si1 0.176855 0.390474 0.779120
Si Si2 0.328023 0.762834 0.504288
Si Si3 0.821844 0.058921 0.095551
Si Si4 0.827225 0.861595 0.588095
Si Si5 0.828674 0.823950 0.775534
Si Si6 0.329518 0.717155 0.797577
Si Si7 0.676881 0.061409 0.454358
Si Si8 0.823362 0.653710 0.473462
O O1 0.229514 0.425199 0.694811
O O2 0.226500 0.330010 0.759932
O O3 0.254915 0.413189 0.866370
O O4 0.000000 0.392636 0.793771
O O5 0.500000 0.762694 0.536713
O O6 0.231527 0.803296 0.562455
O O7 0.314612 0.782270 0.403474
O O8 0.260814 0.703984 0.516470
O O9 0.000000 0.058224 0.091355
O O10 0.756919 0.000000 0.073921
O O11 0.761141 0.100801 0.022409
O O12 0.808076 0.866371 0.695344
O O13 0.734534 0.908731 0.542358
O O14 0.000000 0.866798 0.558863
O O15 0.725285 0.772820 0.756567
O O16 0.784348 0.852173 0.868634
O O17 0.000000 0.803566 0.780516
O O18 0.500000 0.707562 0.767156
O O19 0.500000 0.068710 0.449197
O O20 0.725526 0.000000 0.461790
O O21 0.000000 0.661509 0.489754
#
# Coordination Sequence:
#
# PCOD8179200 Si02
#       8
#     8   8   8   8   8   8   8   8
#     4  11  21  34  56  84 115 150 188 235 282 337
#     4  10  20  34  53  80 113 146 184 228 277 337
#     4   9  19  35  56  83 111 143 188 236 283 333
#     4  11  22  36  57  84 114 149 190 236 285 337
#     4   9  20  36  55  82 115 148 188 233 282 338
#     4  10  20  34  53  80 115 152 187 225 276 337
#     4  11  24  41  59  81 113 152 193 237 287 347
#     4   9  18  36  59  81 110 147 187 233 282 333
#
# _framework density 19.117362
#
# number of rings (size 3 to 8) (size 9 to 14) (size 15 to 20)
#    0.000    2.000    1.250    2.250    1.750    3.500 
#    0.000    1.250    0.000    4.125    0.000    0.000 
#    0.000    0.000    0.000    0.000    0.000    0.000 
#
# Total GULP energy -396858.701913 kJ/mol
# GULP energy per Si atom -12401.834435 kJ/mol
# Density = 1.907385 g / cm^3
# Si number density = 19.117362 Si / 1000 Ang^3
#
#
#
# Elastic Constant Matrix: (Units=GPa)
#
#
# Indices 1 2 3 4 5 6 
#
# 1 52.2399 27.8505 15.5835 0.0000 0.0000 0.0000
# 2 27.8505 126.0453 48.1174 0.0000 0.0000 0.0000
# 3 15.5835 48.1174 73.8961 0.0000 0.0000 0.0000
# 4 0.0000 0.0000 0.0000 30.1068 0.0000 0.0000
# 5 0.0000 0.0000 0.0000 0.0000 13.4211 0.0000
# 6 0.0000 0.0000 0.0000 0.0000 0.0000 27.0784
#
#
#
# Elastic Compliance Matrix: (Units=1/GPa)
#
#
# Indices 1 2 3 4 5 6 
#
# 1 0.021908 -0.004095 -0.001954 0.000000 0.000000 0.000000
# 2 -0.004095 0.011324 -0.006510 0.000000 0.000000 0.000000
# 3 -0.001954 -0.006510 0.018183 0.000000 0.000000 0.000000
# 4 0.000000 0.000000 0.000000 0.033215 0.000000 0.000000
# 5 0.000000 0.000000 0.000000 0.000000 0.074509 0.000000
# 6 0.000000 0.000000 0.000000 0.000000 0.000000 0.036930
#
#
# Mechanical properties :
#
#
# Convention : Reuss Voigt Hill
#
# Bulk Modulus (GPa) = 38.02506 48.36490 43.19498
# Shear Modulus (GPa) = 21.74361 24.82991 23.28676
#
# Velocity S-wave (km/s) = 3.37616 3.60782 3.49391
# Velocity P-wave (km/s) = 5.92718 6.53521 6.23861
#
# Compressibility (1/GPa) = 0.02629845
#
# Stress axis : x y z
#
# Youngs Moduli (GPa) = 45.64455 88.31155 54.99537
#
# Poissons Ratio (x) = 0.36163 0.10744
# Poissons Ratio (y) = 0.18691 0.35801
# Poissons Ratio (z) = 0.08918 0.57489
#
# Static dielectric constant tensor:
#      x y z
#    x 3.474600 0.000000 0.000000 
#    y 0.000000 3.592120 0.000000 
#    z 0.000000 0.000000 3.618390 
# 
# 
# High freq. dielectric constant tensor:
#      x y z
#    x 1.738020 0.000000 0.000000 
#    y 0.000000 1.735270 0.000000 
#    z 0.000000 0.000000 1.747350 
# 
# From -- ./inp_files/12714.got.cif
#   From: 2010.03.12/outbox.cif.g09.slc.cpg/sg38_7_cif.got.tgz:12714.got - 2010.04.14 02:38:36.
