data_PCOD8179297
_publ_section_title
;
Structure prediction by ZEFSAII (Michael W. Deem and Ramdas Pophale) SiO2 
 PCOD8179297
Probable space group: A M M 2
;
_chemical_formula_sum "Si O2"
_cell_formula_units_Z 48
_cell_length_a 8.622814
_cell_length_b 9.103118
_cell_length_c 30.661770
_cell_angle_alpha 90.000000
_cell_angle_beta 90.000000
_cell_angle_gamma 90.000000
_cell_volume 2406.780101
_symmetry_space_group_name_H-M "A M M 2"
_symmetry_group_IT_number 38
_symmetry_cell_setting 'orthorhombic'
loop_
_space_group_symop_operation_xyz
x,y,z
-x,-y,z
-x,y,z
x,-y,z
x,1/2+y,1/2+z
-x,1/2-y,1/2+z
-x,1/2+y,1/2+z
x,1/2-y,1/2+z
loop_
_atom_site_type_symbol
_atom_site_label
_atom_site_fract_x
_atom_site_fract_y
_atom_site_fract_z
Si Si1 0.820530 0.172326 0.855040
Si Si2 0.179688 0.170470 0.695374
Si Si3 0.319868 0.168538 0.114661
Si Si4 0.183427 0.836806 0.534503
Si Si5 0.320450 0.170489 0.275701
Si Si6 0.815828 0.337361 0.452508
O O1 0.713040 0.267248 0.823572
O O2 0.769240 0.216392 0.904141
O O3 0.000000 0.211840 0.846785
O O4 0.792670 0.000000 0.846983
O O5 0.283274 0.246211 0.658817
O O6 0.214369 0.242637 0.741764
O O7 0.000000 0.192333 0.683641
O O8 0.224099 0.000000 0.697706
O O9 0.500000 0.183757 0.104136
O O10 0.225740 0.235046 0.074784
O O11 0.269811 0.000000 0.120818
O O12 0.252067 0.770858 0.489434
O O13 0.000000 0.844764 0.531401
O O14 0.253091 0.000000 0.541090
O O15 0.500000 0.194530 0.264036
O O16 0.275554 0.000000 0.274063
O O17 0.747599 0.500000 0.461191
O O18 0.000000 0.345079 0.455338
#
# Coordination Sequence:
#
# PCOD8179297 Si02
#       6
#     8   8   8   8   8   8
#     4   9  18  34  57  84 111 142 185 232 276 326
#     4  11  24  41  62  87 111 138 178 225 272 326
#     4  11  24  40  58  82 112 146 184 224 269 324
#     4  10  20  34  55  84 114 145 185 229 273 325
#     4  11  24  39  55  80 114 149 185 224 269 324
#     4   8  15  30  53  80 110 144 183 229 277 322
#
# _framework density 19.943657999999999
#
# number of rings (size 3 to 8) (size 9 to 14) (size 15 to 20)
#    0.000    2.000    0.000    4.500    0.000   12.000 
#    0.000    2.500    0.000    1.000    0.000    0.000 
#    0.000    0.000    0.000    0.000    0.000    0.000 
#
# Total GULP energy -297659.545018 kJ/mol
# GULP energy per Si atom -12402.481042 kJ/mol
# Density = 1.989827 g / cm^3
# Si number density = 19.943658 Si / 1000 Ang^3
#
#
#
# Elastic Constant Matrix: (Units=GPa)
#
#
# Indices 1 2 3 4 5 6 
#
# 1 25.8952 30.4564 11.5124 0.0000 0.0000 0.0000
# 2 30.4564 132.4493 62.6021 0.0000 0.0000 0.0000
# 3 11.5124 62.6021 129.8176 0.0000 0.0000 0.0000
# 4 0.0000 0.0000 0.0000 42.1479 0.0000 0.0000
# 5 0.0000 0.0000 0.0000 0.0000 10.8864 0.0000
# 6 0.0000 0.0000 0.0000 0.0000 0.0000 25.8171
#
#
#
# Elastic Compliance Matrix: (Units=1/GPa)
#
#
# Indices 1 2 3 4 5 6 
#
# 1 0.053166 -0.012948 0.001529 0.000000 0.000000 0.000000
# 2 -0.012948 0.012932 -0.005088 0.000000 0.000000 0.000000
# 3 0.001529 -0.005088 0.010021 0.000000 0.000000 0.000000
# 4 0.000000 0.000000 0.000000 0.023726 0.000000 0.000000
# 5 0.000000 0.000000 0.000000 0.000000 0.091858 0.000000
# 6 0.000000 0.000000 0.000000 0.000000 0.000000 0.038734
#
#
# Mechanical properties :
#
#
# Convention : Reuss Voigt Hill
#
# Bulk Modulus (GPa) = 23.19893 55.25599 39.22746
# Shear Modulus (GPa) = 17.99726 28.00971 23.00348
#
# Velocity S-wave (km/s) = 3.00726 3.75165 3.39989
# Velocity P-wave (km/s) = 4.86987 6.82149 5.92657
#
# Compressibility (1/GPa) = 0.04310545
#
# Stress axis : x y z
#
# Youngs Moduli (GPa) = 18.80893 77.32532 99.78885
#
# Poissons Ratio (x) = 1.00122 -0.15260
# Poissons Ratio (y) = 0.24354 0.50774
# Poissons Ratio (z) = -0.02876 0.39344
#
# Static dielectric constant tensor:
#      x y z
#    x 3.324790 0.000000 0.000000 
#    y 0.000000 3.872590 0.000000 
#    z 0.000000 0.000000 3.788750 
# 
# 
# High freq. dielectric constant tensor:
#      x y z
#    x 1.754090 0.000000 0.000000 
#    y 0.000000 1.786130 0.000000 
#    z 0.000000 0.000000 1.793770 
# 
# From -- ./inp_files/24287.got.cif
#   From: 2010.03.12/outbox.cif.g09.slc.cpg/sg38_13_cif.got.tgz:24287.got - 2010.04.14 02:38:36.
