data_PCOD8179907
_publ_section_title
;
Structure prediction by ZEFSAII (Michael W. Deem and Ramdas Pophale) SiO2 
 PCOD8179907
Probable space group: A M M 2
;
_chemical_formula_sum "Si O2"
_cell_formula_units_Z 64
_cell_length_a 13.768331
_cell_length_b 9.365421
_cell_length_c 25.566952
_cell_angle_alpha 90.000000
_cell_angle_beta 90.000000
_cell_angle_gamma 90.000000
_cell_volume 3296.761722
_symmetry_space_group_name_H-M "A M M 2"
_symmetry_group_IT_number 38
_symmetry_cell_setting 'orthorhombic'
loop_
_space_group_symop_operation_xyz
x,y,z
-x,-y,z
-x,y,z
x,-y,z
x,1/2+y,1/2+z
-x,1/2-y,1/2+z
-x,1/2+y,1/2+z
x,1/2-y,1/2+z
loop_
_atom_site_type_symbol
_atom_site_label
_atom_site_fract_x
_atom_site_fract_y
_atom_site_fract_z
Si Si1 0.612804 0.663872 0.266760
Si Si2 0.108250 0.336438 0.430590
Si Si3 0.712685 0.667967 0.676937
Si Si4 0.885332 0.843077 0.526924
Si Si5 0.385051 0.661501 0.969213
Si Si6 0.888883 0.168618 0.643782
Si Si7 0.613134 0.335887 0.567949
Si Si8 0.297752 0.835628 0.875634
O O1 0.500000 0.684459 0.279848
O O2 0.635575 0.500000 0.251338
O O3 0.641306 0.767770 0.219997
O O4 0.674152 0.711330 0.317421
O O5 0.102603 0.500000 0.447485
O O6 0.155066 0.256509 0.480694
O O7 0.181302 0.313486 0.382085
O O8 0.000000 0.281067 0.415097
O O9 0.723517 0.500000 0.686307
O O10 0.818216 0.742920 0.681884
O O11 0.667586 0.705191 0.620920
O O12 0.862751 0.782370 0.584582
O O13 0.000000 0.853035 0.520826
O O14 0.839134 0.000000 0.520000
O O15 0.500000 0.666339 0.972499
O O16 0.345778 0.500000 0.968091
O O17 0.354947 0.740195 0.916584
O O18 0.342885 0.739305 0.021139
O O19 0.000000 0.207438 0.657781
O O20 0.871813 0.000000 0.650508
O O21 0.500000 0.304451 0.577137
O O22 0.630593 0.500000 0.552475
O O23 0.327499 0.000000 0.885416
#
# Coordination Sequence:
#
# PCOD8179907 Si02
#       8
#     8   8   8   8   8   8   8   8
#     4  10  22  41  63  84 108 145 193 241 289 347
#     4   9  18  32  51  78 112 147 185 228 272 324
#     4  11  23  37  58  86 115 147 188 239 294 344
#     4   8  15  29  49  74 107 147 186 224 267 316
#     4  10  21  35  53  81 113 143 179 228 285 341
#     4   9  19  36  56  80 114 155 196 235 278 334
#     4   9  19  36  55  77 110 149 183 220 278 349
#     4  10  21  37  58  82 111 148 191 233 280 337
#
# _framework density 19.412991000000002
#
# number of rings (size 3 to 8) (size 9 to 14) (size 15 to 20)
#    0.000    2.500    0.000    2.250    1.750    4.750 
#    0.000    3.125    0.000    2.250    0.000    0.000 
#    0.000    0.000    0.000    0.000    0.000    0.000 
#
# Total GULP energy -396790.478349 kJ/mol
# GULP energy per Si atom -12399.702448 kJ/mol
# Density = 1.936881 g / cm^3
# Si number density = 19.412991 Si / 1000 Ang^3
#
#
#
# Elastic Constant Matrix: (Units=GPa)
#
#
# Indices 1 2 3 4 5 6 
#
# 1 67.4751 35.6739 37.8918 0.0000 0.0000 0.0000
# 2 35.6739 88.9014 56.7768 0.0000 0.0000 0.0000
# 3 37.8918 56.7768 89.6890 0.0000 0.0000 0.0000
# 4 0.0000 0.0000 0.0000 32.1939 0.0000 0.0000
# 5 0.0000 0.0000 0.0000 0.0000 33.8609 0.0000
# 6 0.0000 0.0000 0.0000 0.0000 0.0000 23.8241
#
#
#
# Elastic Compliance Matrix: (Units=1/GPa)
#
#
# Indices 1 2 3 4 5 6 
#
# 1 0.020455 -0.004514 -0.005784 0.000000 0.000000 0.000000
# 2 -0.004514 0.019879 -0.010677 0.000000 0.000000 0.000000
# 3 -0.005784 -0.010677 0.020352 0.000000 0.000000 0.000000
# 4 0.000000 0.000000 0.000000 0.031062 0.000000 0.000000
# 5 0.000000 0.000000 0.000000 0.000000 0.029533 0.000000
# 6 0.000000 0.000000 0.000000 0.000000 0.000000 0.041974
#
#
# Mechanical properties :
#
#
# Convention : Reuss Voigt Hill
#
# Bulk Modulus (GPa) = 53.37433 56.30561 54.83997
# Shear Modulus (GPa) = 23.64623 25.69064 24.66844
#
# Velocity S-wave (km/s) = 3.49386 3.64177 3.56858
# Velocity P-wave (km/s) = 6.62042 6.83742 6.72979
#
# Compressibility (1/GPa) = 0.01873560
#
# Stress axis : x y z
#
# Youngs Moduli (GPa) = 48.88759 50.30552 49.13448
#
# Poissons Ratio (x) = 0.22708 0.28421
# Poissons Ratio (y) = 0.22068 0.52460
# Poissons Ratio (z) = 0.28278 0.53711
#
# Static dielectric constant tensor:
#      x y z
#    x 3.631970 0.000000 0.000000 
#    y 0.000000 3.624960 0.000000 
#    z 0.000000 0.000000 3.393710 
# 
# 
# High freq. dielectric constant tensor:
#      x y z
#    x 1.767910 0.000000 0.000000 
#    y 0.000000 1.751170 0.000000 
#    z 0.000000 0.000000 1.735290 
# 
# From -- ./inp_files/23005.got.cif
#   From: 2010.03.12/outbox.cif.g09.slc.cpg/sg38_12_cif.got.tgz:23005.got - 2010.04.14 02:38:36.
