data_PCOD8179039
_publ_section_title
;
Structure prediction by ZEFSAII (Michael W. Deem and Ramdas Pophale) SiO2 
 PCOD8179039
Probable space group: A M M 2
;
_chemical_formula_sum "Si O2"
_cell_formula_units_Z 48
_cell_length_a 9.266128
_cell_length_b 9.360153
_cell_length_c 30.410303
_cell_angle_alpha 90.000000
_cell_angle_beta 90.000000
_cell_angle_gamma 90.000000
_cell_volume 2637.557828
_symmetry_space_group_name_H-M "A M M 2"
_symmetry_group_IT_number 38
_symmetry_cell_setting 'orthorhombic'
loop_
_space_group_symop_operation_xyz
x,y,z
-x,-y,z
-x,y,z
x,-y,z
x,1/2+y,1/2+z
-x,1/2-y,1/2+z
-x,1/2+y,1/2+z
x,1/2-y,1/2+z
loop_
_atom_site_type_symbol
_atom_site_label
_atom_site_fract_x
_atom_site_fract_y
_atom_site_fract_z
Si Si1 0.835870 0.665787 0.907750
Si Si2 0.832404 0.838370 0.306293
Si Si3 0.332188 0.666208 0.649362
Si Si4 0.669396 0.164193 0.734873
Si Si5 0.836902 0.169920 0.064175
Si Si6 0.333306 0.168013 0.979327
O O1 0.812088 0.500000 0.918354
O O2 0.802572 0.697775 0.856990
O O3 0.725151 0.758089 0.935698
O O4 0.000000 0.710327 0.919079
O O5 0.743621 0.727078 0.277813
O O6 0.000000 0.821347 0.295147
O O7 0.781961 0.000000 0.295799
O O8 0.500000 0.694020 0.639568
O O9 0.301309 0.500000 0.658136
O O10 0.277265 0.752168 0.691721
O O11 0.243138 0.725319 0.607824
O O12 0.500000 0.183569 0.741104
O O13 0.714224 0.000000 0.729627
O O14 0.000000 0.229170 0.063543
O O15 0.834318 0.000000 0.063886
O O16 0.753270 0.227987 0.021450
O O17 0.500000 0.207276 0.985911
O O18 0.310396 0.000000 0.973867
#
# Coordination Sequence:
#
# PCOD8179039 Si02
#       6
#     8   8   8   8   8   8
#     4   9  19  36  55  75 101 133 170 212 256 302
#     4   9  19  36  56  76  99 131 172 214 254 300
#     4   9  17  31  51  72  96 130 171 212 254 300
#     4  10  21  35  51  75 107 138 168 206 253 304
#     4   9  17  30  50  75 100 129 169 214 255 296
#     4  10  20  33  51  77 107 137 170 208 250 299
#
# _framework density 18.198653
#
# number of rings (size 3 to 8) (size 9 to 14) (size 15 to 20)
#    0.000    2.667    0.000    2.500    0.000    6.667 
#    0.000    7.500    0.000    3.000    0.000    0.000 
#    0.000    0.000    0.000    0.000    0.000    0.000 
#
# Total GULP energy -297648.267525 kJ/mol
# GULP energy per Si atom -12402.011147 kJ/mol
# Density = 1.815723 g / cm^3
# Si number density = 18.198653 Si / 1000 Ang^3
#
#
#
# Elastic Constant Matrix: (Units=GPa)
#
#
# Indices 1 2 3 4 5 6 
#
# 1 97.1413 47.7766 72.3688 0.0000 0.0000 0.0000
# 2 47.7766 66.7884 60.2247 0.0000 0.0000 0.0000
# 3 72.3688 60.2247 131.4456 0.0000 0.0000 0.0000
# 4 0.0000 0.0000 0.0000 25.9172 0.0000 0.0000
# 5 0.0000 0.0000 0.0000 0.0000 39.2617 0.0000
# 6 0.0000 0.0000 0.0000 0.0000 0.0000 26.4513
#
#
#
# Elastic Compliance Matrix: (Units=1/GPa)
#
#
# Indices 1 2 3 4 5 6 
#
# 1 0.019288 -0.007194 -0.007323 0.000000 0.000000 0.000000
# 2 -0.007194 0.028197 -0.008958 0.000000 0.000000 0.000000
# 3 -0.007323 -0.008958 0.015744 0.000000 0.000000 0.000000
# 4 0.000000 0.000000 0.000000 0.038584 0.000000 0.000000
# 5 0.000000 0.000000 0.000000 0.000000 0.025470 0.000000
# 6 0.000000 0.000000 0.000000 0.000000 0.000000 0.037805
#
#
# Mechanical properties :
#
#
# Convention : Reuss Voigt Hill
#
# Bulk Modulus (GPa) = 61.43298 72.90173 67.16736
# Shear Modulus (GPa) = 22.99214 25.99304 24.49259
#
# Velocity S-wave (km/s) = 3.55829 3.78338 3.67256
# Velocity P-wave (km/s) = 7.12124 7.69617 7.41428
#
# Compressibility (1/GPa) = 0.01627790
#
# Stress axis : x y z
#
# Youngs Moduli (GPa) = 51.84519 35.46515 63.51677
#
# Poissons Ratio (x) = 0.25514 0.46514
# Poissons Ratio (y) = 0.37299 0.56899
# Poissons Ratio (z) = 0.37967 0.31770
#
# Static dielectric constant tensor:
#      x y z
#    x 3.352010 0.000000 0.000000 
#    y 0.000000 3.131880 0.000000 
#    z 0.000000 0.000000 3.413740 
# 
# 
# High freq. dielectric constant tensor:
#      x y z
#    x 1.705900 0.000000 0.000000 
#    y 0.000000 1.681820 0.000000 
#    z 0.000000 0.000000 1.716280 
# 
# From -- ./inp_files/23348.got.cif
#   From: 2010.03.12/outbox.cif.g09.slc.cpg/sg38_12_cif.got.tgz:23348.got - 2010.04.14 02:38:36.
