data_PCOD8179323
_publ_section_title
;
Structure prediction by ZEFSAII (Michael W. Deem and Ramdas Pophale) SiO2 
 PCOD8179323
Probable space group: A M M 2
;
_chemical_formula_sum "Si O2"
_cell_formula_units_Z 64
_cell_length_a 23.794629
_cell_length_b 8.762799
_cell_length_c 15.573764
_cell_angle_alpha 90.000000
_cell_angle_beta 90.000000
_cell_angle_gamma 90.000000
_cell_volume 3247.247395
_symmetry_space_group_name_H-M "A M M 2"
_symmetry_group_IT_number 38
_symmetry_cell_setting 'orthorhombic'
loop_
_space_group_symop_operation_xyz
x,y,z
-x,-y,z
-x,y,z
x,-y,z
x,1/2+y,1/2+z
-x,1/2-y,1/2+z
-x,1/2+y,1/2+z
x,1/2-y,1/2+z
loop_
_atom_site_type_symbol
_atom_site_label
_atom_site_fract_x
_atom_site_fract_y
_atom_site_fract_z
Si Si1 0.244158 0.176925 0.654650
Si Si2 0.368193 0.818494 0.652063
Si Si3 0.624322 0.677056 0.837082
Si Si4 0.566253 0.825087 0.997222
Si Si5 0.133061 0.323748 0.901522
Si Si6 0.750938 0.827349 0.328859
Si Si7 0.128076 0.317746 0.088004
Si Si8 0.935337 0.821442 0.242038
O O1 0.305363 0.241207 0.626561
O O2 0.236437 0.206548 0.755165
O O3 0.190482 0.250720 0.607178
O O4 0.243634 0.000000 0.635166
O O5 0.386815 0.744103 0.742268
O O6 0.409304 0.770979 0.576131
O O7 0.369404 0.000000 0.663869
O O8 0.607545 0.500000 0.835797
O O9 0.586139 0.762924 0.905572
O O10 0.689031 0.700024 0.867641
O O11 0.500000 0.807205 0.001105
O O12 0.585242 0.000000 0.006630
O O13 0.116900 0.500000 0.897873
O O14 0.200738 0.301030 0.899581
O O15 0.100997 0.248356 0.820464
O O16 0.111612 0.258198 0.992667
O O17 0.754706 0.000000 0.291559
O O18 0.129237 0.500000 0.092469
O O19 0.082004 0.257615 0.153662
O O20 0.000000 0.785471 0.261027
O O21 0.923659 0.000000 0.231483
#
# Coordination Sequence:
#
# PCOD8179323 Si02
#       8
#     8   8   8   8   8   8   8   8
#     4   9  18  32  54  84 118 146 178 227 285 340
#     4  10  21  38  61  88 121 156 192 240 295 349
#     4  10  21  37  61  90 119 153 194 240 293 352
#     4  11  25  43  61  84 117 157 202 245 288 348
#     4   9  18  33  55  81 110 145 184 225 274 335
#     4   9  17  32  57  83 112 147 185 225 276 339
#     4  10  20  34  56  84 112 144 184 230 280 336
#     4  10  21  38  57  77 108 150 193 235 278 331
#
# _framework density 19.709
#
# number of rings (size 3 to 8) (size 9 to 14) (size 15 to 20)
#    0.000    2.250    1.250    1.125    1.750    3.250 
#    0.000    2.500    0.000    0.000    0.000    0.000 
#    0.000    0.000    0.000    0.000    0.000    0.000 
#
# Total GULP energy -396657.062503 kJ/mol
# GULP energy per Si atom -12395.533203 kJ/mol
# Density = 1.966414 g / cm^3
# Si number density = 19.709000 Si / 1000 Ang^3
#
#
#
# Elastic Constant Matrix: (Units=GPa)
#
#
# Indices 1 2 3 4 5 6 
#
# 1 75.9136 29.3050 39.9461 0.0000 0.0000 0.0000
# 2 29.3050 36.1126 19.4978 0.0000 0.0000 0.0000
# 3 39.9461 19.4978 109.5945 0.0000 0.0000 0.0000
# 4 0.0000 0.0000 0.0000 29.6378 0.0000 0.0000
# 5 0.0000 0.0000 0.0000 0.0000 28.3430 0.0000
# 6 0.0000 0.0000 0.0000 0.0000 0.0000 24.3914
#
#
#
# Elastic Compliance Matrix: (Units=1/GPa)
#
#
# Indices 1 2 3 4 5 6 
#
# 1 0.021618 -0.014700 -0.005264 0.000000 0.000000 0.000000
# 2 -0.014700 0.040630 -0.001870 0.000000 0.000000 0.000000
# 3 -0.005264 -0.001870 0.011376 0.000000 0.000000 0.000000
# 4 0.000000 0.000000 0.000000 0.033741 0.000000 0.000000
# 5 0.000000 0.000000 0.000000 0.000000 0.035282 0.000000
# 6 0.000000 0.000000 0.000000 0.000000 0.000000 0.040998
#
#
# Mechanical properties :
#
#
# Convention : Reuss Voigt Hill
#
# Bulk Modulus (GPa) = 33.38419 44.34653 38.86536
# Shear Modulus (GPa) = 21.07045 25.33255 23.20150
#
# Velocity S-wave (km/s) = 3.27322 3.58904 3.43476
# Velocity P-wave (km/s) = 5.59112 6.30273 5.95756
#
# Compressibility (1/GPa) = 0.02995430
#
# Stress axis : x y z
#
# Youngs Moduli (GPa) = 46.25848 24.61221 87.90433
#
# Poissons Ratio (x) = 0.36181 0.46274
# Poissons Ratio (y) = 0.68002 0.16441
# Poissons Ratio (z) = 0.24351 0.04603
#
# Static dielectric constant tensor:
#      x y z
#    x 3.727300 0.000000 0.000000 
#    y 0.000000 3.440000 0.000000 
#    z 0.000000 0.000000 3.605220 
# 
# 
# High freq. dielectric constant tensor:
#      x y z
#    x 1.771890 0.000000 0.000000 
#    y 0.000000 1.747030 0.000000 
#    z 0.000000 0.000000 1.768940 
# 
# From -- ./inp_files/15812.got.cif
#   From: 2010.03.12/outbox.cif.g09.slc.cpg/sg38_8_cif.got.tgz:15812.got - 2010.04.14 02:38:36.
