data_PCOD8179427
_publ_section_title
;
Structure prediction by ZEFSAII (Michael W. Deem and Ramdas Pophale) SiO2 
 PCOD8179427
Probable space group: A M M 2
;
_chemical_formula_sum "Si O2"
_cell_formula_units_Z 48
_cell_length_a 8.858651
_cell_length_b 23.271892
_cell_length_c 11.811179
_cell_angle_alpha 90.000000
_cell_angle_beta 90.000000
_cell_angle_gamma 90.000000
_cell_volume 2434.963954
_symmetry_space_group_name_H-M "A M M 2"
_symmetry_group_IT_number 38
_symmetry_cell_setting 'orthorhombic'
loop_
_space_group_symop_operation_xyz
x,y,z
-x,-y,z
-x,y,z
x,-y,z
x,1/2+y,1/2+z
-x,1/2-y,1/2+z
-x,1/2+y,1/2+z
x,1/2-y,1/2+z
loop_
_atom_site_type_symbol
_atom_site_label
_atom_site_fract_x
_atom_site_fract_y
_atom_site_fract_z
Si Si1 0.669729 0.564303 0.502330
Si Si2 0.322445 0.355873 0.076867
Si Si3 0.179224 0.933699 0.395289
Si Si4 0.823989 0.361213 0.680679
Si Si5 0.677027 0.772282 0.030291
Si Si6 0.330416 0.345133 0.325122
O O1 0.500000 0.569649 0.553798
O O2 0.723331 0.500000 0.487080
O O3 0.791589 0.593773 0.581916
O O4 0.672119 0.591531 0.377892
O O5 0.500000 0.369613 0.080262
O O6 0.287969 0.294840 0.018122
O O7 0.250679 0.349762 0.203029
O O8 0.241717 0.407926 0.012343
O O9 0.238832 0.891269 0.295488
O O10 0.000000 0.933417 0.398437
O O11 0.235982 0.000000 0.378904
O O12 0.745803 0.300628 0.645468
O O13 0.000000 0.349306 0.692135
O O14 0.500000 0.785986 0.037284
O O15 0.746053 0.801315 0.916011
O O16 0.500000 0.322726 0.302152
#
# Coordination Sequence:
#
# PCOD8179427 Si02
#       6
#     8   8   8   8   8   8
#     4   9  17  31  53  78 107 143 178 221 275 322
#     4  10  21  35  58  84 107 143 186 229 275 331
#     4  10  23  41  56  76 114 157 190 228 280 329
#     4  10  20  35  56  81 109 145 184 228 276 326
#     4   9  19  35  57  83 112 141 176 228 284 333
#     4   8  16  32  50  77 110 137 170 218 276 327
#
# _framework density 19.712816
#
# number of rings (size 3 to 8) (size 9 to 14) (size 15 to 20)
#    0.000    2.667    0.000    2.000    2.333    4.000 
#    0.000    5.000    0.000    0.000    0.000    0.000 
#    0.000    0.000    0.000    0.000    0.000    0.000 
#
# Total GULP energy -297409.424060 kJ/mol
# GULP energy per Si atom -12392.059336 kJ/mol
# Density = 1.966795 g / cm^3
# Si number density = 19.712816 Si / 1000 Ang^3
#
#
#
# Elastic Constant Matrix: (Units=GPa)
#
#
# Indices 1 2 3 4 5 6 
#
# 1 26.3647 17.3227 17.9483 0.0000 0.0000 0.0000
# 2 17.3227 87.9698 23.8584 0.0000 0.0000 0.0000
# 3 17.9483 23.8584 115.5390 0.0000 0.0000 0.0000
# 4 0.0000 0.0000 0.0000 26.5847 0.0000 0.0000
# 5 0.0000 0.0000 0.0000 0.0000 24.9262 0.0000
# 6 0.0000 0.0000 0.0000 0.0000 0.0000 25.5835
#
#
#
# Elastic Compliance Matrix: (Units=1/GPa)
#
#
# Indices 1 2 3 4 5 6 
#
# 1 0.046852 -0.007682 -0.005692 0.000000 0.000000 0.000000
# 2 -0.007682 0.013302 -0.001553 0.000000 0.000000 0.000000
# 3 -0.005692 -0.001553 0.009860 0.000000 0.000000 0.000000
# 4 0.000000 0.000000 0.000000 0.037616 0.000000 0.000000
# 5 0.000000 0.000000 0.000000 0.000000 0.040118 0.000000
# 6 0.000000 0.000000 0.000000 0.000000 0.000000 0.039088
#
#
# Mechanical properties :
#
#
# Convention : Reuss Voigt Hill
#
# Bulk Modulus (GPa) = 24.90118 38.68134 31.79126
# Shear Modulus (GPa) = 21.73194 26.80181 24.26688
#
# Velocity S-wave (km/s) = 3.32388 3.69129 3.51240
# Velocity P-wave (km/s) = 5.23358 6.15082 5.71064
#
# Compressibility (1/GPa) = 0.04015874
#
# Stress axis : x y z
#
# Youngs Moduli (GPa) = 21.34391 75.17909 101.41953
#
# Poissons Ratio (x) = 0.57754 0.57726
# Poissons Ratio (y) = 0.16397 0.15754
# Poissons Ratio (z) = 0.12148 0.11678
#
# Static dielectric constant tensor:
#      x y z
#    x 3.217280 0.000000 0.000000 
#    y 0.000000 3.707270 0.000000 
#    z 0.000000 0.000000 3.773780 
# 
# 
# High freq. dielectric constant tensor:
#      x y z
#    x 1.729660 0.000000 0.000000 
#    y 0.000000 1.774930 0.000000 
#    z 0.000000 0.000000 1.768850 
# 
# From -- ./inp_files/8127.got.cif
#   From: 2010.03.12/outbox.cif.g09.slc.cpg/sg38_5_cif.got.tgz:8127.got - 2010.04.14 02:38:36.
