data_PCOD8179839
_publ_section_title
;
Structure prediction by ZEFSAII (Michael W. Deem and Ramdas Pophale) SiO2 
 PCOD8179839
Probable space group: A M M 2
;
_chemical_formula_sum "Si O2"
_cell_formula_units_Z 56
_cell_length_a 14.280736
_cell_length_b 9.171764
_cell_length_c 25.259287
_cell_angle_alpha 90.000000
_cell_angle_beta 90.000000
_cell_angle_gamma 90.000000
_cell_volume 3308.449801
_symmetry_space_group_name_H-M "A M M 2"
_symmetry_group_IT_number 38
_symmetry_cell_setting 'orthorhombic'
loop_
_space_group_symop_operation_xyz
x,y,z
-x,-y,z
-x,y,z
x,-y,z
x,1/2+y,1/2+z
-x,1/2-y,1/2+z
-x,1/2+y,1/2+z
x,1/2-y,1/2+z
loop_
_atom_site_type_symbol
_atom_site_label
_atom_site_fract_x
_atom_site_fract_y
_atom_site_fract_z
Si Si1 0.278914 0.328190 0.882880
Si Si2 0.391260 0.669028 0.779176
Si Si3 0.608357 0.833446 0.969866
Si Si4 0.105965 0.331177 0.346526
Si Si5 0.704642 0.673164 0.183367
Si Si6 0.392234 0.167508 0.091557
Si Si7 0.101438 0.327133 0.226864
O O1 0.271156 0.500000 0.885659
O O2 0.334839 0.276878 0.830640
O O3 0.331286 0.274956 0.934987
O O4 0.175178 0.260820 0.883342
O O5 0.500000 0.696875 0.790691
O O6 0.371171 0.500000 0.766957
O O7 0.361232 0.762309 0.728734
O O8 0.500000 0.796986 0.960796
O O9 0.629471 0.000000 0.953797
O O10 0.635528 0.807080 0.030817
O O11 0.134489 0.500000 0.349894
O O12 0.116325 0.271426 0.286695
O O13 0.000000 0.307744 0.366850
O O14 0.696869 0.500000 0.185701
O O15 0.672971 0.728939 0.126340
O O16 0.812189 0.727293 0.191157
O O17 0.500000 0.209941 0.101370
O O18 0.375818 0.000000 0.107896
O O19 0.098434 0.500000 0.228480
O O20 0.000000 0.269378 0.205365
#
# Coordination Sequence:
#
# PCOD8179839 Si02
#       7
#     8   8   8   8   8   8   8
#     4  11  21  32  50  76 106 134 163 208 260 304
#     4  10  21  34  45  64 101 142 166 187 239 308
#     4   9  19  36  56  74  94 130 178 216 247 297
#     4   9  17  32  53  73  98 135 174 208 246 298
#     4  11  20  30  50  77 100 125 165 212 250 291
#     4   9  19  36  54  71  97 134 170 205 250 301
#     4   8  15  29  48  70  98 130 163 201 244 291
#
# _framework density 16.926355999999998
#
# number of rings (size 3 to 8) (size 9 to 14) (size 15 to 20)
#    0.000    2.429    1.429    3.429    0.000    4.571 
#    0.000    1.429    0.000    2.571    0.000    4.000 
#    0.000    0.000    0.000    0.000    0.000    0.000 
#
# Total GULP energy -347188.183867 kJ/mol
# GULP energy per Si atom -12399.577995 kJ/mol
# Density = 1.688783 g / cm^3
# Si number density = 16.926356 Si / 1000 Ang^3
#
#
#
# Elastic Constant Matrix: (Units=GPa)
#
#
# Indices 1 2 3 4 5 6 
#
# 1 109.5941 47.2443 50.0448 0.0000 0.0000 0.0000
# 2 47.2443 62.6957 38.9750 0.0000 0.0000 0.0000
# 3 50.0448 38.9750 79.4428 0.0000 0.0000 0.0000
# 4 0.0000 0.0000 0.0000 29.8833 0.0000 0.0000
# 5 0.0000 0.0000 0.0000 0.0000 23.8649 0.0000
# 6 0.0000 0.0000 0.0000 0.0000 0.0000 24.5346
#
#
#
# Elastic Compliance Matrix: (Units=1/GPa)
#
#
# Indices 1 2 3 4 5 6 
#
# 1 0.015094 -0.007860 -0.005652 0.000000 0.000000 0.000000
# 2 -0.007860 0.027043 -0.008316 0.000000 0.000000 0.000000
# 3 -0.005652 -0.008316 0.020228 0.000000 0.000000 0.000000
# 4 0.000000 0.000000 0.000000 0.033464 0.000000 0.000000
# 5 0.000000 0.000000 0.000000 0.000000 0.041903 0.000000
# 6 0.000000 0.000000 0.000000 0.000000 0.000000 0.040759
#
#
# Mechanical properties :
#
#
# Convention : Reuss Voigt Hill
#
# Bulk Modulus (GPa) = 53.45210 58.25118 55.85164
# Shear Modulus (GPa) = 21.89315 23.35446 22.62381
#
# Velocity S-wave (km/s) = 3.60034 3.71855 3.65992
# Velocity P-wave (km/s) = 6.99507 7.27503 7.13642
#
# Compressibility (1/GPa) = 0.01870834
#
# Stress axis : x y z
#
# Youngs Moduli (GPa) = 66.25121 36.97852 49.43675
#
# Poissons Ratio (x) = 0.29067 0.27942
# Poissons Ratio (y) = 0.52077 0.41110
# Poissons Ratio (z) = 0.37446 0.30750
#
# Static dielectric constant tensor:
#      x y z
#    x 3.394560 0.000000 0.000000 
#    y 0.000000 3.019150 0.000000 
#    z 0.000000 0.000000 3.011750 
# 
# 
# High freq. dielectric constant tensor:
#      x y z
#    x 1.657740 0.000000 0.000000 
#    y 0.000000 1.642220 0.000000 
#    z 0.000000 0.000000 1.634480 
# 
# From -- ./inp_files/21104.got.cif
#   From: 2010.03.12/outbox.cif.g09.slc.cpg/sg38_11_cif.got.tgz:21104.got - 2010.04.14 02:38:36.
