data_PCOD8179814
_publ_section_title
;
Structure prediction by ZEFSAII (Michael W. Deem and Ramdas Pophale) SiO2 
 PCOD8179814
Probable space group: A M M 2
;
_chemical_formula_sum "Si O2"
_cell_formula_units_Z 48
_cell_length_a 7.752620
_cell_length_b 34.234677
_cell_length_c 9.011545
_cell_angle_alpha 90.000000
_cell_angle_beta 90.000000
_cell_angle_gamma 90.000000
_cell_volume 2391.740115
_symmetry_space_group_name_H-M "A M M 2"
_symmetry_group_IT_number 38
_symmetry_cell_setting 'orthorhombic'
loop_
_space_group_symop_operation_xyz
x,y,z
-x,-y,z
-x,y,z
x,-y,z
x,1/2+y,1/2+z
-x,1/2-y,1/2+z
-x,1/2+y,1/2+z
x,1/2-y,1/2+z
loop_
_atom_site_type_symbol
_atom_site_label
_atom_site_fract_x
_atom_site_fract_y
_atom_site_fract_z
Si Si1 0.697724 0.151731 0.911160
Si Si2 0.296562 0.000000 0.900836
Si Si3 0.701293 0.926012 0.089122
Si Si4 0.196045 0.422688 0.919245
Si Si5 0.308460 0.653493 0.068974
Si Si6 0.196893 0.000000 0.566021
Si Si7 0.000000 0.791551 0.563876
Si Si8 0.000000 0.291413 0.412337
O O1 0.500000 0.164989 0.940521
O O2 0.729036 0.141650 0.738868
O O3 0.827198 0.185816 0.962910
O O4 0.745789 0.113457 0.002865
O O5 0.500000 0.000000 0.875179
O O6 0.207099 0.000000 0.742214
O O7 0.234047 0.961988 0.989685
O O8 0.500000 0.929860 0.123402
O O9 0.802591 0.926896 0.242649
O O10 0.000000 0.417015 0.974082
O O11 0.303457 0.385122 0.969240
O O12 0.282058 0.460970 0.995934
O O13 0.500000 0.671819 0.052955
O O14 0.170086 0.685003 0.012048
O O15 0.000000 0.000000 0.512926
O O16 0.000000 0.750129 0.487677
O O17 0.000000 0.784722 0.737986
#
# Coordination Sequence:
#
# PCOD8179814 Si02
#       8
#     8   4   8   8   8   4   4   4
#     4   9  20  38  60  86 115 152 196 237 286 346
#     4  10  21  38  58  80 112 154 203 245 283 344
#     4  10  21  36  55  84 116 150 195 243 292 342
#     4  11  22  36  55  84 119 153 195 242 290 344
#     4  10  20  39  63  85 116 154 192 240 288 340
#     4  10  23  38  54  80 116 154 197 243 287 340
#     4  10  22  40  58  91 116 149 192 232 283 356
#     4  10  22  38  62  85 120 151 188 234 287 344
#
# _framework density 20.06907
#
# number of rings (size 3 to 8) (size 9 to 14) (size 15 to 20)
#    0.000    2.000    0.833    2.000    1.167    5.333 
#    0.000    0.000    0.000    0.000    0.000    0.000 
#    0.000    0.000    0.000    0.000    0.000    0.000 
#
# Total GULP energy -297683.629215 kJ/mol
# GULP energy per Si atom -12403.484551 kJ/mol
# Density = 2.002339 g / cm^3
# Si number density = 20.069070 Si / 1000 Ang^3
#
#
#
# Elastic Constant Matrix: (Units=GPa)
#
#
# Indices 1 2 3 4 5 6 
#
# 1 98.7449 64.9225 31.9833 0.0000 0.0000 0.0000
# 2 64.9225 176.9532 66.6473 0.0000 0.0000 0.0000
# 3 31.9833 66.6473 94.9028 0.0000 0.0000 0.0000
# 4 0.0000 0.0000 0.0000 42.6311 0.0000 0.0000
# 5 0.0000 0.0000 0.0000 0.0000 26.1462 0.0000
# 6 0.0000 0.0000 0.0000 0.0000 0.0000 12.9262
#
#
#
# Elastic Compliance Matrix: (Units=1/GPa)
#
#
# Indices 1 2 3 4 5 6 
#
# 1 0.013493 -0.004402 -0.001456 0.000000 0.000000 0.000000
# 2 -0.004402 0.009120 -0.004921 0.000000 0.000000 0.000000
# 3 -0.001456 -0.004921 0.014484 0.000000 0.000000 0.000000
# 4 0.000000 0.000000 0.000000 0.023457 0.000000 0.000000
# 5 0.000000 0.000000 0.000000 0.000000 0.038247 0.000000
# 6 0.000000 0.000000 0.000000 0.000000 0.000000 0.077362
#
#
# Mechanical properties :
#
#
# Convention : Reuss Voigt Hill
#
# Bulk Modulus (GPa) = 64.35632 77.52300 70.93966
# Shear Modulus (GPa) = 24.64281 30.14390 27.39336
#
# Velocity S-wave (km/s) = 3.50794 3.87978 3.69854
# Velocity P-wave (km/s) = 6.96739 7.66696 7.32553
#
# Compressibility (1/GPa) = 0.01553849
#
# Stress axis : x y z
#
# Youngs Moduli (GPa) = 74.11288 109.65251 69.04396
#
# Poissons Ratio (x) = 0.48270 0.10051
# Poissons Ratio (y) = 0.32625 0.33976
# Poissons Ratio (z) = 0.10789 0.53959
#
# Static dielectric constant tensor:
#      x y z
#    x 3.680370 0.000000 0.000000 
#    y 0.000000 3.610440 0.000000 
#    z 0.000000 0.000000 3.489530 
# 
# 
# High freq. dielectric constant tensor:
#      x y z
#    x 1.788160 0.000000 0.000000 
#    y 0.000000 1.779190 0.000000 
#    z 0.000000 0.000000 1.780410 
# 
# From -- ./inp_files/3862.got.cif
#   From: 2010.03.12/outbox.cif.g09.slc.cpg/sg38_2_cif.got.tgz:3862.got - 2010.04.14 02:38:36.
