data_PCOD8179529
_publ_section_title
;
Structure prediction by ZEFSAII (Michael W. Deem and Ramdas Pophale) SiO2 
 PCOD8179529
Probable space group: A M M 2
;
_chemical_formula_sum "Si O2"
_cell_formula_units_Z 48
_cell_length_a 8.716183
_cell_length_b 14.448476
_cell_length_c 20.214585
_cell_angle_alpha 90.000000
_cell_angle_beta 90.000000
_cell_angle_gamma 90.000000
_cell_volume 2545.735100
_symmetry_space_group_name_H-M "A M M 2"
_symmetry_group_IT_number 38
_symmetry_cell_setting 'orthorhombic'
loop_
_space_group_symop_operation_xyz
x,y,z
-x,-y,z
-x,y,z
x,-y,z
x,1/2+y,1/2+z
-x,1/2-y,1/2+z
-x,1/2+y,1/2+z
x,1/2-y,1/2+z
loop_
_atom_site_type_symbol
_atom_site_label
_atom_site_fract_x
_atom_site_fract_y
_atom_site_fract_z
Si Si1 0.679843 0.311232 0.781680
Si Si2 0.824438 0.000000 0.856485
Si Si3 0.322296 0.000000 0.467016
Si Si4 0.823552 0.700055 0.399242
Si Si5 0.319440 0.500000 0.216364
Si Si6 0.180348 0.000000 0.323779
Si Si7 0.822434 0.189463 0.671300
Si Si8 0.824368 0.677659 0.021413
O O1 0.500000 0.325823 0.780026
O O2 0.720142 0.246765 0.843589
O O3 0.757951 0.410414 0.786631
O O4 0.733134 0.264718 0.713903
O O5 0.791678 0.909803 0.901111
O O6 0.711930 0.000000 0.794342
O O7 0.000000 0.000000 0.830591
O O8 0.284124 0.089950 0.510016
O O9 0.500000 0.000000 0.447992
O O10 0.225844 0.000000 0.400195
O O11 0.779838 0.740563 0.470785
O O12 0.000000 0.721528 0.381411
O O13 0.500000 0.500000 0.203967
O O14 0.245478 0.411614 0.182230
O O15 0.000000 0.000000 0.319089
O O16 0.799646 0.217041 0.594833
O O17 0.000000 0.189043 0.692447
O O18 0.000000 0.645639 0.011119
#
# Coordination Sequence:
#
# PCOD8179529 Si02
#       8
#     8   4   4   8   4   4   8   8
#     4  12  24  39  61  91 122 156 200 253 304 356
#     4  10  20  35  60  89 118 151 196 245 300 360
#     4  12  23  35  58  92 127 157 194 250 313 361
#     4  10  20  37  61  87 118 158 200 249 298 354
#     4  12  23  35  56  88 123 155 198 256 306 353
#     4  12  24  41  64  89 120 159 204 249 297 362
#     4  11  23  40  60  86 122 166 207 246 299 367
#     4  10  22  39  60  86 120 162 206 247 296 361
#
# _framework density 18.855066000000001
#
# number of rings (size 3 to 8) (size 9 to 14) (size 15 to 20)
#    0.000    1.000    3.333    4.750    0.000    3.333 
#    0.000    0.833    0.000    3.000    0.000    0.000 
#    0.000    0.000    0.000    0.000    0.000    0.000 
#
# Total GULP energy -297735.941853 kJ/mol
# GULP energy per Si atom -12405.664244 kJ/mol
# Density = 1.881215 g / cm^3
# Si number density = 18.855066 Si / 1000 Ang^3
#
#
#
# Elastic Constant Matrix: (Units=GPa)
#
#
# Indices 1 2 3 4 5 6 
#
# 1 130.0128 52.7963 44.8305 0.0000 0.0000 0.0000
# 2 52.7963 140.2889 59.2173 0.0000 0.0000 0.0000
# 3 44.8305 59.2173 123.9139 0.0000 0.0000 0.0000
# 4 0.0000 0.0000 0.0000 65.4844 0.0000 0.0000
# 5 0.0000 0.0000 0.0000 0.0000 3.2615 0.0000
# 6 0.0000 0.0000 0.0000 0.0000 0.0000 29.9842
#
#
#
# Elastic Compliance Matrix: (Units=1/GPa)
#
#
# Indices 1 2 3 4 5 6 
#
# 1 0.009523 -0.002668 -0.002170 0.000000 0.000000 0.000000
# 2 -0.002668 0.009677 -0.003659 0.000000 0.000000 0.000000
# 3 -0.002170 -0.003659 0.010604 0.000000 0.000000 0.000000
# 4 0.000000 0.000000 0.000000 0.015271 0.000000 0.000000
# 5 0.000000 0.000000 0.000000 0.000000 0.306606 0.000000
# 6 0.000000 0.000000 0.000000 0.000000 0.000000 0.033351
#
#
# Mechanical properties :
#
#
# Convention : Reuss Voigt Hill
#
# Bulk Modulus (GPa) = 78.06973 78.65597 78.36285
# Shear Modulus (GPa) = 12.30627 35.57079 23.93853
#
# Velocity S-wave (km/s) = 2.55753 4.34814 3.56702
# Velocity P-wave (km/s) = 7.08635 8.18627 7.65609
#
# Compressibility (1/GPa) = 0.01280906
#
# Stress axis : x y z
#
# Youngs Moduli (GPa) = 105.00523 103.34032 94.30317
#
# Poissons Ratio (x) = 0.27569 0.20468
# Poissons Ratio (y) = 0.28014 0.34508
# Poissons Ratio (z) = 0.22791 0.37815
#
# Static dielectric constant tensor:
#      x y z
#    x 3.529580 0.000000 0.000000 
#    y 0.000000 3.576370 0.000000 
#    z 0.000000 0.000000 3.480540 
# 
# 
# High freq. dielectric constant tensor:
#      x y z
#    x 1.738470 0.000000 0.000000 
#    y 0.000000 1.736060 0.000000 
#    z 0.000000 0.000000 1.729300 
# 
# From -- ./inp_files/16751.got.cif
#   From: 2010.03.12/outbox.cif.g09.slc.cpg/sg38_9_cif.got.tgz:16751.got - 2010.04.14 02:38:36.
