data_PCOD8179888
_publ_section_title
;
Structure prediction by ZEFSAII (Michael W. Deem and Ramdas Pophale) SiO2 
 PCOD8179888
Probable space group: A M M 2
;
_chemical_formula_sum "Si O2"
_cell_formula_units_Z 64
_cell_length_a 9.500473
_cell_length_b 14.644938
_cell_length_c 24.162451
_cell_angle_alpha 90.000000
_cell_angle_beta 90.000000
_cell_angle_gamma 90.000000
_cell_volume 3361.814544
_symmetry_space_group_name_H-M "A M M 2"
_symmetry_group_IT_number 38
_symmetry_cell_setting 'orthorhombic'
loop_
_space_group_symop_operation_xyz
x,y,z
-x,-y,z
-x,y,z
x,-y,z
x,1/2+y,1/2+z
-x,1/2-y,1/2+z
-x,1/2+y,1/2+z
x,1/2-y,1/2+z
loop_
_atom_site_type_symbol
_atom_site_label
_atom_site_fract_x
_atom_site_fract_y
_atom_site_fract_z
Si Si1 0.836543 0.250721 0.630550
Si Si2 0.335441 0.394866 0.189759
Si Si3 0.162365 0.252124 0.003939
Si Si4 0.167146 0.898894 0.215992
Si Si5 0.335961 0.107286 0.440934
Si Si6 0.163874 0.395894 0.414472
Si Si7 0.343831 0.391366 0.312665
Si Si8 0.156307 0.891599 0.337480
O O1 0.752895 0.159044 0.644246
O O2 0.811600 0.277338 0.566982
O O3 0.774991 0.332568 0.668257
O O4 0.000000 0.233417 0.643321
O O5 0.500000 0.379301 0.179201
O O6 0.294955 0.500000 0.182157
O O7 0.294274 0.359906 0.251544
O O8 0.260174 0.338887 0.990455
O O9 0.205670 0.165011 0.967078
O O10 0.000000 0.279988 0.993958
O O11 0.209821 0.859715 0.276754
O O12 0.000000 0.905741 0.213201
O O13 0.231974 0.000000 0.206305
O O14 0.500000 0.131682 0.439383
O O15 0.266322 0.141797 0.383562
O O16 0.311179 0.000000 0.450682
O O17 0.211929 0.500000 0.426841
O O18 0.239441 0.354678 0.360005
O O19 0.000000 0.391718 0.401691
O O20 0.500000 0.353695 0.325436
O O21 0.346416 0.500000 0.312611
O O22 0.000000 0.851976 0.351050
O O23 0.147114 0.000000 0.336373
#
# Coordination Sequence:
#
# PCOD8179888 Si02
#       8
#     8   8   8   8   8   8   8   8
#     4  10  21  35  52  76 102 131 173 216 247 286
#     4   9  19  36  55  74 101 136 167 201 253 309
#     4  10  22  37  51  72 103 137 172 209 251 297
#     4   8  15  30  53  79 105 133 164 200 247 302
#     4  10  21  36  54  76 101 131 169 212 254 297
#     4   9  18  33  53  77 104 133 166 206 250 295
#     4   8  15  30  52  77 103 131 164 201 248 307
#     4   8  14  28  52  79 105 132 161 197 248 307
#
# _framework density 19.037337000000001
#
# number of rings (size 3 to 8) (size 9 to 14) (size 15 to 20)
#    0.000    3.000    0.000    1.875    0.000    4.500 
#    0.000   10.625    0.000    1.125    0.000    1.750 
#    0.000    0.000    0.000    0.000    0.000    0.000 
#
# Total GULP energy -396731.933414 kJ/mol
# GULP energy per Si atom -12397.872919 kJ/mol
# Density = 1.899401 g / cm^3
# Si number density = 19.037337 Si / 1000 Ang^3
#
#
#
# Elastic Constant Matrix: (Units=GPa)
#
#
# Indices 1 2 3 4 5 6 
#
# 1 57.4854 27.9562 34.1826 0.0000 0.0000 0.0000
# 2 27.9562 55.5608 28.9111 0.0000 0.0000 0.0000
# 3 34.1826 28.9111 97.4978 0.0000 0.0000 0.0000
# 4 0.0000 0.0000 0.0000 33.6981 0.0000 0.0000
# 5 0.0000 0.0000 0.0000 0.0000 15.9229 0.0000
# 6 0.0000 0.0000 0.0000 0.0000 0.0000 20.1596
#
#
#
# Elastic Compliance Matrix: (Units=1/GPa)
#
#
# Indices 1 2 3 4 5 6 
#
# 1 0.025811 -0.009789 -0.006147 0.000000 0.000000 0.000000
# 2 -0.009789 0.024995 -0.003980 0.000000 0.000000 0.000000
# 3 -0.006147 -0.003980 0.013592 0.000000 0.000000 0.000000
# 4 0.000000 0.000000 0.000000 0.029675 0.000000 0.000000
# 5 0.000000 0.000000 0.000000 0.000000 0.062802 0.000000
# 6 0.000000 0.000000 0.000000 0.000000 0.000000 0.049604
#
#
# Mechanical properties :
#
#
# Convention : Reuss Voigt Hill
#
# Bulk Modulus (GPa) = 40.70488 43.62707 42.16598
# Shear Modulus (GPa) = 19.64647 21.92241 20.78444
#
# Velocity S-wave (km/s) = 3.21596 3.39713 3.30778
# Velocity P-wave (km/s) = 5.93446 6.19303 6.06513
#
# Compressibility (1/GPa) = 0.02456708
#
# Stress axis : x y z
#
# Youngs Moduli (GPa) = 38.74291 40.00879 73.57401
#
# Poissons Ratio (x) = 0.39164 0.45224
# Poissons Ratio (y) = 0.37925 0.29280
# Poissons Ratio (z) = 0.23814 0.15922
#
# Static dielectric constant tensor:
#      x y z
#    x 3.348390 0.000000 0.000000 
#    y 0.000000 3.415050 0.000000 
#    z 0.000000 0.000000 3.620440 
# 
# 
# High freq. dielectric constant tensor:
#      x y z
#    x 1.718870 0.000000 0.000000 
#    y 0.000000 1.730590 0.000000 
#    z 0.000000 0.000000 1.741220 
# 
# From -- ./inp_files/22217.got.cif
#   From: 2010.03.12/outbox.cif.g09.slc.cpg/sg38_12_cif.got.tgz:22217.got - 2010.04.14 02:38:36.
