data_PCOD8179967
_publ_section_title
;
Structure prediction by ZEFSAII (Michael W. Deem and Ramdas Pophale) SiO2 
 PCOD8179967
Probable space group: A M M 2
;
_chemical_formula_sum "Si O2"
_cell_formula_units_Z 56
_cell_length_a 19.180717
_cell_length_b 9.032143
_cell_length_c 15.946397
_cell_angle_alpha 90.000000
_cell_angle_beta 90.000000
_cell_angle_gamma 90.000000
_cell_volume 2762.601317
_symmetry_space_group_name_H-M "A M M 2"
_symmetry_group_IT_number 38
_symmetry_cell_setting 'orthorhombic'
loop_
_space_group_symop_operation_xyz
x,y,z
-x,-y,z
-x,y,z
x,-y,z
x,1/2+y,1/2+z
-x,1/2-y,1/2+z
-x,1/2+y,1/2+z
x,1/2-y,1/2+z
loop_
_atom_site_type_symbol
_atom_site_label
_atom_site_fract_x
_atom_site_fract_y
_atom_site_fract_z
Si Si1 0.654443 0.670318 0.713170
Si Si2 0.421185 0.675841 0.881162
Si Si3 0.661683 0.824177 0.545165
Si Si4 0.217598 0.328483 0.463886
Si Si5 0.079109 0.670678 0.217989
Si Si6 0.077009 0.833110 0.048202
Si Si7 0.794677 0.830446 0.297699
O O1 0.633169 0.500000 0.698293
O O2 0.616836 0.733434 0.796822
O O3 0.629698 0.764536 0.632627
O O4 0.738308 0.685063 0.723308
O O5 0.500000 0.736096 0.881070
O O6 0.418653 0.500000 0.881652
O O7 0.384230 0.732825 0.966329
O O8 0.738756 0.754848 0.535789
O O9 0.666104 0.000000 0.549230
O O10 0.237972 0.500000 0.464841
O O11 0.135044 0.303322 0.478154
O O12 0.237374 0.258287 0.375354
O O13 0.100377 0.500000 0.227274
O O14 0.086923 0.716021 0.121740
O O15 0.130363 0.767566 0.273685
O O16 0.000000 0.698137 0.248960
O O17 0.000000 0.814888 0.007276
O O18 0.085877 0.000000 0.084857
O O19 0.803761 0.000000 0.324914
#
# Coordination Sequence:
#
# PCOD8179967 Si02
#       7
#     8   8   8   8   8   8   8
#     4  10  21  39  61  88 120 158 200 244 296 356
#     4   9  19  39  64  88 121 162 198 238 295 358
#     4  11  22  38  61  91 122 158 201 247 297 355
#     4  11  22  36  57  84 115 153 196 247 301 354
#     4  10  21  36  54  79 111 148 193 244 296 353
#     4   9  19  36  55  76 106 146 191 240 295 353
#     4  11  22  37  57  82 114 152 198 248 299 355
#
# _framework density 20.270751000000001
#
# number of rings (size 3 to 8) (size 9 to 14) (size 15 to 20)
#    0.000    1.857    1.429    2.571    0.000    7.714 
#    0.000    1.429    0.000    3.000    0.000    0.000 
#    0.000    0.000    0.000    0.000    0.000    0.000 
#
# Total GULP energy -347219.536742 kJ/mol
# GULP energy per Si atom -12400.697741 kJ/mol
# Density = 2.022461 g / cm^3
# Si number density = 20.270751 Si / 1000 Ang^3
#
#
#
# Elastic Constant Matrix: (Units=GPa)
#
#
# Indices 1 2 3 4 5 6 
#
# 1 107.8105 44.5927 49.7986 0.0000 0.0000 0.0000
# 2 44.5927 85.3557 50.3618 0.0000 0.0000 0.0000
# 3 49.7986 50.3618 134.5743 0.0000 0.0000 0.0000
# 4 0.0000 0.0000 0.0000 36.2065 0.0000 0.0000
# 5 0.0000 0.0000 0.0000 0.0000 26.9024 0.0000
# 6 0.0000 0.0000 0.0000 0.0000 0.0000 18.5833
#
#
#
# Elastic Compliance Matrix: (Units=1/GPa)
#
#
# Indices 1 2 3 4 5 6 
#
# 1 0.012618 -0.004924 -0.002826 0.000000 0.000000 0.000000
# 2 -0.004924 0.016957 -0.004524 0.000000 0.000000 0.000000
# 3 -0.002826 -0.004524 0.010170 0.000000 0.000000 0.000000
# 4 0.000000 0.000000 0.000000 0.027619 0.000000 0.000000
# 5 0.000000 0.000000 0.000000 0.000000 0.037171 0.000000
# 6 0.000000 0.000000 0.000000 0.000000 0.000000 0.053812
#
#
# Mechanical properties :
#
#
# Convention : Reuss Voigt Hill
#
# Bulk Modulus (GPa) = 65.80670 68.58296 67.19483
# Shear Modulus (GPa) = 26.60114 28.53759 27.56937
#
# Velocity S-wave (km/s) = 3.62649 3.75616 3.69190
# Velocity P-wave (km/s) = 7.07598 7.26076 7.16897
#
# Compressibility (1/GPa) = 0.01519602
#
# Stress axis : x y z
#
# Youngs Moduli (GPa) = 79.25269 58.97101 98.33200
#
# Poissons Ratio (x) = 0.29040 0.27792
# Poissons Ratio (y) = 0.39027 0.44483
# Poissons Ratio (z) = 0.22399 0.26677
#
# Static dielectric constant tensor:
#      x y z
#    x 3.801150 0.000000 0.000000 
#    y 0.000000 3.542570 0.000000 
#    z 0.000000 0.000000 3.597840 
# 
# 
# High freq. dielectric constant tensor:
#      x y z
#    x 1.793590 0.000000 0.000000 
#    y 0.000000 1.779860 0.000000 
#    z 0.000000 0.000000 1.787040 
# 
# From -- ./inp_files/15437.got.cif
#   From: 2010.03.12/outbox.cif.g09.slc.cpg/sg38_8_cif.got.tgz:15437.got - 2010.04.14 02:38:36.
