data_PCOD8179971
_publ_section_title
;
Structure prediction by ZEFSAII (Michael W. Deem and Ramdas Pophale) SiO2 
 PCOD8179971
Probable space group: A M M 2
;
_chemical_formula_sum "Si O2"
_cell_formula_units_Z 64
_cell_length_a 20.362174
_cell_length_b 8.700699
_cell_length_c 18.468503
_cell_angle_alpha 90.000000
_cell_angle_beta 90.000000
_cell_angle_gamma 90.000000
_cell_volume 3271.975048
_symmetry_space_group_name_H-M "A M M 2"
_symmetry_group_IT_number 38
_symmetry_cell_setting 'orthorhombic'
loop_
_space_group_symop_operation_xyz
x,y,z
-x,-y,z
-x,y,z
x,-y,z
x,1/2+y,1/2+z
-x,1/2-y,1/2+z
-x,1/2+y,1/2+z
x,1/2-y,1/2+z
loop_
_atom_site_type_symbol
_atom_site_label
_atom_site_fract_x
_atom_site_fract_y
_atom_site_fract_z
Si Si1 0.310783 0.178234 0.094730
Si Si2 0.684678 0.178713 0.749709
Si Si3 0.575564 0.177484 0.509240
Si Si4 0.927209 0.682675 0.258320
Si Si5 0.805671 0.819007 0.506095
Si Si6 0.072734 0.817214 0.596005
Si Si7 0.575942 0.323406 0.842561
Si Si8 0.806256 0.818927 0.849400
O O1 0.312595 0.218554 0.178724
O O2 0.381256 0.214622 0.060035
O O3 0.255419 0.277765 0.055985
O O4 0.294668 0.000000 0.084452
O O5 0.617656 0.210842 0.792424
O O6 0.745604 0.228390 0.799288
O O7 0.687933 0.000000 0.728428
O O8 0.500000 0.214464 0.526384
O O9 0.591677 0.214558 0.425895
O O10 0.591212 0.000000 0.526155
O O11 0.923057 0.500000 0.257032
O O12 0.913009 0.744456 0.177198
O O13 0.872871 0.748813 0.313377
O O14 0.000000 0.735960 0.283649
O O15 0.872509 0.750364 0.541544
O O16 0.795144 0.752793 0.427132
O O17 0.810592 0.000000 0.500083
O O18 0.000000 0.762831 0.570743
O O19 0.075961 0.000000 0.597122
O O20 0.500000 0.292047 0.825549
O O21 0.593924 0.500000 0.825734
O O22 0.810813 0.000000 0.858763
#
# Coordination Sequence:
#
# PCOD8179971 Si02
#       8
#     8   8   8   8   8   8   8   8
#     4  12  25  39  57  81 111 146 185 231 278 326
#     4  11  23  38  57  80 108 144 185 229 275 325
#     4   9  19  38  63  88 115 147 182 222 270 325
#     4   8  14  28  52  78 105 140 180 222 268 319
#     4  11  22  36  56  81 111 147 185 227 276 329
#     4   8  15  30  53  80 108 141 183 227 272 324
#     4   9  19  37  60  85 113 144 178 219 268 322
#     4  10  21  36  54  80 111 142 182 228 273 325
#
# _framework density 19.560051999999999
#
# number of rings (size 3 to 8) (size 9 to 14) (size 15 to 20)
#    0.000    2.250    0.000    4.875    0.000    7.000 
#    0.000    1.250    0.000    1.125    0.000    3.500 
#    0.000    0.000    0.000    0.000    0.000    0.000 
#
# Total GULP energy -396832.504247 kJ/mol
# GULP energy per Si atom -12401.015758 kJ/mol
# Density = 1.951553 g / cm^3
# Si number density = 19.560052 Si / 1000 Ang^3
#
#
#
# Elastic Constant Matrix: (Units=GPa)
#
#
# Indices 1 2 3 4 5 6 
#
# 1 122.5214 18.9687 63.9682 0.0000 0.0000 0.0000
# 2 18.9687 16.7596 22.1536 0.0000 0.0000 0.0000
# 3 63.9682 22.1536 111.9075 0.0000 0.0000 0.0000
# 4 0.0000 0.0000 0.0000 15.7103 0.0000 0.0000
# 5 0.0000 0.0000 0.0000 0.0000 40.4438 0.0000
# 6 0.0000 0.0000 0.0000 0.0000 0.0000 13.3527
#
#
#
# Elastic Compliance Matrix: (Units=1/GPa)
#
#
# Indices 1 2 3 4 5 6 
#
# 1 0.012086 -0.006158 -0.005689 0.000000 0.000000 0.000000
# 2 -0.006158 0.083953 -0.013099 0.000000 0.000000 0.000000
# 3 -0.005689 -0.013099 0.014781 0.000000 0.000000 0.000000
# 4 0.000000 0.000000 0.000000 0.063653 0.000000 0.000000
# 5 0.000000 0.000000 0.000000 0.000000 0.024726 0.000000
# 6 0.000000 0.000000 0.000000 0.000000 0.000000 0.074891
#
#
# Mechanical properties :
#
#
# Convention : Reuss Voigt Hill
#
# Bulk Modulus (GPa) = 16.41346 51.26328 33.83837
# Shear Modulus (GPa) = 14.52259 23.64121 19.08190
#
# Velocity S-wave (km/s) = 2.72777 3.48033 3.12678
# Velocity P-wave (km/s) = 4.28141 6.51271 5.51116
#
# Compressibility (1/GPa) = 0.06092561
#
# Stress axis : x y z
#
# Youngs Moduli (GPa) = 82.74316 11.91149 67.65358
#
# Poissons Ratio (x) = 0.07336 0.38489
# Poissons Ratio (y) = 0.50956 0.88622
# Poissons Ratio (z) = 0.47074 0.15603
#
# Static dielectric constant tensor:
#      x y z
#    x 3.853270 0.000000 0.000000 
#    y 0.000000 3.229010 0.000000 
#    z 0.000000 0.000000 3.619340 
# 
# 
# High freq. dielectric constant tensor:
#      x y z
#    x 1.778800 0.000000 0.000000 
#    y 0.000000 1.731940 0.000000 
#    z 0.000000 0.000000 1.764980 
# 
# From -- ./inp_files/18981.got.cif
#   From: 2010.03.12/outbox.cif.g09.slc.cpg/sg38_10_cif.got.tgz:18981.got - 2010.04.14 02:38:36.
