data_PCOD8179674
_publ_section_title
;
Structure prediction by ZEFSAII (Michael W. Deem and Ramdas Pophale) SiO2 
 PCOD8179674
Probable space group: A M M 2
;
_chemical_formula_sum "Si O2"
_cell_formula_units_Z 26
_cell_length_a 7.746546
_cell_length_b 7.604578
_cell_length_c 21.730394
_cell_angle_alpha 90.000000
_cell_angle_beta 90.000000
_cell_angle_gamma 90.000000
_cell_volume 1280.120415
_symmetry_space_group_name_H-M "A M M 2"
_symmetry_group_IT_number 38
_symmetry_cell_setting 'orthorhombic'
loop_
_space_group_symop_operation_xyz
x,y,z
-x,-y,z
-x,y,z
x,-y,z
x,1/2+y,1/2+z
-x,1/2-y,1/2+z
-x,1/2+y,1/2+z
x,1/2-y,1/2+z
loop_
_atom_site_type_symbol
_atom_site_label
_atom_site_fract_x
_atom_site_fract_y
_atom_site_fract_z
Si Si1 0.500000 0.207117 0.927021
Si Si2 0.697123 0.696695 0.146733
Si Si3 0.190044 0.500000 0.732899
Si Si4 0.500000 0.000000 0.326961
Si Si5 0.193687 0.297048 0.516373
O O1 0.500000 0.320497 0.865394
O O2 0.500000 0.000000 0.910220
O O3 0.670256 0.262767 0.964867
O O4 0.500000 0.760803 0.142144
O O5 0.710632 0.500000 0.174130
O O6 0.798052 0.826955 0.191074
O O7 0.778581 0.691221 0.078941
O O8 0.329960 0.500000 0.786008
O O9 0.000000 0.500000 0.763270
O O10 0.223904 0.500000 0.532485
O O11 0.000000 0.261645 0.491310
#
# Coordination Sequence:
#
# PCOD8179674 Si02
#       5
#     4   8   4   2   8
#     4  10  24  43  63  87 125 170 218 261 314 374
#     4  11  22  38  66 100 133 168 208 261 332 394
#     4  12  26  46  68  94 132 172 217 274 324 381
#     4  12  28  46  66  90 122 176 234 264 308 378
#     4  10  20  36  62  96 133 164 200 261 327 385
#
# _framework density 20.310590000000001
#
# number of rings (size 3 to 8) (size 9 to 14) (size 15 to 20)
#    0.000    1.231    4.615    0.923    2.154    4.923 
#    0.000    0.000    0.000    0.000    0.000    0.000 
#    0.000    0.000    0.000    0.000    0.000    0.000 
#
# Total GULP energy -161249.481702 kJ/mol
# GULP energy per Si atom -12403.806285 kJ/mol
# Density = 2.026436 g / cm^3
# Si number density = 20.310590 Si / 1000 Ang^3
#
#
#
# Elastic Constant Matrix: (Units=GPa)
#
#
# Indices 1 2 3 4 5 6 
#
# 1 181.8574 40.8669 64.1501 0.0000 0.0000 0.0000
# 2 40.8669 101.8816 53.0303 0.0000 0.0000 0.0000
# 3 64.1501 53.0303 121.8589 0.0000 0.0000 0.0000
# 4 0.0000 0.0000 0.0000 -22.3155 0.0000 0.0000
# 5 0.0000 0.0000 0.0000 0.0000 -4.5585 0.0000
# 6 0.0000 0.0000 0.0000 0.0000 0.0000 13.3484
#
#
#
# Elastic Compliance Matrix: (Units=1/GPa)
#
#
# Indices 1 2 3 4 5 6 
#
# 1 0.006851 -0.001126 -0.003117 0.000000 0.000000 0.000000
# 2 -0.001126 0.012875 -0.005010 0.000000 0.000000 0.000000
# 3 -0.003117 -0.005010 0.012027 0.000000 0.000000 0.000000
# 4 0.000000 0.000000 0.000000 -0.044812 0.000000 0.000000
# 5 0.000000 0.000000 0.000000 0.000000 -0.219373 0.000000
# 6 0.000000 0.000000 0.000000 0.000000 0.000000 0.074916
#
#
# Mechanical properties :
#
#
# Convention : Reuss Voigt Hill
#
# Bulk Modulus (GPa) = 75.48439 80.18806 77.83623
# Shear Modulus (GPa) = -37.14861 13.79826 -11.67518
#
# Velocity S-wave (km/s) = -4.28135 2.60929 -2.40017
# Velocity P-wave (km/s) = 3.57851 6.97456 5.54302
#
# Compressibility (1/GPa) = 0.01324777
#
# Stress axis : x y z
#
# Youngs Moduli (GPa) = 145.95878 77.67142 83.14457
#
# Poissons Ratio (x) = 0.08745 0.25914
# Poissons Ratio (y) = 0.16433 0.41656
# Poissons Ratio (z) = 0.45492 0.38914
#
# Static dielectric constant tensor:
#      x y z
#    x 3.932520 0.000000 0.000000 
#    y 0.000000 3.739530 0.000000 
#    z 0.000000 0.000000 3.378010 
# 
# 
# High freq. dielectric constant tensor:
#      x y z
#    x 1.812180 0.000000 0.000000 
#    y 0.000000 1.802980 0.000000 
#    z 0.000000 0.000000 1.761380 
# 
# From -- ./inp_files/16090.got.cif
#   From: 2010.03.12/outbox.cif.g09.slc.cpg/sg38_9_cif.got.tgz:16090.got - 2010.04.14 02:38:36.
