data_PCOD8179294
_publ_section_title
;
Structure prediction by ZEFSAII (Michael W. Deem and Ramdas Pophale) SiO2 
 PCOD8179294
Probable space group: A M M 2
;
_chemical_formula_sum "Si O2"
_cell_formula_units_Z 56
_cell_length_a 9.079030
_cell_length_b 14.168172
_cell_length_c 22.797935
_cell_angle_alpha 90.000000
_cell_angle_beta 90.000000
_cell_angle_gamma 90.000000
_cell_volume 2932.572669
_symmetry_space_group_name_H-M "A M M 2"
_symmetry_group_IT_number 38
_symmetry_cell_setting 'orthorhombic'
loop_
_space_group_symop_operation_xyz
x,y,z
-x,-y,z
-x,y,z
x,-y,z
x,1/2+y,1/2+z
-x,1/2-y,1/2+z
-x,1/2+y,1/2+z
x,1/2-y,1/2+z
loop_
_atom_site_type_symbol
_atom_site_label
_atom_site_fract_x
_atom_site_fract_y
_atom_site_fract_z
Si Si1 0.328362 0.389636 0.612730
Si Si2 0.671432 0.398791 0.276736
Si Si3 0.837240 0.358147 0.847372
Si Si4 0.175270 0.216773 0.008329
Si Si5 0.160288 0.146176 0.886207
Si Si6 0.326482 0.302801 0.737035
Si Si7 0.330563 0.604317 0.962142
O O1 0.500000 0.373261 0.599038
O O2 0.289105 0.500000 0.613511
O O3 0.230621 0.336553 0.565309
O O4 0.283072 0.343536 0.674260
O O5 0.500000 0.386074 0.284408
O O6 0.708775 0.500000 0.245060
O O7 0.732496 0.408713 0.342885
O O8 0.729544 0.307256 0.241008
O O9 0.857109 0.250224 0.862168
O O10 0.754051 0.367731 0.785206
O O11 0.740889 0.405995 0.897880
O O12 0.000000 0.405370 0.843384
O O13 0.000000 0.230263 0.010031
O O14 0.222682 0.152152 0.952591
O O15 0.247161 0.320721 0.003473
O O16 0.000000 0.096428 0.886286
O O17 0.500000 0.310290 0.748345
O O18 0.500000 0.636506 0.955381
O O19 0.320524 0.500000 0.991488
#
# Coordination Sequence:
#
# PCOD8179294 Si02
#       7
#     8   8   8   8   8   8   8
#     4  10  22  39  57  76 100 136 184 233 278 327
#     4   9  17  29  48  75 103 132 167 208 258 315
#     4   9  17  30  50  77 108 140 174 214 261 311
#     4  10  21  37  56  78 107 141 178 224 275 325
#     4   8  16  30  47  70 100 133 165 200 248 304
#     4   9  18  34  53  73 103 141 180 225 272 319
#     4  10  20  34  55  83 113 145 179 215 262 324
#
# _framework density 19.095862
#
# number of rings (size 3 to 8) (size 9 to 14) (size 15 to 20)
#    0.000    2.714    0.000    2.143    0.000    7.429 
#    0.000    5.000    0.000    2.571    0.000    0.000 
#    0.000    0.000    0.000    0.000    0.000    0.000 
#
# Total GULP energy -346965.740152 kJ/mol
# GULP energy per Si atom -12391.633577 kJ/mol
# Density = 1.905240 g / cm^3
# Si number density = 19.095862 Si / 1000 Ang^3
#
#
#
# Elastic Constant Matrix: (Units=GPa)
#
#
# Indices 1 2 3 4 5 6 
#
# 1 78.8350 43.7989 46.4828 0.0000 0.0000 0.0000
# 2 43.7989 115.6154 53.1977 0.0000 0.0000 0.0000
# 3 46.4828 53.1977 119.4167 0.0000 0.0000 0.0000
# 4 0.0000 0.0000 0.0000 17.1755 0.0000 0.0000
# 5 0.0000 0.0000 0.0000 0.0000 22.1067 0.0000
# 6 0.0000 0.0000 0.0000 0.0000 0.0000 3.8205
#
#
#
# Elastic Compliance Matrix: (Units=1/GPa)
#
#
# Indices 1 2 3 4 5 6 
#
# 1 0.018202 -0.004573 -0.005048 0.000000 0.000000 0.000000
# 2 -0.004573 0.012028 -0.003578 0.000000 0.000000 0.000000
# 3 -0.005048 -0.003578 0.011933 0.000000 0.000000 0.000000
# 4 0.000000 0.000000 0.000000 0.058223 0.000000 0.000000
# 5 0.000000 0.000000 0.000000 0.000000 0.045235 0.000000
# 6 0.000000 0.000000 0.000000 0.000000 0.000000 0.261749
#
#
# Mechanical properties :
#
#
# Convention : Reuss Voigt Hill
#
# Bulk Modulus (GPa) = 63.43240 66.75841 65.09540
# Shear Modulus (GPa) = 11.38894 19.97971 15.68433
#
# Velocity S-wave (km/s) = 2.44480 3.23814 2.86902
# Velocity P-wave (km/s) = 6.42335 7.00116 6.71847
#
# Compressibility (1/GPa) = 0.01576481
#
# Stress axis : x y z
#
# Youngs Moduli (GPa) = 54.94041 83.13826 83.80107
#
# Poissons Ratio (x) = 0.38016 0.42302
# Poissons Ratio (y) = 0.25122 0.29987
# Poissons Ratio (z) = 0.27733 0.29750
#
# Static dielectric constant tensor:
#      x y z
#    x 3.732870 0.000000 0.000000 
#    y 0.000000 3.754850 0.000000 
#    z 0.000000 0.000000 3.450910 
# 
# 
# High freq. dielectric constant tensor:
#      x y z
#    x 1.743090 0.000000 0.000000 
#    y 0.000000 1.748940 0.000000 
#    z 0.000000 0.000000 1.717790 
# 
# From -- ./inp_files/19832.got.cif
#   From: 2010.03.12/outbox.cif.g09.slc.cpg/sg38_10_cif.got.tgz:19832.got - 2010.04.14 02:38:36.
