data_PCOD8179380
_publ_section_title
;
Structure prediction by ZEFSAII (Michael W. Deem and Ramdas Pophale) SiO2 
 PCOD8179380
Probable space group: A M M 2
;
_chemical_formula_sum "Si O2"
_cell_formula_units_Z 56
_cell_length_a 18.084328
_cell_length_b 8.986944
_cell_length_c 20.648488
_cell_angle_alpha 90.000000
_cell_angle_beta 90.000000
_cell_angle_gamma 90.000000
_cell_volume 3355.850974
_symmetry_space_group_name_H-M "A M M 2"
_symmetry_group_IT_number 38
_symmetry_cell_setting 'orthorhombic'
loop_
_space_group_symop_operation_xyz
x,y,z
-x,-y,z
-x,y,z
x,-y,z
x,1/2+y,1/2+z
-x,1/2-y,1/2+z
-x,1/2+y,1/2+z
x,1/2-y,1/2+z
loop_
_atom_site_type_symbol
_atom_site_label
_atom_site_fract_x
_atom_site_fract_y
_atom_site_fract_z
Si Si1 0.414395 0.827045 0.744420
Si Si2 0.669336 0.824333 0.358733
Si Si3 0.211208 0.170979 0.922650
Si Si4 0.413830 0.169328 0.975994
Si Si5 0.635523 0.671437 0.103905
Si Si6 0.917289 0.827917 0.007859
Si Si7 0.784610 0.671260 0.047525
O O1 0.500000 0.798161 0.759397
O O2 0.365626 0.729537 0.792126
O O3 0.395958 0.772237 0.672032
O O4 0.393921 0.000000 0.753153
O O5 0.754787 0.763462 0.362566
O O6 0.624939 0.762556 0.419736
O O7 0.669535 0.000000 0.360332
O O8 0.122546 0.191127 0.936688
O O9 0.232075 0.000000 0.912820
O O10 0.251526 0.237676 0.987162
O O11 0.500000 0.175186 0.960310
O O12 0.401129 0.234355 0.047338
O O13 0.384540 0.000000 0.973724
O O14 0.613811 0.500000 0.092152
O O15 0.725645 0.688981 0.105487
O O16 0.000000 0.761165 0.004961
O O17 0.919313 0.000000 0.027998
O O18 0.866685 0.741098 0.061450
O O19 0.795387 0.500000 0.027731
#
# Coordination Sequence:
#
# PCOD8179380 Si02
#       7
#     8   8   8   8   8   8   8
#     4  10  22  39  55  71  96 133 174 215 265 316
#     4  12  23  35  51  72  98 129 168 215 258 304
#     4   9  17  30  49  71  99 132 163 200 242 292
#     4  11  22  33  49  72  96 125 162 204 253 308
#     4  10  20  35  54  74  99 130 166 210 255 306
#     4   8  15  27  44  71 106 139 168 200 243 295
#     4   9  16  27  46  75 103 128 161 201 245 293
#
# _framework density 16.687273000000001
#
# number of rings (size 3 to 8) (size 9 to 14) (size 15 to 20)
#    0.857    1.286    1.429    3.000    0.000    5.143 
#    0.000    0.000    0.000    0.000    0.000    1.000 
#    0.000    3.429    0.000    0.000    0.000    0.000 
#
# Total GULP energy -346868.343162 kJ/mol
# GULP energy per Si atom -12388.155113 kJ/mol
# Density = 1.664929 g / cm^3
# Si number density = 16.687273 Si / 1000 Ang^3
#
#
#
# Elastic Constant Matrix: (Units=GPa)
#
#
# Indices 1 2 3 4 5 6 
#
# 1 66.2724 22.9865 6.4245 0.0000 0.0000 0.0000
# 2 22.9865 92.9878 26.1548 0.0000 0.0000 0.0000
# 3 6.4245 26.1548 49.4538 0.0000 0.0000 0.0000
# 4 0.0000 0.0000 0.0000 24.6930 0.0000 0.0000
# 5 0.0000 0.0000 0.0000 0.0000 19.8435 0.0000
# 6 0.0000 0.0000 0.0000 0.0000 0.0000 23.3662
#
#
#
# Elastic Compliance Matrix: (Units=1/GPa)
#
#
# Indices 1 2 3 4 5 6 
#
# 1 0.016504 -0.004084 0.000016 0.000000 0.000000 0.000000
# 2 -0.004084 0.013644 -0.006685 0.000000 0.000000 0.000000
# 3 0.000016 -0.006685 0.023755 0.000000 0.000000 0.000000
# 4 0.000000 0.000000 0.000000 0.040497 0.000000 0.000000
# 5 0.000000 0.000000 0.000000 0.000000 0.050394 0.000000
# 6 0.000000 0.000000 0.000000 0.000000 0.000000 0.042797
#
#
# Mechanical properties :
#
#
# Convention : Reuss Voigt Hill
#
# Bulk Modulus (GPa) = 30.86843 35.53840 33.20341
# Shear Modulus (GPa) = 22.73783 23.79040 23.26411
#
# Velocity S-wave (km/s) = 3.69533 3.77989 3.73785
# Velocity P-wave (km/s) = 6.06181 6.35555 6.21042
#
# Compressibility (1/GPa) = 0.03239556
#
# Stress axis : x y z
#
# Youngs Moduli (GPa) = 60.59009 73.29135 42.09716
#
# Poissons Ratio (x) = 0.29935 -0.00068
# Poissons Ratio (y) = 0.24747 0.28144
# Poissons Ratio (z) = -0.00097 0.48998
#
# Static dielectric constant tensor:
#      x y z
#    x 3.304610 0.000000 0.000000 
#    y 0.000000 3.178110 0.000000 
#    z 0.000000 0.000000 2.875700 
# 
# 
# High freq. dielectric constant tensor:
#      x y z
#    x 1.643120 0.000000 0.000000 
#    y 0.000000 1.652110 0.000000 
#    z 0.000000 0.000000 1.602270 
# 
# From -- ./inp_files/21487.got.cif
#   From: 2010.03.12/outbox.cif.g09.slc.cpg/sg38_11_cif.got.tgz:21487.got - 2010.04.14 02:38:36.
