data_PCOD8179673
_publ_section_title
;
Structure prediction by ZEFSAII (Michael W. Deem and Ramdas Pophale) SiO2 
 PCOD8179673
Probable space group: A M M 2
;
_chemical_formula_sum "Si O2"
_cell_formula_units_Z 38
_cell_length_a 7.648660
_cell_length_b 12.146385
_cell_length_c 20.247286
_cell_angle_alpha 90.000000
_cell_angle_beta 90.000000
_cell_angle_gamma 90.000000
_cell_volume 1881.045134
_symmetry_space_group_name_H-M "A M M 2"
_symmetry_group_IT_number 38
_symmetry_cell_setting 'orthorhombic'
loop_
_space_group_symop_operation_xyz
x,y,z
-x,-y,z
-x,y,z
x,-y,z
x,1/2+y,1/2+z
-x,1/2-y,1/2+z
-x,1/2+y,1/2+z
x,1/2-y,1/2+z
loop_
_atom_site_type_symbol
_atom_site_label
_atom_site_fract_x
_atom_site_fract_y
_atom_site_fract_z
Si Si1 0.500000 0.500000 0.652101
Si Si2 0.198346 0.877696 0.371327
Si Si3 0.807181 0.377123 0.109253
Si Si4 0.500000 0.160427 0.271666
Si Si5 0.296947 0.769208 0.992264
Si Si6 0.201265 0.500000 0.542415
Si Si7 0.500000 0.373569 0.205721
O O1 0.500000 0.608156 0.698269
O O2 0.326847 0.500000 0.606426
O O3 0.325245 0.876923 0.308603
O O4 0.254059 0.782310 0.421503
O O5 0.000000 0.855906 0.347417
O O6 0.212533 0.000000 0.404011
O O7 0.761040 0.500000 0.084127
O O8 0.670991 0.341622 0.164480
O O9 0.000000 0.372722 0.141295
O O10 0.807589 0.296991 0.047315
O O11 0.500000 0.293414 0.268464
O O12 0.500000 0.758525 0.007858
O O13 0.237515 0.895667 0.995258
O O14 0.000000 0.500000 0.566845
O O15 0.500000 0.500000 0.229614
#
# Coordination Sequence:
#
# PCOD8179673 Si02
#       7
#     2   8   8   4   8   4   4
#     4  12  24  42  66  98 128 176 224 260 316 386
#     4  11  24  43  66  93 123 163 215 269 321 377
#     4  10  20  36  62  94 124 159 202 256 316 374
#     4  12  24  42  64  87 126 168 221 263 314 372
#     4  12  22  40  66  95 130 164 204 259 324 386
#     4  12  26  44  66  98 136 174 211 262 326 395
#     4  10  22  39  59  88 122 162 208 258 306 374
#
# _framework density 20.201535
#
# number of rings (size 3 to 8) (size 9 to 14) (size 15 to 20)
#    0.000    0.842    4.211    3.789    0.000    4.211 
#    1.895    0.000    0.000    0.000    0.000    0.000 
#    0.000    0.000    0.000    0.000    0.000    0.000 
#
# Total GULP energy -235628.801130 kJ/mol
# GULP energy per Si atom -12401.515849 kJ/mol
# Density = 2.015556 g / cm^3
# Si number density = 20.201535 Si / 1000 Ang^3
#
#
#
# Elastic Constant Matrix: (Units=GPa)
#
#
# Indices 1 2 3 4 5 6 
#
# 1 162.7230 35.1173 42.4586 0.0000 0.0000 0.0000
# 2 35.1173 142.7285 54.4166 0.0000 0.0000 0.0000
# 3 42.4586 54.4166 73.7441 0.0000 0.0000 0.0000
# 4 0.0000 0.0000 0.0000 35.2759 0.0000 0.0000
# 5 0.0000 0.0000 0.0000 0.0000 -24.2755 0.0000
# 6 0.0000 0.0000 0.0000 0.0000 0.0000 40.0276
#
#
#
# Elastic Compliance Matrix: (Units=1/GPa)
#
#
# Indices 1 2 3 4 5 6 
#
# 1 0.007239 -0.000267 -0.003971 0.000000 0.000000 0.000000
# 2 -0.000267 0.009759 -0.007047 0.000000 0.000000 0.000000
# 3 -0.003971 -0.007047 0.021047 0.000000 0.000000 0.000000
# 4 0.000000 0.000000 0.000000 0.028348 0.000000 0.000000
# 5 0.000000 0.000000 0.000000 0.000000 -0.041194 0.000000
# 6 0.000000 0.000000 0.000000 0.000000 0.000000 0.024983
#
#
# Mechanical properties :
#
#
# Convention : Reuss Voigt Hill
#
# Bulk Modulus (GPa) = 64.62347 71.46452 68.04399
# Shear Modulus (GPa) = 64.17594 26.68582 45.43088
#
# Velocity S-wave (km/s) = 5.64241 3.63847 4.74738
# Velocity P-wave (km/s) = 8.63180 7.28724 7.98786
#
# Compressibility (1/GPa) = 0.01547425
#
# Stress axis : x y z
#
# Youngs Moduli (GPa) = 138.13740 102.47012 47.51279
#
# Poissons Ratio (x) = 0.02738 0.18866
# Poissons Ratio (y) = 0.03692 0.33484
# Poissons Ratio (z) = 0.54852 0.72215
#
# Static dielectric constant tensor:
#      x y z
#    x 3.995990 0.000000 0.000000 
#    y 0.000000 3.988900 0.000000 
#    z 0.000000 0.000000 3.286680 
# 
# 
# High freq. dielectric constant tensor:
#      x y z
#    x 1.813540 0.000000 0.000000 
#    y 0.000000 1.805870 0.000000 
#    z 0.000000 0.000000 1.753430 
# 
# From -- ./inp_files/16345.got.cif
#   From: 2010.03.12/outbox.cif.g09.slc.cpg/sg38_9_cif.got.tgz:16345.got - 2010.04.14 02:38:36.
