data_PCOD8179444
_publ_section_title
;
Structure prediction by ZEFSAII (Michael W. Deem and Ramdas Pophale) SiO2 
 PCOD8179444
Probable space group: A M M 2
;
_chemical_formula_sum "Si O2"
_cell_formula_units_Z 40
_cell_length_a 10.401838
_cell_length_b 7.488841
_cell_length_c 26.206971
_cell_angle_alpha 90.000000
_cell_angle_beta 90.000000
_cell_angle_gamma 90.000000
_cell_volume 2041.463050
_symmetry_space_group_name_H-M "A M M 2"
_symmetry_group_IT_number 38
_symmetry_cell_setting 'orthorhombic'
loop_
_space_group_symop_operation_xyz
x,y,z
-x,-y,z
-x,y,z
x,-y,z
x,1/2+y,1/2+z
-x,1/2-y,1/2+z
-x,1/2+y,1/2+z
x,1/2-y,1/2+z
loop_
_atom_site_type_symbol
_atom_site_label
_atom_site_fract_x
_atom_site_fract_y
_atom_site_fract_z
Si Si1 0.500000 0.286025 0.798070
Si Si2 0.000000 0.000000 0.886251
Si Si3 0.349256 0.206749 0.524923
Si Si4 0.750750 0.796148 0.241775
Si Si5 0.358493 0.209969 0.638970
Si Si6 0.500000 0.500000 0.382216
Si Si7 0.255047 0.500000 0.452776
Si Si8 0.000000 0.784820 0.299290
O O1 0.500000 0.500000 0.806815
O O2 0.623121 0.213584 0.766845
O O3 0.500000 0.185327 0.851467
O O4 0.123504 0.000000 0.922121
O O5 0.000000 0.818551 0.852904
O O6 0.500000 0.240741 0.514253
O O7 0.315291 0.270042 0.582548
O O8 0.262053 0.322792 0.487363
O O9 0.314426 0.000000 0.516200
O O10 0.746177 0.772049 0.180549
O O11 0.878565 0.713484 0.266437
O O12 0.754104 0.000000 0.256646
O O13 0.500000 0.292074 0.651817
O O14 0.370504 0.000000 0.639074
O O15 0.372346 0.500000 0.414557
O O16 0.000000 0.000000 0.308496
#
# Coordination Sequence:
#
# PCOD8179444 Si02
#       8
#     4   2   8   8   8   2   4   4
#     4  10  22  36  53  85 117 141 196 258 296 353
#     4  12  28  44  66  86 118 174 216 256 320 354
#     4   9  19  38  62  92 128 155 195 258 313 367
#     4  10  20  35  56  85 117 159 195 239 303 360
#     4   9  18  31  56  93 124 157 192 236 307 369
#     4  12  24  36  62  86 110 154 208 260 308 342
#     4  12  24  42  62  94 114 164 216 256 314 358
#     4  10  24  44  59  81 123 163 206 254 304 367
#
# _framework density 19.593789999999998
#
# number of rings (size 3 to 8) (size 9 to 14) (size 15 to 20)
#    0.000    2.000    2.000    2.400    4.200    1.600 
#    0.000    1.000    0.000    2.400    0.000    0.000 
#    0.000    0.000    0.000    0.000    0.000    0.000 
#
# Total GULP energy -247929.428997 kJ/mol
# GULP energy per Si atom -12396.471450 kJ/mol
# Density = 1.954919 g / cm^3
# Si number density = 19.593790 Si / 1000 Ang^3
#
#
#
# Elastic Constant Matrix: (Units=GPa)
#
#
# Indices 1 2 3 4 5 6 
#
# 1 151.8258 36.7986 91.1478 0.0000 0.0000 0.0000
# 2 36.7986 76.2479 51.8406 0.0000 0.0000 0.0000
# 3 91.1478 51.8406 157.5516 0.0000 0.0000 0.0000
# 4 0.0000 0.0000 0.0000 41.2884 0.0000 0.0000
# 5 0.0000 0.0000 0.0000 0.0000 48.1302 0.0000
# 6 0.0000 0.0000 0.0000 0.0000 0.0000 12.1067
#
#
#
# Elastic Compliance Matrix: (Units=1/GPa)
#
#
# Indices 1 2 3 4 5 6 
#
# 1 0.010172 -0.001170 -0.005500 0.000000 0.000000 0.000000
# 2 -0.001170 0.017029 -0.004926 0.000000 0.000000 0.000000
# 3 -0.005500 -0.004926 0.011150 0.000000 0.000000 0.000000
# 4 0.000000 0.000000 0.000000 0.024220 0.000000 0.000000
# 5 0.000000 0.000000 0.000000 0.000000 0.020777 0.000000
# 6 0.000000 0.000000 0.000000 0.000000 0.000000 0.082599
#
#
# Mechanical properties :
#
#
# Convention : Reuss Voigt Hill
#
# Bulk Modulus (GPa) = 65.96854 82.79993 74.38424
# Shear Modulus (GPa) = 25.74782 34.02764 29.88773
#
# Velocity S-wave (km/s) = 3.62896 4.17184 3.90983
# Velocity P-wave (km/s) = 7.16242 8.09664 7.64382
#
# Compressibility (1/GPa) = 0.01515874
#
# Stress axis : x y z
#
# Youngs Moduli (GPa) = 98.31145 58.72272 89.68724
#
# Poissons Ratio (x) = 0.06870 0.49325
# Poissons Ratio (y) = 0.11501 0.44184
# Poissons Ratio (z) = 0.54068 0.28930
#
# Static dielectric constant tensor:
#      x y z
#    x 3.378360 0.000000 0.000000 
#    y 0.000000 2.603310 0.000000 
#    z 0.000000 0.000000 3.788170 
# 
# 
# High freq. dielectric constant tensor:
#      x y z
#    x 1.738770 0.000000 0.000000 
#    y 0.000000 1.767920 0.000000 
#    z 0.000000 0.000000 1.770110 
# 
# From -- ./inp_files/23319.got.cif
#   From: 2010.03.12/outbox.cif.g09.slc.cpg/sg38_12_cif.got.tgz:23319.got - 2010.04.14 02:38:36.
