data_PCOD8179659
_publ_section_title
;
Structure prediction by ZEFSAII (Michael W. Deem and Ramdas Pophale) SiO2 
 PCOD8179659
Probable space group: A M M 2
;
_chemical_formula_sum "Si O2"
_cell_formula_units_Z 64
_cell_length_a 8.788011
_cell_length_b 30.521904
_cell_length_c 12.029200
_cell_angle_alpha 90.000000
_cell_angle_beta 90.000000
_cell_angle_gamma 90.000000
_cell_volume 3226.554160
_symmetry_space_group_name_H-M "A M M 2"
_symmetry_group_IT_number 38
_symmetry_cell_setting 'orthorhombic'
loop_
_space_group_symop_operation_xyz
x,y,z
-x,-y,z
-x,y,z
x,-y,z
x,1/2+y,1/2+z
-x,1/2-y,1/2+z
-x,1/2+y,1/2+z
x,1/2-y,1/2+z
loop_
_atom_site_type_symbol
_atom_site_label
_atom_site_fract_x
_atom_site_fract_y
_atom_site_fract_z
Si Si1 0.672568 0.572909 0.142970
Si Si2 0.179131 0.126066 0.013127
Si Si3 0.680576 0.549035 0.904361
Si Si4 0.320336 0.371673 0.754230
Si Si5 0.825249 0.801765 0.408029
Si Si6 0.676663 0.049262 0.879797
Si Si7 0.823647 0.296947 0.349579
Si Si8 0.672510 0.674890 0.131769
O O1 0.500000 0.556382 0.135719
O O2 0.744846 0.551579 0.253960
O O3 0.685100 0.624293 0.160664
O O4 0.752069 0.557784 0.027541
O O5 0.251831 0.131513 0.132929
O O6 0.000000 0.126559 0.027598
O O7 0.229560 0.080214 0.960918
O O8 0.233719 0.166410 0.936390
O O9 0.500000 0.554915 0.911086
O O10 0.725738 0.500000 0.864752
O O11 0.744673 0.585066 0.817969
O O12 0.500000 0.374656 0.743987
O O13 0.277653 0.328026 0.821096
O O14 0.794064 0.750250 0.401936
O O15 0.785398 0.815365 0.532042
O O16 0.000000 0.813108 0.382714
O O17 0.500000 0.064058 0.880051
O O18 0.694948 0.000000 0.925056
O O19 0.724552 0.298141 0.238549
O O20 0.000000 0.304670 0.319500
O O21 0.500000 0.687925 0.099685
#
# Coordination Sequence:
#
# PCOD8179659 Si02
#       8
#     8   8   8   8   8   8   8   8
#     4   9  16  31  56  89 123 148 184 240 298 350
#     4  11  24  42  61  84 118 162 205 250 307 367
#     4   9  17  32  57  87 118 151 188 236 295 355
#     4  11  23  40  61  90 121 154 203 257 304 354
#     4  11  24  42  63  87 122 164 203 241 297 368
#     4  10  20  36  61  91 121 157 201 248 301 360
#     4  10  24  43  62  85 117 161 205 243 295 367
#     4  11  21  37  64  95 123 151 195 253 304 349
#
# _framework density 19.835402999999999
#
# number of rings (size 3 to 8) (size 9 to 14) (size 15 to 20)
#    0.000    1.750    2.500    1.875    1.750    3.750 
#    0.000    1.250    0.000    1.125    0.000    0.000 
#    0.000    0.000    0.000    0.000    0.000    0.000 
#
# Total GULP energy -396828.362076 kJ/mol
# GULP energy per Si atom -12400.886315 kJ/mol
# Density = 1.979026 g / cm^3
# Si number density = 19.835403 Si / 1000 Ang^3
#
#
#
# Elastic Constant Matrix: (Units=GPa)
#
#
# Indices 1 2 3 4 5 6 
#
# 1 42.9828 27.0326 28.6843 0.0000 0.0000 0.0000
# 2 27.0326 100.8113 44.8600 0.0000 0.0000 0.0000
# 3 28.6843 44.8600 138.3264 0.0000 0.0000 0.0000
# 4 0.0000 0.0000 0.0000 -95.1759 0.0000 0.0000
# 5 0.0000 0.0000 0.0000 0.0000 31.0578 0.0000
# 6 0.0000 0.0000 0.0000 0.0000 0.0000 27.8506
#
#
#
# Elastic Compliance Matrix: (Units=1/GPa)
#
#
# Indices 1 2 3 4 5 6 
#
# 1 0.029949 -0.006156 -0.004214 0.000000 0.000000 0.000000
# 2 -0.006156 0.012858 -0.002893 0.000000 0.000000 0.000000
# 3 -0.004214 -0.002893 0.009041 0.000000 0.000000 0.000000
# 4 0.000000 0.000000 0.000000 -0.010507 0.000000 0.000000
# 5 0.000000 0.000000 0.000000 0.000000 0.032198 0.000000
# 6 0.000000 0.000000 0.000000 0.000000 0.000000 0.035906
#
#
# Mechanical properties :
#
#
# Convention : Reuss Voigt Hill
#
# Bulk Modulus (GPa) = 39.49159 53.69717 46.59438
# Shear Modulus (GPa) = 34.62332 4.84941 19.73637
#
# Velocity S-wave (km/s) = 4.18249 1.56529 3.15780
# Velocity P-wave (km/s) = 6.57854 5.51335 6.06935
#
# Compressibility (1/GPa) = 0.02532184
#
# Stress axis : x y z
#
# Youngs Moduli (GPa) = 33.39048 77.77479 110.60150
#
# Poissons Ratio (x) = 0.47874 0.46608
# Poissons Ratio (y) = 0.20554 0.32001
# Poissons Ratio (z) = 0.14071 0.22503
#
# Static dielectric constant tensor:
#      x y z
#    x 3.390940 0.000000 0.000000 
#    y 0.000000 4.256790 0.000000 
#    z 0.000000 0.000000 3.749460 
# 
# 
# High freq. dielectric constant tensor:
#      x y z
#    x 1.744890 0.000000 0.000000 
#    y 0.000000 1.784570 0.000000 
#    z 0.000000 0.000000 1.782740 
# 
# From -- ./inp_files/8627.got.cif
#   From: 2010.03.12/outbox.cif.g09.slc.cpg/sg38_5_cif.got.tgz:8627.got - 2010.04.14 02:38:36.
