data_PCOD8179987
_publ_section_title
;
Structure prediction by ZEFSAII (Michael W. Deem and Ramdas Pophale) SiO2 
 PCOD8179987
Probable space group: A M M 2
;
_chemical_formula_sum "Si O2"
_cell_formula_units_Z 48
_cell_length_a 9.120182
_cell_length_b 23.091308
_cell_length_c 11.823646
_cell_angle_alpha 90.000000
_cell_angle_beta 90.000000
_cell_angle_gamma 90.000000
_cell_volume 2490.023568
_symmetry_space_group_name_H-M "A M M 2"
_symmetry_group_IT_number 38
_symmetry_cell_setting 'orthorhombic'
loop_
_space_group_symop_operation_xyz
x,y,z
-x,-y,z
-x,y,z
x,-y,z
x,1/2+y,1/2+z
-x,1/2-y,1/2+z
-x,1/2+y,1/2+z
x,1/2-y,1/2+z
loop_
_atom_site_type_symbol
_atom_site_label
_atom_site_fract_x
_atom_site_fract_y
_atom_site_fract_z
Si Si1 0.162316 0.064563 0.130010
Si Si2 0.328058 0.372260 0.810841
Si Si3 0.833783 0.661643 0.458859
Si Si4 0.170259 0.344244 0.202649
Si Si5 0.171158 0.566949 0.014296
Si Si6 0.673211 0.728976 0.645481
O O1 0.286754 0.078471 0.221139
O O2 0.000000 0.074811 0.184274
O O3 0.184776 0.000000 0.089532
O O4 0.179479 0.099575 0.015683
O O5 0.500000 0.371968 0.834225
O O6 0.276191 0.310947 0.753358
O O7 0.248163 0.388947 0.926896
O O8 0.779313 0.650638 0.332049
O O9 0.729731 0.705602 0.525337
O O10 0.000000 0.685801 0.462428
O O11 0.200916 0.404892 0.137706
O O12 0.265686 0.293126 0.150957
O O13 0.000000 0.327406 0.192296
O O14 0.230551 0.500000 0.010842
O O15 0.000000 0.566342 0.985353
O O16 0.500000 0.730350 0.640202
#
# Coordination Sequence:
#
# PCOD8179987 Si02
#       6
#     8   8   8   8   8   8
#     4   9  17  31  54  82 110 142 180 225 277 329
#     4  10  21  36  55  82 113 148 188 233 280 328
#     4   9  19  36  56  81 110 141 182 228 278 336
#     4  10  22  38  58  83 111 147 187 231 282 339
#     4  10  22  39  58  83 116 153 191 232 282 339
#     4  10  22  38  57  82 113 146 186 235 287 337
#
# _framework density 19.276926
#
# number of rings (size 3 to 8) (size 9 to 14) (size 15 to 20)
#    0.000    2.333    0.000    1.500    2.333    6.667 
#    0.000    3.333    0.000    0.000    0.000    4.667 
#    0.000    0.000    0.000    0.000    0.000    0.000 
#
# Total GULP energy -297480.474620 kJ/mol
# GULP energy per Si atom -12395.019776 kJ/mol
# Density = 1.923305 g / cm^3
# Si number density = 19.276926 Si / 1000 Ang^3
#
#
#
# Elastic Constant Matrix: (Units=GPa)
#
#
# Indices 1 2 3 4 5 6 
#
# 1 51.2108 32.7715 32.9724 0.0000 0.0000 0.0000
# 2 32.7715 93.4968 41.7162 0.0000 0.0000 0.0000
# 3 32.9724 41.7162 119.6140 0.0000 0.0000 0.0000
# 4 0.0000 0.0000 0.0000 18.0583 0.0000 0.0000
# 5 0.0000 0.0000 0.0000 0.0000 13.3354 0.0000
# 6 0.0000 0.0000 0.0000 0.0000 0.0000 18.7594
#
#
#
# Elastic Compliance Matrix: (Units=1/GPa)
#
#
# Indices 1 2 3 4 5 6 
#
# 1 0.027480 -0.007404 -0.004993 0.000000 0.000000 0.000000
# 2 -0.007404 0.014662 -0.003072 0.000000 0.000000 0.000000
# 3 -0.004993 -0.003072 0.010808 0.000000 0.000000 0.000000
# 4 0.000000 0.000000 0.000000 0.055376 0.000000 0.000000
# 5 0.000000 0.000000 0.000000 0.000000 0.074989 0.000000
# 6 0.000000 0.000000 0.000000 0.000000 0.000000 0.053307
#
#
# Mechanical properties :
#
#
# Convention : Reuss Voigt Hill
#
# Bulk Modulus (GPa) = 45.43204 53.24911 49.34058
# Shear Modulus (GPa) = 18.18864 20.48804 19.33834
#
# Velocity S-wave (km/s) = 3.07505 3.26364 3.17075
# Velocity P-wave (km/s) = 6.01890 6.47186 6.24949
#
# Compressibility (1/GPa) = 0.02201090
#
# Stress axis : x y z
#
# Youngs Moduli (GPa) = 36.38999 68.20522 92.52420
#
# Poissons Ratio (x) = 0.50502 0.46195
# Poissons Ratio (y) = 0.26945 0.28426
# Poissons Ratio (z) = 0.18169 0.20955
#
# Static dielectric constant tensor:
#      x y z
#    x 3.481130 0.000000 0.000000 
#    y 0.000000 3.610300 0.000000 
#    z 0.000000 0.000000 3.614040 
# 
# 
# High freq. dielectric constant tensor:
#      x y z
#    x 1.739880 0.000000 0.000000 
#    y 0.000000 1.751130 0.000000 
#    z 0.000000 0.000000 1.751360 
# 
# From -- ./inp_files/8128.got.cif
#   From: 2010.03.12/outbox.cif.g09.slc.cpg/sg38_5_cif.got.tgz:8128.got - 2010.04.14 02:38:36.
