data_PCOD8179665
_publ_section_title
;
Structure prediction by ZEFSAII (Michael W. Deem and Ramdas Pophale) SiO2 
 PCOD8179665
Probable space group: A M M 2
;
_chemical_formula_sum "Si O2"
_cell_formula_units_Z 64
_cell_length_a 18.375042
_cell_length_b 18.075409
_cell_length_c 9.395922
_cell_angle_alpha 90.000000
_cell_angle_beta 90.000000
_cell_angle_gamma 90.000000
_cell_volume 3120.727703
_symmetry_space_group_name_H-M "A M M 2"
_symmetry_group_IT_number 38
_symmetry_cell_setting 'orthorhombic'
loop_
_space_group_symop_operation_xyz
x,y,z
-x,-y,z
-x,y,z
x,-y,z
x,1/2+y,1/2+z
-x,1/2-y,1/2+z
-x,1/2+y,1/2+z
x,1/2-y,1/2+z
loop_
_atom_site_type_symbol
_atom_site_label
_atom_site_fract_x
_atom_site_fract_y
_atom_site_fract_z
Si Si1 0.916174 0.584756 0.888090
Si Si2 0.307129 0.413752 0.737308
Si Si3 0.158345 0.146481 0.134184
Si Si4 0.370281 0.082131 0.947715
Si Si5 0.819767 0.811534 0.584284
Si Si6 0.338370 0.813599 0.470334
Si Si7 0.205637 0.083317 0.847152
Si Si8 0.418765 0.706548 0.262662
O O1 0.890033 0.500000 0.912090
O O2 0.905798 0.607753 0.723573
O O3 0.000000 0.592871 0.931165
O O4 0.869102 0.641544 0.979057
O O5 0.287458 0.500000 0.726948
O O6 0.234462 0.366240 0.715747
O O7 0.365449 0.392579 0.613688
O O8 0.338507 0.394531 0.894375
O O9 0.142057 0.233991 0.121831
O O10 0.157718 0.107602 0.981278
O O11 0.290255 0.086608 0.882268
O O12 0.424189 0.132618 0.857311
O O13 0.402392 0.000000 0.938577
O O14 0.742332 0.790518 0.515432
O O15 0.809682 0.859913 0.723271
O O16 0.363310 0.759985 0.343111
O O17 0.392161 0.812244 0.603683
O O18 0.183341 0.000000 0.802270
O O19 0.500000 0.740257 0.251666
#
# Coordination Sequence:
#
# PCOD8179665 Si02
#       8
#     8   8   8   8   8   8   8   8
#     4  11  25  44  65  93 135 184 226 269 339 415
#     4  10  21  38  65  96 126 162 214 273 329 395
#     4  11  21  38  64  94 129 168 214 272 327 394
#     4   9  19  37  60  89 123 161 209 263 323 393
#     4  12  23  38  66  98 132 166 219 282 326 386
#     4  12  24  39  65  94 125 166 219 270 334 394
#     4  10  20  36  61  94 128 162 212 271 326 381
#     4  12  25  42  62  90 131 171 215 272 339 409
#
# _framework density 20.508036000000001
#
# number of rings (size 3 to 8) (size 9 to 14) (size 15 to 20)
#    0.000    1.125    2.500    6.375    0.000    1.750 
#    0.000    1.250    0.000    4.875    0.000    0.000 
#    0.000    0.000    0.000    0.000    0.000    0.000 
#
# Total GULP energy -396819.113404 kJ/mol
# GULP energy per Si atom -12400.597294 kJ/mol
# Density = 2.046136 g / cm^3
# Si number density = 20.508036 Si / 1000 Ang^3
#
#
#
# Elastic Constant Matrix: (Units=GPa)
#
#
# Indices 1 2 3 4 5 6 
#
# 1 74.6617 29.0052 30.6926 0.0000 0.0000 0.0000
# 2 29.0052 108.1359 27.1911 0.0000 0.0000 0.0000
# 3 30.6926 27.1911 104.6993 0.0000 0.0000 0.0000
# 4 0.0000 0.0000 0.0000 30.8501 0.0000 0.0000
# 5 0.0000 0.0000 0.0000 0.0000 21.1455 0.0000
# 6 0.0000 0.0000 0.0000 0.0000 0.0000 10.6582
#
#
#
# Elastic Compliance Matrix: (Units=1/GPa)
#
#
# Indices 1 2 3 4 5 6 
#
# 1 0.016317 -0.003396 -0.003901 0.000000 0.000000 0.000000
# 2 -0.003396 0.010600 -0.001758 0.000000 0.000000 0.000000
# 3 -0.003901 -0.001758 0.011151 0.000000 0.000000 0.000000
# 4 0.000000 0.000000 0.000000 0.032415 0.000000 0.000000
# 5 0.000000 0.000000 0.000000 0.000000 0.047291 0.000000
# 6 0.000000 0.000000 0.000000 0.000000 0.000000 0.093824
#
#
# Mechanical properties :
#
#
# Convention : Reuss Voigt Hill
#
# Bulk Modulus (GPa) = 50.10200 51.25274 50.67737
# Shear Modulus (GPa) = 21.15408 25.90463 23.52936
#
# Velocity S-wave (km/s) = 3.21518 3.55793 3.39089
# Velocity P-wave (km/s) = 6.18601 6.47490 6.33210
#
# Compressibility (1/GPa) = 0.01995928
#
# Stress axis : x y z
#
# Youngs Moduli (GPa) = 61.28686 94.33639 89.67566
#
# Poissons Ratio (x) = 0.32033 0.34986
# Poissons Ratio (y) = 0.20811 0.15761
# Poissons Ratio (z) = 0.23910 0.16580
#
# Static dielectric constant tensor:
#      x y z
#    x 3.385280 0.000000 0.000000 
#    y 0.000000 3.943990 0.000000 
#    z 0.000000 0.000000 4.048550 
# 
# 
# High freq. dielectric constant tensor:
#      x y z
#    x 1.766550 0.000000 0.000000 
#    y 0.000000 1.814930 0.000000 
#    z 0.000000 0.000000 1.817550 
# 
# From -- ./inp_files/6828.got.cif
#   From: 2010.03.12/outbox.cif.g09.slc.cpg/sg38_4_cif.got.tgz:6828.got - 2010.04.14 02:38:36.
