data_PCOD8179389
_publ_section_title
;
Structure prediction by ZEFSAII (Michael W. Deem and Ramdas Pophale) SiO2 
 PCOD8179389
Probable space group: A M M 2
;
_chemical_formula_sum "Si O2"
_cell_formula_units_Z 40
_cell_length_a 8.920424
_cell_length_b 24.942538
_cell_length_c 9.687081
_cell_angle_alpha 90.000000
_cell_angle_beta 90.000000
_cell_angle_gamma 90.000000
_cell_volume 2155.356290
_symmetry_space_group_name_H-M "A M M 2"
_symmetry_group_IT_number 38
_symmetry_cell_setting 'orthorhombic'
loop_
_space_group_symop_operation_xyz
x,y,z
-x,-y,z
-x,y,z
x,-y,z
x,1/2+y,1/2+z
-x,1/2-y,1/2+z
-x,1/2+y,1/2+z
x,1/2-y,1/2+z
loop_
_atom_site_type_symbol
_atom_site_label
_atom_site_fract_x
_atom_site_fract_y
_atom_site_fract_z
Si Si1 0.822990 0.000000 0.083900
Si Si2 0.322855 0.500000 0.881698
Si Si3 0.825408 0.409659 0.376098
Si Si4 0.175034 0.287001 0.381342
Si Si5 0.673614 0.910572 0.590390
Si Si6 0.325447 0.288369 0.096903
O O1 0.749819 0.000000 0.232629
O O2 0.768705 0.947449 0.000058
O O3 0.000000 0.000000 0.103823
O O4 0.500000 0.500000 0.861456
O O5 0.267267 0.552417 0.965631
O O6 0.786802 0.348630 0.416590
O O7 0.750179 0.427088 0.233372
O O8 0.000000 0.417491 0.351441
O O9 0.221014 0.273774 0.225551
O O10 0.279215 0.250597 0.475077
O O11 0.000000 0.273830 0.402601
O O12 0.500000 0.921407 0.614365
O O13 0.706964 0.849204 0.549547
O O14 0.500000 0.280408 0.134594
#
# Coordination Sequence:
#
# PCOD8179389 Si02
#       6
#     4   4   8   8   8   8
#     4  10  21  36  52  76 106 134 167 210 256 304
#     4  10  21  36  52  76 106 134 167 210 256 304
#     4   9  19  35  55  77 102 133 172 211 252 304
#     4  10  20  35  54  78 106 138 174 214 258 307
#     4   9  19  35  55  77 102 133 172 211 252 304
#     4  10  20  35  54  78 106 138 174 214 258 307
#
# _framework density 18.558418
#
# number of rings (size 3 to 8) (size 9 to 14) (size 15 to 20)
#    0.000    2.400    0.000    1.800    0.000    4.800 
#    0.000    4.000    0.000    0.000    0.000    0.000 
#    0.000    0.000    0.000    0.000    0.000    0.000 
#
# Total GULP energy -248032.993602 kJ/mol
# GULP energy per Si atom -12401.649680 kJ/mol
# Density = 1.851618 g / cm^3
# Si number density = 18.558418 Si / 1000 Ang^3
#
#
#
# Elastic Constant Matrix: (Units=GPa)
#
#
# Indices 1 2 3 4 5 6 
#
# 1 45.2853 37.3826 40.5978 0.0000 0.0000 0.0000
# 2 37.3826 112.3578 86.4740 0.0000 0.0000 0.0000
# 3 40.5978 86.4740 142.9733 0.0000 0.0000 0.0000
# 4 0.0000 0.0000 0.0000 36.7738 0.0000 0.0000
# 5 0.0000 0.0000 0.0000 0.0000 39.7136 0.0000
# 6 0.0000 0.0000 0.0000 0.0000 0.0000 24.6137
#
#
#
# Elastic Compliance Matrix: (Units=1/GPa)
#
#
# Indices 1 2 3 4 5 6 
#
# 1 0.032240 -0.006886 -0.004990 0.000000 0.000000 0.000000
# 2 -0.006886 0.018122 -0.009005 0.000000 0.000000 0.000000
# 3 -0.004990 -0.009005 0.013858 0.000000 0.000000 0.000000
# 4 0.000000 0.000000 0.000000 0.027193 0.000000 0.000000
# 5 0.000000 0.000000 0.000000 0.000000 0.025180 0.000000
# 6 0.000000 0.000000 0.000000 0.000000 0.000000 0.040628
#
#
# Mechanical properties :
#
#
# Convention : Reuss Voigt Hill
#
# Bulk Modulus (GPa) = 44.52907 69.94725 57.23816
# Shear Modulus (GPa) = 24.21665 29.29769 26.75717
#
# Velocity S-wave (km/s) = 3.61624 3.97756 3.80120
# Velocity P-wave (km/s) = 6.44068 7.67247 7.08340
#
# Compressibility (1/GPa) = 0.02245724
#
# Stress axis : x y z
#
# Youngs Moduli (GPa) = 31.01737 55.18131 72.16191
#
# Poissons Ratio (x) = 0.38001 0.36005
# Poissons Ratio (y) = 0.21360 0.64984
# Poissons Ratio (z) = 0.15476 0.49692
#
# Static dielectric constant tensor:
#      x y z
#    x 3.556090 0.000000 0.000000 
#    y 0.000000 3.673780 0.000000 
#    z 0.000000 0.000000 3.366130 
# 
# 
# High freq. dielectric constant tensor:
#      x y z
#    x 1.719270 0.000000 0.000000 
#    y 0.000000 1.730500 0.000000 
#    z 0.000000 0.000000 1.716830 
# 
# From -- ./inp_files/3473.got.cif
#   From: 2010.03.12/outbox.cif.g09.slc.cpg/sg38_2_cif.got.tgz:3473.got - 2010.04.14 02:38:36.
