data_PCOD8179822
_publ_section_title
;
Structure prediction by ZEFSAII (Michael W. Deem and Ramdas Pophale) SiO2 
 PCOD8179822
Probable space group: A M M 2
;
_chemical_formula_sum "Si O2"
_cell_formula_units_Z 48
_cell_length_a 12.063440
_cell_length_b 15.397074
_cell_length_c 10.165791
_cell_angle_alpha 90.000000
_cell_angle_beta 90.000000
_cell_angle_gamma 90.000000
_cell_volume 1888.211082
_symmetry_space_group_name_H-M "A M M 2"
_symmetry_group_IT_number 38
_symmetry_cell_setting 'orthorhombic'
loop_
_space_group_symop_operation_xyz
x,y,z
-x,-y,z
-x,y,z
x,-y,z
x,1/2+y,1/2+z
-x,1/2-y,1/2+z
-x,1/2+y,1/2+z
x,1/2-y,1/2+z
loop_
_atom_site_type_symbol
_atom_site_label
_atom_site_fract_x
_atom_site_fract_y
_atom_site_fract_z
Si Si1 0.766964 0.000000 0.536650
Si Si2 0.868911 0.329131 0.913117
Si Si3 0.379001 0.687690 0.726317
Si Si4 0.369803 0.000000 0.799475
Si Si5 0.125561 0.184581 0.111728
Si Si6 0.369486 0.819428 0.939247
Si Si7 0.877753 0.500000 0.640218
Si Si8 0.341225 0.000000 0.294167
O O1 0.834353 0.086724 0.497853
O O2 0.721708 0.000000 0.684709
O O3 0.653995 0.000000 0.451998
O O4 0.825651 0.247179 0.998216
O O5 0.000000 0.330085 0.895102
O O6 0.817360 0.322093 0.760968
O O7 0.500000 0.731996 0.710406
O O8 0.323347 0.742382 0.845719
O O9 0.312825 0.694397 0.585959
O O10 0.402075 0.586035 0.747635
O O11 0.342778 0.914990 0.885487
O O12 0.500000 0.000000 0.753916
O O13 0.132503 0.086627 0.051292
O O14 0.000000 0.215775 0.136129
O O15 0.500000 0.810884 0.964571
O O16 0.789533 0.500000 0.757942
O O17 0.000000 0.500000 0.709978
#
# Coordination Sequence:
#
# PCOD8179822 Si02
#       8
#     4   8   8   4   8   8   4   4
#     4  12  25  39  61  95 125 171 213 258 319 362
#     4  10  20  40  66  93 124 161 209 258 314 377
#     4  10  22  41  66  96 128 163 208 255 311 376
#     4  10  23  42  61  88 129 169 212 260 316 371
#     4   9  18  36  64  89 118 158 199 255 312 369
#     4   9  20  42  69  92 124 169 207 256 315 370
#     4  10  20  40  61  86 120 162 211 255 307 371
#     4  12  24  37  59  95 122 172 210 257 312 370
#
# _framework density 25.420887
#
# number of rings (size 3 to 8) (size 9 to 14) (size 15 to 20)
#    0.000    2.000    1.667    1.000    2.333    3.333 
#    0.000    2.500    0.000    4.000    0.000    0.000 
#    0.000    0.000    0.000    0.000    0.000    0.000 
#
# Total GULP energy -297354.616476 kJ/mol
# GULP energy per Si atom -12389.775686 kJ/mol
# Density = 2.536303 g / cm^3
# Si number density = 25.420887 Si / 1000 Ang^3
#
#
#
# Elastic Constant Matrix: (Units=GPa)
#
#
# Indices 1 2 3 4 5 6 
#
# 1 82.1309 22.1554 60.2227 0.0000 0.0000 0.0000
# 2 22.1554 224.6373 115.9905 0.0000 0.0000 0.0000
# 3 60.2227 115.9905 220.2471 0.0000 0.0000 0.0000
# 4 0.0000 0.0000 0.0000 42.9189 0.0000 0.0000
# 5 0.0000 0.0000 0.0000 0.0000 37.3770 0.0000
# 6 0.0000 0.0000 0.0000 0.0000 0.0000 20.8509
#
#
#
# Elastic Compliance Matrix: (Units=1/GPa)
#
#
# Indices 1 2 3 4 5 6 
#
# 1 0.015360 0.000898 -0.004673 0.000000 0.000000 0.000000
# 2 0.000898 0.006167 -0.003493 0.000000 0.000000 0.000000
# 3 -0.004673 -0.003493 0.007658 0.000000 0.000000 0.000000
# 4 0.000000 0.000000 0.000000 0.023300 0.000000 0.000000
# 5 0.000000 0.000000 0.000000 0.000000 0.026754 0.000000
# 6 0.000000 0.000000 0.000000 0.000000 0.000000 0.047960
#
#
# Mechanical properties :
#
#
# Convention : Reuss Voigt Hill
#
# Bulk Modulus (GPa) = 68.26805 102.63917 85.45361
# Shear Modulus (GPa) = 34.10256 42.13914 38.12085
#
# Velocity S-wave (km/s) = 3.66665 4.07585 3.87665
# Velocity P-wave (km/s) = 6.69620 7.91288 7.32983
#
# Compressibility (1/GPa) = 0.01464814
#
# Stress axis : x y z
#
# Youngs Moduli (GPa) = 65.10524 162.16036 130.58857
#
# Poissons Ratio (x) = -0.14559 0.61020
# Poissons Ratio (y) = -0.05845 0.45616
# Poissons Ratio (z) = 0.30422 0.56645
#
# Static dielectric constant tensor:
#      x y z
#    x 4.845280 0.000000 0.000000 
#    y 0.000000 4.721520 0.000000 
#    z 0.000000 0.000000 4.763100 
# 
# 
# High freq. dielectric constant tensor:
#      x y z
#    x 2.072250 0.000000 0.000000 
#    y 0.000000 2.022730 0.000000 
#    z 0.000000 0.000000 2.009270 
# 
# From -- ./inp_files/5530.got.cif
#   From: 2010.03.12/outbox.cif.g09.slc.cpg/sg38_3_cif.got.tgz:5530.got - 2010.04.14 02:38:36.
