data_PCOD8179549
_publ_section_title
;
Structure prediction by ZEFSAII (Michael W. Deem and Ramdas Pophale) SiO2 
 PCOD8179549
Probable space group: A M M 2
;
_chemical_formula_sum "Si O2"
_cell_formula_units_Z 56
_cell_length_a 19.292627
_cell_length_b 8.936641
_cell_length_c 15.933381
_cell_angle_alpha 90.000000
_cell_angle_beta 90.000000
_cell_angle_gamma 90.000000
_cell_volume 2747.094636
_symmetry_space_group_name_H-M "A M M 2"
_symmetry_group_IT_number 38
_symmetry_cell_setting 'orthorhombic'
loop_
_space_group_symop_operation_xyz
x,y,z
-x,-y,z
-x,y,z
x,-y,z
x,1/2+y,1/2+z
-x,1/2-y,1/2+z
-x,1/2+y,1/2+z
x,1/2-y,1/2+z
loop_
_atom_site_type_symbol
_atom_site_label
_atom_site_fract_x
_atom_site_fract_y
_atom_site_fract_z
Si Si1 0.152123 0.828102 0.760410
Si Si2 0.078323 0.322116 0.091445
Si Si3 0.421799 0.326593 0.941147
Si Si4 0.288865 0.329987 0.170417
Si Si5 0.290325 0.674947 0.504292
Si Si6 0.577099 0.170122 0.768738
Si Si7 0.836365 0.177376 0.429882
O O1 0.113021 0.764107 0.677855
O O2 0.234854 0.811342 0.746542
O O3 0.130132 0.734767 0.842676
O O4 0.131212 0.000000 0.775948
O O5 0.080852 0.500000 0.090827
O O6 0.000000 0.261397 0.087362
O O7 0.118509 0.263127 0.008822
O O8 0.500000 0.291552 0.971729
O O9 0.403791 0.500000 0.952520
O O10 0.369351 0.229535 0.996036
O O11 0.413467 0.284541 0.844205
O O12 0.285340 0.500000 0.135518
O O13 0.366428 0.288899 0.198991
O O14 0.265483 0.218200 0.097324
O O15 0.285080 0.500000 0.489057
O O16 0.240990 0.755811 0.436909
O O17 0.500000 0.185987 0.729310
O O18 0.589326 0.000000 0.801199
O O19 0.832686 0.000000 0.427708
#
# Coordination Sequence:
#
# PCOD8179549 Si02
#       7
#     8   8   8   8   8   8   8
#     4  10  20  37  61  89 121 160 202 247 300 360
#     4   9  19  38  63  90 124 165 204 244 298 364
#     4  10  21  37  57  81 112 151 196 246 300 359
#     4  10  20  36  56  80 113 153 197 244 299 359
#     4  12  24  37  57  84 116 154 200 253 303 355
#     4   9  18  33  54  80 112 150 192 241 297 357
#     4  11  22  39  63  91 123 162 205 250 302 360
#
# _framework density 20.385173999999999
#
# number of rings (size 3 to 8) (size 9 to 14) (size 15 to 20)
#    0.000    1.857    1.429    3.000    0.000    4.286 
#    0.000    1.429    0.000    3.000    0.000    0.000 
#    0.000    0.000    0.000    0.000    0.000    0.000 
#
# Total GULP energy -347233.487602 kJ/mol
# GULP energy per Si atom -12401.195986 kJ/mol
# Density = 2.033878 g / cm^3
# Si number density = 20.385174 Si / 1000 Ang^3
#
#
#
# Elastic Constant Matrix: (Units=GPa)
#
#
# Indices 1 2 3 4 5 6 
#
# 1 114.0815 35.5164 51.7674 0.0000 0.0000 0.0000
# 2 35.5164 81.1844 46.2422 0.0000 0.0000 0.0000
# 3 51.7674 46.2422 133.8693 0.0000 0.0000 0.0000
# 4 0.0000 0.0000 0.0000 36.3481 0.0000 0.0000
# 5 0.0000 0.0000 0.0000 0.0000 26.8847 0.0000
# 6 0.0000 0.0000 0.0000 0.0000 0.0000 16.6527
#
#
#
# Elastic Compliance Matrix: (Units=1/GPa)
#
#
# Indices 1 2 3 4 5 6 
#
# 1 0.011199 -0.003028 -0.003285 0.000000 0.000000 0.000000
# 2 -0.003028 0.016154 -0.004409 0.000000 0.000000 0.000000
# 3 -0.003285 -0.004409 0.010263 0.000000 0.000000 0.000000
# 4 0.000000 0.000000 0.000000 0.027512 0.000000 0.000000
# 5 0.000000 0.000000 0.000000 0.000000 0.037196 0.000000
# 6 0.000000 0.000000 0.000000 0.000000 0.000000 0.060050
#
#
# Mechanical properties :
#
#
# Convention : Reuss Voigt Hill
#
# Bulk Modulus (GPa) = 61.83493 66.24303 64.03898
# Shear Modulus (GPa) = 26.42596 29.01773 27.72185
#
# Velocity S-wave (km/s) = 3.60437 3.77699 3.69169
# Velocity P-wave (km/s) = 6.90805 7.18241 7.04657
#
# Compressibility (1/GPa) = 0.01617209
#
# Stress axis : x y z
#
# Youngs Moduli (GPa) = 89.29418 61.90504 97.43694
#
# Poissons Ratio (x) = 0.18748 0.32004
# Poissons Ratio (y) = 0.27042 0.42959
# Poissons Ratio (z) = 0.29329 0.27293
#
# Static dielectric constant tensor:
#      x y z
#    x 3.878430 0.000000 0.000000 
#    y 0.000000 3.481080 0.000000 
#    z 0.000000 0.000000 3.596310 
# 
# 
# High freq. dielectric constant tensor:
#      x y z
#    x 1.801470 0.000000 0.000000 
#    y 0.000000 1.772870 0.000000 
#    z 0.000000 0.000000 1.792880 
# 
# From -- ./inp_files/15471.got.cif
#   From: 2010.03.12/outbox.cif.g09.slc.cpg/sg38_8_cif.got.tgz:15471.got - 2010.04.14 02:38:36.
