data_PCOD8179811
_publ_section_title
;
Structure prediction by ZEFSAII (Michael W. Deem and Ramdas Pophale) SiO2 
 PCOD8179811
Probable space group: A M M 2
;
_chemical_formula_sum "Si O2"
_cell_formula_units_Z 56
_cell_length_a 21.083169
_cell_length_b 8.650670
_cell_length_c 15.294249
_cell_angle_alpha 90.000000
_cell_angle_beta 90.000000
_cell_angle_gamma 90.000000
_cell_volume 2789.419237
_symmetry_space_group_name_H-M "A M M 2"
_symmetry_group_IT_number 38
_symmetry_cell_setting 'orthorhombic'
loop_
_space_group_symop_operation_xyz
x,y,z
-x,-y,z
-x,y,z
x,-y,z
x,1/2+y,1/2+z
-x,1/2-y,1/2+z
-x,1/2+y,1/2+z
x,1/2-y,1/2+z
loop_
_atom_site_type_symbol
_atom_site_label
_atom_site_fract_x
_atom_site_fract_y
_atom_site_fract_z
Si Si1 0.782419 0.318901 0.833560
Si Si2 0.427406 0.820728 0.166410
Si Si3 0.645888 0.820482 0.825595
Si Si4 0.863660 0.321035 0.482328
Si Si5 0.426023 0.321332 0.984146
Si Si6 0.000000 0.180938 0.730828
Si Si7 0.000000 0.182725 0.925181
Si Si8 0.127553 0.677577 0.677722
O O1 0.766136 0.500000 0.827783
O O2 0.719350 0.218860 0.832915
O O3 0.819613 0.285185 0.922726
O O4 0.823897 0.262032 0.750965
O O5 0.500000 0.782017 0.190898
O O6 0.384405 0.778410 0.248212
O O7 0.418663 0.000000 0.144031
O O8 0.405429 0.723781 0.082113
O O9 0.612776 0.781917 0.916946
O O10 0.636667 0.000000 0.804868
O O11 0.857511 0.500000 0.452839
O O12 0.936468 0.262106 0.474610
O O13 0.841171 0.299271 0.582334
O O14 0.500000 0.286568 0.970139
O O15 0.409811 0.500000 0.967916
O O16 0.937867 0.230833 0.679021
O O17 0.000000 0.255063 0.827854
O O18 0.000000 0.000000 0.739293
O O19 0.000000 0.000000 0.921193
O O20 0.110902 0.500000 0.695227
#
# Coordination Sequence:
#
# PCOD8179811 Si02
#       8
#     8   8   8   8   8   4   4   8
#     4  11  24  41  58  83 117 153 197 251 301 350
#     4  10  21  39  64  94 127 161 199 246 298 355
#     4  12  25  40  61  87 120 165 209 250 300 356
#     4  10  20  39  62  84 113 152 195 235 291 360
#     4  10  21  39  64  94 126 158 196 247 303 358
#     4  11  20  33  59  90 117 147 186 238 291 346
#     4   9  17  31  57  86 113 145 182 234 289 348
#     4  10  22  39  61  85 113 151 192 239 294 353
#
# _framework density 20.075863999999999
#
# number of rings (size 3 to 8) (size 9 to 14) (size 15 to 20)
#    0.000    1.571    1.429    3.643    0.000    6.857 
#    0.000    4.643    0.000    0.000    0.000    0.000 
#    0.000    0.000    0.000    0.000    0.000    0.000 
#
# Total GULP energy -347334.645308 kJ/mol
# GULP energy per Si atom -12404.808761 kJ/mol
# Density = 2.003017 g / cm^3
# Si number density = 20.075864 Si / 1000 Ang^3
#
#
#
# Elastic Constant Matrix: (Units=GPa)
#
#
# Indices 1 2 3 4 5 6 
#
# 1 97.1473 24.1363 47.6166 0.0000 0.0000 0.0000
# 2 24.1363 56.3079 18.8926 0.0000 0.0000 0.0000
# 3 47.6166 18.8926 117.7253 0.0000 0.0000 0.0000
# 4 0.0000 0.0000 0.0000 34.7458 0.0000 0.0000
# 5 0.0000 0.0000 0.0000 0.0000 9.6218 0.0000
# 6 0.0000 0.0000 0.0000 0.0000 0.0000 25.5176
#
#
#
# Elastic Compliance Matrix: (Units=1/GPa)
#
#
# Indices 1 2 3 4 5 6 
#
# 1 0.013740 -0.004254 -0.004875 0.000000 0.000000 0.000000
# 2 -0.004254 0.020087 -0.001503 0.000000 0.000000 0.000000
# 3 -0.004875 -0.001503 0.010707 0.000000 0.000000 0.000000
# 4 0.000000 0.000000 0.000000 0.028780 0.000000 0.000000
# 5 0.000000 0.000000 0.000000 0.000000 0.103931 0.000000
# 6 0.000000 0.000000 0.000000 0.000000 0.000000 0.039189
#
#
# Mechanical properties :
#
#
# Convention : Reuss Voigt Hill
#
# Bulk Modulus (GPa) = 42.97201 50.27462 46.62332
# Shear Modulus (GPa) = 20.37034 26.01271 23.19153
#
# Velocity S-wave (km/s) = 3.18884 3.60352 3.40250
# Velocity P-wave (km/s) = 5.91689 6.51233 6.22174
#
# Compressibility (1/GPa) = 0.02327096
#
# Stress axis : x y z
#
# Youngs Moduli (GPa) = 72.78075 49.78282 93.39476
#
# Poissons Ratio (x) = 0.21178 0.45527
# Poissons Ratio (y) = 0.30961 0.14037
# Poissons Ratio (z) = 0.35479 0.07482
#
# Static dielectric constant tensor:
#      x y z
#    x 3.610560 0.000000 0.000000 
#    y 0.000000 3.549960 0.000000 
#    z 0.000000 0.000000 3.738050 
# 
# 
# High freq. dielectric constant tensor:
#      x y z
#    x 1.778440 0.000000 0.000000 
#    y 0.000000 1.778420 0.000000 
#    z 0.000000 0.000000 1.796800 
# 
# From -- ./inp_files/15542.got.cif
#   From: 2010.03.12/outbox.cif.g09.slc.cpg/sg38_8_cif.got.tgz:15542.got - 2010.04.14 02:38:36.
