data_PCOD8179330
_publ_section_title
;
Structure prediction by ZEFSAII (Michael W. Deem and Ramdas Pophale) SiO2 
 PCOD8179330
Probable space group: A M M 2
;
_chemical_formula_sum "Si O2"
_cell_formula_units_Z 64
_cell_length_a 23.481927
_cell_length_b 9.162502
_cell_length_c 15.464061
_cell_angle_alpha 90.000000
_cell_angle_beta 90.000000
_cell_angle_gamma 90.000000
_cell_volume 3327.142257
_symmetry_space_group_name_H-M "A M M 2"
_symmetry_group_IT_number 38
_symmetry_cell_setting 'orthorhombic'
loop_
_space_group_symop_operation_xyz
x,y,z
-x,-y,z
-x,y,z
x,-y,z
x,1/2+y,1/2+z
-x,1/2-y,1/2+z
-x,1/2+y,1/2+z
x,1/2-y,1/2+z
loop_
_atom_site_type_symbol
_atom_site_label
_atom_site_fract_x
_atom_site_fract_y
_atom_site_fract_z
Si Si1 0.864311 0.826498 0.049660
Si Si2 0.322486 0.167672 0.374536
Si Si3 0.332338 0.170614 0.708735
Si Si4 0.932923 0.832480 0.695573
Si Si5 0.063053 0.172941 0.889287
Si Si6 0.563466 0.165218 0.463012
Si Si7 0.564620 0.169022 0.137937
Si Si8 0.745426 0.830018 0.545978
O O1 0.899843 0.772708 0.131471
O O2 0.801252 0.765755 0.053881
O O3 0.862454 0.000000 0.051668
O O4 0.893602 0.767042 0.961485
O O5 0.301886 0.266129 0.294462
O O6 0.389771 0.196791 0.389956
O O7 0.287236 0.213934 0.458876
O O8 0.310994 0.000000 0.351146
O O9 0.394180 0.244060 0.701706
O O10 0.294679 0.210771 0.626051
O O11 0.340513 0.000000 0.719528
O O12 0.916323 0.782978 0.793096
O O13 0.000000 0.813920 0.680994
O O14 0.914560 0.000000 0.679346
O O15 0.000000 0.238239 0.907450
O O16 0.059114 0.000000 0.894356
O O17 0.500000 0.183096 0.423008
O O18 0.572910 0.276271 0.540616
O O19 0.572388 0.000000 0.498996
O O20 0.500000 0.195569 0.169084
O O21 0.581132 0.000000 0.140929
O O22 0.761768 0.000000 0.547409
#
# Coordination Sequence:
#
# PCOD8179330 Si02
#       8
#     8   8   8   8   8   8   8   8
#     4  11  22  35  57  86 114 147 191 239 283 326
#     4  10  21  39  60  84 113 148 188 235 291 345
#     4  11  23  40  61  84 110 148 193 237 288 346
#     4   9  18  35  59  85 116 154 189 222 272 338
#     4   8  16  33  56  82 114 149 182 220 271 332
#     4   9  17  33  58  84 113 148 182 221 280 349
#     4  10  20  34  56  86 117 147 182 230 285 340
#     4  10  23  43  59  76 112 154 193 235 284 340
#
# _framework density 19.235728000000002
#
# number of rings (size 3 to 8) (size 9 to 14) (size 15 to 20)
#    0.000    2.250    1.250    2.250    0.000    5.000 
#    0.000    6.250    0.000    1.500    0.000    0.000 
#    0.000    0.000    0.000    0.000    0.000    0.000 
#
# Total GULP energy -396818.894499 kJ/mol
# GULP energy per Si atom -12400.590453 kJ/mol
# Density = 1.919195 g / cm^3
# Si number density = 19.235728 Si / 1000 Ang^3
#
#
#
# Elastic Constant Matrix: (Units=GPa)
#
#
# Indices 1 2 3 4 5 6 
#
# 1 96.5608 56.6954 63.2722 0.0000 0.0000 0.0000
# 2 56.6954 80.2671 64.4059 0.0000 0.0000 0.0000
# 3 63.2722 64.4059 146.0516 0.0000 0.0000 0.0000
# 4 0.0000 0.0000 0.0000 33.7932 0.0000 0.0000
# 5 0.0000 0.0000 0.0000 0.0000 7.7311 0.0000
# 6 0.0000 0.0000 0.0000 0.0000 0.0000 23.5466
#
#
#
# Elastic Compliance Matrix: (Units=1/GPa)
#
#
# Indices 1 2 3 4 5 6 
#
# 1 0.018809 -0.010442 -0.003544 0.000000 0.000000 0.000000
# 2 -0.010442 0.025078 -0.006535 0.000000 0.000000 0.000000
# 3 -0.003544 -0.006535 0.011264 0.000000 0.000000 0.000000
# 4 0.000000 0.000000 0.000000 0.029592 0.000000 0.000000
# 5 0.000000 0.000000 0.000000 0.000000 0.129347 0.000000
# 6 0.000000 0.000000 0.000000 0.000000 0.000000 0.042469
#
#
# Mechanical properties :
#
#
# Convention : Reuss Voigt Hill
#
# Bulk Modulus (GPa) = 70.87642 76.84736 73.86189
# Shear Modulus (GPa) = 16.53963 22.24792 19.39378
#
# Velocity S-wave (km/s) = 2.93548 3.40456 3.17869
# Velocity P-wave (km/s) = 6.95813 7.44928 7.20789
#
# Compressibility (1/GPa) = 0.01410907
#
# Stress axis : x y z
#
# Youngs Moduli (GPa) = 53.16508 39.87593 88.77894
#
# Poissons Ratio (x) = 0.41639 0.31461
# Poissons Ratio (y) = 0.55516 0.58018
# Poissons Ratio (z) = 0.18840 0.26059
#
# Static dielectric constant tensor:
#      x y z
#    x 3.906050 0.000000 0.000000 
#    y 0.000000 3.372370 0.000000 
#    z 0.000000 0.000000 3.586410 
# 
# 
# High freq. dielectric constant tensor:
#      x y z
#    x 1.747050 0.000000 0.000000 
#    y 0.000000 1.735180 0.000000 
#    z 0.000000 0.000000 1.752180 
# 
# From -- ./inp_files/15806.got.cif
#   From: 2010.03.12/outbox.cif.g09.slc.cpg/sg38_8_cif.got.tgz:15806.got - 2010.04.14 02:38:36.
