data_PCOD8179739
_publ_section_title
;
Structure prediction by ZEFSAII (Michael W. Deem and Ramdas Pophale) SiO2 
 PCOD8179739
Probable space group: A M M 2
;
_chemical_formula_sum "Si O2"
_cell_formula_units_Z 64
_cell_length_a 13.345220
_cell_length_b 24.878411
_cell_length_c 9.440900
_cell_angle_alpha 90.000000
_cell_angle_beta 90.000000
_cell_angle_gamma 90.000000
_cell_volume 3134.453081
_symmetry_space_group_name_H-M "A M M 2"
_symmetry_group_IT_number 38
_symmetry_cell_setting 'orthorhombic'
loop_
_space_group_symop_operation_xyz
x,y,z
-x,-y,z
-x,y,z
x,-y,z
x,1/2+y,1/2+z
-x,1/2-y,1/2+z
-x,1/2+y,1/2+z
x,1/2-y,1/2+z
loop_
_atom_site_type_symbol
_atom_site_label
_atom_site_fract_x
_atom_site_fract_y
_atom_site_fract_z
Si Si1 0.394298 0.439030 0.311310
Si Si2 0.889771 0.655650 0.137484
Si Si3 0.607017 0.603237 0.613340
Si Si4 0.176972 0.060806 0.799908
Si Si5 0.814032 0.938569 0.134825
Si Si6 0.884372 0.839432 0.313361
Si Si7 0.614696 0.278296 0.547121
Si Si8 0.744242 0.761764 0.772475
O O1 0.500000 0.431297 0.222611
O O2 0.388000 0.500000 0.370024
O O3 0.400471 0.400442 0.444514
O O4 0.289208 0.427689 0.232908
O O5 0.897768 0.597343 0.211052
O O6 0.817582 0.689982 0.235464
O O7 0.000000 0.681896 0.140027
O O8 0.853985 0.649266 0.975878
O O9 0.500000 0.585300 0.682128
O O10 0.696787 0.568051 0.677727
O O11 0.624360 0.666394 0.634970
O O12 0.143452 0.000000 0.773263
O O13 0.173040 0.073527 0.967861
O O14 0.875828 0.894845 0.223920
O O15 0.847451 0.000000 0.170887
O O16 0.809160 0.793176 0.259555
O O17 0.000000 0.820227 0.300002
O O18 0.500000 0.266444 0.498426
O O19 0.651738 0.235624 0.663165
O O20 0.696137 0.273708 0.423494
#
# Coordination Sequence:
#
# PCOD8179739 Si02
#       8
#     8   8   8   8   8   8   8   8
#     4   8  13  24  47  79 114 149 185 229 283 343
#     4  11  25  42  63  88 117 164 214 257 314 372
#     4   9  16  29  52  86 119 153 194 237 291 358
#     4   9  19  36  60  90 123 157 202 259 311 365
#     4  10  20  37  61  91 124 161 207 261 313 367
#     4  11  25  43  61  86 121 167 213 261 321 375
#     4  11  23  38  65  94 126 162 197 242 308 382
#     4  12  22  44  63  91 128 158 205 258 312 368
#
# _framework density 20.418236
#
# number of rings (size 3 to 8) (size 9 to 14) (size 15 to 20)
#    0.000    1.875    2.500    3.375    0.000    2.250 
#    0.000    3.125    0.000    0.000    0.000    1.750 
#    0.000    0.000    0.000    0.000    0.000    0.000 
#
# Total GULP energy -396425.951446 kJ/mol
# GULP energy per Si atom -12388.310983 kJ/mol
# Density = 2.037176 g / cm^3
# Si number density = 20.418236 Si / 1000 Ang^3
#
#
#
# Elastic Constant Matrix: (Units=GPa)
#
#
# Indices 1 2 3 4 5 6 
#
# 1 91.5700 28.2067 24.2811 0.0000 0.0000 0.0000
# 2 28.2067 81.7516 26.9074 0.0000 0.0000 0.0000
# 3 24.2811 26.9074 66.3735 0.0000 0.0000 0.0000
# 4 0.0000 0.0000 0.0000 21.1186 0.0000 0.0000
# 5 0.0000 0.0000 0.0000 0.0000 25.9035 0.0000
# 6 0.0000 0.0000 0.0000 0.0000 0.0000 27.0670
#
#
#
# Elastic Compliance Matrix: (Units=1/GPa)
#
#
# Indices 1 2 3 4 5 6 
#
# 1 0.012832 -0.003326 -0.003346 0.000000 0.000000 0.000000
# 2 -0.003326 0.014978 -0.004855 0.000000 0.000000 0.000000
# 3 -0.003346 -0.004855 0.018259 0.000000 0.000000 0.000000
# 4 0.000000 0.000000 0.000000 0.047352 0.000000 0.000000
# 5 0.000000 0.000000 0.000000 0.000000 0.038605 0.000000
# 6 0.000000 0.000000 0.000000 0.000000 0.000000 0.036945
#
#
# Mechanical properties :
#
#
# Convention : Reuss Voigt Hill
#
# Bulk Modulus (GPa) = 43.45161 44.27617 43.86389
# Shear Modulus (GPa) = 25.03799 25.50449 25.27124
#
# Velocity S-wave (km/s) = 3.50559 3.53810 3.52188
# Velocity P-wave (km/s) = 6.14106 6.19859 6.16989
#
# Compressibility (1/GPa) = 0.02301411
#
# Stress axis : x y z
#
# Youngs Moduli (GPa) = 77.92746 66.76538 54.76893
#
# Poissons Ratio (x) = 0.22208 0.18326
# Poissons Ratio (y) = 0.25921 0.26591
# Poissons Ratio (z) = 0.26074 0.32415
#
# Static dielectric constant tensor:
#      x y z
#    x 4.043150 0.000000 0.000000 
#    y 0.000000 3.688330 0.000000 
#    z 0.000000 0.000000 3.279260 
# 
# 
# High freq. dielectric constant tensor:
#      x y z
#    x 1.818420 0.000000 0.000000 
#    y 0.000000 1.798050 0.000000 
#    z 0.000000 0.000000 1.751860 
# 
# From -- ./inp_files/5897.got.cif
#   From: 2010.03.12/outbox.cif.g09.slc.cpg/sg38_3_cif.got.tgz:5897.got - 2010.04.14 02:38:36.
