data_PCOD8179650
_publ_section_title
;
Structure prediction by ZEFSAII (Michael W. Deem and Ramdas Pophale) SiO2 
 PCOD8179650
Probable space group: A M M 2
;
_chemical_formula_sum "Si O2"
_cell_formula_units_Z 48
_cell_length_a 8.659274
_cell_length_b 18.262472
_cell_length_c 15.052978
_cell_angle_alpha 90.000000
_cell_angle_beta 90.000000
_cell_angle_gamma 90.000000
_cell_volume 2380.474162
_symmetry_space_group_name_H-M "A M M 2"
_symmetry_group_IT_number 38
_symmetry_cell_setting 'orthorhombic'
loop_
_space_group_symop_operation_xyz
x,y,z
-x,-y,z
-x,y,z
x,-y,z
x,1/2+y,1/2+z
-x,1/2-y,1/2+z
-x,1/2+y,1/2+z
x,1/2-y,1/2+z
loop_
_atom_site_type_symbol
_atom_site_label
_atom_site_fract_x
_atom_site_fract_y
_atom_site_fract_z
Si Si1 0.817778 0.270314 0.490380
Si Si2 0.323796 0.619846 0.232337
Si Si3 0.675140 0.500000 0.088262
Si Si4 0.179452 0.500000 0.904838
Si Si5 0.176991 0.920885 0.904733
Si Si6 0.681877 0.346352 0.851702
Si Si7 0.179390 0.766293 0.191790
O O1 0.768838 0.352870 0.464483
O O2 0.743890 0.210113 0.425877
O O3 0.756326 0.262933 0.591140
O O4 0.000000 0.257850 0.486053
O O5 0.500000 0.647819 0.236441
O O6 0.295551 0.572307 0.145134
O O7 0.284945 0.572640 0.318611
O O8 0.206317 0.687237 0.234464
O O9 0.500000 0.500000 0.050691
O O10 0.798752 0.500000 0.010480
O O11 0.255878 0.572312 0.865186
O O12 0.000000 0.500000 0.881476
O O13 0.000000 0.909157 0.875406
O O14 0.194861 0.000000 0.954740
O O15 0.500000 0.346898 0.860738
O O16 0.730185 0.324595 0.751923
O O17 0.000000 0.787163 0.194003
#
# Coordination Sequence:
#
# PCOD8179650 Si02
#       7
#     8   8   4   4   8   8   8
#     4  10  22  41  65  94 126 165 214 263 312 373
#     4  11  21  35  57  88 123 161 202 252 312 371
#     4  10  22  38  58  91 132 163 202 257 317 381
#     4  12  26  44  66  91 122 163 212 261 315 375
#     4  10  20  36  60  89 124 162 202 254 310 368
#     4  12  25  43  67  93 128 167 208 263 322 378
#     4  11  23  40  62  91 124 164 212 259 310 377
#
# _framework density 20.16405
#
# number of rings (size 3 to 8) (size 9 to 14) (size 15 to 20)
#    0.000    1.167    2.500    4.250    0.000    5.333 
#    1.500    0.000    0.000    0.000    0.000    0.000 
#    0.000    0.000    0.000    0.000    0.000    0.000 
#
# Total GULP energy -297599.143822 kJ/mol
# GULP energy per Si atom -12399.964326 kJ/mol
# Density = 2.011816 g / cm^3
# Si number density = 20.164050 Si / 1000 Ang^3
#
#
#
# Elastic Constant Matrix: (Units=GPa)
#
#
# Indices 1 2 3 4 5 6 
#
# 1 86.1556 47.3983 44.5173 0.0000 0.0000 0.0000
# 2 47.3983 162.5502 52.2383 0.0000 0.0000 0.0000
# 3 44.5173 52.2383 105.4587 0.0000 0.0000 0.0000
# 4 0.0000 0.0000 0.0000 22.2316 0.0000 0.0000
# 5 0.0000 0.0000 0.0000 0.0000 23.3186 0.0000
# 6 0.0000 0.0000 0.0000 0.0000 0.0000 26.2250
#
#
#
# Elastic Compliance Matrix: (Units=1/GPa)
#
#
# Indices 1 2 3 4 5 6 
#
# 1 0.015958 -0.002960 -0.005271 0.000000 0.000000 0.000000
# 2 -0.002960 0.007866 -0.002647 0.000000 0.000000 0.000000
# 3 -0.005271 -0.002647 0.013018 0.000000 0.000000 0.000000
# 4 0.000000 0.000000 0.000000 0.044981 0.000000 0.000000
# 5 0.000000 0.000000 0.000000 0.000000 0.042884 0.000000
# 6 0.000000 0.000000 0.000000 0.000000 0.000000 0.038132
#
#
# Mechanical properties :
#
#
# Convention : Reuss Voigt Hill
#
# Bulk Modulus (GPa) = 66.27587 71.38581 68.83084
# Shear Modulus (GPa) = 26.36818 28.35574 27.36196
#
# Velocity S-wave (km/s) = 3.62011 3.75407 3.68770
# Velocity P-wave (km/s) = 7.10023 7.36682 7.23476
#
# Compressibility (1/GPa) = 0.01508845
#
# Stress axis : x y z
#
# Youngs Moduli (GPa) = 62.66282 127.13692 76.81486
#
# Poissons Ratio (x) = 0.37627 0.40485
# Poissons Ratio (y) = 0.18546 0.20332
# Poissons Ratio (z) = 0.33027 0.33651
#
# Static dielectric constant tensor:
#      x y z
#    x 3.627490 0.000000 0.000000 
#    y 0.000000 3.920460 0.000000 
#    z 0.000000 0.000000 3.724840 
# 
# 
# High freq. dielectric constant tensor:
#      x y z
#    x 1.786090 0.000000 0.000000 
#    y 0.000000 1.801330 0.000000 
#    z 0.000000 0.000000 1.780660 
# 
# From -- ./inp_files/12066.got.cif
#   From: 2010.03.12/outbox.cif.g09.slc.cpg/sg38_7_cif.got.tgz:12066.got - 2010.04.14 02:38:36.
