data_PCOD8179872
_publ_section_title
;
Structure prediction by ZEFSAII (Michael W. Deem and Ramdas Pophale) SiO2 
 PCOD8179872
Probable space group: A M M 2
;
_chemical_formula_sum "Si O2"
_cell_formula_units_Z 64
_cell_length_a 9.026050
_cell_length_b 14.339647
_cell_length_c 27.906515
_cell_angle_alpha 90.000000
_cell_angle_beta 90.000000
_cell_angle_gamma 90.000000
_cell_volume 3611.950584
_symmetry_space_group_name_H-M "A M M 2"
_symmetry_group_IT_number 38
_symmetry_cell_setting 'orthorhombic'
loop_
_space_group_symop_operation_xyz
x,y,z
-x,-y,z
-x,y,z
x,-y,z
x,1/2+y,1/2+z
-x,1/2-y,1/2+z
-x,1/2+y,1/2+z
x,1/2-y,1/2+z
loop_
_atom_site_type_symbol
_atom_site_label
_atom_site_fract_x
_atom_site_fract_y
_atom_site_fract_z
Si Si1 0.671508 0.107135 0.443470
Si Si2 0.825665 0.105987 0.072667
Si Si3 0.669966 0.107415 0.170185
Si Si4 0.169576 0.607581 0.114037
Si Si5 0.827814 0.106235 0.724296
Si Si6 0.674419 0.724487 0.034835
Si Si7 0.674601 0.721792 0.762795
Si Si8 0.174283 0.892929 0.345639
O O1 0.500000 0.125067 0.431178
O O2 0.726249 0.169833 0.487618
O O3 0.768847 0.135898 0.398007
O O4 0.698678 0.000000 0.457981
O O5 0.771579 0.135384 0.125486
O O6 0.749721 0.173504 0.033866
O O7 0.000000 0.118615 0.070409
O O8 0.777570 0.000000 0.061046
O O9 0.500000 0.128956 0.156599
O O10 0.724067 0.166931 0.215263
O O11 0.691673 0.000000 0.184301
O O12 0.190554 0.500000 0.100070
O O13 0.215117 0.623582 0.169051
O O14 0.277085 0.668910 0.081915
O O15 0.000000 0.638336 0.105296
O O16 0.730464 0.172167 0.758347
O O17 0.000000 0.128125 0.732443
O O18 0.791837 0.000000 0.738714
O O19 0.500000 0.736995 0.036170
O O20 0.500000 0.719647 0.770311
O O21 0.749108 0.674091 0.807991
O O22 0.000000 0.877813 0.343520
O O23 0.218130 0.000000 0.334525
#
# Coordination Sequence:
#
# PCOD8179872 Si02
#       8
#     8   8   8   8   8   8   8   8
#     4   9  19  36  55  76 104 133 160 197 248 302
#     4  10  21  35  50  70  99 136 175 214 254 294
#     4   9  18  32  49  72 103 136 169 205 248 299
#     4   9  18  32  50  74 105 139 172 207 248 294
#     4   9  19  35  51  69  99 138 176 213 251 290
#     4  11  21  32  51  77 103 134 170 207 251 301
#     4  11  21  32  51  77 103 133 168 207 253 302
#     4  10  21  36  55  79 104 131 164 202 247 300
#
# _framework density 17.718959999999999
#
# number of rings (size 3 to 8) (size 9 to 14) (size 15 to 20)
#    0.000    2.250    0.000    3.750    0.000    7.500 
#    0.000    3.750    0.000    0.750    0.000    3.500 
#    0.000    0.000    0.000    0.000    0.000    0.000 
#
# Total GULP energy -396909.817759 kJ/mol
# GULP energy per Si atom -12403.431805 kJ/mol
# Density = 1.767863 g / cm^3
# Si number density = 17.718960 Si / 1000 Ang^3
#
#
#
# Elastic Constant Matrix: (Units=GPa)
#
#
# Indices 1 2 3 4 5 6 
#
# 1 74.9698 52.1362 53.9088 0.0000 0.0000 0.0000
# 2 52.1362 111.6456 75.2247 0.0000 0.0000 0.0000
# 3 53.9088 75.2247 98.4003 0.0000 0.0000 0.0000
# 4 0.0000 0.0000 0.0000 32.3331 0.0000 0.0000
# 5 0.0000 0.0000 0.0000 0.0000 25.1759 0.0000
# 6 0.0000 0.0000 0.0000 0.0000 0.0000 30.9813
#
#
#
# Elastic Compliance Matrix: (Units=1/GPa)
#
#
# Indices 1 2 3 4 5 6 
#
# 1 0.023131 -0.004667 -0.009104 0.000000 0.000000 0.000000
# 2 -0.004667 0.019413 -0.012284 0.000000 0.000000 0.000000
# 3 -0.009104 -0.012284 0.024541 0.000000 0.000000 0.000000
# 4 0.000000 0.000000 0.000000 0.030928 0.000000 0.000000
# 5 0.000000 0.000000 0.000000 0.000000 0.039721 0.000000
# 6 0.000000 0.000000 0.000000 0.000000 0.000000 0.032277
#
#
# Mechanical properties :
#
#
# Convention : Reuss Voigt Hill
#
# Bulk Modulus (GPa) = 66.78130 71.95058 69.36594
# Shear Modulus (GPa) = 22.01536 24.61447 23.31491
#
# Velocity S-wave (km/s) = 3.52870 3.73119 3.63135
# Velocity P-wave (km/s) = 7.37382 7.69786 7.53758
#
# Compressibility (1/GPa) = 0.01497425
#
# Stress axis : x y z
#
# Youngs Moduli (GPa) = 43.23143 51.51166 40.74807
#
# Poissons Ratio (x) = 0.24043 0.37098
# Poissons Ratio (y) = 0.20178 0.50054
# Poissons Ratio (z) = 0.39359 0.63276
#
# Static dielectric constant tensor:
#      x y z
#    x 3.255700 0.000000 0.000000 
#    y 0.000000 3.413090 0.000000 
#    z 0.000000 0.000000 3.130850 
# 
# 
# High freq. dielectric constant tensor:
#      x y z
#    x 1.690180 0.000000 0.000000 
#    y 0.000000 1.689570 0.000000 
#    z 0.000000 0.000000 1.664140 
# 
# From -- ./inp_files/22134.got.cif
#   From: 2010.03.12/outbox.cif.g09.slc.cpg/sg38_12_cif.got.tgz:22134.got - 2010.04.14 02:38:36.
