data_PCOD8179092
_publ_section_title
;
Structure prediction by ZEFSAII (Michael W. Deem and Ramdas Pophale) SiO2 
 PCOD8179092
Probable space group: A M M 2
;
_chemical_formula_sum "Si O2"
_cell_formula_units_Z 64
_cell_length_a 24.031970
_cell_length_b 8.962837
_cell_length_c 15.443836
_cell_angle_alpha 90.000000
_cell_angle_beta 90.000000
_cell_angle_gamma 90.000000
_cell_volume 3326.519339
_symmetry_space_group_name_H-M "A M M 2"
_symmetry_group_IT_number 38
_symmetry_cell_setting 'orthorhombic'
loop_
_space_group_symop_operation_xyz
x,y,z
-x,-y,z
-x,y,z
x,-y,z
x,1/2+y,1/2+z
-x,1/2-y,1/2+z
-x,1/2+y,1/2+z
x,1/2-y,1/2+z
loop_
_atom_site_type_symbol
_atom_site_label
_atom_site_fract_x
_atom_site_fract_y
_atom_site_fract_z
Si Si1 0.865444 0.325170 0.799480
Si Si2 0.635680 0.676599 0.541431
Si Si3 0.937188 0.177429 0.141624
Si Si4 0.760758 0.666984 0.537528
Si Si5 0.636408 0.176391 0.722872
Si Si6 0.437481 0.177314 0.881982
Si Si7 0.868799 0.326804 0.992291
Si Si8 0.749856 0.831490 0.239039
O O1 0.860367 0.500000 0.781478
O O2 0.906578 0.256669 0.727006
O O3 0.802331 0.262441 0.791308
O O4 0.889818 0.292874 0.894675
O O5 0.631811 0.500000 0.556022
O O6 0.698429 0.720091 0.513491
O O7 0.618836 0.752434 0.631676
O O8 0.594773 0.736595 0.466866
O O9 0.906575 0.231132 0.055595
O O10 0.000000 0.239215 0.141803
O O11 0.936686 0.000000 0.141814
O O12 0.772068 0.500000 0.501884
O O13 0.804093 0.781800 0.496333
O O14 0.768602 0.668506 0.639935
O O15 0.592334 0.232031 0.794464
O O16 0.697095 0.226735 0.755114
O O17 0.636300 0.000000 0.712808
O O18 0.500000 0.241847 0.883374
O O19 0.437645 0.000000 0.884740
O O20 0.874602 0.500000 0.015722
O O21 0.734512 0.000000 0.268254
#
# Coordination Sequence:
#
# PCOD8179092 Si02
#       8
#     8   8   8   8   8   8   8   8
#     4   9  19  36  56  81 109 145 184 216 263 326
#     4   9  19  36  56  77 105 147 188 223 266 325
#     4  10  21  41  64  79 103 149 194 223 257 321
#     4   9  17  32  55  78 108 145 183 221 264 325
#     4  10  20  33  53  83 112 138 177 230 282 323
#     4   9  19  36  56  78 108 148 189 224 269 334
#     4  11  22  34  55  87 116 140 174 227 282 321
#     4   9  17  34  57  77 108 148 184 219 262 326
#
# _framework density 19.239329000000001
#
# number of rings (size 3 to 8) (size 9 to 14) (size 15 to 20)
#    0.000    2.500    1.250    1.500    1.750    3.250 
#    0.000    4.375    0.000    2.625    0.000    0.000 
#    0.000    0.000    0.000    0.000    0.000    0.000 
#
# Total GULP energy -396762.840580 kJ/mol
# GULP energy per Si atom -12398.838768 kJ/mol
# Density = 1.919554 g / cm^3
# Si number density = 19.239329 Si / 1000 Ang^3
#
#
#
# Elastic Constant Matrix: (Units=GPa)
#
#
# Indices 1 2 3 4 5 6 
#
# 1 140.7335 24.6612 82.2427 0.0000 0.0000 0.0000
# 2 24.6612 33.3034 26.4490 0.0000 0.0000 0.0000
# 3 82.2427 26.4490 123.3972 0.0000 0.0000 0.0000
# 4 0.0000 0.0000 0.0000 24.5382 0.0000 0.0000
# 5 0.0000 0.0000 0.0000 0.0000 24.0598 0.0000
# 6 0.0000 0.0000 0.0000 0.0000 0.0000 21.3771
#
#
#
# Elastic Compliance Matrix: (Units=1/GPa)
#
#
# Indices 1 2 3 4 5 6 
#
# 1 0.011886 -0.003025 -0.007274 0.000000 0.000000 0.000000
# 2 -0.003025 0.036957 -0.005905 0.000000 0.000000 0.000000
# 3 -0.007274 -0.005905 0.014217 0.000000 0.000000 0.000000
# 4 0.000000 0.000000 0.000000 0.040753 0.000000 0.000000
# 5 0.000000 0.000000 0.000000 0.000000 0.041563 0.000000
# 6 0.000000 0.000000 0.000000 0.000000 0.000000 0.046779
#
#
# Mechanical properties :
#
#
# Convention : Reuss Voigt Hill
#
# Bulk Modulus (GPa) = 32.62359 62.68222 47.65290
# Shear Modulus (GPa) = 21.29643 24.93377 23.11510
#
# Velocity S-wave (km/s) = 3.33065 3.60388 3.46995
# Velocity P-wave (km/s) = 5.63778 7.06882 6.39346
#
# Compressibility (1/GPa) = 0.03065267
#
# Stress axis : x y z
#
# Youngs Moduli (GPa) = 84.12976 27.05859 70.33619
#
# Poissons Ratio (x) = 0.08186 0.51160
# Poissons Ratio (y) = 0.25451 0.41534
# Poissons Ratio (z) = 0.61193 0.15978
#
# Static dielectric constant tensor:
#      x y z
#    x 3.705200 0.000000 0.000000 
#    y 0.000000 3.191350 0.000000 
#    z 0.000000 0.000000 3.549490 
# 
# 
# High freq. dielectric constant tensor:
#      x y z
#    x 1.749220 0.000000 0.000000 
#    y 0.000000 1.716240 0.000000 
#    z 0.000000 0.000000 1.754230 
# 
# From -- ./inp_files/15730.got.cif
#   From: 2010.03.12/outbox.cif.g09.slc.cpg/sg38_8_cif.got.tgz:15730.got - 2010.04.14 02:38:36.
