data_PCOD8179299
_publ_section_title
;
Structure prediction by ZEFSAII (Michael W. Deem and Ramdas Pophale) SiO2 
 PCOD8179299
Probable space group: A M M 2
;
_chemical_formula_sum "Si O2"
_cell_formula_units_Z 48
_cell_length_a 8.882491
_cell_length_b 27.972526
_cell_length_c 10.210723
_cell_angle_alpha 90.000000
_cell_angle_beta 90.000000
_cell_angle_gamma 90.000000
_cell_volume 2537.014544
_symmetry_space_group_name_H-M "A M M 2"
_symmetry_group_IT_number 38
_symmetry_cell_setting 'orthorhombic'
loop_
_space_group_symop_operation_xyz
x,y,z
-x,-y,z
-x,y,z
x,-y,z
x,1/2+y,1/2+z
-x,1/2-y,1/2+z
-x,1/2+y,1/2+z
x,1/2-y,1/2+z
loop_
_atom_site_type_symbol
_atom_site_label
_atom_site_fract_x
_atom_site_fract_y
_atom_site_fract_z
Si Si1 0.677551 0.355057 0.837580
Si Si2 0.175616 0.446205 0.912727
Si Si3 0.327023 0.649684 0.312533
Si Si4 0.675397 0.699505 0.578429
Si Si5 0.177257 0.699619 0.076070
Si Si6 0.672298 0.447031 0.185749
O O1 0.500000 0.354867 0.851248
O O2 0.735107 0.409416 0.819989
O O3 0.730010 0.324597 0.712780
O O4 0.747646 0.333995 0.968747
O O5 0.217277 0.500000 0.868427
O O6 0.000000 0.436097 0.899189
O O7 0.220417 0.437849 0.063165
O O8 0.500000 0.661352 0.277893
O O9 0.291335 0.662170 0.462388
O O10 0.224857 0.682351 0.219809
O O11 0.291923 0.593233 0.294285
O O12 0.500000 0.713563 0.584482
O O13 0.771750 0.746401 0.552552
O O14 0.000000 0.696182 0.060805
O O15 0.500000 0.442674 0.136815
O O16 0.701829 0.500000 0.245969
#
# Coordination Sequence:
#
# PCOD8179299 Si02
#       6
#     8   8   8   8   8   8
#     4  11  22  38  59  83 113 151 191 232 277 329
#     4  10  20  34  55  84 115 145 183 232 280 329
#     4  10  20  37  59  83 112 146 183 229 281 332
#     4  10  23  40  57  80 113 151 189 231 280 333
#     4  12  24  37  57  84 111 146 191 236 281 332
#     4   9  17  31  55  84 110 140 180 225 276 332
#
# _framework density 18.919875000000001
#
# number of rings (size 3 to 8) (size 9 to 14) (size 15 to 20)
#    0.000    1.667    1.667    3.500    0.000    7.000 
#    0.000    0.833    0.000    3.000    0.000    2.333 
#    0.000    0.000    0.000    0.000    0.000    0.000 
#
# Total GULP energy -297664.986864 kJ/mol
# GULP energy per Si atom -12402.707786 kJ/mol
# Density = 1.887681 g / cm^3
# Si number density = 18.919875 Si / 1000 Ang^3
#
#
#
# Elastic Constant Matrix: (Units=GPa)
#
#
# Indices 1 2 3 4 5 6 
#
# 1 74.1474 40.2091 22.3835 0.0000 0.0000 0.0000
# 2 40.2091 126.3874 25.2811 0.0000 0.0000 0.0000
# 3 22.3835 25.2811 60.7376 0.0000 0.0000 0.0000
# 4 0.0000 0.0000 0.0000 17.8652 0.0000 0.0000
# 5 0.0000 0.0000 0.0000 0.0000 3.4216 0.0000
# 6 0.0000 0.0000 0.0000 0.0000 0.0000 28.4120
#
#
#
# Elastic Compliance Matrix: (Units=1/GPa)
#
#
# Indices 1 2 3 4 5 6 
#
# 1 0.017343 -0.004624 -0.004467 0.000000 0.000000 0.000000
# 2 -0.004624 0.009864 -0.002402 0.000000 0.000000 0.000000
# 3 -0.004467 -0.002402 0.019110 0.000000 0.000000 0.000000
# 4 0.000000 0.000000 0.000000 0.055975 0.000000 0.000000
# 5 0.000000 0.000000 0.000000 0.000000 0.292264 0.000000
# 6 0.000000 0.000000 0.000000 0.000000 0.000000 0.035196
#
#
# Mechanical properties :
#
#
# Convention : Reuss Voigt Hill
#
# Bulk Modulus (GPa) = 42.85958 48.55774 45.70866
# Shear Modulus (GPa) = 10.85747 21.49968 16.17858
#
# Velocity S-wave (km/s) = 2.39815 3.37464 2.92740
# Velocity P-wave (km/s) = 5.51095 6.39570 5.96974
#
# Compressibility (1/GPa) = 0.02333200
#
# Stress axis : x y z
#
# Youngs Moduli (GPa) = 57.66181 101.38263 52.32881
#
# Poissons Ratio (x) = 0.46879 0.23373
# Poissons Ratio (y) = 0.26662 0.12567
# Poissons Ratio (z) = 0.25755 0.24347
#
# Static dielectric constant tensor:
#      x y z
#    x 3.461460 0.000000 0.000000 
#    y 0.000000 3.847590 0.000000 
#    z 0.000000 0.000000 3.297330 
# 
# 
# High freq. dielectric constant tensor:
#      x y z
#    x 1.733890 0.000000 0.000000 
#    y 0.000000 1.755040 0.000000 
#    z 0.000000 0.000000 1.711040 
# 
# From -- ./inp_files/3736.got.cif
#   From: 2010.03.12/outbox.cif.g09.slc.cpg/sg38_2_cif.got.tgz:3736.got - 2010.04.14 02:38:36.
