data_PCOD8179532
_publ_section_title
;
Structure prediction by ZEFSAII (Michael W. Deem and Ramdas Pophale) SiO2 
 PCOD8179532
Probable space group: A M M 2
;
_chemical_formula_sum "Si O2"
_cell_formula_units_Z 48
_cell_length_a 13.977482
_cell_length_b 8.827059
_cell_length_c 19.663738
_cell_angle_alpha 90.000000
_cell_angle_beta 90.000000
_cell_angle_gamma 90.000000
_cell_volume 2426.113141
_symmetry_space_group_name_H-M "A M M 2"
_symmetry_group_IT_number 38
_symmetry_cell_setting 'orthorhombic'
loop_
_space_group_symop_operation_xyz
x,y,z
-x,-y,z
-x,y,z
x,-y,z
x,1/2+y,1/2+z
-x,1/2-y,1/2+z
-x,1/2+y,1/2+z
x,1/2-y,1/2+z
loop_
_atom_site_type_symbol
_atom_site_label
_atom_site_fract_x
_atom_site_fract_y
_atom_site_fract_z
Si Si1 0.500000 0.678943 0.418591
Si Si2 0.698570 0.824526 0.855361
Si Si3 0.000000 0.673058 0.554904
Si Si4 0.804785 0.677264 0.733206
Si Si5 0.500000 0.172695 0.563731
Si Si6 0.000000 0.321170 0.200735
Si Si7 0.296883 0.673592 0.110713
Si Si8 0.200089 0.672789 0.492311
O O1 0.500000 0.500000 0.419007
O O2 0.404753 0.737803 0.380253
O O3 0.500000 0.725516 0.496994
O O4 0.731198 0.729730 0.790621
O O5 0.691002 0.000000 0.834237
O O6 0.778203 0.799549 0.913328
O O7 0.000000 0.776918 0.621406
O O8 0.910364 0.708197 0.506856
O O9 0.000000 0.500000 0.581014
O O10 0.822470 0.500000 0.738295
O O11 0.906960 0.758943 0.739656
O O12 0.758310 0.714819 0.660721
O O13 0.410071 0.204701 0.612782
O O14 0.500000 0.000000 0.537803
O O15 0.000000 0.500000 0.206488
O O16 0.272074 0.500000 0.129171
O O17 0.264125 0.710526 0.034425
O O18 0.226866 0.500000 0.512176
#
# Coordination Sequence:
#
# PCOD8179532 Si02
#       8
#     4   8   4   8   4   4   8   8
#     4  10  20  37  64  93 123 163 207 255 314 377
#     4  10  22  40  62  92 128 167 208 254 312 373
#     4  10  20  35  60  95 129 161 201 251 304 365
#     4  12  26  43  63  90 126 167 209 258 310 367
#     4  10  22  37  60  93 127 161 205 263 314 363
#     4  12  24  41  66  93 121 161 205 253 316 377
#     4  11  22  38  61  90 123 161 207 258 310 365
#     4  10  20  36  61  91 125 161 203 254 307 365
#
# _framework density 19.784732999999999
#
# number of rings (size 3 to 8) (size 9 to 14) (size 15 to 20)
#    0.000    1.333    3.333    2.750    0.000    3.333 
#    0.000    5.000    0.000    0.000    0.000    0.000 
#    0.000    0.000    0.000    0.000    0.000    0.000 
#
# Total GULP energy -297693.825941 kJ/mol
# GULP energy per Si atom -12403.909414 kJ/mol
# Density = 1.973970 g / cm^3
# Si number density = 19.784733 Si / 1000 Ang^3
#
#
#
# Elastic Constant Matrix: (Units=GPa)
#
#
# Indices 1 2 3 4 5 6 
#
# 1 124.4728 38.7479 20.0975 0.0000 0.0000 0.0000
# 2 38.7479 90.5419 26.7670 0.0000 0.0000 0.0000
# 3 20.0975 26.7670 64.0154 0.0000 0.0000 0.0000
# 4 0.0000 0.0000 0.0000 35.2549 0.0000 0.0000
# 5 0.0000 0.0000 0.0000 0.0000 31.1746 0.0000
# 6 0.0000 0.0000 0.0000 0.0000 0.0000 26.1800
#
#
#
# Elastic Compliance Matrix: (Units=1/GPa)
#
#
# Indices 1 2 3 4 5 6 
#
# 1 0.009384 -0.003589 -0.001446 0.000000 0.000000 0.000000
# 2 -0.003589 0.013975 -0.004717 0.000000 0.000000 0.000000
# 3 -0.001446 -0.004717 0.018047 0.000000 0.000000 0.000000
# 4 0.000000 0.000000 0.000000 0.028365 0.000000 0.000000
# 5 0.000000 0.000000 0.000000 0.000000 0.032077 0.000000
# 6 0.000000 0.000000 0.000000 0.000000 0.000000 0.038197
#
#
# Mechanical properties :
#
#
# Convention : Reuss Voigt Hill
#
# Bulk Modulus (GPa) = 45.65282 50.02832 47.84057
# Shear Modulus (GPa) = 29.96710 31.41639 30.69174
#
# Velocity S-wave (km/s) = 3.89608 3.98918 3.94291
# Velocity P-wave (km/s) = 6.58515 6.82344 6.70535
#
# Compressibility (1/GPa) = 0.02190445
#
# Stress axis : x y z
#
# Youngs Moduli (GPa) = 106.55901 71.55717 55.40991
#
# Poissons Ratio (x) = 0.25680 0.08010
# Poissons Ratio (y) = 0.38241 0.26135
# Poissons Ratio (z) = 0.15405 0.33751
#
# Static dielectric constant tensor:
#      x y z
#    x 3.996850 0.000000 0.000000 
#    y 0.000000 3.531870 0.000000 
#    z 0.000000 0.000000 3.400430 
# 
# 
# High freq. dielectric constant tensor:
#      x y z
#    x 1.790690 0.000000 0.000000 
#    y 0.000000 1.766560 0.000000 
#    z 0.000000 0.000000 1.759530 
# 
# From -- ./inp_files/18241.got.cif
#   From: 2010.03.12/outbox.cif.g09.slc.cpg/sg38_10_cif.got.tgz:18241.got - 2010.04.14 02:38:36.
