data_PCOD8179473
_publ_section_title
;
Structure prediction by ZEFSAII (Michael W. Deem and Ramdas Pophale) SiO2 
 PCOD8179473
Probable space group: A M M 2
;
_chemical_formula_sum "Si O2"
_cell_formula_units_Z 64
_cell_length_a 8.789749
_cell_length_b 24.337439
_cell_length_c 14.933220
_cell_angle_alpha 90.000000
_cell_angle_beta 90.000000
_cell_angle_gamma 90.000000
_cell_volume 3194.514125
_symmetry_space_group_name_H-M "A M M 2"
_symmetry_group_IT_number 38
_symmetry_cell_setting 'orthorhombic'
loop_
_space_group_symop_operation_xyz
x,y,z
-x,-y,z
-x,y,z
x,-y,z
x,1/2+y,1/2+z
-x,1/2-y,1/2+z
-x,1/2+y,1/2+z
x,1/2-y,1/2+z
loop_
_atom_site_type_symbol
_atom_site_label
_atom_site_fract_x
_atom_site_fract_y
_atom_site_fract_z
Si Si1 0.824096 0.937530 0.319650
Si Si2 0.821148 0.373925 0.169525
Si Si3 0.675726 0.063388 0.824972
Si Si4 0.820537 0.149493 0.171661
Si Si5 0.681318 0.621050 0.978810
Si Si6 0.318674 0.144578 0.980083
Si Si7 0.331949 0.261422 0.178055
Si Si8 0.334217 0.261485 0.966233
O O1 0.770876 0.898728 0.238956
O O2 0.728466 0.925432 0.409090
O O3 0.000000 0.927826 0.342737
O O4 0.791873 0.000000 0.290516
O O5 0.778425 0.420560 0.240755
O O6 0.759331 0.315788 0.206696
O O7 0.000000 0.369794 0.157205
O O8 0.749000 0.392578 0.075608
O O9 0.500000 0.076036 0.802243
O O10 0.729079 0.096828 0.912457
O O11 0.702431 0.000000 0.847565
O O12 0.753990 0.206538 0.210849
O O13 0.000000 0.155776 0.163544
O O14 0.755405 0.132131 0.075552
O O15 0.500000 0.624499 0.988928
O O16 0.748261 0.680601 0.943148
O O17 0.500000 0.148882 0.993511
O O18 0.255092 0.203459 0.939567
O O19 0.500000 0.263405 0.222354
O O20 0.347907 0.259418 0.072616
O O21 0.500000 0.262949 0.920854
#
# Coordination Sequence:
#
# PCOD8179473 Si02
#       8
#     8   8   8   8   8   8   8   8
#     4  10  23  41  56  76 112 155 196 236 279 330
#     4  11  22  37  59  86 116 148 183 228 283 342
#     4  10  22  39  57  80 112 151 197 242 279 324
#     4  10  20  35  57  85 116 149 186 230 281 337
#     4  10  20  36  59  85 111 142 183 232 285 338
#     4   9  18  35  58  82 111 148 186 228 281 335
#     4   9  17  33  57  84 115 147 181 225 278 337
#     4   7  13  28  51  79 107 134 168 213 270 331
#
# _framework density 20.034344999999998
#
# number of rings (size 3 to 8) (size 9 to 14) (size 15 to 20)
#    0.000    2.500    0.000    3.750    0.000    4.000 
#    0.000    1.875    0.000    0.000    0.000    0.000 
#    0.000    0.000    0.000    0.000    0.000    0.000 
#
# Total GULP energy -396645.856280 kJ/mol
# GULP energy per Si atom -12395.183009 kJ/mol
# Density = 1.998875 g / cm^3
# Si number density = 20.034345 Si / 1000 Ang^3
#
#
#
# Elastic Constant Matrix: (Units=GPa)
#
#
# Indices 1 2 3 4 5 6 
#
# 1 79.6985 19.8453 23.5967 0.0000 0.0000 0.0000
# 2 19.8453 90.7813 21.5909 0.0000 0.0000 0.0000
# 3 23.5967 21.5909 64.2421 0.0000 0.0000 0.0000
# 4 0.0000 0.0000 0.0000 35.3638 0.0000 0.0000
# 5 0.0000 0.0000 0.0000 0.0000 26.6276 0.0000
# 6 0.0000 0.0000 0.0000 0.0000 0.0000 27.2520
#
#
#
# Elastic Compliance Matrix: (Units=1/GPa)
#
#
# Indices 1 2 3 4 5 6 
#
# 1 0.014423 -0.002057 -0.004606 0.000000 0.000000 0.000000
# 2 -0.002057 0.012266 -0.003367 0.000000 0.000000 0.000000
# 3 -0.004606 -0.003367 0.018390 0.000000 0.000000 0.000000
# 4 0.000000 0.000000 0.000000 0.028278 0.000000 0.000000
# 5 0.000000 0.000000 0.000000 0.000000 0.037555 0.000000
# 6 0.000000 0.000000 0.000000 0.000000 0.000000 0.036694
#
#
# Mechanical properties :
#
#
# Convention : Reuss Voigt Hill
#
# Bulk Modulus (GPa) = 39.97140 40.53198 40.25169
# Shear Modulus (GPa) = 28.40805 29.16128 28.78466
#
# Velocity S-wave (km/s) = 3.76968 3.81932 3.79458
# Velocity P-wave (km/s) = 6.24035 6.30276 6.27164
#
# Compressibility (1/GPa) = 0.02501789
#
# Stress axis : x y z
#
# Youngs Moduli (GPa) = 69.33153 81.52631 54.37862
#
# Poissons Ratio (x) = 0.16774 0.25049
# Poissons Ratio (y) = 0.14265 0.18308
# Poissons Ratio (z) = 0.31937 0.27447
#
# Static dielectric constant tensor:
#      x y z
#    x 3.511900 0.000000 0.000000 
#    y 0.000000 3.939270 0.000000 
#    z 0.000000 0.000000 3.414350 
# 
# 
# High freq. dielectric constant tensor:
#      x y z
#    x 1.764050 0.000000 0.000000 
#    y 0.000000 1.790590 0.000000 
#    z 0.000000 0.000000 1.771440 
# 
# From -- ./inp_files/12709.got.cif
#   From: 2010.03.12/outbox.cif.g09.slc.cpg/sg38_7_cif.got.tgz:12709.got - 2010.04.14 02:38:36.
