data_PCOD8179146
_publ_section_title
;
Structure prediction by ZEFSAII (Michael W. Deem and Ramdas Pophale) SiO2 
 PCOD8179146
Probable space group: A M M 2
;
_chemical_formula_sum "Si O2"
_cell_formula_units_Z 48
_cell_length_a 7.771608
_cell_length_b 9.691754
_cell_length_c 33.994835
_cell_angle_alpha 90.000000
_cell_angle_beta 90.000000
_cell_angle_gamma 90.000000
_cell_volume 2560.508409
_symmetry_space_group_name_H-M "A M M 2"
_symmetry_group_IT_number 38
_symmetry_cell_setting 'orthorhombic'
loop_
_space_group_symop_operation_xyz
x,y,z
-x,-y,z
-x,y,z
x,-y,z
x,1/2+y,1/2+z
-x,1/2-y,1/2+z
-x,1/2+y,1/2+z
x,1/2-y,1/2+z
loop_
_atom_site_type_symbol
_atom_site_label
_atom_site_fract_x
_atom_site_fract_y
_atom_site_fract_z
Si Si1 0.500000 0.335486 0.551930
Si Si2 0.204283 0.844996 0.762445
Si Si3 0.500000 0.838062 0.473289
Si Si4 0.301625 0.657515 0.348050
Si Si5 0.796219 0.846963 0.193870
Si Si6 0.808753 0.163930 0.107058
Si Si7 0.191682 0.843429 0.416840
O O1 0.500000 0.500000 0.544989
O O2 0.500000 0.256187 0.511314
O O3 0.330405 0.285838 0.575397
O O4 0.270872 0.786161 0.804033
O O5 0.282088 0.751916 0.727420
O O6 0.000000 0.842057 0.762019
O O7 0.274160 0.000000 0.756279
O O8 0.330010 0.795806 0.449066
O O9 0.500000 0.000000 0.484414
O O10 0.500000 0.668790 0.359463
O O11 0.235134 0.500000 0.350994
O O12 0.195520 0.749529 0.378257
O O13 0.751521 0.785646 0.150639
O O14 0.000000 0.855684 0.198107
O O15 0.716532 0.000000 0.199240
O O16 0.000000 0.221038 0.096023
O O17 0.815837 0.000000 0.108516
O O18 0.000000 0.831595 0.435241
O O19 0.232832 0.000000 0.403860
#
# Coordination Sequence:
#
# PCOD8179146 Si02
#       7
#     4   8   4   8   8   8   8
#     4  10  20  34  56  81 102 131 171 208 251 312
#     4   9  17  29  45  68 100 136 173 214 258 300
#     4  10  22  40  56  77 112 137 159 208 265 316
#     4  10  20  34  52  75 107 143 178 219 264 308
#     4   8  14  27  47  68  94 131 171 211 254 298
#     4   8  15  30  51  75 104 134 167 213 260 297
#     4  10  21  38  60  81 103 138 177 213 261 316
#
# _framework density 18.746278
#
# number of rings (size 3 to 8) (size 9 to 14) (size 15 to 20)
#    0.000    2.833    0.833    1.500    0.000    3.000 
#    1.500    2.500    0.000    1.000    0.000    0.000 
#    0.000    0.000    0.000    0.000    0.000    0.000 
#
# Total GULP energy -297527.971759 kJ/mol
# GULP energy per Si atom -12396.998823 kJ/mol
# Density = 1.870361 g / cm^3
# Si number density = 18.746278 Si / 1000 Ang^3
#
#
#
# Elastic Constant Matrix: (Units=GPa)
#
#
# Indices 1 2 3 4 5 6 
#
# 1 92.7467 29.6970 61.7220 0.0000 0.0000 0.0000
# 2 29.6970 62.5989 67.3033 0.0000 0.0000 0.0000
# 3 61.7220 67.3033 159.8824 0.0000 0.0000 0.0000
# 4 0.0000 0.0000 0.0000 37.4173 0.0000 0.0000
# 5 0.0000 0.0000 0.0000 0.0000 28.1057 0.0000
# 6 0.0000 0.0000 0.0000 0.0000 0.0000 10.8439
#
#
#
# Elastic Compliance Matrix: (Units=1/GPa)
#
#
# Indices 1 2 3 4 5 6 
#
# 1 0.014595 -0.001582 -0.004968 0.000000 0.000000 0.000000
# 2 -0.001582 0.029354 -0.011746 0.000000 0.000000 0.000000
# 3 -0.004968 -0.011746 0.013117 0.000000 0.000000 0.000000
# 4 0.000000 0.000000 0.000000 0.026726 0.000000 0.000000
# 5 0.000000 0.000000 0.000000 0.000000 0.035580 0.000000
# 6 0.000000 0.000000 0.000000 0.000000 0.000000 0.092217
#
#
# Mechanical properties :
#
#
# Convention : Reuss Voigt Hill
#
# Bulk Modulus (GPa) = 48.84423 70.29693 59.57058
# Shear Modulus (GPa) = 19.60737 25.70711 22.65724
#
# Velocity S-wave (km/s) = 3.23760 3.70715 3.48030
# Velocity P-wave (km/s) = 6.33151 7.47693 6.92793
#
# Compressibility (1/GPa) = 0.02047325
#
# Stress axis : x y z
#
# Youngs Moduli (GPa) = 68.51652 34.06700 76.23651
#
# Poissons Ratio (x) = 0.05390 0.37877
# Poissons Ratio (y) = 0.10841 0.89546
# Poissons Ratio (z) = 0.34041 0.40015
#
# Static dielectric constant tensor:
#      x y z
#    x 3.547610 0.000000 0.000000 
#    y 0.000000 3.388930 0.000000 
#    z 0.000000 0.000000 3.434810 
# 
# 
# High freq. dielectric constant tensor:
#      x y z
#    x 1.728650 0.000000 0.000000 
#    y 0.000000 1.700810 0.000000 
#    z 0.000000 0.000000 1.723180 
# 
# From -- ./inp_files/24427.got.cif
#   From: 2010.03.12/outbox.cif.g09.slc.cpg/sg38_13_cif.got.tgz:24427.got - 2010.04.14 02:38:36.
