data_PCOD8179854
_publ_section_title
;
Structure prediction by ZEFSAII (Michael W. Deem and Ramdas Pophale) SiO2 
 PCOD8179854
Probable space group: A M M 2
;
_chemical_formula_sum "Si O2"
_cell_formula_units_Z 48
_cell_length_a 7.753309
_cell_length_b 18.082965
_cell_length_c 17.000070
_cell_angle_alpha 90.000000
_cell_angle_beta 90.000000
_cell_angle_gamma 90.000000
_cell_volume 2383.457674
_symmetry_space_group_name_H-M "A M M 2"
_symmetry_group_IT_number 38
_symmetry_cell_setting 'orthorhombic'
loop_
_space_group_symop_operation_xyz
x,y,z
-x,-y,z
-x,y,z
x,-y,z
x,1/2+y,1/2+z
-x,1/2-y,1/2+z
-x,1/2+y,1/2+z
x,1/2-y,1/2+z
loop_
_atom_site_type_symbol
_atom_site_label
_atom_site_fract_x
_atom_site_fract_y
_atom_site_fract_z
Si Si1 0.000000 0.413584 0.023741
Si Si2 0.303935 0.323186 0.591660
Si Si3 0.700200 0.583118 0.278812
Si Si4 0.000000 0.412136 0.849972
Si Si5 0.302289 0.586890 0.738806
Si Si6 0.804013 0.083059 0.949259
Si Si7 0.295642 0.840336 0.618252
O O1 0.821482 0.393564 0.066146
O O2 0.000000 0.500000 0.013613
O O3 0.000000 0.377126 0.936867
O O4 0.500000 0.310022 0.612975
O O5 0.229698 0.377603 0.658068
O O6 0.290143 0.358466 0.505262
O O7 0.222565 0.241524 0.598787
O O8 0.500000 0.582730 0.297870
O O9 0.761870 0.500000 0.255206
O O10 0.792825 0.609708 0.358794
O O11 0.743683 0.640210 0.209284
O O12 0.175271 0.384747 0.807288
O O13 0.000000 0.500000 0.851493
O O14 0.500000 0.609769 0.759343
O O15 0.288961 0.500000 0.725825
O O16 0.000000 0.081832 0.976761
O O17 0.723929 0.000000 0.957302
O O18 0.500000 0.852313 0.599120
#
# Coordination Sequence:
#
# PCOD8179854 Si02
#       7
#     4   8   8   4   8   8   8
#     4  11  24  41  64  87 112 153 198 245 294 343
#     4  10  21  38  57  83 120 157 194 237 291 354
#     4   9  18  36  60  83 112 151 195 244 294 348
#     4   9  20  37  56  83 111 141 192 243 287 337
#     4   9  18  34  58  85 115 153 194 237 284 341
#     4  10  21  34  55  89 122 155 197 244 290 345
#     4  10  23  41  60  88 120 153 195 243 298 353
#
# _framework density 20.138809999999999
#
# number of rings (size 3 to 8) (size 9 to 14) (size 15 to 20)
#    0.000    2.333    0.000    1.500    3.500    3.333 
#    3.000    1.667    0.000    0.000    0.000    0.000 
#    0.000    0.000    0.000    0.000    0.000    0.000 
#
# Total GULP energy -297499.982380 kJ/mol
# GULP energy per Si atom -12395.832599 kJ/mol
# Density = 2.009297 g / cm^3
# Si number density = 20.138810 Si / 1000 Ang^3
#
#
#
# Elastic Constant Matrix: (Units=GPa)
#
#
# Indices 1 2 3 4 5 6 
#
# 1 82.2106 21.5479 44.0790 0.0000 0.0000 0.0000
# 2 21.5479 82.0305 53.3793 0.0000 0.0000 0.0000
# 3 44.0790 53.3793 141.8648 0.0000 0.0000 0.0000
# 4 0.0000 0.0000 0.0000 23.9981 0.0000 0.0000
# 5 0.0000 0.0000 0.0000 0.0000 30.7737 0.0000
# 6 0.0000 0.0000 0.0000 0.0000 0.0000 20.0770
#
#
#
# Elastic Compliance Matrix: (Units=1/GPa)
#
#
# Indices 1 2 3 4 5 6 
#
# 1 0.014681 -0.001176 -0.004119 0.000000 0.000000 0.000000
# 2 -0.001176 0.016237 -0.005744 0.000000 0.000000 0.000000
# 3 -0.004119 -0.005744 0.010490 0.000000 0.000000 0.000000
# 4 0.000000 0.000000 0.000000 0.041670 0.000000 0.000000
# 5 0.000000 0.000000 0.000000 0.000000 0.032495 0.000000
# 6 0.000000 0.000000 0.000000 0.000000 0.000000 0.049808
#
#
# Mechanical properties :
#
#
# Convention : Reuss Voigt Hill
#
# Bulk Modulus (GPa) = 51.73368 60.45761 56.09565
# Shear Modulus (GPa) = 25.78605 27.44306 26.61455
#
# Velocity S-wave (km/s) = 3.58217 3.69547 3.63926
# Velocity P-wave (km/s) = 6.54627 6.94941 6.75085
#
# Compressibility (1/GPa) = 0.01932977
#
# Stress axis : x y z
#
# Youngs Moduli (GPa) = 68.11717 61.58610 95.32762
#
# Poissons Ratio (x) = 0.07243 0.39265
# Poissons Ratio (y) = 0.08011 0.54758
# Poissons Ratio (z) = 0.28057 0.35376
#
# Static dielectric constant tensor:
#      x y z
#    x 3.633560 0.000000 0.000000 
#    y 0.000000 3.630620 0.000000 
#    z 0.000000 0.000000 3.687630 
# 
# 
# High freq. dielectric constant tensor:
#      x y z
#    x 1.787250 0.000000 0.000000 
#    y 0.000000 1.769790 0.000000 
#    z 0.000000 0.000000 1.786460 
# 
# From -- ./inp_files/12124.got.cif
#   From: 2010.03.12/outbox.cif.g09.slc.cpg/sg38_7_cif.got.tgz:12124.got - 2010.04.14 02:38:36.
