data_PCOD8179753
_publ_section_title
;
Structure prediction by ZEFSAII (Michael W. Deem and Ramdas Pophale) SiO2 
 PCOD8179753
Probable space group: A M M 2
;
_chemical_formula_sum "Si O2"
_cell_formula_units_Z 48
_cell_length_a 13.670802
_cell_length_b 19.860425
_cell_length_c 9.083418
_cell_angle_alpha 90.000000
_cell_angle_beta 90.000000
_cell_angle_gamma 90.000000
_cell_volume 2466.220089
_symmetry_space_group_name_H-M "A M M 2"
_symmetry_group_IT_number 38
_symmetry_cell_setting 'orthorhombic'
loop_
_space_group_symop_operation_xyz
x,y,z
-x,-y,z
-x,y,z
x,-y,z
x,1/2+y,1/2+z
-x,1/2-y,1/2+z
-x,1/2+y,1/2+z
x,1/2-y,1/2+z
loop_
_atom_site_type_symbol
_atom_site_label
_atom_site_fract_x
_atom_site_fract_y
_atom_site_fract_z
Si Si1 0.611875 0.077540 0.363020
Si Si2 0.108691 0.159288 0.701863
Si Si3 0.890489 0.786889 0.022182
Si Si4 0.306383 0.813838 0.153214
Si Si5 0.703757 0.577932 0.174249
Si Si6 0.611960 0.304007 0.337649
O O1 0.500000 0.098444 0.392234
O O2 0.655204 0.119004 0.228569
O O3 0.672421 0.094279 0.508587
O O4 0.620761 0.000000 0.318335
O O5 0.122074 0.207883 0.560768
O O6 0.182784 0.097206 0.692742
O O7 0.000000 0.127882 0.703560
O O8 0.126436 0.203663 0.848672
O O9 0.807144 0.827392 0.111315
O O10 0.000000 0.811369 0.069191
O O11 0.316588 0.748872 0.257757
O O12 0.371383 0.798660 0.010782
O O13 0.688526 0.500000 0.214182
O O14 0.636785 0.620684 0.284721
O O15 0.500000 0.286195 0.301824
#
# Coordination Sequence:
#
# PCOD8179753 Si02
#       6
#     8   8   8   8   8   8
#     4  10  23  42  62  85 120 163 202 245 299 358
#     4  10  21  39  61  90 120 153 195 247 304 359
#     4  10  20  37  62  91 119 149 192 243 300 352
#     4  12  22  40  62  90 122 155 199 249 302 357
#     4  11  23  40  60  85 118 161 203 247 300 354
#     4  12  24  37  59  90 120 156 200 250 298 354
#
# _framework density 19.462983000000001
#
# number of rings (size 3 to 8) (size 9 to 14) (size 15 to 20)
#    0.000    1.167    3.333    3.000    2.333    2.000 
#    0.000    0.000    0.000    1.500    0.000    0.000 
#    0.000    0.000    0.000    0.000    0.000    0.000 
#
# Total GULP energy -297677.049799 kJ/mol
# GULP energy per Si atom -12403.210408 kJ/mol
# Density = 1.941868 g / cm^3
# Si number density = 19.462983 Si / 1000 Ang^3
#
#
#
# Elastic Constant Matrix: (Units=GPa)
#
#
# Indices 1 2 3 4 5 6 
#
# 1 139.1562 33.2758 33.8218 0.0000 0.0000 0.0000
# 2 33.2758 81.2968 44.8758 0.0000 0.0000 0.0000
# 3 33.8218 44.8758 94.9026 0.0000 0.0000 0.0000
# 4 0.0000 0.0000 0.0000 33.5157 0.0000 0.0000
# 5 0.0000 0.0000 0.0000 0.0000 33.6208 0.0000
# 6 0.0000 0.0000 0.0000 0.0000 0.0000 30.5082
#
#
#
# Elastic Compliance Matrix: (Units=1/GPa)
#
#
# Indices 1 2 3 4 5 6 
#
# 1 0.008188 -0.002355 -0.001804 0.000000 0.000000 0.000000
# 2 -0.002355 0.017323 -0.007352 0.000000 0.000000 0.000000
# 3 -0.001804 -0.007352 0.014657 0.000000 0.000000 0.000000
# 4 0.000000 0.000000 0.000000 0.029837 0.000000 0.000000
# 5 0.000000 0.000000 0.000000 0.000000 0.029743 0.000000
# 6 0.000000 0.000000 0.000000 0.000000 0.000000 0.032778
#
#
# Mechanical properties :
#
#
# Convention : Reuss Voigt Hill
#
# Bulk Modulus (GPa) = 58.32876 59.92252 59.12564
# Shear Modulus (GPa) = 31.00507 33.08774 32.04641
#
# Velocity S-wave (km/s) = 3.99561 4.12762 4.06215
# Velocity P-wave (km/s) = 7.16384 7.31923 7.24195
#
# Compressibility (1/GPa) = 0.01714420
#
# Stress axis : x y z
#
# Youngs Moduli (GPa) = 122.13075 57.72669 68.22878
#
# Poissons Ratio (x) = 0.13597 0.12310
# Poissons Ratio (y) = 0.28768 0.50161
# Poissons Ratio (z) = 0.22035 0.42440
#
# Static dielectric constant tensor:
#      x y z
#    x 3.868600 0.000000 0.000000 
#    y 0.000000 3.306310 0.000000 
#    z 0.000000 0.000000 3.571800 
# 
# 
# High freq. dielectric constant tensor:
#      x y z
#    x 1.780970 0.000000 0.000000 
#    y 0.000000 1.732690 0.000000 
#    z 0.000000 0.000000 1.763280 
# 
# From -- ./inp_files/5445.got.cif
#   From: 2010.03.12/outbox.cif.g09.slc.cpg/sg38_3_cif.got.tgz:5445.got - 2010.04.14 02:38:36.
