data_PCOD8179100
_publ_section_title
;
Structure prediction by ZEFSAII (Michael W. Deem and Ramdas Pophale) SiO2 
 PCOD8179100
Probable space group: A M M 2
;
_chemical_formula_sum "Si O2"
_cell_formula_units_Z 64
_cell_length_a 8.939844
_cell_length_b 28.467389
_cell_length_c 12.692645
_cell_angle_alpha 90.000000
_cell_angle_beta 90.000000
_cell_angle_gamma 90.000000
_cell_volume 3230.202209
_symmetry_space_group_name_H-M "A M M 2"
_symmetry_group_IT_number 38
_symmetry_cell_setting 'orthorhombic'
loop_
_space_group_symop_operation_xyz
x,y,z
-x,-y,z
-x,y,z
x,-y,z
x,1/2+y,1/2+z
-x,1/2-y,1/2+z
-x,1/2+y,1/2+z
x,1/2-y,1/2+z
loop_
_atom_site_type_symbol
_atom_site_label
_atom_site_fract_x
_atom_site_fract_y
_atom_site_fract_z
Si Si1 0.337349 0.926625 0.449960
Si Si2 0.821948 0.115913 0.071560
Si Si3 0.677184 0.204371 0.158283
Si Si4 0.823037 0.198869 0.600530
Si Si5 0.678654 0.895781 0.671996
Si Si6 0.664768 0.820206 0.392426
Si Si7 0.175278 0.554811 0.369071
Si Si8 0.833686 0.948683 0.254080
O O1 0.500000 0.950643 0.453995
O O2 0.270333 0.925075 0.568165
O O3 0.350443 0.875209 0.402986
O O4 0.238248 0.955328 0.368727
O O5 0.743658 0.166915 0.074005
O O6 0.757275 0.087193 0.172364
O O7 0.000000 0.121973 0.075759
O O8 0.775990 0.086368 0.968543
O O9 0.500000 0.207710 0.141227
O O10 0.754205 0.254152 0.146343
O O11 0.723337 0.189646 0.275799
O O12 0.753193 0.155612 0.666249
O O13 0.783297 0.198689 0.476807
O O14 0.000000 0.197955 0.615183
O O15 0.500000 0.888909 0.672859
O O16 0.731922 0.925381 0.771250
O O17 0.500000 0.797118 0.411468
O O18 0.215891 0.500000 0.388545
O O19 0.000000 0.560343 0.345507
O O20 0.000000 0.930243 0.274180
O O21 0.833127 0.000000 0.199809
#
# Coordination Sequence:
#
# PCOD8179100 Si02
#       8
#     8   8   8   8   8   8   8   8
#     4   9  18  35  56  80 109 144 186 234 290 348
#     4  10  21  38  59  85 119 157 201 252 304 359
#     4  11  22  38  61  87 119 158 202 249 304 367
#     4  11  23  38  60  90 120 155 201 251 307 367
#     4  10  22  41  62  85 119 159 203 253 308 364
#     4   9  19  37  58  80 112 151 189 236 295 353
#     4  10  22  41  64  89 122 166 213 262 314 369
#     4  10  20  33  53  83 116 149 186 231 287 349
#
# _framework density 19.813002000000001
#
# number of rings (size 3 to 8) (size 9 to 14) (size 15 to 20)
#    0.000    2.000    1.250    3.000    0.000    7.500 
#    0.000    2.500    0.000    2.250    0.000    0.000 
#    0.000    0.000    0.000    0.000    0.000    0.000 
#
# Total GULP energy -396660.828349 kJ/mol
# GULP energy per Si atom -12395.650886 kJ/mol
# Density = 1.976791 g / cm^3
# Si number density = 19.813002 Si / 1000 Ang^3
#
#
#
# Elastic Constant Matrix: (Units=GPa)
#
#
# Indices 1 2 3 4 5 6 
#
# 1 80.0284 37.3841 40.9559 0.0000 0.0000 0.0000
# 2 37.3841 82.2452 45.9867 0.0000 0.0000 0.0000
# 3 40.9559 45.9867 113.0229 0.0000 0.0000 0.0000
# 4 0.0000 0.0000 0.0000 24.3351 0.0000 0.0000
# 5 0.0000 0.0000 0.0000 0.0000 39.9152 0.0000
# 6 0.0000 0.0000 0.0000 0.0000 0.0000 319.9750
#
#
#
# Elastic Compliance Matrix: (Units=1/GPa)
#
#
# Indices 1 2 3 4 5 6 
#
# 1 0.017114 -0.005581 -0.003931 0.000000 0.000000 0.000000
# 2 -0.005581 0.017560 -0.005122 0.000000 0.000000 0.000000
# 3 -0.003931 -0.005122 0.012356 0.000000 0.000000 0.000000
# 4 0.000000 0.000000 0.000000 0.041093 0.000000 0.000000
# 5 0.000000 0.000000 0.000000 0.000000 0.025053 0.000000
# 6 0.000000 0.000000 0.000000 0.000000 0.000000 0.003125
#
#
# Mechanical properties :
#
#
# Convention : Reuss Voigt Hill
#
# Bulk Modulus (GPa) = 56.30072 58.21665 57.25869
# Shear Modulus (GPa) = 33.00522 86.90971 59.95746
#
# Velocity S-wave (km/s) = 4.08589 6.63025 5.50703
# Velocity P-wave (km/s) = 7.12300 9.38405 8.33059
#
# Compressibility (1/GPa) = 0.01776176
#
# Stress axis : x y z
#
# Youngs Moduli (GPa) = 58.42999 56.94826 80.93053
#
# Poissons Ratio (x) = 0.31785 0.31812
# Poissons Ratio (y) = 0.32612 0.41454
# Poissons Ratio (z) = 0.22968 0.29170
#
# Static dielectric constant tensor:
#      x y z
#    x 3.395800 0.000000 0.000000 
#    y 0.000000 3.583140 0.000000 
#    z 0.000000 0.000000 3.770150 
# 
# 
# High freq. dielectric constant tensor:
#      x y z
#    x 1.765620 0.000000 0.000000 
#    y 0.000000 1.776380 0.000000 
#    z 0.000000 0.000000 1.774670 
# 
# From -- ./inp_files/8601.got.cif
#   From: 2010.03.12/outbox.cif.g09.slc.cpg/sg38_5_cif.got.tgz:8601.got - 2010.04.14 02:38:36.
