data_PCOD8179169
_publ_section_title
;
Structure prediction by ZEFSAII (Michael W. Deem and Ramdas Pophale) SiO2 
 PCOD8179169
Probable space group: A M M 2
;
_chemical_formula_sum "Si O2"
_cell_formula_units_Z 40
_cell_length_a 12.790399
_cell_length_b 9.161019
_cell_length_c 18.375967
_cell_angle_alpha 90.000000
_cell_angle_beta 90.000000
_cell_angle_gamma 90.000000
_cell_volume 2153.168803
_symmetry_space_group_name_H-M "A M M 2"
_symmetry_group_IT_number 38
_symmetry_cell_setting 'orthorhombic'
loop_
_space_group_symop_operation_xyz
x,y,z
-x,-y,z
-x,y,z
x,-y,z
x,1/2+y,1/2+z
-x,1/2-y,1/2+z
-x,1/2+y,1/2+z
x,1/2-y,1/2+z
loop_
_atom_site_type_symbol
_atom_site_label
_atom_site_fract_x
_atom_site_fract_y
_atom_site_fract_z
Si Si1 0.500000 0.327009 0.819650
Si Si2 0.120527 0.830646 0.824824
Si Si3 0.885586 0.172976 0.661847
Si Si4 0.500000 0.173449 0.152977
Si Si5 0.700920 0.328570 0.905538
Si Si6 0.687479 0.671595 0.073487
O O1 0.500000 0.500000 0.826764
O O2 0.500000 0.274784 0.736603
O O3 0.603567 0.265281 0.859276
O O4 0.143297 0.772367 0.743042
O O5 0.191410 0.743319 0.880981
O O6 0.000000 0.802548 0.845461
O O7 0.148929 0.000000 0.831283
O O8 0.799674 0.224689 0.603918
O O9 0.000000 0.234941 0.638778
O O10 0.892206 0.000000 0.664597
O O11 0.398372 0.236885 0.115279
O O12 0.500000 0.000000 0.146283
O O13 0.713154 0.500000 0.894419
O O14 0.680583 0.289035 0.989136
O O15 0.668860 0.500000 0.087360
#
# Coordination Sequence:
#
# PCOD8179169 Si02
#       6
#     4   8   8   4   8   8
#     4   9  19  35  51  71 102 135 166 206 256 301
#     4   9  18  33  52  74 103 137 170 207 249 292
#     4   8  15  30  52  76 101 132 172 213 249 288
#     4  11  22  35  53  73  98 135 172 206 248 301
#     4  10  20  34  53  76 103 133 165 206 255 303
#     4  10  20  34  54  78 103 131 166 210 254 296
#
# _framework density 18.577271
#
# number of rings (size 3 to 8) (size 9 to 14) (size 15 to 20)
#    0.000    2.600    0.000    3.300    0.000    3.600 
#    0.000    3.500    0.000    1.800    0.000    0.000 
#    0.000    0.000    0.000    0.000    0.000    0.000 
#
# Total GULP energy -247988.703860 kJ/mol
# GULP energy per Si atom -12399.435193 kJ/mol
# Density = 1.853499 g / cm^3
# Si number density = 18.577271 Si / 1000 Ang^3
#
#
#
# Elastic Constant Matrix: (Units=GPa)
#
#
# Indices 1 2 3 4 5 6 
#
# 1 146.4293 45.9219 95.0451 0.0000 0.0000 0.0000
# 2 45.9219 36.5793 51.8407 0.0000 0.0000 0.0000
# 3 95.0451 51.8407 150.2348 0.0000 0.0000 0.0000
# 4 0.0000 0.0000 0.0000 7.1639 0.0000 0.0000
# 5 0.0000 0.0000 0.0000 0.0000 80.1296 0.0000
# 6 0.0000 0.0000 0.0000 0.0000 0.0000 24.9157
#
#
#
# Elastic Compliance Matrix: (Units=1/GPa)
#
#
# Indices 1 2 3 4 5 6 
#
# 1 0.012973 -0.009110 -0.005064 0.000000 0.000000 0.000000
# 2 -0.009110 0.059899 -0.014906 0.000000 0.000000 0.000000
# 3 -0.005064 -0.014906 0.015003 0.000000 0.000000 0.000000
# 4 0.000000 0.000000 0.000000 0.139590 0.000000 0.000000
# 5 0.000000 0.000000 0.000000 0.000000 0.012480 0.000000
# 6 0.000000 0.000000 0.000000 0.000000 0.000000 0.040135
#
#
# Mechanical properties :
#
#
# Convention : Reuss Voigt Hill
#
# Bulk Modulus (GPa) = 33.65125 79.87321 56.76223
# Shear Modulus (GPa) = 14.36182 31.80420 23.08301
#
# Velocity S-wave (km/s) = 2.78346 4.14212 3.52879
# Velocity P-wave (km/s) = 5.33701 8.12186 6.87198
#
# Compressibility (1/GPa) = 0.02971658
#
# Stress axis : x y z
#
# Youngs Moduli (GPa) = 77.08272 16.69467 66.65207
#
# Poissons Ratio (x) = 0.15209 0.33751
# Poissons Ratio (y) = 0.70222 0.99350
# Poissons Ratio (z) = 0.39033 0.24885
#
# Static dielectric constant tensor:
#      x y z
#    x 1.571670 0.000000 0.000000 
#    y 0.000000 3.040270 0.000000 
#    z 0.000000 0.000000 3.510690 
# 
# 
# High freq. dielectric constant tensor:
#      x y z
#    x 1.737520 0.000000 0.000000 
#    y 0.000000 1.683050 0.000000 
#    z 0.000000 0.000000 1.727320 
# 
# From -- ./inp_files/14286.got.cif
#   From: 2010.03.12/outbox.cif.g09.slc.cpg/sg38_8_cif.got.tgz:14286.got - 2010.04.14 02:38:36.
