data_PCOD8179768
_publ_section_title
;
Structure prediction by ZEFSAII (Michael W. Deem and Ramdas Pophale) SiO2 
 PCOD8179768
Probable space group: A M M 2
;
_chemical_formula_sum "Si O2"
_cell_formula_units_Z 64
_cell_length_a 15.459291
_cell_length_b 17.641588
_cell_length_c 11.456382
_cell_angle_alpha 90.000000
_cell_angle_beta 90.000000
_cell_angle_gamma 90.000000
_cell_volume 3124.458308
_symmetry_space_group_name_H-M "A M M 2"
_symmetry_group_IT_number 38
_symmetry_cell_setting 'orthorhombic'
loop_
_space_group_symop_operation_xyz
x,y,z
-x,-y,z
-x,y,z
x,-y,z
x,1/2+y,1/2+z
-x,1/2-y,1/2+z
-x,1/2+y,1/2+z
x,1/2-y,1/2+z
loop_
_atom_site_type_symbol
_atom_site_label
_atom_site_fract_x
_atom_site_fract_y
_atom_site_fract_z
Si Si1 0.596193 0.185509 0.726540
Si Si2 0.813646 0.152367 0.985061
Si Si3 0.250668 0.581340 0.859838
Si Si4 0.902654 0.200028 0.750062
Si Si5 0.904119 0.123251 0.210355
Si Si6 0.361854 0.087960 0.951670
Si Si7 0.757602 0.688918 0.073047
Si Si8 0.596239 0.139131 0.208752
O O1 0.500000 0.172997 0.672672
O O2 0.601271 0.137838 0.845494
O O3 0.669796 0.160714 0.635445
O O4 0.612226 0.274330 0.748238
O O5 0.870173 0.177478 0.876615
O O6 0.742245 0.091199 0.947508
O O7 0.880455 0.115003 0.074416
O O8 0.761089 0.221449 0.047158
O O9 0.261342 0.500000 0.923115
O O10 0.163945 0.575957 0.784051
O O11 0.332422 0.590512 0.775017
O O12 0.239579 0.647913 0.950446
O O13 0.900434 0.289844 0.747820
O O14 0.840149 0.164939 0.651222
O O15 0.000000 0.169447 0.728276
O O16 0.000000 0.089870 0.230278
O O17 0.390980 0.000000 0.939967
O O18 0.397598 0.124979 0.070274
O O19 0.500000 0.114431 0.248759
#
# Coordination Sequence:
#
# PCOD8179768 Si02
#       8
#     8   8   8   8   8   8   8   8
#     4  11  24  42  68  96 125 167 215 263 321 383
#     4  11  19  38  67  91 125 161 209 262 317 375
#     4  12  25  41  60  87 127 172 208 251 315 382
#     4  10  20  37  66  96 121 156 209 270 318 367
#     4  10  21  36  60  93 122 155 204 261 315 372
#     4  12  24  41  68  98 131 169 214 271 332 383
#     4  11  22  40  63  91 128 166 214 262 307 383
#     4  11  24  43  68  95 124 163 217 270 318 381
#
# _framework density 20.483550000000001
#
# number of rings (size 3 to 8) (size 9 to 14) (size 15 to 20)
#    0.000    1.000    5.000    2.625    0.000    4.000 
#    0.000    0.000    0.000    1.875    0.000    0.000 
#    0.000    0.000    0.000    0.000    0.000    0.000 
#
# Total GULP energy -396769.162680 kJ/mol
# GULP energy per Si atom -12399.036334 kJ/mol
# Density = 2.043693 g / cm^3
# Si number density = 20.483550 Si / 1000 Ang^3
#
#
#
# Elastic Constant Matrix: (Units=GPa)
#
#
# Indices 1 2 3 4 5 6 
#
# 1 170.5247 25.0451 44.2083 0.0000 0.0000 0.0000
# 2 25.0451 75.2480 23.5211 0.0000 0.0000 0.0000
# 3 44.2083 23.5211 95.4980 0.0000 0.0000 0.0000
# 4 0.0000 0.0000 0.0000 13.6357 0.0000 0.0000
# 5 0.0000 0.0000 0.0000 0.0000 18.5048 0.0000
# 6 0.0000 0.0000 0.0000 0.0000 0.0000 17.9937
#
#
#
# Elastic Compliance Matrix: (Units=1/GPa)
#
#
# Indices 1 2 3 4 5 6 
#
# 1 0.006795 -0.001385 -0.002804 0.000000 0.000000 0.000000
# 2 -0.001385 0.014680 -0.002975 0.000000 0.000000 0.000000
# 3 -0.002804 -0.002975 0.012502 0.000000 0.000000 0.000000
# 4 0.000000 0.000000 0.000000 0.073337 0.000000 0.000000
# 5 0.000000 0.000000 0.000000 0.000000 0.054040 0.000000
# 6 0.000000 0.000000 0.000000 0.000000 0.000000 0.055575
#
#
# Mechanical properties :
#
#
# Convention : Reuss Voigt Hill
#
# Bulk Modulus (GPa) = 50.89214 58.53553 54.71384
# Shear Modulus (GPa) = 21.02550 26.59324 23.80937
#
# Velocity S-wave (km/s) = 3.20731 3.60706 3.41305
# Velocity P-wave (km/s) = 6.21411 6.78135 6.50392
#
# Compressibility (1/GPa) = 0.01964940
#
# Stress axis : x y z
#
# Youngs Moduli (GPa) = 147.17410 68.11922 79.98558
#
# Poissons Ratio (x) = 0.09434 0.22430
# Poissons Ratio (y) = 0.20383 0.23793
# Poissons Ratio (z) = 0.41272 0.20263
#
# Static dielectric constant tensor:
#      x y z
#    x 4.124400 0.000000 0.000000 
#    y 0.000000 3.452770 0.000000 
#    z 0.000000 0.000000 3.614200 
# 
# 
# High freq. dielectric constant tensor:
#      x y z
#    x 1.822250 0.000000 0.000000 
#    y 0.000000 1.777070 0.000000 
#    z 0.000000 0.000000 1.796600 
# 
# From -- ./inp_files/10241.got.cif
#   From: 2010.03.12/outbox.cif.g09.slc.cpg/sg38_6_cif.got.tgz:10241.got - 2010.04.14 02:38:36.
