data_PCOD8179471
_publ_section_title
;
Structure prediction by ZEFSAII (Michael W. Deem and Ramdas Pophale) SiO2 
 PCOD8179471
Probable space group: A M M 2
;
_chemical_formula_sum "Si O2"
_cell_formula_units_Z 64
_cell_length_a 24.090384
_cell_length_b 8.834380
_cell_length_c 14.692374
_cell_angle_alpha 90.000000
_cell_angle_beta 90.000000
_cell_angle_gamma 90.000000
_cell_volume 3126.884024
_symmetry_space_group_name_H-M "A M M 2"
_symmetry_group_IT_number 38
_symmetry_cell_setting 'orthorhombic'
loop_
_space_group_symop_operation_xyz
x,y,z
-x,-y,z
-x,y,z
x,-y,z
x,1/2+y,1/2+z
-x,1/2-y,1/2+z
-x,1/2+y,1/2+z
x,1/2-y,1/2+z
loop_
_atom_site_type_symbol
_atom_site_label
_atom_site_fract_x
_atom_site_fract_y
_atom_site_fract_z
Si Si1 0.246718 0.329791 0.457390
Si Si2 0.435359 0.673834 0.303523
Si Si3 0.864129 0.179174 0.481947
Si Si4 0.623108 0.820041 0.144897
Si Si5 0.640808 0.178909 0.450422
Si Si6 0.146572 0.822271 0.686997
Si Si7 0.063467 0.822112 0.839366
Si Si8 0.255680 0.167330 0.173317
O O1 0.247048 0.500000 0.417723
O O2 0.189183 0.249093 0.429889
O O3 0.298734 0.237038 0.417237
O O4 0.251497 0.331067 0.565198
O O5 0.500000 0.686984 0.324921
O O6 0.415346 0.500000 0.310980
O O7 0.424611 0.737357 0.202114
O O8 0.403604 0.779837 0.374220
O O9 0.867226 0.238940 0.585949
O O10 0.919280 0.236499 0.431568
O O11 0.859695 0.000000 0.478645
O O12 0.681624 0.780083 0.195545
O O13 0.613861 0.000000 0.141409
O O14 0.621350 0.758203 0.042938
O O15 0.643382 0.000000 0.464767
O O16 0.100696 0.757862 0.756352
O O17 0.208867 0.774448 0.717392
O O18 0.143926 0.000000 0.687519
O O19 0.000000 0.783040 0.816895
O O20 0.072431 0.000000 0.853999
O O21 0.244738 0.000000 0.211869
#
# Coordination Sequence:
#
# PCOD8179471 Si02
#       8
#     8   8   8   8   8   8   8   8
#     4   9  17  33  57  85 117 150 185 226 279 343
#     4  11  25  43  61  84 115 154 202 248 290 344
#     4  10  20  35  57  85 113 141 180 231 284 334
#     4  10  21  39  62  88 119 154 191 236 292 349
#     4  11  22  38  62  90 120 154 193 239 292 348
#     4   9  19  35  56  80 107 142 180 222 273 329
#     4  10  22  39  55  74 105 147 192 231 274 335
#     4   8  16  31  54  84 114 142 175 220 274 334
#
# _framework density 20.467659999999999
#
# number of rings (size 3 to 8) (size 9 to 14) (size 15 to 20)
#    0.000    2.250    0.000    3.375    0.000    7.750 
#    0.000    3.750    0.000    0.000    0.000    0.000 
#    0.000    0.000    0.000    0.000    0.000    0.000 
#
# Total GULP energy -396824.601805 kJ/mol
# GULP energy per Si atom -12400.768806 kJ/mol
# Density = 2.042107 g / cm^3
# Si number density = 20.467660 Si / 1000 Ang^3
#
#
#
# Elastic Constant Matrix: (Units=GPa)
#
#
# Indices 1 2 3 4 5 6 
#
# 1 85.0514 29.0068 17.9188 0.0000 0.0000 0.0000
# 2 29.0068 77.2972 17.2257 0.0000 0.0000 0.0000
# 3 17.9188 17.2257 46.3434 0.0000 0.0000 0.0000
# 4 0.0000 0.0000 0.0000 27.9077 0.0000 0.0000
# 5 0.0000 0.0000 0.0000 0.0000 33.5672 0.0000
# 6 0.0000 0.0000 0.0000 0.0000 0.0000 35.1230
#
#
#
# Elastic Compliance Matrix: (Units=1/GPa)
#
#
# Indices 1 2 3 4 5 6 
#
# 1 0.014069 -0.004435 -0.003791 0.000000 0.000000 0.000000
# 2 -0.004435 0.015503 -0.004048 0.000000 0.000000 0.000000
# 3 -0.003791 -0.004048 0.024549 0.000000 0.000000 0.000000
# 4 0.000000 0.000000 0.000000 0.035832 0.000000 0.000000
# 5 0.000000 0.000000 0.000000 0.000000 0.029791 0.000000
# 6 0.000000 0.000000 0.000000 0.000000 0.000000 0.028471
#
#
# Mechanical properties :
#
#
# Convention : Reuss Voigt Hill
#
# Bulk Modulus (GPa) = 33.81472 37.44384 35.62928
# Shear Modulus (GPa) = 27.37912 28.95561 28.16737
#
# Velocity S-wave (km/s) = 3.66139 3.76533 3.71373
# Velocity P-wave (km/s) = 5.86782 6.10225 5.98618
#
# Compressibility (1/GPa) = 0.02957292
#
# Stress axis : x y z
#
# Youngs Moduli (GPa) = 71.07932 64.50247 40.73553
#
# Poissons Ratio (x) = 0.28604 0.15445
# Poissons Ratio (y) = 0.31521 0.16489
# Poissons Ratio (z) = 0.26949 0.26110
#
# Static dielectric constant tensor:
#      x y z
#    x 3.869160 0.000000 0.000000 
#    y 0.000000 3.690490 0.000000 
#    z 0.000000 0.000000 3.654280 
# 
# 
# High freq. dielectric constant tensor:
#      x y z
#    x 1.798010 0.000000 0.000000 
#    y 0.000000 1.799780 0.000000 
#    z 0.000000 0.000000 1.794450 
# 
# From -- ./inp_files/15851.got.cif
#   From: 2010.03.12/outbox.cif.g09.slc.cpg/sg38_8_cif.got.tgz:15851.got - 2010.04.14 02:38:36.
