data_PCOD8179671
_publ_section_title
;
Structure prediction by ZEFSAII (Michael W. Deem and Ramdas Pophale) SiO2 
 PCOD8179671
Probable space group: A M M 2
;
_chemical_formula_sum "Si O2"
_cell_formula_units_Z 64
_cell_length_a 19.110864
_cell_length_b 20.370712
_cell_length_c 8.640744
_cell_angle_alpha 90.000000
_cell_angle_beta 90.000000
_cell_angle_gamma 90.000000
_cell_volume 3363.858114
_symmetry_space_group_name_H-M "A M M 2"
_symmetry_group_IT_number 38
_symmetry_cell_setting 'orthorhombic'
loop_
_space_group_symop_operation_xyz
x,y,z
-x,-y,z
-x,y,z
x,-y,z
x,1/2+y,1/2+z
-x,1/2-y,1/2+z
-x,1/2+y,1/2+z
x,1/2-y,1/2+z
loop_
_atom_site_type_symbol
_atom_site_label
_atom_site_fract_x
_atom_site_fract_y
_atom_site_fract_z
Si Si1 0.126765 0.813400 0.746240
Si Si2 0.690952 0.423969 0.600553
Si Si3 0.639675 0.224591 0.551346
Si Si4 0.284545 0.675484 0.342448
Si Si5 0.079867 0.074638 0.524077
Si Si6 0.420527 0.163012 0.256541
Si Si7 0.078190 0.192682 0.069111
Si Si8 0.845029 0.574992 0.710012
O O1 0.202637 0.826667 0.814895
O O2 0.099140 0.878175 0.663294
O O3 0.127321 0.749823 0.636988
O O4 0.074197 0.797820 0.885619
O O5 0.677494 0.500000 0.570595
O O6 0.691685 0.389931 0.432337
O O7 0.629455 0.396594 0.708385
O O8 0.762913 0.410425 0.692321
O O9 0.698428 0.261579 0.449347
O O10 0.676514 0.177729 0.677248
O O11 0.592876 0.181530 0.435634
O O12 0.590694 0.275539 0.642345
O O13 0.132879 0.090393 0.385226
O O14 0.000000 0.087037 0.469124
O O15 0.089401 0.000000 0.581780
O O16 0.500000 0.139009 0.240135
O O17 0.110831 0.121392 0.098569
O O18 0.000000 0.197676 0.137721
O O19 0.862994 0.500000 0.665022
#
# Coordination Sequence:
#
# PCOD8179671 Si02
#       8
#     8   8   8   8   8   8   8   8
#     4  12  24  37  59  83 119 154 194 247 302 358
#     4  10  22  40  60  87 118 154 199 239 285 345
#     4   9  20  35  60  91 122 151 192 238 286 343
#     4  10  20  37  59  87 117 154 196 244 292 341
#     4  10  22  40  59  80 111 152 198 245 297 355
#     4  10  20  36  62  91 123 155 187 232 285 345
#     4  12  24  37  56  83 115 151 195 248 304 355
#     4  10  22  41  61  82 110 152 200 244 292 352
#
# _framework density 19.025772
#
# number of rings (size 3 to 8) (size 9 to 14) (size 15 to 20)
#    0.000    1.625    1.250    3.375    5.250    2.000 
#    0.000    1.250    0.000    0.000    0.000    0.000 
#    0.000    0.000    0.000    0.000    0.000    0.000 
#
# Total GULP energy -396912.209781 kJ/mol
# GULP energy per Si atom -12403.506556 kJ/mol
# Density = 1.898247 g / cm^3
# Si number density = 19.025772 Si / 1000 Ang^3
#
#
#
# Elastic Constant Matrix: (Units=GPa)
#
#
# Indices 1 2 3 4 5 6 
#
# 1 113.4834 44.1524 43.7216 0.0000 0.0000 0.0000
# 2 44.1524 106.4817 57.9274 0.0000 0.0000 0.0000
# 3 43.7216 57.9274 123.6564 0.0000 0.0000 0.0000
# 4 0.0000 0.0000 0.0000 29.5360 0.0000 0.0000
# 5 0.0000 0.0000 0.0000 0.0000 25.0010 0.0000
# 6 0.0000 0.0000 0.0000 0.0000 0.0000 22.7066
#
#
#
# Elastic Compliance Matrix: (Units=1/GPa)
#
#
# Indices 1 2 3 4 5 6 
#
# 1 0.010993 -0.003280 -0.002351 0.000000 0.000000 0.000000
# 2 -0.003280 0.013582 -0.005203 0.000000 0.000000 0.000000
# 3 -0.002351 -0.005203 0.011355 0.000000 0.000000 0.000000
# 4 0.000000 0.000000 0.000000 0.033857 0.000000 0.000000
# 5 0.000000 0.000000 0.000000 0.000000 0.039998 0.000000
# 6 0.000000 0.000000 0.000000 0.000000 0.000000 0.044040
#
#
# Mechanical properties :
#
#
# Convention : Reuss Voigt Hill
#
# Bulk Modulus (GPa) = 70.10524 70.58049 70.34287
# Shear Modulus (GPa) = 27.73977 28.63672 28.18825
#
# Velocity S-wave (km/s) = 3.82253 3.88384 3.85331
# Velocity P-wave (km/s) = 7.51065 7.56902 7.53989
#
# Compressibility (1/GPa) = 0.01426427
#
# Stress axis : x y z
#
# Youngs Moduli (GPa) = 90.96295 73.62930 88.06464
#
# Poissons Ratio (x) = 0.24148 0.20701
# Poissons Ratio (y) = 0.29833 0.45818
# Poissons Ratio (z) = 0.21382 0.38307
#
# Static dielectric constant tensor:
#      x y z
#    x 3.452060 0.000000 0.000000 
#    y 0.000000 3.443950 0.000000 
#    z 0.000000 0.000000 3.572900 
# 
# 
# High freq. dielectric constant tensor:
#      x y z
#    x 1.739480 0.000000 0.000000 
#    y 0.000000 1.734010 0.000000 
#    z 0.000000 0.000000 1.746380 
# 
# From -- ./inp_files/6461.got.cif
#   From: 2010.03.12/outbox.cif.g09.slc.cpg/sg38_4_cif.got.tgz:6461.got - 2010.04.14 02:38:36.
