data_PCOD8179551
_publ_section_title
;
Structure prediction by ZEFSAII (Michael W. Deem and Ramdas Pophale) SiO2 
 PCOD8179551
Probable space group: A M M 2
;
_chemical_formula_sum "Si O2"
_cell_formula_units_Z 48
_cell_length_a 13.603267
_cell_length_b 13.700516
_cell_length_c 13.140364
_cell_angle_alpha 90.000000
_cell_angle_beta 90.000000
_cell_angle_gamma 90.000000
_cell_volume 2448.992992
_symmetry_space_group_name_H-M "A M M 2"
_symmetry_group_IT_number 38
_symmetry_cell_setting 'orthorhombic'
loop_
_space_group_symop_operation_xyz
x,y,z
-x,-y,z
-x,y,z
x,-y,z
x,1/2+y,1/2+z
-x,1/2-y,1/2+z
-x,1/2+y,1/2+z
x,1/2-y,1/2+z
loop_
_atom_site_type_symbol
_atom_site_label
_atom_site_fract_x
_atom_site_fract_y
_atom_site_fract_z
Si Si1 0.610363 0.292605 0.751740
Si Si2 0.392710 0.391042 0.118586
Si Si3 0.112466 0.774847 0.706150
Si Si4 0.814920 0.109340 0.528711
Si Si5 0.233506 0.268806 0.397980
Si Si6 0.242977 0.884822 0.102560
O O1 0.500000 0.330385 0.771513
O O2 0.612734 0.181916 0.712358
O O3 0.667910 0.285980 0.858445
O O4 0.658532 0.364720 0.667883
O O5 0.500000 0.379490 0.063419
O O6 0.381418 0.500000 0.163789
O O7 0.302224 0.370848 0.043495
O O8 0.122301 0.864604 0.627962
O O9 0.173487 0.813186 0.803474
O O10 0.155519 0.675194 0.657275
O O11 0.000000 0.756685 0.735005
O O12 0.840564 0.184232 0.439051
O O13 0.839157 0.000000 0.494835
O O14 0.256475 0.348718 0.485538
O O15 0.218898 0.000000 0.102488
#
# Coordination Sequence:
#
# PCOD8179551 Si02
#       6
#     8   8   8   8   8   8
#     4  10  20  36  57  84 120 155 189 229 278 332
#     4   9  16  30  55  83 111 145 183 222 269 324
#     4  10  22  41  60  82 112 147 188 237 294 347
#     4  10  20  37  59  84 115 146 183 232 285 336
#     4  10  20  36  56  90 111 150 184 239 280 334
#     4  10  22  40  59  83 116 155 193 233 285 339
#
# _framework density 19.599893000000002
#
# number of rings (size 3 to 8) (size 9 to 14) (size 15 to 20)
#    0.000    2.167    5.000    0.000    0.000    9.000 
#    0.000    0.000    0.000    0.000    0.000    0.000 
#    0.000    0.000    0.000    0.000    0.000    0.000 
#
# Total GULP energy -297398.919742 kJ/mol
# GULP energy per Si atom -12391.621656 kJ/mol
# Density = 1.955528 g / cm^3
# Si number density = 19.599893 Si / 1000 Ang^3
#
#
#
# Elastic Constant Matrix: (Units=GPa)
#
#
# Indices 1 2 3 4 5 6 
#
# 1 104.5711 -2.2799 20.1115 0.0000 0.0000 0.0000
# 2 -2.2799 82.1115 6.9663 0.0000 0.0000 0.0000
# 3 20.1115 6.9663 76.5421 0.0000 0.0000 0.0000
# 4 0.0000 0.0000 0.0000 15.3101 0.0000 0.0000
# 5 0.0000 0.0000 0.0000 0.0000 10.2184 0.0000
# 6 0.0000 0.0000 0.0000 0.0000 0.0000 19.2714
#
#
#
# Elastic Compliance Matrix: (Units=1/GPa)
#
#
# Indices 1 2 3 4 5 6 
#
# 1 0.010093 0.000509 -0.002698 0.000000 0.000000 0.000000
# 2 0.000509 0.012299 -0.001253 0.000000 0.000000 0.000000
# 3 -0.002698 -0.001253 0.013888 0.000000 0.000000 0.000000
# 4 0.000000 0.000000 0.000000 0.065316 0.000000 0.000000
# 5 0.000000 0.000000 0.000000 0.000000 0.097863 0.000000
# 6 0.000000 0.000000 0.000000 0.000000 0.000000 0.051890
#
#
# Mechanical properties :
#
#
# Convention : Reuss Voigt Hill
#
# Bulk Modulus (GPa) = 34.01922 34.75785 34.38853
# Shear Modulus (GPa) = 18.65447 24.85509 21.75478
#
# Velocity S-wave (km/s) = 3.08841 3.56494 3.33520
# Velocity P-wave (km/s) = 5.48746 5.89213 5.69339
#
# Compressibility (1/GPa) = 0.02939515
#
# Stress axis : x y z
#
# Youngs Moduli (GPa) = 99.07940 81.30729 72.00601
#
# Poissons Ratio (x) = -0.04140 0.19429
# Poissons Ratio (y) = -0.05045 0.09023
# Poissons Ratio (z) = 0.26734 0.10189
#
# Static dielectric constant tensor:
#      x y z
#    x 3.638840 0.000000 0.000000 
#    y 0.000000 3.487950 0.000000 
#    z 0.000000 0.000000 3.510980 
# 
# 
# High freq. dielectric constant tensor:
#      x y z
#    x 1.757600 0.000000 0.000000 
#    y 0.000000 1.754410 0.000000 
#    z 0.000000 0.000000 1.755650 
# 
# From -- ./inp_files/10009.got.cif
#   From: 2010.03.12/outbox.cif.g09.slc.cpg/sg38_6_cif.got.tgz:10009.got - 2010.04.14 02:38:36.
