data_PCOD8179443
_publ_section_title
;
Structure prediction by ZEFSAII (Michael W. Deem and Ramdas Pophale) SiO2 
 PCOD8179443
Probable space group: A M M 2
;
_chemical_formula_sum "Si O2"
_cell_formula_units_Z 64
_cell_length_a 15.351562
_cell_length_b 23.504944
_cell_length_c 9.108299
_cell_angle_alpha 90.000000
_cell_angle_beta 90.000000
_cell_angle_gamma 90.000000
_cell_volume 3286.616798
_symmetry_space_group_name_H-M "A M M 2"
_symmetry_group_IT_number 38
_symmetry_cell_setting 'orthorhombic'
loop_
_space_group_symop_operation_xyz
x,y,z
-x,-y,z
-x,y,z
x,-y,z
x,1/2+y,1/2+z
-x,1/2-y,1/2+z
-x,1/2+y,1/2+z
x,1/2-y,1/2+z
loop_
_atom_site_type_symbol
_atom_site_label
_atom_site_fract_x
_atom_site_fract_y
_atom_site_fract_z
Si Si1 0.903087 0.218221 0.141320
Si Si2 0.329123 0.165544 0.919835
Si Si3 0.735155 0.153891 0.230085
Si Si4 0.597666 0.615949 0.147154
Si Si5 0.142372 0.820585 0.822755
Si Si6 0.901397 0.435361 0.192588
Si Si7 0.749381 0.564130 0.976258
Si Si8 0.401662 0.214436 0.423382
O O1 0.830381 0.182289 0.227378
O O2 0.891257 0.285034 0.181786
O O3 0.000000 0.198173 0.188506
O O4 0.893932 0.210428 0.967237
O O5 0.388063 0.123451 0.822029
O O6 0.246552 0.181981 0.819882
O O7 0.383343 0.220821 0.967592
O O8 0.295757 0.134888 0.067866
O O9 0.740402 0.098110 0.326896
O O10 0.664605 0.196872 0.296149
O O11 0.500000 0.592728 0.120575
O O12 0.665711 0.571302 0.081353
O O13 0.611504 0.677087 0.069692
O O14 0.110261 0.886651 0.817099
O O15 0.879740 0.500000 0.251203
O O16 0.000000 0.434101 0.133245
O O17 0.836858 0.417984 0.061348
O O18 0.755111 0.500000 0.924499
O O19 0.500000 0.208047 0.362925
#
# Coordination Sequence:
#
# PCOD8179443 Si02
#       8
#     8   8   8   8   8   8   8   8
#     4  11  23  37  57  89 127 164 193 238 300 358
#     4  11  20  34  55  85 120 153 187 239 293 348
#     4  10  23  37  57  85 121 155 195 241 295 361
#     4  10  21  36  59  87 114 153 198 240 292 351
#     4  11  23  38  58  89 125 159 200 243 299 360
#     4  10  21  39  65  90 114 154 208 256 293 343
#     4  10  22  42  63  84 112 152 200 251 299 349
#     4  10  20  35  56  84 120 157 192 235 288 350
#
# _framework density 19.472909999999999
#
# number of rings (size 3 to 8) (size 9 to 14) (size 15 to 20)
#    0.000    1.625    2.500    2.250    3.500    2.750 
#    0.000    3.125    0.000    0.750    0.000    0.000 
#    0.000    0.000    0.000    0.000    0.000    0.000 
#
# Total GULP energy -396786.422046 kJ/mol
# GULP energy per Si atom -12399.575689 kJ/mol
# Density = 1.942859 g / cm^3
# Si number density = 19.472910 Si / 1000 Ang^3
#
#
#
# Elastic Constant Matrix: (Units=GPa)
#
#
# Indices 1 2 3 4 5 6 
#
# 1 142.1387 27.7744 42.1718 0.0000 0.0000 0.0000
# 2 27.7744 85.8342 48.6188 0.0000 0.0000 0.0000
# 3 42.1718 48.6188 100.1510 0.0000 0.0000 0.0000
# 4 0.0000 0.0000 0.0000 17.7002 0.0000 0.0000
# 5 0.0000 0.0000 0.0000 0.0000 23.1396 0.0000
# 6 0.0000 0.0000 0.0000 0.0000 0.0000 23.9818
#
#
#
# Elastic Compliance Matrix: (Units=1/GPa)
#
#
# Indices 1 2 3 4 5 6 
#
# 1 0.008096 -0.000950 -0.002948 0.000000 0.000000 0.000000
# 2 -0.000950 0.016180 -0.007455 0.000000 0.000000 0.000000
# 3 -0.002948 -0.007455 0.014845 0.000000 0.000000 0.000000
# 4 0.000000 0.000000 0.000000 0.056497 0.000000 0.000000
# 5 0.000000 0.000000 0.000000 0.000000 0.043216 0.000000
# 6 0.000000 0.000000 0.000000 0.000000 0.000000 0.041698
#
#
# Mechanical properties :
#
#
# Convention : Reuss Voigt Hill
#
# Bulk Modulus (GPa) = 60.91587 62.80599 61.86093
# Shear Modulus (GPa) = 23.95680 26.93491 25.44586
#
# Velocity S-wave (km/s) = 3.51132 3.72317 3.61880
# Velocity P-wave (km/s) = 6.91299 7.12781 7.02122
#
# Compressibility (1/GPa) = 0.01641608
#
# Stress axis : x y z
#
# Youngs Moduli (GPa) = 123.52415 61.80330 67.36191
#
# Poissons Ratio (x) = 0.05871 0.19857
# Poissons Ratio (y) = 0.11733 0.50217
# Poissons Ratio (z) = 0.36412 0.46074
#
# Static dielectric constant tensor:
#      x y z
#    x 3.835400 0.000000 0.000000 
#    y 0.000000 3.377370 0.000000 
#    z 0.000000 0.000000 3.375340 
# 
# 
# High freq. dielectric constant tensor:
#      x y z
#    x 1.780450 0.000000 0.000000 
#    y 0.000000 1.735210 0.000000 
#    z 0.000000 0.000000 1.745130 
# 
# From -- ./inp_files/5896.got.cif
#   From: 2010.03.12/outbox.cif.g09.slc.cpg/sg38_3_cif.got.tgz:5896.got - 2010.04.14 02:38:36.
