data_PCOD8179744
_publ_section_title
;
Structure prediction by ZEFSAII (Michael W. Deem and Ramdas Pophale) SiO2 
 PCOD8179744
Probable space group: A M M 2
;
_chemical_formula_sum "Si O2"
_cell_formula_units_Z 64
_cell_length_a 18.586495
_cell_length_b 9.020936
_cell_length_c 19.468567
_cell_angle_alpha 90.000000
_cell_angle_beta 90.000000
_cell_angle_gamma 90.000000
_cell_volume 3264.247551
_symmetry_space_group_name_H-M "A M M 2"
_symmetry_group_IT_number 38
_symmetry_cell_setting 'orthorhombic'
loop_
_space_group_symop_operation_xyz
x,y,z
-x,-y,z
-x,y,z
x,-y,z
x,1/2+y,1/2+z
-x,1/2-y,1/2+z
-x,1/2+y,1/2+z
x,1/2-y,1/2+z
loop_
_atom_site_type_symbol
_atom_site_label
_atom_site_fract_x
_atom_site_fract_y
_atom_site_fract_z
Si Si1 0.843734 0.173711 0.292640
Si Si2 0.694532 0.324600 0.859232
Si Si3 0.154731 0.669474 0.547672
Si Si4 0.919123 0.832921 0.907707
Si Si5 0.917627 0.674561 0.169199
Si Si6 0.311002 0.672379 0.506365
Si Si7 0.416230 0.828839 0.762487
Si Si8 0.584297 0.831076 0.606154
O O1 0.766641 0.229327 0.320305
O O2 0.904818 0.218530 0.346775
O O3 0.861901 0.250449 0.220999
O O4 0.844722 0.000000 0.280297
O O5 0.693402 0.500000 0.866647
O O6 0.626832 0.273770 0.814671
O O7 0.690710 0.257991 0.934860
O O8 0.136661 0.500000 0.568280
O O9 0.134111 0.702059 0.469432
O O10 0.108663 0.779929 0.593884
O O11 0.239624 0.702320 0.551717
O O12 0.000000 0.811407 0.934367
O O13 0.907109 0.000000 0.879774
O O14 0.912407 0.500000 0.177342
O O15 0.000000 0.727786 0.181021
O O16 0.319410 0.500000 0.488948
O O17 0.377172 0.723983 0.552653
O O18 0.500000 0.800708 0.776297
O O19 0.396563 0.785036 0.684221
O O20 0.396698 0.000000 0.775804
O O21 0.500000 0.814346 0.593429
O O22 0.608743 0.000000 0.592926
#
# Coordination Sequence:
#
# PCOD8179744 Si02
#       8
#     8   8   8   8   8   8   8   8
#     4  11  24  40  59  86 120 156 197 245 295 351
#     4  11  24  40  60  88 122 159 200 244 295 351
#     4  10  22  40  61  87 120 156 195 243 298 353
#     4  10  20  37  62  87 114 152 196 242 295 351
#     4  11  25  42  61  87 118 155 200 247 297 356
#     4  11  23  39  62  90 121 158 201 245 293 350
#     4   9  20  40  65  92 121 156 198 242 292 350
#     4   9  20  40  64  91 124 160 197 240 293 350
#
# _framework density 19.606356999999999
#
# number of rings (size 3 to 8) (size 9 to 14) (size 15 to 20)
#    0.000    1.750    1.250    3.000    1.750    7.750 
#    0.000    1.250    0.000    0.000    0.000    0.000 
#    0.000    0.000    0.000    0.000    0.000    0.000 
#
# Total GULP energy -396919.155575 kJ/mol
# GULP energy per Si atom -12403.723612 kJ/mol
# Density = 1.956173 g / cm^3
# Si number density = 19.606357 Si / 1000 Ang^3
#
#
#
# Elastic Constant Matrix: (Units=GPa)
#
#
# Indices 1 2 3 4 5 6 
#
# 1 82.3729 42.6475 44.4699 0.0000 0.0000 0.0000
# 2 42.6475 74.0349 46.0833 0.0000 0.0000 0.0000
# 3 44.4699 46.0833 89.7653 0.0000 0.0000 0.0000
# 4 0.0000 0.0000 0.0000 37.6723 0.0000 0.0000
# 5 0.0000 0.0000 0.0000 0.0000 36.8766 0.0000
# 6 0.0000 0.0000 0.0000 0.0000 0.0000 31.9871
#
#
#
# Elastic Compliance Matrix: (Units=1/GPa)
#
#
# Indices 1 2 3 4 5 6 
#
# 1 0.019031 -0.007487 -0.005585 0.000000 0.000000 0.000000
# 2 -0.007487 0.022796 -0.007994 0.000000 0.000000 0.000000
# 3 -0.005585 -0.007994 0.018011 0.000000 0.000000 0.000000
# 4 0.000000 0.000000 0.000000 0.026545 0.000000 0.000000
# 5 0.000000 0.000000 0.000000 0.000000 0.027117 0.000000
# 6 0.000000 0.000000 0.000000 0.000000 0.000000 0.031263
#
#
# Mechanical properties :
#
#
# Convention : Reuss Voigt Hill
#
# Bulk Modulus (GPa) = 56.47419 56.95271 56.71345
# Shear Modulus (GPa) = 25.93446 28.83871 27.38658
#
# Velocity S-wave (km/s) = 3.64092 3.83937 3.74146
# Velocity P-wave (km/s) = 6.82214 6.98323 6.90316
#
# Compressibility (1/GPa) = 0.01770720
#
# Stress axis : x y z
#
# Youngs Moduli (GPa) = 52.54637 43.86828 55.52295
#
# Poissons Ratio (x) = 0.32842 0.31007
# Poissons Ratio (y) = 0.39339 0.44384
# Poissons Ratio (z) = 0.29345 0.35068
#
# Static dielectric constant tensor:
#      x y z
#    x 3.644640 0.000000 0.000000 
#    y 0.000000 3.527990 0.000000 
#    z 0.000000 0.000000 3.495280 
# 
# 
# High freq. dielectric constant tensor:
#      x y z
#    x 1.772130 0.000000 0.000000 
#    y 0.000000 1.762670 0.000000 
#    z 0.000000 0.000000 1.769020 
# 
# From -- ./inp_files/21423.got.cif
#   From: 2010.03.12/outbox.cif.g09.slc.cpg/sg38_11_cif.got.tgz:21423.got - 2010.04.14 02:38:36.
