data_PCOD8179636
_publ_section_title
;
Structure prediction by ZEFSAII (Michael W. Deem and Ramdas Pophale) SiO2 
 PCOD8179636
Probable space group: A M M 2
;
_chemical_formula_sum "Si O2"
_cell_formula_units_Z 48
_cell_length_a 8.630059
_cell_length_b 23.287628
_cell_length_c 11.643551
_cell_angle_alpha 90.000000
_cell_angle_beta 90.000000
_cell_angle_gamma 90.000000
_cell_volume 2340.046403
_symmetry_space_group_name_H-M "A M M 2"
_symmetry_group_IT_number 38
_symmetry_cell_setting 'orthorhombic'
loop_
_space_group_symop_operation_xyz
x,y,z
-x,-y,z
-x,y,z
x,-y,z
x,1/2+y,1/2+z
-x,1/2-y,1/2+z
-x,1/2+y,1/2+z
x,1/2-y,1/2+z
loop_
_atom_site_type_symbol
_atom_site_label
_atom_site_fract_x
_atom_site_fract_y
_atom_site_fract_z
Si Si1 0.822806 0.935241 0.902410
Si Si2 0.319989 0.365218 0.208439
Si Si3 0.181955 0.433634 0.997791
Si Si4 0.822237 0.224057 0.870319
Si Si5 0.176097 0.149877 0.296857
Si Si6 0.321315 0.850252 0.058064
O O1 0.708293 0.913337 0.804247
O O2 0.000000 0.925975 0.863362
O O3 0.783459 0.000000 0.927670
O O4 0.786505 0.903085 0.020467
O O5 0.500000 0.351805 0.194252
O O6 0.258191 0.391323 0.089991
O O7 0.237747 0.306330 0.252168
O O8 0.244070 0.500000 0.002421
O O9 0.000000 0.433617 0.021554
O O10 0.219767 0.405669 0.873670
O O11 0.805075 0.292281 0.870236
O O12 0.000000 0.205094 0.886042
O O13 0.725588 0.204862 0.982054
O O14 0.293543 0.157711 0.192361
O O15 0.000000 0.144361 0.251634
O O16 0.500000 0.863828 0.035651
#
# Coordination Sequence:
#
# PCOD8179636 Si02
#       6
#     8   8   8   8   8   8
#     4  10  20  36  60  86 114 154 202 246 289 344
#     4  11  22  36  58  90 124 156 194 247 308 361
#     4  10  22  41  63  88 120 161 208 251 297 358
#     4  10  21  39  63  87 116 155 205 252 297 356
#     4  10  23  41  62  86 115 158 205 248 296 356
#     4  11  23  38  58  87 122 153 190 242 304 364
#
# _framework density 20.512414
#
# number of rings (size 3 to 8) (size 9 to 14) (size 15 to 20)
#    0.000    1.667    0.000    6.500    2.333    6.333 
#    0.000    1.667    0.000    0.000    0.000    0.000 
#    0.000    0.000    0.000    0.000    0.000    0.000 
#
# Total GULP energy -297550.196441 kJ/mol
# GULP energy per Si atom -12397.924852 kJ/mol
# Density = 2.046573 g / cm^3
# Si number density = 20.512414 Si / 1000 Ang^3
#
#
#
# Elastic Constant Matrix: (Units=GPa)
#
#
# Indices 1 2 3 4 5 6 
#
# 1 73.1763 16.6522 24.3880 0.0000 0.0000 0.0000
# 2 16.6522 92.2607 20.3972 0.0000 0.0000 0.0000
# 3 24.3880 20.3972 91.7164 0.0000 0.0000 0.0000
# 4 0.0000 0.0000 0.0000 17.4559 0.0000 0.0000
# 5 0.0000 0.0000 0.0000 0.0000 24.9955 0.0000
# 6 0.0000 0.0000 0.0000 0.0000 0.0000 3.4192
#
#
#
# Elastic Compliance Matrix: (Units=1/GPa)
#
#
# Indices 1 2 3 4 5 6 
#
# 1 0.015325 -0.001962 -0.003639 0.000000 0.000000 0.000000
# 2 -0.001962 0.011650 -0.002069 0.000000 0.000000 0.000000
# 3 -0.003639 -0.002069 0.012331 0.000000 0.000000 0.000000
# 4 0.000000 0.000000 0.000000 0.057287 0.000000 0.000000
# 5 0.000000 0.000000 0.000000 0.000000 0.040007 0.000000
# 6 0.000000 0.000000 0.000000 0.000000 0.000000 0.292463
#
#
# Mechanical properties :
#
#
# Convention : Reuss Voigt Hill
#
# Bulk Modulus (GPa) = 41.72440 42.22537 41.97489
# Shear Modulus (GPa) = 11.05236 22.22185 16.63711
#
# Velocity S-wave (km/s) = 2.32375 3.29498 2.85103
# Velocity P-wave (km/s) = 5.25214 5.92502 5.59870
#
# Compressibility (1/GPa) = 0.02396679
#
# Stress axis : x y z
#
# Youngs Moduli (GPa) = 65.25417 85.83402 81.09670
#
# Poissons Ratio (x) = 0.16836 0.29509
# Poissons Ratio (y) = 0.12800 0.16782
# Poissons Ratio (z) = 0.23744 0.17762
#
# Static dielectric constant tensor:
#      x y z
#    x 3.719390 0.000000 0.000000 
#    y 0.000000 3.840750 0.000000 
#    z 0.000000 0.000000 3.595520 
# 
# 
# High freq. dielectric constant tensor:
#      x y z
#    x 1.800240 0.000000 0.000000 
#    y 0.000000 1.808280 0.000000 
#    z 0.000000 0.000000 1.795620 
# 
# From -- ./inp_files/8142.got.cif
#   From: 2010.03.12/outbox.cif.g09.slc.cpg/sg38_5_cif.got.tgz:8142.got - 2010.04.14 02:38:36.
