data_PCOD8179335
_publ_section_title
;
Structure prediction by ZEFSAII (Michael W. Deem and Ramdas Pophale) SiO2 
 PCOD8179335
Probable space group: A M M 2
;
_chemical_formula_sum "Si O2"
_cell_formula_units_Z 64
_cell_length_a 23.634387
_cell_length_b 8.692327
_cell_length_c 15.453963
_cell_angle_alpha 90.000000
_cell_angle_beta 90.000000
_cell_angle_gamma 90.000000
_cell_volume 3174.828473
_symmetry_space_group_name_H-M "A M M 2"
_symmetry_group_IT_number 38
_symmetry_cell_setting 'orthorhombic'
loop_
_space_group_symop_operation_xyz
x,y,z
-x,-y,z
-x,y,z
x,-y,z
x,1/2+y,1/2+z
-x,1/2-y,1/2+z
-x,1/2+y,1/2+z
x,1/2-y,1/2+z
loop_
_atom_site_type_symbol
_atom_site_label
_atom_site_fract_x
_atom_site_fract_y
_atom_site_fract_z
Si Si1 0.832637 0.678236 0.752760
Si Si2 0.242846 0.680781 0.596516
Si Si3 0.063653 0.679154 0.498824
Si Si4 0.174346 0.175571 0.444622
Si Si5 0.936900 0.676357 0.181648
Si Si6 0.566198 0.178282 0.749400
Si Si7 0.565295 0.320900 0.929693
Si Si8 0.629580 0.818493 0.090620
O O1 0.846489 0.500000 0.735352
O O2 0.790756 0.747254 0.679619
O O3 0.803587 0.699337 0.846560
O O4 0.891261 0.773392 0.752825
O O5 0.245484 0.500000 0.605776
O O6 0.211540 0.721394 0.507806
O O7 0.306427 0.745433 0.595983
O O8 0.075105 0.500000 0.483281
O O9 0.108422 0.777166 0.444517
O O10 0.072697 0.714870 0.599522
O O11 0.000000 0.725004 0.470038
O O12 0.180403 0.000000 0.474516
O O13 0.927421 0.500000 0.153688
O O14 0.000000 0.698634 0.220333
O O15 0.500000 0.211209 0.737309
O O16 0.585762 0.228668 0.845055
O O17 0.598974 0.280001 0.680029
O O18 0.580759 0.000000 0.735417
O O19 0.500000 0.285106 0.949999
O O20 0.575515 0.500000 0.912315
O O21 0.600666 0.268238 0.011658
O O22 0.626729 0.000000 0.073979
#
# Coordination Sequence:
#
# PCOD8179335 Si02
#       8
#     8   8   8   8   8   8   8   8
#     4  10  22  40  60  82 113 151 190 234 291 352
#     4  10  23  43  61  81 114 156 199 244 291 345
#     4  10  20  35  57  83 114 152 187 228 290 354
#     4  11  23  38  60  88 114 148 193 243 294 345
#     4  10  20  34  56  87 117 144 184 237 288 345
#     4  10  21  38  61  91 126 161 199 245 296 351
#     4  10  21  38  61  90 124 161 200 244 296 354
#     4  11  23  38  60  89 121 159 202 249 298 352
#
# _framework density 20.158567999999999
#
# number of rings (size 3 to 8) (size 9 to 14) (size 15 to 20)
#    0.000    1.750    1.250    2.625    0.000    8.000 
#    0.000    3.750    0.000    0.000    0.000    0.000 
#    0.000    0.000    0.000    0.000    0.000    0.000 
#
# Total GULP energy -396892.416521 kJ/mol
# GULP energy per Si atom -12402.888016 kJ/mol
# Density = 2.011269 g / cm^3
# Si number density = 20.158568 Si / 1000 Ang^3
#
#
#
# Elastic Constant Matrix: (Units=GPa)
#
#
# Indices 1 2 3 4 5 6 
#
# 1 104.4954 20.0496 53.3572 0.0000 0.0000 0.0000
# 2 20.0496 28.9547 8.5776 0.0000 0.0000 0.0000
# 3 53.3572 8.5776 108.3707 0.0000 0.0000 0.0000
# 4 0.0000 0.0000 0.0000 34.3818 0.0000 0.0000
# 5 0.0000 0.0000 0.0000 0.0000 -176.9398 0.0000
# 6 0.0000 0.0000 0.0000 0.0000 0.0000 27.5964
#
#
#
# Elastic Compliance Matrix: (Units=1/GPa)
#
#
# Indices 1 2 3 4 5 6 
#
# 1 0.014416 -0.008069 -0.006459 0.000000 0.000000 0.000000
# 2 -0.008069 0.039882 0.000816 0.000000 0.000000 0.000000
# 3 -0.006459 0.000816 0.012343 0.000000 0.000000 0.000000
# 4 0.000000 0.000000 0.000000 0.029085 0.000000 0.000000
# 5 0.000000 0.000000 0.000000 0.000000 -0.005652 0.000000
# 6 0.000000 0.000000 0.000000 0.000000 0.000000 0.036237
#
#
# Mechanical properties :
#
#
# Convention : Reuss Voigt Hill
#
# Bulk Modulus (GPa) = 25.49879 45.08773 35.29326
# Shear Modulus (GPa) = 29.97445 -12.33657 8.81894
#
# Velocity S-wave (km/s) = 3.86026 -2.47650 2.09387
# Velocity P-wave (km/s) = 5.70486 3.77329 4.83648
#
# Compressibility (1/GPa) = 0.03921755
#
# Stress axis : x y z
#
# Youngs Moduli (GPa) = 69.36626 25.07378 81.01576
#
# Poissons Ratio (x) = 0.20232 0.52330
# Poissons Ratio (y) = 0.55971 -0.06612
# Poissons Ratio (z) = 0.44806 -0.02046
#
# Static dielectric constant tensor:
#      x y z
#    x 4.019880 0.000000 0.000000 
#    y 0.000000 3.601590 0.000000 
#    z 0.000000 0.000000 3.593660 
# 
# 
# High freq. dielectric constant tensor:
#      x y z
#    x 1.783390 0.000000 0.000000 
#    y 0.000000 1.789150 0.000000 
#    z 0.000000 0.000000 1.789020 
# 
# From -- ./inp_files/15762.got.cif
#   From: 2010.03.12/outbox.cif.g09.slc.cpg/sg38_8_cif.got.tgz:15762.got - 2010.04.14 02:38:36.
