data_PCOD8179485
_publ_section_title
;
Structure prediction by ZEFSAII (Michael W. Deem and Ramdas Pophale) SiO2 
 PCOD8179485
Probable space group: A M M 2
;
_chemical_formula_sum "Si O2"
_cell_formula_units_Z 48
_cell_length_a 7.756962
_cell_length_b 9.441329
_cell_length_c 34.146141
_cell_angle_alpha 90.000000
_cell_angle_beta 90.000000
_cell_angle_gamma 90.000000
_cell_volume 2500.727816
_symmetry_space_group_name_H-M "A M M 2"
_symmetry_group_IT_number 38
_symmetry_cell_setting 'orthorhombic'
loop_
_space_group_symop_operation_xyz
x,y,z
-x,-y,z
-x,y,z
x,-y,z
x,1/2+y,1/2+z
-x,1/2-y,1/2+z
-x,1/2+y,1/2+z
x,1/2-y,1/2+z
loop_
_atom_site_type_symbol
_atom_site_label
_atom_site_fract_x
_atom_site_fract_y
_atom_site_fract_z
Si Si1 0.797844 0.163252 0.215540
Si Si2 0.500000 0.831845 0.931837
Si Si3 0.304515 0.839881 0.643758
Si Si4 0.191710 0.662289 0.573114
Si Si5 0.795836 0.156254 0.302450
Si Si6 0.500000 0.668116 0.519160
Si Si7 0.802749 0.166723 0.875952
O O1 0.700896 0.266156 0.185928
O O2 0.731221 0.202480 0.259293
O O3 0.000000 0.190004 0.211261
O O4 0.752895 0.000000 0.206122
O O5 0.325557 0.780266 0.910102
O O6 0.500000 0.000000 0.933751
O O7 0.500000 0.766267 0.975501
O O8 0.500000 0.840123 0.628734
O O9 0.192535 0.753206 0.612630
O O10 0.232901 0.000000 0.646961
O O11 0.236338 0.500000 0.584170
O O12 0.328674 0.721274 0.541601
O O13 0.000000 0.673250 0.554711
O O14 0.734743 0.265486 0.335506
O O15 0.000000 0.149733 0.300762
O O16 0.723397 0.000000 0.312791
O O17 0.500000 0.500000 0.516164
O O18 0.000000 0.212637 0.886079
O O19 0.790744 0.000000 0.870143
#
# Coordination Sequence:
#
# PCOD8179485 Si02
#       7
#     8   4   8   8   8   4   8
#     4   9  18  33  53  76 101 134 178 223 265 308
#     4   9  18  32  51  78 109 136 165 210 261 305
#     4  11  23  36  50  73 107 144 178 215 262 314
#     4  10  20  35  58  83 104 135 177 216 261 315
#     4   8  15  30  51  73 100 134 172 216 260 301
#     4   9  18  34  55  80 109 134 165 216 265 307
#     4   9  17  30  50  75 103 138 175 209 253 307
#
# _framework density 19.194410999999999
#
# number of rings (size 3 to 8) (size 9 to 14) (size 15 to 20)
#    0.000    2.667    0.833    2.000    0.000    5.000 
#    1.500    5.417    0.000    2.000    0.000    2.333 
#    0.000    0.000    0.000    0.000    0.000    0.000 
#
# Total GULP energy -297527.307537 kJ/mol
# GULP energy per Si atom -12396.971147 kJ/mol
# Density = 1.915072 g / cm^3
# Si number density = 19.194411 Si / 1000 Ang^3
#
#
#
# Elastic Constant Matrix: (Units=GPa)
#
#
# Indices 1 2 3 4 5 6 
#
# 1 93.5499 30.1234 55.7496 0.0000 0.0000 0.0000
# 2 30.1234 65.9929 52.3900 0.0000 0.0000 0.0000
# 3 55.7496 52.3900 153.7403 0.0000 0.0000 0.0000
# 4 0.0000 0.0000 0.0000 22.7095 0.0000 0.0000
# 5 0.0000 0.0000 0.0000 0.0000 28.9947 0.0000
# 6 0.0000 0.0000 0.0000 0.0000 0.0000 15.6574
#
#
#
# Elastic Compliance Matrix: (Units=1/GPa)
#
#
# Indices 1 2 3 4 5 6 
#
# 1 0.014132 -0.003266 -0.004012 0.000000 0.000000 0.000000
# 2 -0.003266 0.021528 -0.006152 0.000000 0.000000 0.000000
# 3 -0.004012 -0.006152 0.010055 0.000000 0.000000 0.000000
# 4 0.000000 0.000000 0.000000 0.044034 0.000000 0.000000
# 5 0.000000 0.000000 0.000000 0.000000 0.034489 0.000000
# 6 0.000000 0.000000 0.000000 0.000000 0.000000 0.063868
#
#
# Mechanical properties :
#
#
# Convention : Reuss Voigt Hill
#
# Bulk Modulus (GPa) = 53.03219 65.53432 59.28325
# Shear Modulus (GPa) = 22.59889 25.14031 23.86960
#
# Velocity S-wave (km/s) = 3.43500 3.62300 3.53026
# Velocity P-wave (km/s) = 6.58948 7.19153 6.89708
#
# Compressibility (1/GPa) = 0.01885647
#
# Stress axis : x y z
#
# Youngs Moduli (GPa) = 70.76258 46.45206 99.44872
#
# Poissons Ratio (x) = 0.15171 0.39894
# Poissons Ratio (y) = 0.23111 0.61177
# Poissons Ratio (z) = 0.28387 0.28576
#
# Static dielectric constant tensor:
#      x y z
#    x 3.467600 0.000000 0.000000 
#    y 0.000000 3.362420 0.000000 
#    z 0.000000 0.000000 3.679660 
# 
# 
# High freq. dielectric constant tensor:
#      x y z
#    x 1.745590 0.000000 0.000000 
#    y 0.000000 1.717970 0.000000 
#    z 0.000000 0.000000 1.741200 
# 
# From -- ./inp_files/24321.got.cif
#   From: 2010.03.12/outbox.cif.g09.slc.cpg/sg38_13_cif.got.tgz:24321.got - 2010.04.14 02:38:36.
