data_PCOD8179522
_publ_section_title
;
Structure prediction by ZEFSAII (Michael W. Deem and Ramdas Pophale) SiO2 
 PCOD8179522
Probable space group: A M M 2
;
_chemical_formula_sum "Si O2"
_cell_formula_units_Z 64
_cell_length_a 23.749267
_cell_length_b 8.702489
_cell_length_c 15.453845
_cell_angle_alpha 90.000000
_cell_angle_beta 90.000000
_cell_angle_gamma 90.000000
_cell_volume 3193.965679
_symmetry_space_group_name_H-M "A M M 2"
_symmetry_group_IT_number 38
_symmetry_cell_setting 'orthorhombic'
loop_
_space_group_symop_operation_xyz
x,y,z
-x,-y,z
-x,y,z
x,-y,z
x,1/2+y,1/2+z
-x,1/2-y,1/2+z
-x,1/2+y,1/2+z
x,1/2-y,1/2+z
loop_
_atom_site_type_symbol
_atom_site_label
_atom_site_fract_x
_atom_site_fract_y
_atom_site_fract_z
Si Si1 0.136389 0.318765 0.843910
Si Si2 0.062549 0.182763 0.188210
Si Si3 0.329065 0.179162 0.002350
Si Si4 0.263860 0.318679 0.842361
Si Si5 0.437706 0.174414 0.758686
Si Si6 0.563665 0.177138 0.439200
Si Si7 0.678157 0.822387 0.679427
Si Si8 0.065245 0.179008 0.994249
O O1 0.136666 0.500000 0.835260
O O2 0.105235 0.247905 0.759387
O O3 0.199962 0.257180 0.846817
O O4 0.104227 0.274509 0.930683
O O5 0.000000 0.246941 0.208419
O O6 0.060890 0.000000 0.192334
O O7 0.081119 0.232179 0.091644
O O8 0.395221 0.217643 0.995617
O O9 0.302861 0.265714 0.084999
O O10 0.320162 0.000000 0.015663
O O11 0.298510 0.232966 0.915905
O O12 0.268064 0.500000 0.857546
O O13 0.288800 0.277269 0.749403
O O14 0.500000 0.200535 0.717121
O O15 0.389326 0.204720 0.688093
O O16 0.432651 0.000000 0.794405
O O17 0.428276 0.289559 0.837833
O O18 0.500000 0.213604 0.468321
O O19 0.579266 0.000000 0.455578
O O20 0.694278 0.000000 0.691272
O O21 0.000000 0.215664 0.975195
O O22 0.077731 0.000000 0.981071
#
# Coordination Sequence:
#
# PCOD8179522 Si02
#       8
#     8   8   8   8   8   8   8   8
#     4  10  21  36  58  85 112 149 195 241 289 341
#     4   8  15  31  55  82 114 150 185 223 275 341
#     4  12  25  41  62  86 115 158 203 246 297 354
#     4  11  24  42  60  84 119 155 201 256 301 351
#     4   9  18  34  58  87 118 150 185 229 288 360
#     4  10  20  35  59  89 120 152 188 238 297 354
#     4  11  23  40  63  89 117 154 195 243 303 361
#     4   9  18  33  55  85 120 155 190 231 280 338
#
# _framework density 20.037785
#
# number of rings (size 3 to 8) (size 9 to 14) (size 15 to 20)
#    0.000    2.000    1.250    3.375    0.000    4.500 
#    0.000    3.125    0.000    0.750    0.000    0.000 
#    0.000    0.000    0.000    0.000    0.000    0.000 
#
# Total GULP energy -396819.111576 kJ/mol
# GULP energy per Si atom -12400.597237 kJ/mol
# Density = 1.999218 g / cm^3
# Si number density = 20.037785 Si / 1000 Ang^3
#
#
#
# Elastic Constant Matrix: (Units=GPa)
#
#
# Indices 1 2 3 4 5 6 
#
# 1 105.6642 19.5889 45.8420 0.0000 0.0000 0.0000
# 2 19.5889 40.4799 6.9454 0.0000 0.0000 0.0000
# 3 45.8420 6.9454 103.2654 0.0000 0.0000 0.0000
# 4 0.0000 0.0000 0.0000 32.9960 0.0000 0.0000
# 5 0.0000 0.0000 0.0000 0.0000 7.7428 0.0000
# 6 0.0000 0.0000 0.0000 0.0000 0.0000 19.3930
#
#
#
# Elastic Compliance Matrix: (Units=1/GPa)
#
#
# Indices 1 2 3 4 5 6 
#
# 1 0.012738 -0.005255 -0.005301 0.000000 0.000000 0.000000
# 2 -0.005255 0.027160 0.000506 0.000000 0.000000 0.000000
# 3 -0.005301 0.000506 0.012003 0.000000 0.000000 0.000000
# 4 0.000000 0.000000 0.000000 0.030307 0.000000 0.000000
# 5 0.000000 0.000000 0.000000 0.000000 0.129152 0.000000
# 6 0.000000 0.000000 0.000000 0.000000 0.000000 0.051565
#
#
# Mechanical properties :
#
#
# Convention : Reuss Voigt Hill
#
# Bulk Modulus (GPa) = 31.44567 43.79577 37.62072
# Shear Modulus (GPa) = 17.02852 23.82858 20.42855
#
# Velocity S-wave (km/s) = 2.91833 3.45219 3.19643
# Velocity P-wave (km/s) = 5.20411 6.14770 5.69548
#
# Compressibility (1/GPa) = 0.03180088
#
# Stress axis : x y z
#
# Youngs Moduli (GPa) = 78.50517 36.81940 83.31159
#
# Poissons Ratio (x) = 0.19347 0.44166
# Poissons Ratio (y) = 0.41251 -0.04215
# Poissons Ratio (z) = 0.41618 -0.01863
#
# Static dielectric constant tensor:
#      x y z
#    x 3.921780 0.000000 0.000000 
#    y 0.000000 3.444350 0.000000 
#    z 0.000000 0.000000 3.615810 
# 
# 
# High freq. dielectric constant tensor:
#      x y z
#    x 1.782710 0.000000 0.000000 
#    y 0.000000 1.766320 0.000000 
#    z 0.000000 0.000000 1.782840 
# 
# From -- ./inp_files/15855.got.cif
#   From: 2010.03.12/outbox.cif.g09.slc.cpg/sg38_8_cif.got.tgz:15855.got - 2010.04.14 02:38:36.
