data_PCOD8179519
_publ_section_title
;
Structure prediction by ZEFSAII (Michael W. Deem and Ramdas Pophale) SiO2 
 PCOD8179519
Probable space group: A M M 2
;
_chemical_formula_sum "Si O2"
_cell_formula_units_Z 48
_cell_length_a 8.676809
_cell_length_b 27.834707
_cell_length_c 10.053348
_cell_angle_alpha 90.000000
_cell_angle_beta 90.000000
_cell_angle_gamma 90.000000
_cell_volume 2428.048781
_symmetry_space_group_name_H-M "A M M 2"
_symmetry_group_IT_number 38
_symmetry_cell_setting 'orthorhombic'
loop_
_space_group_symop_operation_xyz
x,y,z
-x,-y,z
-x,y,z
x,-y,z
x,1/2+y,1/2+z
-x,1/2-y,1/2+z
-x,1/2+y,1/2+z
x,1/2-y,1/2+z
loop_
_atom_site_type_symbol
_atom_site_label
_atom_site_fract_x
_atom_site_fract_y
_atom_site_fract_z
Si Si1 0.678866 0.352590 0.830590
Si Si2 0.179068 0.445955 0.908444
Si Si3 0.321759 0.649408 0.325396
Si Si4 0.821303 0.692175 0.578000
Si Si5 0.178934 0.696704 0.077785
Si Si6 0.675796 0.446679 0.187695
O O1 0.500000 0.346020 0.800470
O O2 0.724073 0.408756 0.819190
O O3 0.775441 0.321345 0.727197
O O4 0.718107 0.334587 0.978441
O O5 0.226455 0.500000 0.866351
O O6 0.000000 0.436444 0.883507
O O7 0.212542 0.437627 0.063858
O O8 0.500000 0.661938 0.303337
O O9 0.275548 0.659974 0.476310
O O10 0.221698 0.682708 0.228068
O O11 0.288187 0.592955 0.299702
O O12 0.782967 0.747734 0.554314
O O13 0.000000 0.681435 0.556476
O O14 0.000000 0.685687 0.052251
O O15 0.500000 0.441648 0.136193
O O16 0.703968 0.500000 0.248404
#
# Coordination Sequence:
#
# PCOD8179519 Si02
#       6
#     8   8   8   8   8   8
#     4  12  24  39  61  89 120 156 197 246 298 350
#     4  10  20  35  59  89 118 151 194 242 291 347
#     4  11  22  37  60  90 119 153 194 241 295 349
#     4  11  25  42  59  82 118 161 199 244 298 351
#     4  11  23  40  62  86 115 155 201 246 295 349
#     4   9  18  34  57  86 118 150 188 236 290 346
#
# _framework density 19.768958999999999
#
# number of rings (size 3 to 8) (size 9 to 14) (size 15 to 20)
#    0.000    1.333    1.667    4.500    0.000    8.333 
#    0.000    0.833    0.000    3.000    0.000    0.000 
#    0.000    0.000    0.000    0.000    0.000    0.000 
#
# Total GULP energy -297731.387467 kJ/mol
# GULP energy per Si atom -12405.474478 kJ/mol
# Density = 1.972396 g / cm^3
# Si number density = 19.768959 Si / 1000 Ang^3
#
#
#
# Elastic Constant Matrix: (Units=GPa)
#
#
# Indices 1 2 3 4 5 6 
#
# 1 64.4211 58.3330 14.2912 0.0000 0.0000 0.0000
# 2 58.3330 113.3626 22.4046 0.0000 0.0000 0.0000
# 3 14.2912 22.4046 58.2189 0.0000 0.0000 0.0000
# 4 0.0000 0.0000 0.0000 23.0909 0.0000 0.0000
# 5 0.0000 0.0000 0.0000 0.0000 35.2006 0.0000
# 6 0.0000 0.0000 0.0000 0.0000 0.0000 27.7035
#
#
#
# Elastic Compliance Matrix: (Units=1/GPa)
#
#
# Indices 1 2 3 4 5 6 
#
# 1 0.029186 -0.014722 -0.001499 0.000000 0.000000 0.000000
# 2 -0.014722 0.016974 -0.002918 0.000000 0.000000 0.000000
# 3 -0.001499 -0.002918 0.018667 0.000000 0.000000 0.000000
# 4 0.000000 0.000000 0.000000 0.043307 0.000000 0.000000
# 5 0.000000 0.000000 0.000000 0.000000 0.028409 0.000000
# 6 0.000000 0.000000 0.000000 0.000000 0.000000 0.036097
#
#
# Mechanical properties :
#
#
# Convention : Reuss Voigt Hill
#
# Bulk Modulus (GPa) = 37.66618 47.34004 42.50311
# Shear Modulus (GPa) = 22.75134 26.59725 24.67429
#
# Velocity S-wave (km/s) = 3.39612 3.67196 3.53673
# Velocity P-wave (km/s) = 5.87134 6.47891 6.18260
#
# Compressibility (1/GPa) = 0.02654902
#
# Stress axis : x y z
#
# Youngs Moduli (GPa) = 34.26275 58.91526 53.56912
#
# Poissons Ratio (x) = 0.86736 0.08029
# Poissons Ratio (y) = 0.50442 0.15632
# Poissons Ratio (z) = 0.05136 0.17192
#
# Static dielectric constant tensor:
#      x y z
#    x 3.610240 0.000000 0.000000 
#    y 0.000000 3.881900 0.000000 
#    z 0.000000 0.000000 3.260470 
# 
# 
# High freq. dielectric constant tensor:
#      x y z
#    x 1.779710 0.000000 0.000000 
#    y 0.000000 1.788580 0.000000 
#    z 0.000000 0.000000 1.744220 
# 
# From -- ./inp_files/3728.got.cif
#   From: 2010.03.12/outbox.cif.g09.slc.cpg/sg38_2_cif.got.tgz:3728.got - 2010.04.14 02:38:36.
