data_PCOD8179837
_publ_section_title
;
Structure prediction by ZEFSAII (Michael W. Deem and Ramdas Pophale) SiO2 
 PCOD8179837
Probable space group: A M M 2
;
_chemical_formula_sum "Si O2"
_cell_formula_units_Z 64
_cell_length_a 14.181179
_cell_length_b 9.091301
_cell_length_c 31.397376
_cell_angle_alpha 90.000000
_cell_angle_beta 90.000000
_cell_angle_gamma 90.000000
_cell_volume 4047.918218
_symmetry_space_group_name_H-M "A M M 2"
_symmetry_group_IT_number 38
_symmetry_cell_setting 'orthorhombic'
loop_
_space_group_symop_operation_xyz
x,y,z
-x,-y,z
-x,y,z
x,-y,z
x,1/2+y,1/2+z
-x,1/2-y,1/2+z
-x,1/2+y,1/2+z
x,1/2-y,1/2+z
loop_
_atom_site_type_symbol
_atom_site_label
_atom_site_fract_x
_atom_site_fract_y
_atom_site_fract_z
Si Si1 0.281686 0.673411 0.490370
Si Si2 0.703505 0.325262 0.828242
Si Si3 0.102348 0.825570 0.364864
Si Si4 0.106777 0.329587 0.961056
Si Si5 0.390300 0.670447 0.157532
Si Si6 0.389698 0.826032 0.749694
Si Si7 0.611576 0.328602 0.065520
Si Si8 0.390582 0.169687 0.905983
O O1 0.277743 0.500000 0.493871
O O2 0.176120 0.737554 0.491197
O O3 0.337638 0.732716 0.530521
O O4 0.333705 0.724644 0.447233
O O5 0.695936 0.500000 0.827355
O O6 0.811499 0.270867 0.835598
O O7 0.671648 0.261177 0.783496
O O8 0.637053 0.267078 0.865662
O O9 0.117725 0.768654 0.412951
O O10 0.000000 0.768159 0.347681
O O11 0.100054 0.000000 0.366574
O O12 0.135276 0.500000 0.963588
O O13 0.000000 0.305741 0.977217
O O14 0.500000 0.700698 0.158611
O O15 0.368461 0.500000 0.156808
O O16 0.351787 0.730768 0.203011
O O17 0.351936 0.732014 0.112202
O O18 0.500000 0.788966 0.756018
O O19 0.373859 0.000000 0.755114
O O20 0.500000 0.305828 0.061440
O O21 0.637130 0.500000 0.059640
O O22 0.500000 0.193371 0.915997
O O23 0.368327 0.000000 0.895382
#
# Coordination Sequence:
#
# PCOD8179837 Si02
#       8
#     8   8   8   8   8   8   8   8
#     4  11  21  31  45  67  96 125 152 186 231 280
#     4  11  20  29  45  68  90 113 149 193 229 263
#     4   8  15  29  47  64  84 112 146 187 231 268
#     4   9  17  32  52  68  85 115 156 197 233 271
#     4   7  12  26  47  67  85 113 154 192 223 261
#     4   9  17  30  47  65  91 125 153 179 221 275
#     4   9  17  30  49  70  91 118 157 198 228 264
#     4  10  21  34  43  55  86 130 162 178 205 260
#
# _framework density 15.810596
#
# number of rings (size 3 to 8) (size 9 to 14) (size 15 to 20)
#    0.000    2.750    1.250    3.750    0.000    3.500 
#    0.000    0.625    0.000    3.750    0.000    0.875 
#    0.000    5.000    0.000    0.000    0.000    0.000 
#
# Total GULP energy -396499.766308 kJ/mol
# GULP energy per Si atom -12390.617697 kJ/mol
# Density = 1.577461 g / cm^3
# Si number density = 15.810596 Si / 1000 Ang^3
#
#
#
# Elastic Constant Matrix: (Units=GPa)
#
#
# Indices 1 2 3 4 5 6 
#
# 1 77.0176 31.7735 41.8399 0.0000 0.0000 0.0000
# 2 31.7735 47.5170 40.3287 0.0000 0.0000 0.0000
# 3 41.8399 40.3287 120.1053 0.0000 0.0000 0.0000
# 4 0.0000 0.0000 0.0000 23.8013 0.0000 0.0000
# 5 0.0000 0.0000 0.0000 0.0000 9.0023 0.0000
# 6 0.0000 0.0000 0.0000 0.0000 0.0000 19.0705
#
#
#
# Elastic Compliance Matrix: (Units=1/GPa)
#
#
# Indices 1 2 3 4 5 6 
#
# 1 0.018799 -0.009807 -0.003256 0.000000 0.000000 0.000000
# 2 -0.009807 0.034549 -0.008184 0.000000 0.000000 0.000000
# 3 -0.003256 -0.008184 0.012208 0.000000 0.000000 0.000000
# 4 0.000000 0.000000 0.000000 0.042015 0.000000 0.000000
# 5 0.000000 0.000000 0.000000 0.000000 0.111083 0.000000
# 6 0.000000 0.000000 0.000000 0.000000 0.000000 0.052437
#
#
# Mechanical properties :
#
#
# Convention : Reuss Voigt Hill
#
# Bulk Modulus (GPa) = 43.36186 52.50269 47.93227
# Shear Modulus (GPa) = 15.56313 19.08800 17.32556
#
# Velocity S-wave (km/s) = 3.14084 3.47838 3.31391
# Velocity P-wave (km/s) = 6.37483 7.02933 6.71007
#
# Compressibility (1/GPa) = 0.02306174
#
# Stress axis : x y z
#
# Youngs Moduli (GPa) = 53.19561 28.94432 81.91113
#
# Poissons Ratio (x) = 0.28385 0.26668
# Poissons Ratio (y) = 0.52169 0.67040
# Poissons Ratio (z) = 0.17319 0.23689
#
# Static dielectric constant tensor:
#      x y z
#    x 3.048970 0.000000 0.000000 
#    y 0.000000 2.791390 0.000000 
#    z 0.000000 0.000000 3.222260 
# 
# 
# High freq. dielectric constant tensor:
#      x y z
#    x 1.590120 0.000000 0.000000 
#    y 0.000000 1.587840 0.000000 
#    z 0.000000 0.000000 1.603960 
# 
# From -- ./inp_files/25034.got.cif
#   From: 2010.03.12/outbox.cif.g09.slc.cpg/sg38_13_cif.got.tgz:25034.got - 2010.04.14 02:38:36.
