data_PCOD8179459
_publ_section_title
;
Structure prediction by ZEFSAII (Michael W. Deem and Ramdas Pophale) SiO2 
 PCOD8179459
Probable space group: A M M 2
;
_chemical_formula_sum "Si O2"
_cell_formula_units_Z 64
_cell_length_a 17.988954
_cell_length_b 8.959191
_cell_length_c 20.599890
_cell_angle_alpha 90.000000
_cell_angle_beta 90.000000
_cell_angle_gamma 90.000000
_cell_volume 3320.011652
_symmetry_space_group_name_H-M "A M M 2"
_symmetry_group_IT_number 38
_symmetry_cell_setting 'orthorhombic'
loop_
_space_group_symop_operation_xyz
x,y,z
-x,-y,z
-x,y,z
x,-y,z
x,1/2+y,1/2+z
-x,1/2-y,1/2+z
-x,1/2+y,1/2+z
x,1/2-y,1/2+z
loop_
_atom_site_type_symbol
_atom_site_label
_atom_site_fract_x
_atom_site_fract_y
_atom_site_fract_z
Si Si1 0.669924 0.676405 0.697180
Si Si2 0.171835 0.176153 0.692001
Si Si3 0.911703 0.330450 0.577808
Si Si4 0.911546 0.668181 0.949785
Si Si5 0.914707 0.325683 0.320554
Si Si6 0.411681 0.167697 0.582788
Si Si7 0.411763 0.834878 0.957514
Si Si8 0.414466 0.675900 0.312686
O O1 0.674522 0.500000 0.699073
O O2 0.750428 0.742606 0.684424
O O3 0.616414 0.725278 0.639139
O O4 0.638274 0.734012 0.765076
O O5 0.117962 0.227580 0.635004
O O6 0.134479 0.223325 0.759644
O O7 0.183465 0.000000 0.687608
O O8 0.883024 0.500000 0.585230
O O9 0.881118 0.265190 0.509857
O O10 0.000000 0.323573 0.579829
O O11 0.881089 0.500000 0.955930
O O12 0.882431 0.738917 0.882757
O O13 0.000000 0.671126 0.949927
O O14 0.908020 0.500000 0.335392
O O15 0.000000 0.281427 0.305991
O O16 0.500000 0.171907 0.584119
O O17 0.381358 0.223806 0.512853
O O18 0.381995 0.000000 0.593873
O O19 0.500000 0.843761 0.959887
O O20 0.388687 0.780100 0.885597
O O21 0.378936 0.000000 0.970750
O O22 0.500000 0.721724 0.300442
O O23 0.404425 0.500000 0.300832
#
# Coordination Sequence:
#
# PCOD8179459 Si02
#       8
#     8   8   8   8   8   8   8   8
#     4  12  25  38  53  76 109 146 184 226 270 319
#     4  11  23  39  57  77 107 145 184 226 270 320
#     4  10  20  35  57  84 113 143 177 220 268 319
#     4   9  17  30  52  82 112 141 176 219 264 312
#     4   9  18  34  57  83 108 136 173 219 271 323
#     4  10  20  35  57  83 110 141 179 223 269 319
#     4   8  15  30  54  83 111 137 170 217 270 321
#     4   9  18  35  59  84 110 141 177 218 266 320
#
# _framework density 19.27704
#
# number of rings (size 3 to 8) (size 9 to 14) (size 15 to 20)
#    0.000    2.250    0.000    4.125    0.000    6.750 
#    0.000    3.750    0.000    4.500    0.000    0.000 
#    0.000    0.000    0.000    0.000    0.000    0.000 
#
# Total GULP energy -396831.954163 kJ/mol
# GULP energy per Si atom -12400.998568 kJ/mol
# Density = 1.923316 g / cm^3
# Si number density = 19.277040 Si / 1000 Ang^3
#
#
#
# Elastic Constant Matrix: (Units=GPa)
#
#
# Indices 1 2 3 4 5 6 
#
# 1 26.4069 24.7367 21.4171 0.0000 0.0000 0.0000
# 2 24.7367 99.5132 60.9093 0.0000 0.0000 0.0000
# 3 21.4171 60.9093 146.9599 0.0000 0.0000 0.0000
# 4 0.0000 0.0000 0.0000 38.0206 0.0000 0.0000
# 5 0.0000 0.0000 0.0000 0.0000 -1.0134 0.0000
# 6 0.0000 0.0000 0.0000 0.0000 0.0000 25.4153
#
#
#
# Elastic Compliance Matrix: (Units=1/GPa)
#
#
# Indices 1 2 3 4 5 6 
#
# 1 0.050254 -0.010732 -0.002876 0.000000 0.000000 0.000000
# 2 -0.010732 0.015756 -0.004966 0.000000 0.000000 0.000000
# 3 -0.002876 -0.004966 0.009282 0.000000 0.000000 0.000000
# 4 0.000000 0.000000 0.000000 0.026302 0.000000 0.000000
# 5 0.000000 0.000000 0.000000 0.000000 -0.986772 0.000000
# 6 0.000000 0.000000 0.000000 0.000000 0.000000 0.039346
#
#
# Mechanical properties :
#
#
# Convention : Reuss Voigt Hill
#
# Bulk Modulus (GPa) = 26.21601 54.11180 40.16391
# Shear Modulus (GPa) = -6.28166 23.53897 8.62865
#
# Velocity S-wave (km/s) = -1.80712 3.49820 2.11798
# Velocity P-wave (km/s) = 3.04547 6.66694 5.18280
#
# Compressibility (1/GPa) = 0.03814463
#
# Stress axis : x y z
#
# Youngs Moduli (GPa) = 19.89874 63.46613 107.73443
#
# Poissons Ratio (x) = 0.68111 0.30983
# Poissons Ratio (y) = 0.21355 0.53506
# Poissons Ratio (z) = 0.05723 0.31520
#
# Static dielectric constant tensor:
#      x y z
#    x 3.173480 0.000000 0.000000 
#    y 0.000000 3.675170 0.000000 
#    z 0.000000 0.000000 3.786540 
# 
# 
# High freq. dielectric constant tensor:
#      x y z
#    x 1.714210 0.000000 0.000000 
#    y 0.000000 1.755290 0.000000 
#    z 0.000000 0.000000 1.768560 
# 
# From -- ./inp_files/21355.got.cif
#   From: 2010.03.12/outbox.cif.g09.slc.cpg/sg38_11_cif.got.tgz:21355.got - 2010.04.14 02:38:36.
