data_PCOD8179841
_publ_section_title
;
Structure prediction by ZEFSAII (Michael W. Deem and Ramdas Pophale) SiO2 
 PCOD8179841
Probable space group: A M M 2
;
_chemical_formula_sum "Si O2"
_cell_formula_units_Z 40
_cell_length_a 9.373400
_cell_length_b 7.734283
_cell_length_c 29.436392
_cell_angle_alpha 90.000000
_cell_angle_beta 90.000000
_cell_angle_gamma 90.000000
_cell_volume 2134.036225
_symmetry_space_group_name_H-M "A M M 2"
_symmetry_group_IT_number 38
_symmetry_cell_setting 'orthorhombic'
loop_
_space_group_symop_operation_xyz
x,y,z
-x,-y,z
-x,y,z
x,-y,z
x,1/2+y,1/2+z
-x,1/2-y,1/2+z
-x,1/2+y,1/2+z
x,1/2-y,1/2+z
loop_
_atom_site_type_symbol
_atom_site_label
_atom_site_fract_x
_atom_site_fract_y
_atom_site_fract_z
Si Si1 0.667134 0.299801 0.066990
Si Si2 0.668553 0.000000 0.133254
Si Si3 0.669694 0.191464 0.796562
Si Si4 0.329280 0.500000 0.734869
Si Si5 0.843300 0.301365 0.981570
Si Si6 0.659135 0.296757 0.397948
O O1 0.500000 0.278309 0.057307
O O2 0.703583 0.500000 0.078987
O O3 0.718086 0.175761 0.108011
O O4 0.746587 0.226850 0.022241
O O5 0.733768 0.000000 0.183943
O O6 0.500000 0.000000 0.137132
O O7 0.500000 0.184268 0.795098
O O8 0.729616 0.329511 0.760481
O O9 0.715285 0.248438 0.847392
O O10 0.730456 0.000000 0.784772
O O11 0.500000 0.500000 0.735253
O O12 0.864473 0.500000 0.992354
O O13 0.768307 0.283701 0.933233
O O14 0.000000 0.211082 0.980714
O O15 0.500000 0.219583 0.405685
O O16 0.653800 0.500000 0.404883
#
# Coordination Sequence:
#
# PCOD8179841 Si02
#       6
#     8   4   8   4   8   8
#     4   9  18  33  50  69  98 133 166 205 252 299
#     4   9  18  30  47  73  99 127 169 209 248 301
#     4   8  15  27  42  66 100 131 161 197 240 295
#     4   9  16  26  44  71  99 129 161 201 252 295
#     4  10  21  34  48  71 100 130 167 209 253 301
#     4   9  18  31  48  72 100 132 169 205 243 294
#
# _framework density 18.743824
#
# number of rings (size 3 to 8) (size 9 to 14) (size 15 to 20)
#    0.000    3.000    0.000    1.800    2.800    2.400 
#    0.000    4.000    0.000    0.000    0.000    2.800 
#    0.000    3.200    0.000    0.000    0.000    0.000 
#
# Total GULP energy -247875.146707 kJ/mol
# GULP energy per Si atom -12393.757335 kJ/mol
# Density = 1.870116 g / cm^3
# Si number density = 18.743824 Si / 1000 Ang^3
#
#
#
# Elastic Constant Matrix: (Units=GPa)
#
#
# Indices 1 2 3 4 5 6 
#
# 1 56.8001 26.1199 45.4916 0.0000 0.0000 0.0000
# 2 26.1199 94.4404 74.7792 0.0000 0.0000 0.0000
# 3 45.4916 74.7792 171.9498 0.0000 0.0000 0.0000
# 4 0.0000 0.0000 0.0000 33.6935 0.0000 0.0000
# 5 0.0000 0.0000 0.0000 0.0000 0.4019 0.0000
# 6 0.0000 0.0000 0.0000 0.0000 0.0000 7.8469
#
#
#
# Elastic Compliance Matrix: (Units=1/GPa)
#
#
# Indices 1 2 3 4 5 6 
#
# 1 0.022667 -0.002319 -0.004988 0.000000 0.000000 0.000000
# 2 -0.002319 0.016387 -0.006513 0.000000 0.000000 0.000000
# 3 -0.004988 -0.006513 0.009968 0.000000 0.000000 0.000000
# 4 0.000000 0.000000 0.000000 0.029679 0.000000 0.000000
# 5 0.000000 0.000000 0.000000 0.000000 2.488363 0.000000
# 6 0.000000 0.000000 0.000000 0.000000 0.000000 0.127439
#
#
# Mechanical properties :
#
#
# Convention : Reuss Voigt Hill
#
# Bulk Modulus (GPa) = 46.77057 68.44132 57.60594
# Shear Modulus (GPa) = 1.83199 20.17507 11.00353
#
# Velocity S-wave (km/s) = 0.98970 3.28435 2.42554
# Velocity P-wave (km/s) = 5.12959 7.13974 6.21646
#
# Compressibility (1/GPa) = 0.02138097
#
# Stress axis : x y z
#
# Youngs Moduli (GPa) = 44.11635 61.02279 100.32299
#
# Poissons Ratio (x) = 0.14154 0.50043
# Poissons Ratio (y) = 0.10233 0.65341
# Poissons Ratio (z) = 0.22006 0.39744
#
# Static dielectric constant tensor:
#      x y z
#    x 3.250740 0.000000 0.000000 
#    y 0.000000 3.583750 0.000000 
#    z 0.000000 0.000000 3.668770 
# 
# 
# High freq. dielectric constant tensor:
#      x y z
#    x 1.673440 0.000000 0.000000 
#    y 0.000000 1.731570 0.000000 
#    z 0.000000 0.000000 1.727850 
# 
# From -- ./inp_files/23217.got.cif
#   From: 2010.03.12/outbox.cif.g09.slc.cpg/sg38_12_cif.got.tgz:23217.got - 2010.04.14 02:38:36.
