data_PCOD8179728
_publ_section_title
;
Structure prediction by ZEFSAII (Michael W. Deem and Ramdas Pophale) SiO2 
 PCOD8179728
Probable space group: A M M 2
;
_chemical_formula_sum "Si O2"
_cell_formula_units_Z 48
_cell_length_a 8.855125
_cell_length_b 14.394572
_cell_length_c 20.262025
_cell_angle_alpha 90.000000
_cell_angle_beta 90.000000
_cell_angle_gamma 90.000000
_cell_volume 2582.713897
_symmetry_space_group_name_H-M "A M M 2"
_symmetry_group_IT_number 38
_symmetry_cell_setting 'orthorhombic'
loop_
_space_group_symop_operation_xyz
x,y,z
-x,-y,z
-x,y,z
x,-y,z
x,1/2+y,1/2+z
-x,1/2-y,1/2+z
-x,1/2+y,1/2+z
x,1/2-y,1/2+z
loop_
_atom_site_type_symbol
_atom_site_label
_atom_site_fract_x
_atom_site_fract_y
_atom_site_fract_z
Si Si1 0.675987 0.685760 0.972510
Si Si2 0.178392 0.805938 0.228767
Si Si3 0.178892 0.500000 0.787785
Si Si4 0.822045 0.500000 0.539246
Si Si5 0.326624 0.500000 0.399062
Si Si6 0.674976 0.198492 0.844119
Si Si7 0.322358 0.316135 0.592771
Si Si8 0.821780 0.500000 0.936041
O O1 0.500000 0.662862 0.970561
O O2 0.724493 0.746836 0.909687
O O3 0.766457 0.590219 0.974749
O O4 0.721553 0.741091 0.037852
O O5 0.236177 0.908305 0.250205
O O6 0.221255 0.731460 0.284278
O O7 0.263893 0.777019 0.162301
O O8 0.000000 0.804178 0.217364
O O9 0.246300 0.500000 0.861818
O O10 0.000000 0.500000 0.792039
O O11 0.777450 0.500000 0.462974
O O12 0.759791 0.588414 0.577249
O O13 0.000000 0.500000 0.545652
O O14 0.500000 0.500000 0.424170
O O15 0.292901 0.410345 0.354654
O O16 0.500000 0.216761 0.827382
O O17 0.500000 0.333948 0.594427
O O18 0.000000 0.500000 0.934275
#
# Coordination Sequence:
#
# PCOD8179728 Si02
#       8
#     8   8   4   4   4   8   8   4
#     4  10  21  38  61  86 115 151 200 247 285 339
#     4  11  22  38  58  86 123 155 192 241 297 357
#     4   9  19  34  53  81 118 152 179 225 286 342
#     4  12  23  35  58  92 126 155 190 243 306 360
#     4  10  20  39  62  87 118 154 204 248 287 348
#     4  10  20  37  61  86 114 154 201 246 289 344
#     4  11  23  41  61  85 119 159 201 244 292 351
#     4  11  21  36  59  88 120 151 189 236 295 352
#
# _framework density 18.585101000000002
#
# number of rings (size 3 to 8) (size 9 to 14) (size 15 to 20)
#    0.000    1.500    3.333    2.500    0.000    2.667 
#    0.000    2.083    0.000    2.000    0.000    0.000 
#    0.000    0.000    0.000    0.000    0.000    0.000 
#
# Total GULP energy -297736.817002 kJ/mol
# GULP energy per Si atom -12405.700708 kJ/mol
# Density = 1.854280 g / cm^3
# Si number density = 18.585101 Si / 1000 Ang^3
#
#
#
# Elastic Constant Matrix: (Units=GPa)
#
#
# Indices 1 2 3 4 5 6 
#
# 1 72.4466 48.4514 51.6327 0.0000 0.0000 0.0000
# 2 48.4514 136.3595 61.0572 0.0000 0.0000 0.0000
# 3 51.6327 61.0572 141.4303 0.0000 0.0000 0.0000
# 4 0.0000 0.0000 0.0000 20.5678 0.0000 0.0000
# 5 0.0000 0.0000 0.0000 0.0000 31.2446 0.0000
# 6 0.0000 0.0000 0.0000 0.0000 0.0000 17.1951
#
#
#
# Elastic Compliance Matrix: (Units=1/GPa)
#
#
# Indices 1 2 3 4 5 6 
#
# 1 0.021108 -0.005020 -0.005539 0.000000 0.000000 0.000000
# 2 -0.005020 0.010285 -0.002607 0.000000 0.000000 0.000000
# 3 -0.005539 -0.002607 0.010218 0.000000 0.000000 0.000000
# 4 0.000000 0.000000 0.000000 0.048620 0.000000 0.000000
# 5 0.000000 0.000000 0.000000 0.000000 0.032005 0.000000
# 6 0.000000 0.000000 0.000000 0.000000 0.000000 0.058156
#
#
# Mechanical properties :
#
#
# Convention : Reuss Voigt Hill
#
# Bulk Modulus (GPa) = 65.45038 74.72432 70.08735
# Shear Modulus (GPa) = 23.60516 26.40784 25.00650
#
# Velocity S-wave (km/s) = 3.56773 3.77359 3.67210
# Velocity P-wave (km/s) = 7.22943 7.69938 7.46810
#
# Compressibility (1/GPa) = 0.01527875
#
# Stress axis : x y z
#
# Youngs Moduli (GPa) = 47.37500 97.23101 97.86320
#
# Poissons Ratio (x) = 0.48811 0.54205
# Poissons Ratio (y) = 0.23783 0.25517
# Poissons Ratio (z) = 0.26240 0.25352
#
# Static dielectric constant tensor:
#      x y z
#    x 3.323720 0.000000 0.000000 
#    y 0.000000 3.454920 0.000000 
#    z 0.000000 0.000000 3.443410 
# 
# 
# High freq. dielectric constant tensor:
#      x y z
#    x 1.717550 0.000000 0.000000 
#    y 0.000000 1.723720 0.000000 
#    z 0.000000 0.000000 1.722280 
# 
# From -- ./inp_files/16737.got.cif
#   From: 2010.03.12/outbox.cif.g09.slc.cpg/sg38_9_cif.got.tgz:16737.got - 2010.04.14 02:38:36.
