data_PCOD8179873
_publ_section_title
;
Structure prediction by ZEFSAII (Michael W. Deem and Ramdas Pophale) SiO2 
 PCOD8179873
Probable space group: A M M 2
;
_chemical_formula_sum "Si O2"
_cell_formula_units_Z 40
_cell_length_a 9.445888
_cell_length_b 9.447133
_cell_length_c 25.584364
_cell_angle_alpha 90.000000
_cell_angle_beta 90.000000
_cell_angle_gamma 90.000000
_cell_volume 2283.060639
_symmetry_space_group_name_H-M "A M M 2"
_symmetry_group_IT_number 38
_symmetry_cell_setting 'orthorhombic'
loop_
_space_group_symop_operation_xyz
x,y,z
-x,-y,z
-x,y,z
x,-y,z
x,1/2+y,1/2+z
-x,1/2-y,1/2+z
-x,1/2+y,1/2+z
x,1/2-y,1/2+z
loop_
_atom_site_type_symbol
_atom_site_label
_atom_site_fract_x
_atom_site_fract_y
_atom_site_fract_z
Si Si1 0.165645 0.335668 0.760740
Si Si2 0.664595 0.663348 0.947123
Si Si3 0.831935 0.656314 0.643830
Si Si4 0.665653 0.664516 0.345644
Si Si5 0.836050 0.335465 0.047603
O O1 0.200574 0.500000 0.772408
O O2 0.214231 0.295409 0.701840
O O3 0.252216 0.233251 0.797880
O O4 0.000000 0.306885 0.768997
O O5 0.500000 0.684140 0.959516
O O6 0.700264 0.500000 0.934262
O O7 0.713972 0.758124 0.898605
O O8 0.750904 0.717972 0.997199
O O9 0.771737 0.500000 0.632095
O O10 0.773244 0.760478 0.599266
O O11 0.000000 0.653217 0.642458
O O12 0.500000 0.687427 0.335879
O O13 0.705412 0.500000 0.350103
O O14 0.811694 0.500000 0.056797
O O15 0.000000 0.297941 0.038553
#
# Coordination Sequence:
#
# PCOD8179873 Si02
#       5
#     8   8   8   8   8
#     4   9  18  33  53  75  98 127 164 202 239 285
#     4   9  18  33  50  66  90 127 163 194 236 288
#     4   8  15  29  48  70  96 124 153 188 233 282
#     4  10  21  35  50  71  99 129 162 202 247 291
#     4   9  17  29  47  71  95 120 154 194 233 277
#
# _framework density 17.520340999999998
#
# number of rings (size 3 to 8) (size 9 to 14) (size 15 to 20)
#    0.000    3.000    0.000    1.800    0.000    4.000 
#    0.000    5.000    0.000    3.600    0.000    0.000 
#    0.000    0.000    0.000    0.000    0.000    0.000 
#
# Total GULP energy -247969.460527 kJ/mol
# GULP energy per Si atom -12398.473026 kJ/mol
# Density = 1.748046 g / cm^3
# Si number density = 17.520341 Si / 1000 Ang^3
#
#
#
# Elastic Constant Matrix: (Units=GPa)
#
#
# Indices 1 2 3 4 5 6 
#
# 1 39.4089 41.0099 57.2216 0.0000 0.0000 0.0000
# 2 41.0099 99.1000 95.9465 0.0000 0.0000 0.0000
# 3 57.2216 95.9465 181.5194 0.0000 0.0000 0.0000
# 4 0.0000 0.0000 0.0000 39.2486 0.0000 0.0000
# 5 0.0000 0.0000 0.0000 0.0000 -12.9998 0.0000
# 6 0.0000 0.0000 0.0000 0.0000 0.0000 22.6321
#
#
#
# Elastic Compliance Matrix: (Units=1/GPa)
#
#
# Indices 1 2 3 4 5 6 
#
# 1 0.052698 -0.011724 -0.010416 0.000000 0.000000 0.000000
# 2 -0.011724 0.023276 -0.008607 0.000000 0.000000 0.000000
# 3 -0.010416 -0.008607 0.013342 0.000000 0.000000 0.000000
# 4 0.000000 0.000000 0.000000 0.025479 0.000000 0.000000
# 5 0.000000 0.000000 0.000000 0.000000 -0.076924 0.000000
# 6 0.000000 0.000000 0.000000 0.000000 0.000000 0.044185
#
#
# Mechanical properties :
#
#
# Convention : Reuss Voigt Hill
#
# Bulk Modulus (GPa) = 35.94134 78.70938 57.32536
# Shear Modulus (GPa) = 32.71757 18.16617 25.44187
#
# Velocity S-wave (km/s) = 4.32604 3.22353 3.81482
# Velocity P-wave (km/s) = 6.74621 7.67313 7.22455
#
# Compressibility (1/GPa) = 0.02782311
#
# Stress axis : x y z
#
# Youngs Moduli (GPa) = 18.97588 42.96344 74.95129
#
# Poissons Ratio (x) = 0.50369 0.78067
# Poissons Ratio (y) = 0.22247 0.64512
# Poissons Ratio (z) = 0.19765 0.36979
#
# Static dielectric constant tensor:
#      x y z
#    x 3.037700 0.000000 0.000000 
#    y 0.000000 3.329400 0.000000 
#    z 0.000000 0.000000 3.487650 
# 
# 
# High freq. dielectric constant tensor:
#      x y z
#    x 1.649960 0.000000 0.000000 
#    y 0.000000 1.675240 0.000000 
#    z 0.000000 0.000000 1.688990 
# 
# From -- ./inp_files/17465.got.cif
#   From: 2010.03.12/outbox.cif.g09.slc.cpg/sg38_9_cif.got.tgz:17465.got - 2010.04.14 02:38:36.
