data_PCOD8179226
_publ_section_title
;
Structure prediction by ZEFSAII (Michael W. Deem and Ramdas Pophale) SiO2 
 PCOD8179226
Probable space group: A M M 2
;
_chemical_formula_sum "Si O2"
_cell_formula_units_Z 64
_cell_length_a 17.927024
_cell_length_b 9.210195
_cell_length_c 20.553001
_cell_angle_alpha 90.000000
_cell_angle_beta 90.000000
_cell_angle_gamma 90.000000
_cell_volume 3393.534498
_symmetry_space_group_name_H-M "A M M 2"
_symmetry_group_IT_number 38
_symmetry_cell_setting 'orthorhombic'
loop_
_space_group_symop_operation_xyz
x,y,z
-x,-y,z
-x,y,z
x,-y,z
x,1/2+y,1/2+z
-x,1/2-y,1/2+z
-x,1/2+y,1/2+z
x,1/2-y,1/2+z
loop_
_atom_site_type_symbol
_atom_site_label
_atom_site_fract_x
_atom_site_fract_y
_atom_site_fract_z
Si Si1 0.088544 0.160628 0.533890
Si Si2 0.588707 0.163882 0.547805
Si Si3 0.914076 0.670622 0.179423
Si Si4 0.334564 0.333190 0.806082
Si Si5 0.413814 0.168230 0.173812
Si Si6 0.911357 0.837099 0.912135
Si Si7 0.587141 0.669337 0.421017
Si Si8 0.839985 0.332041 0.794741
O O1 0.111408 0.212137 0.606167
O O2 0.120226 0.270188 0.479564
O O3 0.000000 0.152712 0.530449
O O4 0.121290 0.000000 0.519812
O O5 0.500000 0.167399 0.547999
O O6 0.618125 0.240199 0.613263
O O7 0.618420 0.250296 0.485060
O O8 0.619585 0.000000 0.545141
O O9 0.903588 0.500000 0.192083
O O10 0.861222 0.760666 0.226478
O O11 0.000000 0.714378 0.191559
O O12 0.356320 0.500000 0.821221
O O13 0.366379 0.286099 0.736327
O O14 0.369717 0.228883 0.859166
O O15 0.246834 0.309383 0.806745
O O16 0.500000 0.204956 0.188100
O O17 0.403523 0.000000 0.156231
O O18 0.885429 0.742172 0.852060
O O19 0.000000 0.837958 0.912708
O O20 0.879743 0.000000 0.905589
O O21 0.500000 0.700940 0.410970
O O22 0.603555 0.500000 0.429144
O O23 0.862201 0.500000 0.792687
#
# Coordination Sequence:
#
# PCOD8179226 Si02
#       8
#     8   8   8   8   8   8   8   8
#     4   8  15  30  53  79 104 130 165 212 262 309
#     4   9  17  30  51  79 108 135 166 208 255 303
#     4   9  18  34  56  80 105 134 169 210 258 311
#     4  10  22  38  53  73 104 141 178 214 256 306
#     4   9  17  32  55  78 100 130 169 213 259 305
#     4  10  20  34  54  79 105 135 173 215 259 309
#     4  10  20  34  55  82 107 133 170 214 258 306
#     4  11  23  36  51  74 105 140 178 217 255 302
#
# _framework density 18.859393000000001
#
# number of rings (size 3 to 8) (size 9 to 14) (size 15 to 20)
#    0.000    2.500    0.000    3.000    0.000    7.250 
#    0.000    3.750    0.000    3.000    0.000    0.000 
#    0.000    0.000    0.000    0.000    0.000    0.000 
#
# Total GULP energy -396833.943583 kJ/mol
# GULP energy per Si atom -12401.060737 kJ/mol
# Density = 1.881647 g / cm^3
# Si number density = 18.859393 Si / 1000 Ang^3
#
#
#
# Elastic Constant Matrix: (Units=GPa)
#
#
# Indices 1 2 3 4 5 6 
#
# 1 20.0223 22.7168 17.4778 0.0000 0.0000 0.0000
# 2 22.7168 105.1952 70.7826 0.0000 0.0000 0.0000
# 3 17.4778 70.7826 140.3642 0.0000 0.0000 0.0000
# 4 0.0000 0.0000 0.0000 39.8463 0.0000 0.0000
# 5 0.0000 0.0000 0.0000 0.0000 -0.7294 0.0000
# 6 0.0000 0.0000 0.0000 0.0000 0.0000 20.5850
#
#
#
# Elastic Compliance Matrix: (Units=1/GPa)
#
#
# Indices 1 2 3 4 5 6 
#
# 1 0.066380 -0.013279 -0.001569 0.000000 0.000000 0.000000
# 2 -0.013279 0.017045 -0.006942 0.000000 0.000000 0.000000
# 3 -0.001569 -0.006942 0.010820 0.000000 0.000000 0.000000
# 4 0.000000 0.000000 0.000000 0.025096 0.000000 0.000000
# 5 0.000000 0.000000 0.000000 0.000000 -1.371064 0.000000
# 6 0.000000 0.000000 0.000000 0.000000 0.000000 0.048579
#
#
# Mechanical properties :
#
#
# Convention : Reuss Voigt Hill
#
# Bulk Modulus (GPa) = 19.73745 54.17068 36.95406
# Shear Modulus (GPa) = -4.37569 22.24737 8.93584
#
# Velocity S-wave (km/s) = -1.52486 3.43832 2.17909
# Velocity P-wave (km/s) = 2.71809 6.67447 5.09591
#
# Compressibility (1/GPa) = 0.05066510
#
# Stress axis : x y z
#
# Youngs Moduli (GPa) = 15.06484 58.66969 92.41876
#
# Poissons Ratio (x) = 0.77906 0.14503
# Poissons Ratio (y) = 0.20004 0.64155
# Poissons Ratio (z) = 0.02364 0.40727
#
# Static dielectric constant tensor:
#      x y z
#    x 3.090850 0.000000 0.000000 
#    y 0.000000 3.622150 0.000000 
#    z 0.000000 0.000000 3.667600 
# 
# 
# High freq. dielectric constant tensor:
#      x y z
#    x 1.695730 0.000000 0.000000 
#    y 0.000000 1.738290 0.000000 
#    z 0.000000 0.000000 1.749370 
# 
# From -- ./inp_files/21399.got.cif
#   From: 2010.03.12/outbox.cif.g09.slc.cpg/sg38_11_cif.got.tgz:21399.got - 2010.04.14 02:38:36.
