data_PCOD8179111
_publ_section_title
;
Structure prediction by ZEFSAII (Michael W. Deem and Ramdas Pophale) SiO2 
 PCOD8179111
Probable space group: A M M 2
;
_chemical_formula_sum "Si O2"
_cell_formula_units_Z 64
_cell_length_a 23.741520
_cell_length_b 8.785561
_cell_length_c 15.391455
_cell_angle_alpha 90.000000
_cell_angle_beta 90.000000
_cell_angle_gamma 90.000000
_cell_volume 3210.389274
_symmetry_space_group_name_H-M "A M M 2"
_symmetry_group_IT_number 38
_symmetry_cell_setting 'orthorhombic'
loop_
_space_group_symop_operation_xyz
x,y,z
-x,-y,z
-x,y,z
x,-y,z
x,1/2+y,1/2+z
-x,1/2-y,1/2+z
-x,1/2+y,1/2+z
x,1/2-y,1/2+z
loop_
_atom_site_type_symbol
_atom_site_label
_atom_site_fract_x
_atom_site_fract_y
_atom_site_fract_z
Si Si1 0.748137 0.671993 0.349280
Si Si2 0.862895 0.678467 0.866285
Si Si3 0.063267 0.681045 0.706119
Si Si4 0.381015 0.181267 0.112477
Si Si5 0.565382 0.324938 0.949485
Si Si6 0.371878 0.678711 0.289678
Si Si7 0.263715 0.672834 0.549298
Si Si8 0.140260 0.181780 0.050488
O O1 0.768786 0.500000 0.331636
O O2 0.800345 0.783443 0.331353
O O3 0.695086 0.715959 0.289552
O O4 0.726196 0.687477 0.447095
O O5 0.867550 0.500000 0.881207
O O6 0.907196 0.736592 0.794422
O O7 0.878541 0.760953 0.955912
O O8 0.063021 0.500000 0.702514
O O9 0.097051 0.743973 0.622453
O O10 0.000000 0.746820 0.703222
O O11 0.399587 0.233849 0.208389
O O12 0.317789 0.248504 0.095315
O O13 0.383578 0.000000 0.103915
O O14 0.423776 0.253139 0.043815
O O15 0.500000 0.308643 0.927308
O O16 0.584670 0.500000 0.949590
O O17 0.600108 0.234570 0.877781
O O18 0.382714 0.500000 0.280797
O O19 0.261643 0.500000 0.580508
O O20 0.202950 0.746933 0.573507
O O21 0.142011 0.000000 0.046385
#
# Coordination Sequence:
#
# PCOD8179111 Si02
#       8
#     8   8   8   8   8   8   8   8
#     4   9  18  36  58  82 117 155 191 234 288 351
#     4  10  20  33  54  84 113 144 186 240 293 339
#     4   9  19  35  55  79 109 150 196 234 277 342
#     4  11  22  38  62  92 124 158 197 241 294 356
#     4  11  25  45  66  89 120 158 202 249 293 347
#     4  11  23  40  62  91 123 159 199 245 298 351
#     4   8  15  31  55  81 111 147 186 231 284 340
#     4   9  18  35  56  77 109 150 190 232 281 343
#
# _framework density 19.935276999999999
#
# number of rings (size 3 to 8) (size 9 to 14) (size 15 to 20)
#    0.000    2.250    1.250    2.250    1.750    3.000 
#    0.000    1.875    0.000    2.625    0.000    0.000 
#    0.000    0.000    0.000    0.000    0.000    0.000 
#
# Total GULP energy -396751.828199 kJ/mol
# GULP energy per Si atom -12398.494631 kJ/mol
# Density = 1.988990 g / cm^3
# Si number density = 19.935277 Si / 1000 Ang^3
#
#
#
# Elastic Constant Matrix: (Units=GPa)
#
#
# Indices 1 2 3 4 5 6 
#
# 1 82.7645 27.7368 32.3150 0.0000 0.0000 0.0000
# 2 27.7368 50.8865 17.9944 0.0000 0.0000 0.0000
# 3 32.3150 17.9944 82.6693 0.0000 0.0000 0.0000
# 4 0.0000 0.0000 0.0000 31.1523 0.0000 0.0000
# 5 0.0000 0.0000 0.0000 0.0000 27.9945 0.0000
# 6 0.0000 0.0000 0.0000 0.0000 0.0000 22.5468
#
#
#
# Elastic Compliance Matrix: (Units=1/GPa)
#
#
# Indices 1 2 3 4 5 6 
#
# 1 0.016391 -0.007225 -0.004835 0.000000 0.000000 0.000000
# 2 -0.007225 0.024475 -0.002503 0.000000 0.000000 0.000000
# 3 -0.004835 -0.002503 0.014531 0.000000 0.000000 0.000000
# 4 0.000000 0.000000 0.000000 0.032100 0.000000 0.000000
# 5 0.000000 0.000000 0.000000 0.000000 0.035721 0.000000
# 6 0.000000 0.000000 0.000000 0.000000 0.000000 0.044352
#
#
# Mechanical properties :
#
#
# Convention : Reuss Voigt Hill
#
# Bulk Modulus (GPa) = 38.06362 41.37920 39.72141
# Shear Modulus (GPa) = 24.33634 25.55699 24.94667
#
# Velocity S-wave (km/s) = 3.49774 3.58438 3.54133
# Velocity P-wave (km/s) = 5.95376 6.15892 6.05721
#
# Compressibility (1/GPa) = 0.02627181
#
# Stress axis : x y z
#
# Youngs Moduli (GPa) = 61.00750 40.85830 68.81787
#
# Poissons Ratio (x) = 0.29520 0.33271
# Poissons Ratio (y) = 0.44077 0.17227
# Poissons Ratio (z) = 0.29495 0.10228
#
# Static dielectric constant tensor:
#      x y z
#    x 3.796300 0.000000 0.000000 
#    y 0.000000 3.352530 0.000000 
#    z 0.000000 0.000000 3.627150 
# 
# 
# High freq. dielectric constant tensor:
#      x y z
#    x 1.777310 0.000000 0.000000 
#    y 0.000000 1.752780 0.000000 
#    z 0.000000 0.000000 1.782290 
# 
# From -- ./inp_files/15868.got.cif
#   From: 2010.03.12/outbox.cif.g09.slc.cpg/sg38_8_cif.got.tgz:15868.got - 2010.04.14 02:38:36.
