data_PCOD8179093
_publ_section_title
;
Structure prediction by ZEFSAII (Michael W. Deem and Ramdas Pophale) SiO2 
 PCOD8179093
Probable space group: A M M 2
;
_chemical_formula_sum "Si O2"
_cell_formula_units_Z 64
_cell_length_a 8.963288
_cell_length_b 19.458450
_cell_length_c 20.734594
_cell_angle_alpha 90.000000
_cell_angle_beta 90.000000
_cell_angle_gamma 90.000000
_cell_volume 3616.355610
_symmetry_space_group_name_H-M "A M M 2"
_symmetry_group_IT_number 38
_symmetry_cell_setting 'orthorhombic'
loop_
_space_group_symop_operation_xyz
x,y,z
-x,-y,z
-x,y,z
x,-y,z
x,1/2+y,1/2+z
-x,1/2-y,1/2+z
-x,1/2+y,1/2+z
x,1/2-y,1/2+z
loop_
_atom_site_type_symbol
_atom_site_label
_atom_site_fract_x
_atom_site_fract_y
_atom_site_fract_z
Si Si1 0.824150 0.208705 0.123660
Si Si2 0.323026 0.074420 0.310352
Si Si3 0.674267 0.922892 0.164704
Si Si4 0.323164 0.284034 0.865285
Si Si5 0.173043 0.712306 0.996057
Si Si6 0.830329 0.923433 0.562942
Si Si7 0.673387 0.078312 0.695727
Si Si8 0.823097 0.793584 0.748344
O O1 0.758272 0.132089 0.120398
O O2 0.766221 0.249808 0.186622
O O3 0.000000 0.203795 0.126000
O O4 0.771242 0.247825 0.059513
O O5 0.500000 0.072926 0.308346
O O6 0.264793 0.085231 0.237555
O O7 0.266751 0.137401 0.354009
O O8 0.264528 0.000000 0.336534
O O9 0.500000 0.906912 0.161540
O O10 0.708078 0.000000 0.139311
O O11 0.500000 0.277314 0.859953
O O12 0.269273 0.261352 0.935869
O O13 0.249410 0.235246 0.812889
O O14 0.000000 0.726952 0.981739
O O15 0.203672 0.631079 0.006751
O O16 0.719901 0.910373 0.621859
O O17 0.000000 0.912661 0.588498
O O18 0.808092 0.000000 0.534245
O O19 0.500000 0.096353 0.702342
O O20 0.768525 0.128028 0.741488
O O21 0.706595 0.000000 0.717026
O O22 0.000000 0.791751 0.754873
#
# Coordination Sequence:
#
# PCOD8179093 Si02
#       8
#     8   8   8   8   8   8   8   8
#     4  10  20  34  54  79 106 139 180 222 264 308
#     4   8  15  29  48  72 105 141 173 207 254 313
#     4   9  17  31  53  79 106 136 170 214 268 317
#     4  11  22  35  53  79 107 143 183 224 271 318
#     4  10  21  37  51  73 109 146 182 223 266 318
#     4   9  17  32  53  75 106 148 186 219 261 315
#     4  10  20  33  53  83 113 138 173 224 272 316
#     4  11  21  36  57  80 106 142 181 222 269 320
#
# _framework density 17.697374
#
# number of rings (size 3 to 8) (size 9 to 14) (size 15 to 20)
#    0.000    2.250    2.500    1.875    0.000    3.000 
#    0.000    0.000    0.000    1.875    0.000    3.500 
#    0.000    0.000    0.000    0.000    0.000    0.000 
#
# Total GULP energy -396759.924453 kJ/mol
# GULP energy per Si atom -12398.747639 kJ/mol
# Density = 1.765709 g / cm^3
# Si number density = 17.697374 Si / 1000 Ang^3
#
#
#
# Elastic Constant Matrix: (Units=GPa)
#
#
# Indices 1 2 3 4 5 6 
#
# 1 50.4568 38.2708 40.5284 0.0000 0.0000 0.0000
# 2 38.2708 104.2031 57.7442 0.0000 0.0000 0.0000
# 3 40.5284 57.7442 108.7224 0.0000 0.0000 0.0000
# 4 0.0000 0.0000 0.0000 23.7991 0.0000 0.0000
# 5 0.0000 0.0000 0.0000 0.0000 23.5411 0.0000
# 6 0.0000 0.0000 0.0000 0.0000 0.0000 28.6490
#
#
#
# Elastic Compliance Matrix: (Units=1/GPa)
#
#
# Indices 1 2 3 4 5 6 
#
# 1 0.031710 -0.007221 -0.007985 0.000000 0.000000 0.000000
# 2 -0.007221 0.015244 -0.005404 0.000000 0.000000 0.000000
# 3 -0.007985 -0.005404 0.015045 0.000000 0.000000 0.000000
# 4 0.000000 0.000000 0.000000 0.042018 0.000000 0.000000
# 5 0.000000 0.000000 0.000000 0.000000 0.042479 0.000000
# 6 0.000000 0.000000 0.000000 0.000000 0.000000 0.034905
#
#
# Mechanical properties :
#
#
# Convention : Reuss Voigt Hill
#
# Bulk Modulus (GPa) = 48.13030 59.60768 53.86899
# Shear Modulus (GPa) = 21.78194 23.65377 22.71786
#
# Velocity S-wave (km/s) = 3.51208 3.65988 3.58674
# Velocity P-wave (km/s) = 6.61072 7.18432 6.90348
#
# Compressibility (1/GPa) = 0.02077693
#
# Stress axis : x y z
#
# Youngs Moduli (GPa) = 31.53571 65.60154 66.46862
#
# Poissons Ratio (x) = 0.47372 0.53077
# Poissons Ratio (y) = 0.22772 0.35921
# Poissons Ratio (z) = 0.25182 0.35453
#
# Static dielectric constant tensor:
#      x y z
#    x 3.127540 0.000000 0.000000 
#    y 0.000000 3.582500 0.000000 
#    z 0.000000 0.000000 3.031850 
# 
# 
# High freq. dielectric constant tensor:
#      x y z
#    x 1.675210 0.000000 0.000000 
#    y 0.000000 1.691470 0.000000 
#    z 0.000000 0.000000 1.655560 
# 
# From -- ./inp_files/20048.got.cif
#   From: 2010.03.12/outbox.cif.g09.slc.cpg/sg38_11_cif.got.tgz:20048.got - 2010.04.14 02:38:36.
