data_PCOD8179583
_publ_section_title
;
Structure prediction by ZEFSAII (Michael W. Deem and Ramdas Pophale) SiO2 
 PCOD8179583
Probable space group: A M M 2
;
_chemical_formula_sum "Si O2"
_cell_formula_units_Z 48
_cell_length_a 8.681892
_cell_length_b 18.363367
_cell_length_c 15.133277
_cell_angle_alpha 90.000000
_cell_angle_beta 90.000000
_cell_angle_gamma 90.000000
_cell_volume 2412.679724
_symmetry_space_group_name_H-M "A M M 2"
_symmetry_group_IT_number 38
_symmetry_cell_setting 'orthorhombic'
loop_
_space_group_symop_operation_xyz
x,y,z
-x,-y,z
-x,y,z
x,-y,z
x,1/2+y,1/2+z
-x,1/2-y,1/2+z
-x,1/2+y,1/2+z
x,1/2-y,1/2+z
loop_
_atom_site_type_symbol
_atom_site_label
_atom_site_fract_x
_atom_site_fract_y
_atom_site_fract_z
Si Si1 0.181025 0.231351 0.611620
Si Si2 0.682133 0.156451 0.254497
Si Si3 0.823667 0.420772 0.191795
Si Si4 0.316903 0.500000 0.692019
Si Si5 0.820379 0.735076 0.911723
Si Si6 0.679410 0.619938 0.364546
Si Si7 0.317265 0.500000 0.496602
O O1 0.257363 0.287422 0.680081
O O2 0.224058 0.147160 0.630869
O O3 0.244048 0.242336 0.511725
O O4 0.000000 0.245592 0.616561
O O5 0.500000 0.161029 0.249822
O O6 0.737980 0.172977 0.353860
O O7 0.741893 0.074001 0.237994
O O8 0.804469 0.500000 0.143256
O O9 0.710440 0.423941 0.275314
O O10 0.000000 0.410893 0.223251
O O11 0.500000 0.500000 0.687517
O O12 0.246033 0.500000 0.593667
O O13 0.784942 0.809087 0.860258
O O14 0.000000 0.717422 0.912682
O O15 0.500000 0.640923 0.372023
O O16 0.738358 0.572394 0.446898
O O17 0.500000 0.500000 0.496300
#
# Coordination Sequence:
#
# PCOD8179583 Si02
#       7
#     8   8   8   4   8   8   4
#     4  10  22  40  61  86 118 156 197 242 291 350
#     4  11  22  39  64  88 117 155 196 244 295 347
#     4  10  20  36  58  83 117 155 190 235 294 351
#     4   9  20  38  57  82 117 154 190 236 294 346
#     4  11  23  39  58  85 119 156 198 241 290 350
#     4  11  20  33  56  86 116 149 191 238 293 348
#     4   9  18  32  53  84 119 146 182 238 294 352
#
# _framework density 19.894891999999999
#
# number of rings (size 3 to 8) (size 9 to 14) (size 15 to 20)
#    0.000    1.667    2.500    2.500    0.000    2.667 
#    1.500    1.667    0.000    5.000    0.000    0.000 
#    0.000    0.000    0.000    0.000    0.000    0.000 
#
# Total GULP energy -297508.189331 kJ/mol
# GULP energy per Si atom -12396.174555 kJ/mol
# Density = 1.984961 g / cm^3
# Si number density = 19.894892 Si / 1000 Ang^3
#
#
#
# Elastic Constant Matrix: (Units=GPa)
#
#
# Indices 1 2 3 4 5 6 
#
# 1 47.0667 31.3219 30.8766 0.0000 0.0000 0.0000
# 2 31.3219 152.1006 44.4654 0.0000 0.0000 0.0000
# 3 30.8766 44.4654 102.6248 0.0000 0.0000 0.0000
# 4 0.0000 0.0000 0.0000 34.0154 0.0000 0.0000
# 5 0.0000 0.0000 0.0000 0.0000 27.5579 0.0000
# 6 0.0000 0.0000 0.0000 0.0000 0.0000 18.3146
#
#
#
# Elastic Compliance Matrix: (Units=1/GPa)
#
#
# Indices 1 2 3 4 5 6 
#
# 1 0.028286 -0.003821 -0.006855 0.000000 0.000000 0.000000
# 2 -0.003821 0.008044 -0.002336 0.000000 0.000000 0.000000
# 3 -0.006855 -0.002336 0.012819 0.000000 0.000000 0.000000
# 4 0.000000 0.000000 0.000000 0.029398 0.000000 0.000000
# 5 0.000000 0.000000 0.000000 0.000000 0.036287 0.000000
# 6 0.000000 0.000000 0.000000 0.000000 0.000000 0.054601
#
#
# Mechanical properties :
#
#
# Convention : Reuss Voigt Hill
#
# Bulk Modulus (GPa) = 43.24170 57.23555 50.23862
# Shear Modulus (GPa) = 24.61017 28.98612 26.79815
#
# Velocity S-wave (km/s) = 3.52093 3.82116 3.67411
# Velocity P-wave (km/s) = 6.18963 6.94980 6.58070
#
# Compressibility (1/GPa) = 0.02312583
#
# Stress axis : x y z
#
# Youngs Moduli (GPa) = 35.35304 124.31160 78.01093
#
# Poissons Ratio (x) = 0.47499 0.53475
# Poissons Ratio (y) = 0.13508 0.18222
# Poissons Ratio (z) = 0.24234 0.29037
#
# Static dielectric constant tensor:
#      x y z
#    x 3.381320 0.000000 0.000000 
#    y 0.000000 3.828920 0.000000 
#    z 0.000000 0.000000 3.768570 
# 
# 
# High freq. dielectric constant tensor:
#      x y z
#    x 1.757880 0.000000 0.000000 
#    y 0.000000 1.789300 0.000000 
#    z 0.000000 0.000000 1.769590 
# 
# From -- ./inp_files/12112.got.cif
#   From: 2010.03.12/outbox.cif.g09.slc.cpg/sg38_7_cif.got.tgz:12112.got - 2010.04.14 02:38:36.
