data_PCOD8179256
_publ_section_title
;
Structure prediction by ZEFSAII (Michael W. Deem and Ramdas Pophale) SiO2 
 PCOD8179256
Probable space group: A M M 2
;
_chemical_formula_sum "Si O2"
_cell_formula_units_Z 56
_cell_length_a 9.403968
_cell_length_b 18.089834
_cell_length_c 17.038361
_cell_angle_alpha 90.000000
_cell_angle_beta 90.000000
_cell_angle_gamma 90.000000
_cell_volume 2898.501569
_symmetry_space_group_name_H-M "A M M 2"
_symmetry_group_IT_number 38
_symmetry_cell_setting 'orthorhombic'
loop_
_space_group_symop_operation_xyz
x,y,z
-x,-y,z
-x,y,z
x,-y,z
x,1/2+y,1/2+z
-x,1/2-y,1/2+z
-x,1/2+y,1/2+z
x,1/2-y,1/2+z
loop_
_atom_site_type_symbol
_atom_site_label
_atom_site_fract_x
_atom_site_fract_y
_atom_site_fract_z
Si Si1 0.662607 0.313130 0.961400
Si Si2 0.665507 0.915094 0.320138
Si Si3 0.336245 0.085396 0.734245
Si Si4 0.165478 0.823524 0.619245
Si Si5 0.663810 0.845139 0.895527
Si Si6 0.160987 0.585892 0.531459
Si Si7 0.165043 0.334202 0.685856
O O1 0.500000 0.313511 0.992042
O O2 0.693325 0.384795 0.907888
O O3 0.692228 0.241314 0.908142
O O4 0.768596 0.310807 0.033948
O O5 0.500000 0.908787 0.298782
O O6 0.749697 0.864277 0.259681
O O7 0.717834 0.000000 0.316517
O O8 0.500000 0.101490 0.713025
O O9 0.241107 0.106902 0.659633
O O10 0.285612 0.133602 0.808449
O O11 0.311097 0.000000 0.754057
O O12 0.190228 0.752970 0.675235
O O13 0.000000 0.840611 0.607750
O O14 0.500000 0.866383 0.906550
O O15 0.748754 0.895166 0.955850
O O16 0.169007 0.500000 0.549284
O O17 0.224053 0.626833 0.607414
O O18 0.000000 0.612671 0.516198
O O19 0.000000 0.353438 0.698772
#
# Coordination Sequence:
#
# PCOD8179256 Si02
#       7
#     8   8   8   8   8   8   8
#     4  10  21  38  60  86 117 153 192 238 292 345
#     4  10  22  39  60  87 116 149 194 244 290 341
#     4  10  22  40  61  86 119 156 192 237 293 345
#     4  11  23  39  61  88 117 152 197 242 283 340
#     4  10  20  36  59  85 113 149 194 239 283 343
#     4  10  20  34  54  81 117 156 189 230 286 344
#     4  10  21  38  58  83 117 155 192 233 287 348
#
# _framework density 19.320326999999999
#
# number of rings (size 3 to 8) (size 9 to 14) (size 15 to 20)
#    0.000    1.857    1.429    2.143    0.000    6.571 
#    0.000    1.429    0.000    0.000    0.000    0.000 
#    0.000    0.000    0.000    0.000    0.000    0.000 
#
# Total GULP energy -347324.505084 kJ/mol
# GULP energy per Si atom -12404.446610 kJ/mol
# Density = 1.927635 g / cm^3
# Si number density = 19.320327 Si / 1000 Ang^3
#
#
#
# Elastic Constant Matrix: (Units=GPa)
#
#
# Indices 1 2 3 4 5 6 
#
# 1 81.8906 42.0423 59.6233 0.0000 0.0000 0.0000
# 2 42.0423 75.6930 47.3295 0.0000 0.0000 0.0000
# 3 59.6233 47.3295 99.4212 0.0000 0.0000 0.0000
# 4 0.0000 0.0000 0.0000 34.5164 0.0000 0.0000
# 5 0.0000 0.0000 0.0000 0.0000 -35.3061 0.0000
# 6 0.0000 0.0000 0.0000 0.0000 0.0000 28.0558
#
#
#
# Elastic Compliance Matrix: (Units=1/GPa)
#
#
# Indices 1 2 3 4 5 6 
#
# 1 0.023460 -0.006028 -0.011200 0.000000 0.000000 0.000000
# 2 -0.006028 0.020359 -0.006077 0.000000 0.000000 0.000000
# 3 -0.011200 -0.006077 0.019668 0.000000 0.000000 0.000000
# 4 0.000000 0.000000 0.000000 0.028972 0.000000 0.000000
# 5 0.000000 0.000000 0.000000 0.000000 -0.028324 0.000000
# 6 0.000000 0.000000 0.000000 0.000000 0.000000 0.035643
#
#
# Mechanical properties :
#
#
# Convention : Reuss Voigt Hill
#
# Bulk Modulus (GPa) = 59.24835 61.66611 60.45723
# Shear Modulus (GPa) = 32.89169 12.65386 22.77278
#
# Velocity S-wave (km/s) = 4.13054 2.56198 3.43694
# Velocity P-wave (km/s) = 7.31310 6.38268 6.86367
#
# Compressibility (1/GPa) = 0.01687811
#
# Stress axis : x y z
#
# Youngs Moduli (GPa) = 42.62503 49.11794 50.84430
#
# Poissons Ratio (x) = 0.29606 0.56945
# Poissons Ratio (y) = 0.25693 0.30899
# Poissons Ratio (z) = 0.47739 0.29850
#
# Static dielectric constant tensor:
#      x y z
#    x 3.493630 0.000000 0.000000 
#    y 0.000000 3.610840 0.000000 
#    z 0.000000 0.000000 3.444230 
# 
# 
# High freq. dielectric constant tensor:
#      x y z
#    x 1.745940 0.000000 0.000000 
#    y 0.000000 1.760270 0.000000 
#    z 0.000000 0.000000 1.753730 
# 
# From -- ./inp_files/12399.got.cif
#   From: 2010.03.12/outbox.cif.g09.slc.cpg/sg38_7_cif.got.tgz:12399.got - 2010.04.14 02:38:36.
