data_PCOD8179747
_publ_section_title
;
Structure prediction by ZEFSAII (Michael W. Deem and Ramdas Pophale) SiO2 
 PCOD8179747
Probable space group: A M M 2
;
_chemical_formula_sum "Si O2"
_cell_formula_units_Z 56
_cell_length_a 8.876253
_cell_length_b 18.432922
_cell_length_c 17.055670
_cell_angle_alpha 90.000000
_cell_angle_beta 90.000000
_cell_angle_gamma 90.000000
_cell_volume 2790.568209
_symmetry_space_group_name_H-M "A M M 2"
_symmetry_group_IT_number 38
_symmetry_cell_setting 'orthorhombic'
loop_
_space_group_symop_operation_xyz
x,y,z
-x,-y,z
-x,y,z
x,-y,z
x,1/2+y,1/2+z
-x,1/2-y,1/2+z
-x,1/2+y,1/2+z
x,1/2-y,1/2+z
loop_
_atom_site_type_symbol
_atom_site_label
_atom_site_fract_x
_atom_site_fract_y
_atom_site_fract_z
Si Si1 0.171827 0.084550 0.347790
Si Si2 0.679001 0.418361 0.557938
Si Si3 0.673513 0.694752 0.430054
Si Si4 0.324452 0.916757 0.657975
Si Si5 0.822919 0.692194 0.263899
Si Si6 0.672621 0.148047 0.492977
Si Si7 0.677870 0.166642 0.209474
O O1 0.220222 0.103078 0.435673
O O2 0.281985 0.126187 0.289502
O O3 0.000000 0.109975 0.334274
O O4 0.189747 0.000000 0.332268
O O5 0.500000 0.420487 0.562724
O O6 0.745112 0.500000 0.552816
O O7 0.729856 0.373690 0.481267
O O8 0.741447 0.379376 0.636118
O O9 0.500000 0.685333 0.404314
O O10 0.774694 0.701685 0.353636
O O11 0.694080 0.766025 0.483069
O O12 0.500000 0.908656 0.676913
O O13 0.232524 0.885048 0.731425
O O14 0.278688 0.872702 0.580416
O O15 0.277768 0.000000 0.646901
O O16 0.751436 0.754216 0.209120
O O17 0.000000 0.698054 0.259019
O O18 0.500000 0.124787 0.477142
O O19 0.500000 0.176919 0.204176
#
# Coordination Sequence:
#
# PCOD8179747 Si02
#       7
#     8   8   8   8   8   8   8
#     4  11  23  36  54  86 127 164 196 240 302 366
#     4   9  19  36  61  92 120 149 194 252 306 353
#     4  10  20  37  62  90 119 155 200 250 301 357
#     4  10  22  41  65  92 121 156 203 255 304 358
#     4  12  25  40  60  88 124 163 203 248 304 363
#     4  10  20  37  62  89 117 155 204 254 299 355
#     4  11  21  38  63  89 118 156 205 252 298 356
#
# _framework density 20.067598
#
# number of rings (size 3 to 8) (size 9 to 14) (size 15 to 20)
#    0.000    1.571    1.429    3.857    0.000    6.000 
#    0.000    4.286    0.000    1.714    0.000    0.000 
#    0.000    0.000    0.000    0.000    0.000    0.000 
#
# Total GULP energy -347349.882900 kJ/mol
# GULP energy per Si atom -12405.352961 kJ/mol
# Density = 2.002192 g / cm^3
# Si number density = 20.067598 Si / 1000 Ang^3
#
#
#
# Elastic Constant Matrix: (Units=GPa)
#
#
# Indices 1 2 3 4 5 6 
#
# 1 78.7952 46.9537 29.9148 0.0000 0.0000 0.0000
# 2 46.9537 129.7288 58.1857 0.0000 0.0000 0.0000
# 3 29.9148 58.1857 78.1516 0.0000 0.0000 0.0000
# 4 0.0000 0.0000 0.0000 37.9998 0.0000 0.0000
# 5 0.0000 0.0000 0.0000 0.0000 6.0410 0.0000
# 6 0.0000 0.0000 0.0000 0.0000 0.0000 23.4407
#
#
#
# Elastic Compliance Matrix: (Units=1/GPa)
#
#
# Indices 1 2 3 4 5 6 
#
# 1 0.016585 -0.004737 -0.002821 0.000000 0.000000 0.000000
# 2 -0.004737 0.012926 -0.007810 0.000000 0.000000 0.000000
# 3 -0.002821 -0.007810 0.019691 0.000000 0.000000 0.000000
# 4 0.000000 0.000000 0.000000 0.026316 0.000000 0.000000
# 5 0.000000 0.000000 0.000000 0.000000 0.165536 0.000000
# 6 0.000000 0.000000 0.000000 0.000000 0.000000 0.042661
#
#
# Mechanical properties :
#
#
# Convention : Reuss Voigt Hill
#
# Bulk Modulus (GPa) = 54.16054 61.86489 58.01272
# Shear Modulus (GPa) = 15.59540 23.60439 19.59989
#
# Velocity S-wave (km/s) = 2.79075 3.43336 3.12860
# Velocity P-wave (km/s) = 6.11817 6.82733 6.48246
#
# Compressibility (1/GPa) = 0.01846363
#
# Stress axis : x y z
#
# Youngs Moduli (GPa) = 60.29449 77.36261 50.78546
#
# Poissons Ratio (x) = 0.36650 0.14329
# Poissons Ratio (y) = 0.28564 0.39666
# Poissons Ratio (z) = 0.17012 0.60424
#
# Static dielectric constant tensor:
#      x y z
#    x 3.424240 0.000000 0.000000 
#    y 0.000000 3.890170 0.000000 
#    z 0.000000 0.000000 3.628560 
# 
# 
# High freq. dielectric constant tensor:
#      x y z
#    x 1.759990 0.000000 0.000000 
#    y 0.000000 1.796220 0.000000 
#    z 0.000000 0.000000 1.787960 
# 
# From -- ./inp_files/12427.got.cif
#   From: 2010.03.12/outbox.cif.g09.slc.cpg/sg38_7_cif.got.tgz:12427.got - 2010.04.14 02:38:36.
