data_PCOD8179539
_publ_section_title
;
Structure prediction by ZEFSAII (Michael W. Deem and Ramdas Pophale) SiO2 
 PCOD8179539
Probable space group: A M M 2
;
_chemical_formula_sum "Si O2"
_cell_formula_units_Z 64
_cell_length_a 8.784448
_cell_length_b 29.369466
_cell_length_c 12.798513
_cell_angle_alpha 90.000000
_cell_angle_beta 90.000000
_cell_angle_gamma 90.000000
_cell_volume 3301.946562
_symmetry_space_group_name_H-M "A M M 2"
_symmetry_group_IT_number 38
_symmetry_cell_setting 'orthorhombic'
loop_
_space_group_symop_operation_xyz
x,y,z
-x,-y,z
-x,y,z
x,-y,z
x,1/2+y,1/2+z
-x,1/2-y,1/2+z
-x,1/2+y,1/2+z
x,1/2-y,1/2+z
loop_
_atom_site_type_symbol
_atom_site_label
_atom_site_fract_x
_atom_site_fract_y
_atom_site_fract_z
Si Si1 0.680231 0.874595 0.143480
Si Si2 0.679001 0.448249 0.474774
Si Si3 0.180318 0.448357 0.258668
Si Si4 0.168974 0.783335 0.665664
Si Si5 0.676251 0.258217 0.850323
Si Si6 0.831771 0.204336 0.014953
Si Si7 0.180431 0.879102 0.586874
Si Si8 0.180317 0.144162 0.360157
O O1 0.500000 0.869470 0.148264
O O2 0.730483 0.917784 0.073279
O O3 0.749596 0.829347 0.094305
O O4 0.742131 0.880510 0.261126
O O5 0.500000 0.445411 0.458509
O O6 0.732688 0.500000 0.496990
O O7 0.754580 0.429251 0.368246
O O8 0.236061 0.500000 0.242068
O O9 0.243915 0.420032 0.159194
O O10 0.000000 0.444846 0.264771
O O11 0.292240 0.755873 0.732133
O O12 0.150778 0.754658 0.560961
O O13 0.239858 0.832159 0.636911
O O14 0.000000 0.787300 0.719166
O O15 0.500000 0.268037 0.870092
O O16 0.768392 0.303913 0.875073
O O17 0.730900 0.213034 0.912585
O O18 0.000000 0.184943 0.987344
O O19 0.230507 0.883465 0.465211
O O20 0.000000 0.878055 0.589818
O O21 0.000000 0.143501 0.343106
#
# Coordination Sequence:
#
# PCOD8179539 Si02
#       8
#     8   8   8   8   8   8   8   8
#     4  11  23  38  57  85 115 146 191 241 288 334
#     4   9  20  40  62  83 113 149 181 224 286 349
#     4   9  18  35  61  90 114 138 177 232 287 336
#     4  10  20  36  55  76 106 150 196 228 269 334
#     4  12  24  36  52  78 114 148 188 242 287 324
#     4  11  22  37  57  78 108 152 194 229 277 340
#     4   9  19  36  57  81 109 145 187 229 273 330
#     4  11  21  38  58  78 111 156 198 229 278 344
#
# _framework density 19.382504999999998
#
# number of rings (size 3 to 8) (size 9 to 14) (size 15 to 20)
#    0.000    1.750    2.500    2.250    1.750    1.500 
#    0.000    1.875    0.000    0.750    0.000    0.000 
#    0.000    0.000    0.000    0.000    0.000    0.000 
#
# Total GULP energy -396693.002661 kJ/mol
# GULP energy per Si atom -12396.656333 kJ/mol
# Density = 1.933839 g / cm^3
# Si number density = 19.382505 Si / 1000 Ang^3
#
#
#
# Elastic Constant Matrix: (Units=GPa)
#
#
# Indices 1 2 3 4 5 6 
#
# 1 67.8520 26.3075 40.8409 0.0000 0.0000 0.0000
# 2 26.3075 93.5518 62.8434 0.0000 0.0000 0.0000
# 3 40.8409 62.8434 138.8568 0.0000 0.0000 0.0000
# 4 0.0000 0.0000 0.0000 36.9927 0.0000 0.0000
# 5 0.0000 0.0000 0.0000 0.0000 15.7741 0.0000
# 6 0.0000 0.0000 0.0000 0.0000 0.0000 18.2648
#
#
#
# Elastic Compliance Matrix: (Units=1/GPa)
#
#
# Indices 1 2 3 4 5 6 
#
# 1 0.018215 -0.002189 -0.004367 0.000000 0.000000 0.000000
# 2 -0.002189 0.015622 -0.006426 0.000000 0.000000 0.000000
# 3 -0.004367 -0.006426 0.011394 0.000000 0.000000 0.000000
# 4 0.000000 0.000000 0.000000 0.027032 0.000000 0.000000
# 5 0.000000 0.000000 0.000000 0.000000 0.063395 0.000000
# 6 0.000000 0.000000 0.000000 0.000000 0.000000 0.054750
#
#
# Mechanical properties :
#
#
# Convention : Reuss Voigt Hill
#
# Bulk Modulus (GPa) = 51.90126 62.24935 57.07531
# Shear Modulus (GPa) = 22.44218 25.55757 23.99987
#
# Velocity S-wave (km/s) = 3.40642 3.63518 3.52266
# Velocity P-wave (km/s) = 6.50439 7.05729 6.78647
#
# Compressibility (1/GPa) = 0.01926735
#
# Stress axis : x y z
#
# Youngs Moduli (GPa) = 54.89964 64.01410 87.76239
#
# Poissons Ratio (x) = 0.14011 0.38325
# Poissons Ratio (y) = 0.12016 0.56398
# Poissons Ratio (z) = 0.23974 0.41137
#
# Static dielectric constant tensor:
#      x y z
#    x 3.389240 0.000000 0.000000 
#    y 0.000000 3.585920 0.000000 
#    z 0.000000 0.000000 3.742590 
# 
# 
# High freq. dielectric constant tensor:
#      x y z
#    x 1.742000 0.000000 0.000000 
#    y 0.000000 1.737940 0.000000 
#    z 0.000000 0.000000 1.763850 
# 
# From -- ./inp_files/8586.got.cif
#   From: 2010.03.12/outbox.cif.g09.slc.cpg/sg38_5_cif.got.tgz:8586.got - 2010.04.14 02:38:36.
