data_PCOD8179156
_publ_section_title
;
Structure prediction by ZEFSAII (Michael W. Deem and Ramdas Pophale) SiO2 
 PCOD8179156
Probable space group: A M M 2
;
_chemical_formula_sum "Si O2"
_cell_formula_units_Z 38
_cell_length_a 7.422169
_cell_length_b 11.571466
_cell_length_c 23.972213
_cell_angle_alpha 90.000000
_cell_angle_beta 90.000000
_cell_angle_gamma 90.000000
_cell_volume 2058.862533
_symmetry_space_group_name_H-M "A M M 2"
_symmetry_group_IT_number 38
_symmetry_cell_setting 'orthorhombic'
loop_
_space_group_symop_operation_xyz
x,y,z
-x,-y,z
-x,y,z
x,-y,z
x,1/2+y,1/2+z
-x,1/2-y,1/2+z
-x,1/2+y,1/2+z
x,1/2-y,1/2+z
loop_
_atom_site_type_symbol
_atom_site_label
_atom_site_fract_x
_atom_site_fract_y
_atom_site_fract_z
Si Si1 0.500000 0.134593 0.399631
Si Si2 0.207527 0.500000 0.164695
Si Si3 0.209843 0.863801 0.086392
Si Si4 0.795406 0.866014 0.309893
Si Si5 0.500000 0.000000 0.573372
Si Si6 0.500000 0.742024 0.015690
Si Si7 0.210138 0.749090 0.199784
O O1 0.321893 0.161780 0.363967
O O2 0.500000 0.228290 0.449042
O O3 0.500000 0.000000 0.419151
O O4 0.318371 0.500000 0.108474
O O5 0.255223 0.612914 0.200766
O O6 0.000000 0.500000 0.146137
O O7 0.321631 0.810216 0.035237
O O8 0.287814 0.808241 0.143700
O O9 0.000000 0.832945 0.077239
O O10 0.241719 0.000000 0.088951
O O11 0.708040 0.801734 0.256286
O O12 0.000000 0.825075 0.322167
O O13 0.788767 0.000000 0.294780
O O14 0.500000 0.887957 0.536199
O O15 0.000000 0.776279 0.200189
#
# Coordination Sequence:
#
# PCOD8179156 Si02
#       7
#     4   4   8   8   2   4   8
#     4  10  22  37  54  78 106 142 186 228 268 313
#     4  10  20  34  52  82 116 146 180 217 268 336
#     4  10  21  37  59  86 113 142 178 224 280 335
#     4   9  18  34  55  79 107 139 178 226 276 323
#     4  12  22  34  54  78 114 154 180 216 274 324
#     4  12  23  37  56  80 112 147 187 230 269 322
#     4   9  17  32  56  83 112 141 173 219 274 332
#
# _framework density 18.456793000000001
#
# number of rings (size 3 to 8) (size 9 to 14) (size 15 to 20)
#    0.000    2.105    2.632    0.947    0.000    5.053 
#    0.000    2.105    4.632    0.000    0.000    0.000 
#    0.000    0.000    0.000    0.000    0.000    0.000 
#
# Total GULP energy -235582.004005 kJ/mol
# GULP energy per Si atom -12399.052842 kJ/mol
# Density = 1.841478 g / cm^3
# Si number density = 18.456793 Si / 1000 Ang^3
#
#
#
# Elastic Constant Matrix: (Units=GPa)
#
#
# Indices 1 2 3 4 5 6 
#
# 1 88.7403 41.6657 52.1905 0.0000 0.0000 0.0000
# 2 41.6657 116.3881 66.0058 0.0000 0.0000 0.0000
# 3 52.1905 66.0058 141.0986 0.0000 0.0000 0.0000
# 4 0.0000 0.0000 0.0000 42.9189 0.0000 0.0000
# 5 0.0000 0.0000 0.0000 0.0000 11.2097 0.0000
# 6 0.0000 0.0000 0.0000 0.0000 0.0000 29.2147
#
#
#
# Elastic Compliance Matrix: (Units=1/GPa)
#
#
# Indices 1 2 3 4 5 6 
#
# 1 0.015162 -0.003059 -0.004177 0.000000 0.000000 0.000000
# 2 -0.003059 0.012312 -0.004628 0.000000 0.000000 0.000000
# 3 -0.004177 -0.004628 0.010797 0.000000 0.000000 0.000000
# 4 0.000000 0.000000 0.000000 0.023300 0.000000 0.000000
# 5 0.000000 0.000000 0.000000 0.000000 0.089208 0.000000
# 6 0.000000 0.000000 0.000000 0.000000 0.000000 0.034229
#
#
# Mechanical properties :
#
#
# Convention : Reuss Voigt Hill
#
# Bulk Modulus (GPa) = 68.76298 73.99455 71.37877
# Shear Modulus (GPa) = 23.41006 29.09300 26.25153
#
# Velocity S-wave (km/s) = 3.56528 3.97454 3.77546
# Velocity P-wave (km/s) = 7.36786 7.82562 7.60019
#
# Compressibility (1/GPa) = 0.01454271
#
# Stress axis : x y z
#
# Youngs Moduli (GPa) = 65.95544 81.22477 92.61583
#
# Poissons Ratio (x) = 0.24845 0.38688
# Poissons Ratio (y) = 0.20174 0.42862
# Poissons Ratio (z) = 0.27551 0.37590
#
# Static dielectric constant tensor:
#      x y z
#    x 4.274080 0.000000 0.000000 
#    y 0.000000 3.449910 0.000000 
#    z 0.000000 0.000000 3.287590 
# 
# 
# High freq. dielectric constant tensor:
#      x y z
#    x 1.720600 0.000000 0.000000 
#    y 0.000000 1.716680 0.000000 
#    z 0.000000 0.000000 1.696460 
# 
# From -- ./inp_files/16340.got.cif
#   From: 2010.03.12/outbox.cif.g09.slc.cpg/sg38_9_cif.got.tgz:16340.got - 2010.04.14 02:38:36.
