data_PCOD8179298
_publ_section_title
;
Structure prediction by ZEFSAII (Michael W. Deem and Ramdas Pophale) SiO2 
 PCOD8179298
Probable space group: A M M 2
;
_chemical_formula_sum "Si O2"
_cell_formula_units_Z 64
_cell_length_a 23.496802
_cell_length_b 8.864571
_cell_length_c 15.579506
_cell_angle_alpha 90.000000
_cell_angle_beta 90.000000
_cell_angle_gamma 90.000000
_cell_volume 3245.040810
_symmetry_space_group_name_H-M "A M M 2"
_symmetry_group_IT_number 38
_symmetry_cell_setting 'orthorhombic'
loop_
_space_group_symop_operation_xyz
x,y,z
-x,-y,z
-x,y,z
x,-y,z
x,1/2+y,1/2+z
-x,1/2-y,1/2+z
-x,1/2+y,1/2+z
x,1/2-y,1/2+z
loop_
_atom_site_type_symbol
_atom_site_label
_atom_site_fract_x
_atom_site_fract_y
_atom_site_fract_z
Si Si1 0.126851 0.321157 0.803040
Si Si2 0.066477 0.324486 0.141061
Si Si3 0.321778 0.324900 0.976146
Si Si4 0.256935 0.321232 0.809287
Si Si5 0.435815 0.175283 0.714154
Si Si6 0.563233 0.171445 0.391839
Si Si7 0.672267 0.677748 0.648474
Si Si8 0.067016 0.174476 0.963651
O O1 0.120673 0.500000 0.793521
O O2 0.099010 0.242201 0.721757
O O3 0.192036 0.267603 0.806646
O O4 0.097068 0.269474 0.889995
O O5 0.081023 0.500000 0.130723
O O6 0.000000 0.298005 0.157248
O O7 0.086908 0.238741 0.055455
O O8 0.308411 0.500000 0.989658
O O9 0.389371 0.295551 0.963433
O O10 0.300770 0.237174 0.060081
O O11 0.286859 0.259150 0.895306
O O12 0.261546 0.500000 0.808494
O O13 0.290299 0.255885 0.726794
O O14 0.500000 0.215921 0.685418
O O15 0.392661 0.267108 0.654921
O O16 0.423027 0.000000 0.701991
O O17 0.426701 0.216877 0.813231
O O18 0.500000 0.194284 0.431812
O O19 0.570732 0.000000 0.357318
O O20 0.673814 0.500000 0.648072
O O21 0.000000 0.195733 0.951856
O O22 0.084838 0.000000 0.957210
#
# Coordination Sequence:
#
# PCOD8179298 Si02
#       8
#     8   8   8   8   8   8   8   8
#     4  11  22  37  60  87 118 156 197 242 290 344
#     4  10  21  38  60  88 122 157 195 240 288 340
#     4  10  20  38  59  81 112 149 187 232 284 340
#     4   9  21  41  59  79 114 154 193 237 285 335
#     4  10  20  34  55  84 115 144 180 229 283 340
#     4   9  17  32  57  83 109 145 182 222 280 343
#     4  11  22  39  60  83 111 147 190 235 283 339
#     4  10  21  38  60  88 122 156 192 237 289 346
#
# _framework density 19.722403
#
# number of rings (size 3 to 8) (size 9 to 14) (size 15 to 20)
#    0.000    2.000    1.250    2.250    0.000    5.750 
#    0.000    7.500    0.000    0.000    0.000    0.000 
#    0.000    0.000    0.000    0.000    0.000    0.000 
#
# Total GULP energy -396865.432725 kJ/mol
# GULP energy per Si atom -12402.044773 kJ/mol
# Density = 1.967751 g / cm^3
# Si number density = 19.722403 Si / 1000 Ang^3
#
#
#
# Elastic Constant Matrix: (Units=GPa)
#
#
# Indices 1 2 3 4 5 6 
#
# 1 88.3913 30.9172 57.3090 0.0000 0.0000 0.0000
# 2 30.9172 53.2491 27.0899 0.0000 0.0000 0.0000
# 3 57.3090 27.0899 140.3672 0.0000 0.0000 0.0000
# 4 0.0000 0.0000 0.0000 39.0339 0.0000 0.0000
# 5 0.0000 0.0000 0.0000 0.0000 33.3633 0.0000
# 6 0.0000 0.0000 0.0000 0.0000 0.0000 22.3617
#
#
#
# Elastic Compliance Matrix: (Units=1/GPa)
#
#
# Indices 1 2 3 4 5 6 
#
# 1 0.017611 -0.007282 -0.005785 0.000000 0.000000 0.000000
# 2 -0.007282 0.023836 -0.001627 0.000000 0.000000 0.000000
# 3 -0.005785 -0.001627 0.009800 0.000000 0.000000 0.000000
# 4 0.000000 0.000000 0.000000 0.025619 0.000000 0.000000
# 5 0.000000 0.000000 0.000000 0.000000 0.029973 0.000000
# 6 0.000000 0.000000 0.000000 0.000000 0.000000 0.044719
#
#
# Mechanical properties :
#
#
# Convention : Reuss Voigt Hill
#
# Bulk Modulus (GPa) = 45.74854 56.95999 51.35427
# Shear Modulus (GPa) = 26.56296 30.06454 28.31375
#
# Velocity S-wave (km/s) = 3.67392 3.90857 3.79306
# Velocity P-wave (km/s) = 6.42211 7.02231 6.72890
#
# Compressibility (1/GPa) = 0.02185862
#
# Stress axis : x y z
#
# Youngs Moduli (GPa) = 56.78227 41.95415 102.04108
#
# Poissons Ratio (x) = 0.30552 0.59029
# Poissons Ratio (y) = 0.41351 0.16601
# Poissons Ratio (z) = 0.32848 0.06825
#
# Static dielectric constant tensor:
#      x y z
#    x 3.712690 0.000000 0.000000 
#    y 0.000000 3.508080 0.000000 
#    z 0.000000 0.000000 3.636850 
# 
# 
# High freq. dielectric constant tensor:
#      x y z
#    x 1.767410 0.000000 0.000000 
#    y 0.000000 1.760510 0.000000 
#    z 0.000000 0.000000 1.773570 
# 
# From -- ./inp_files/15854.got.cif
#   From: 2010.03.12/outbox.cif.g09.slc.cpg/sg38_8_cif.got.tgz:15854.got - 2010.04.14 02:38:36.
