data_PCOD8179968
_publ_section_title
;
Structure prediction by ZEFSAII (Michael W. Deem and Ramdas Pophale) SiO2 
 PCOD8179968
Probable space group: A M M 2
;
_chemical_formula_sum "Si O2"
_cell_formula_units_Z 64
_cell_length_a 13.734541
_cell_length_b 9.333577
_cell_length_c 25.661093
_cell_angle_alpha 90.000000
_cell_angle_beta 90.000000
_cell_angle_gamma 90.000000
_cell_volume 3289.556995
_symmetry_space_group_name_H-M "A M M 2"
_symmetry_group_IT_number 38
_symmetry_cell_setting 'orthorhombic'
loop_
_space_group_symop_operation_xyz
x,y,z
-x,-y,z
-x,y,z
x,-y,z
x,1/2+y,1/2+z
-x,1/2-y,1/2+z
-x,1/2+y,1/2+z
x,1/2-y,1/2+z
loop_
_atom_site_type_symbol
_atom_site_label
_atom_site_fract_x
_atom_site_fract_y
_atom_site_fract_z
Si Si1 0.612671 0.834005 0.284250
Si Si2 0.108768 0.335975 0.433434
Si Si3 0.714508 0.666039 0.677530
Si Si4 0.884810 0.842291 0.529966
Si Si5 0.384663 0.662203 0.971948
Si Si6 0.889869 0.169844 0.645644
Si Si7 0.614829 0.335712 0.570800
Si Si8 0.298048 0.833097 0.876775
O O1 0.500000 0.793859 0.290977
O O2 0.643626 0.799578 0.225398
O O3 0.676962 0.735466 0.321542
O O4 0.630826 0.000000 0.298272
O O5 0.103823 0.500000 0.450410
O O6 0.155488 0.255092 0.483190
O O7 0.181687 0.313058 0.385093
O O8 0.000000 0.281042 0.418123
O O9 0.741718 0.500000 0.675589
O O10 0.815152 0.753417 0.684732
O O11 0.660117 0.715874 0.625243
O O12 0.860945 0.778849 0.587057
O O13 0.000000 0.851850 0.524838
O O14 0.838800 0.000000 0.523529
O O15 0.500000 0.661485 0.975481
O O16 0.344422 0.500000 0.967407
O O17 0.356992 0.753423 0.921669
O O18 0.342217 0.735922 0.024559
O O19 0.000000 0.217060 0.659564
O O20 0.880161 0.000000 0.650168
O O21 0.500000 0.317244 0.575949
O O22 0.642125 0.500000 0.558143
O O23 0.327306 0.000000 0.877235
#
# Coordination Sequence:
#
# PCOD8179968 Si02
#       8
#     8   8   8   8   8   8   8   8
#     4  10  22  42  64  84 109 143 185 234 286 340
#     4   9  19  35  53  76 109 146 184 226 272 325
#     4  10  21  36  58  85 111 143 188 235 282 333
#     4   8  15  29  49  74 106 145 185 223 265 315
#     4  10  21  36  54  79 112 148 183 223 277 339
#     4   9  19  35  53  78 115 154 190 229 276 329
#     4   9  18  34  55  80 112 146 179 222 280 342
#     4  11  23  37  57  84 112 144 187 234 281 332
#
# _framework density 19.455507000000001
#
# number of rings (size 3 to 8) (size 9 to 14) (size 15 to 20)
#    0.000    2.500    0.000    2.250    1.750    6.750 
#    0.000    1.875    0.000    4.500    0.000    0.000 
#    0.000    0.000    0.000    0.000    0.000    0.000 
#
# Total GULP energy -396782.739084 kJ/mol
# GULP energy per Si atom -12399.460596 kJ/mol
# Density = 1.941122 g / cm^3
# Si number density = 19.455507 Si / 1000 Ang^3
#
#
#
# Elastic Constant Matrix: (Units=GPa)
#
#
# Indices 1 2 3 4 5 6 
#
# 1 64.1358 38.1635 34.1191 0.0000 0.0000 0.0000
# 2 38.1635 88.3467 53.2563 0.0000 0.0000 0.0000
# 3 34.1191 53.2563 93.7024 0.0000 0.0000 0.0000
# 4 0.0000 0.0000 0.0000 34.0918 0.0000 0.0000
# 5 0.0000 0.0000 0.0000 0.0000 31.8040 0.0000
# 6 0.0000 0.0000 0.0000 0.0000 0.0000 25.9289
#
#
#
# Elastic Compliance Matrix: (Units=1/GPa)
#
#
# Indices 1 2 3 4 5 6 
#
# 1 0.021908 -0.007081 -0.003953 0.000000 0.000000 0.000000
# 2 -0.007081 0.019507 -0.008508 0.000000 0.000000 0.000000
# 3 -0.003953 -0.008508 0.016947 0.000000 0.000000 0.000000
# 4 0.000000 0.000000 0.000000 0.029333 0.000000 0.000000
# 5 0.000000 0.000000 0.000000 0.000000 0.031443 0.000000
# 6 0.000000 0.000000 0.000000 0.000000 0.000000 0.038567
#
#
# Mechanical properties :
#
#
# Convention : Reuss Voigt Hill
#
# Bulk Modulus (GPa) = 51.87312 55.25141 53.56226
# Shear Modulus (GPa) = 24.60452 26.40801 25.50627
#
# Velocity S-wave (km/s) = 3.56006 3.68823 3.62471
# Velocity P-wave (km/s) = 6.60447 6.82626 6.71628
#
# Compressibility (1/GPa) = 0.01927781
#
# Stress axis : x y z
#
# Youngs Moduli (GPa) = 45.64502 51.26408 59.00687
#
# Poissons Ratio (x) = 0.36300 0.23324
# Poissons Ratio (y) = 0.32321 0.50206
# Poissons Ratio (z) = 0.18042 0.43618
#
# Static dielectric constant tensor:
#      x y z
#    x 3.603780 0.000000 0.000000 
#    y 0.000000 3.635320 0.000000 
#    z 0.000000 0.000000 3.456050 
# 
# 
# High freq. dielectric constant tensor:
#      x y z
#    x 1.767820 0.000000 0.000000 
#    y 0.000000 1.753710 0.000000 
#    z 0.000000 0.000000 1.739630 
# 
# From -- ./inp_files/22885.got.cif
#   From: 2010.03.12/outbox.cif.g09.slc.cpg/sg38_12_cif.got.tgz:22885.got - 2010.04.14 02:38:36.
