data_PCOD8179959
_publ_section_title
;
Structure prediction by ZEFSAII (Michael W. Deem and Ramdas Pophale) SiO2 
 PCOD8179959
Probable space group: A M M 2
;
_chemical_formula_sum "Si O2"
_cell_formula_units_Z 64
_cell_length_a 35.213406
_cell_length_b 9.196632
_cell_length_c 10.082373
_cell_angle_alpha 90.000000
_cell_angle_beta 90.000000
_cell_angle_gamma 90.000000
_cell_volume 3265.123427
_symmetry_space_group_name_H-M "A M M 2"
_symmetry_group_IT_number 38
_symmetry_cell_setting 'orthorhombic'
loop_
_space_group_symop_operation_xyz
x,y,z
-x,-y,z
-x,y,z
x,-y,z
x,1/2+y,1/2+z
-x,1/2-y,1/2+z
-x,1/2+y,1/2+z
x,1/2-y,1/2+z
loop_
_atom_site_type_symbol
_atom_site_label
_atom_site_fract_x
_atom_site_fract_y
_atom_site_fract_z
Si Si1 0.168100 0.670921 0.450520
Si Si2 0.336667 0.668881 0.937569
Si Si3 0.043629 0.332243 0.760549
Si Si4 0.082824 0.328469 0.492683
Si Si5 0.294967 0.167223 0.707999
Si Si6 0.543733 0.166663 0.252536
Si Si7 0.584898 0.329475 0.480226
Si Si8 0.208354 0.830788 0.682437
O O1 0.170448 0.500000 0.474482
O O2 0.125460 0.729830 0.470849
O O3 0.196489 0.743759 0.553143
O O4 0.180929 0.713659 0.303001
O O5 0.345746 0.500000 0.915112
O O6 0.319059 0.730386 0.803102
O O7 0.375238 0.750227 0.969882
O O8 0.307389 0.693969 0.056947
O O9 0.051129 0.500000 0.793391
O O10 0.069478 0.280154 0.638197
O O11 0.054295 0.240372 0.888206
O O12 0.000000 0.303742 0.723111
O O13 0.080419 0.500000 0.474142
O O14 0.251102 0.211547 0.721112
O O15 0.301577 0.000000 0.749858
O O16 0.500000 0.195533 0.217648
O O17 0.555762 0.271197 0.371157
O O18 0.550489 0.000000 0.295463
O O19 0.568277 0.205897 0.124104
O O20 0.590614 0.500000 0.457279
O O21 0.205252 0.000000 0.648446
#
# Coordination Sequence:
#
# PCOD8179959 Si02
#       8
#     8   8   8   8   8   8   8   8
#     4  10  21  36  56  83 112 145 185 225 272 330
#     4  11  23  38  58  84 112 147 190 231 278 334
#     4  10  21  36  54  78 107 140 181 227 274 326
#     4  10  21  37  56  80 111 145 182 226 274 327
#     4  10  22  39  58  83 114 147 186 232 280 331
#     4  10  22  40  61  87 118 151 190 234 279 332
#     4  11  23  39  60  86 116 150 188 231 280 332
#     4  10  21  37  57  83 114 146 184 230 277 329
#
# _framework density 19.601096999999999
#
# number of rings (size 3 to 8) (size 9 to 14) (size 15 to 20)
#    0.000    1.750    0.000    3.750    0.000    7.500 
#    0.000    0.000    0.000    0.000    0.000    0.000 
#    0.000    0.000    0.000    0.000    0.000    0.000 
#
# Total GULP energy -397006.290431 kJ/mol
# GULP energy per Si atom -12406.446576 kJ/mol
# Density = 1.955648 g / cm^3
# Si number density = 19.601097 Si / 1000 Ang^3
#
#
#
# Elastic Constant Matrix: (Units=GPa)
#
#
# Indices 1 2 3 4 5 6 
#
# 1 81.3328 25.9152 12.0612 0.0000 0.0000 0.0000
# 2 25.9152 63.8147 38.8397 0.0000 0.0000 0.0000
# 3 12.0612 38.8397 73.8518 0.0000 0.0000 0.0000
# 4 0.0000 0.0000 0.0000 36.1087 0.0000 0.0000
# 5 0.0000 0.0000 0.0000 0.0000 39.7041 0.0000
# 6 0.0000 0.0000 0.0000 0.0000 0.0000 29.7405
#
#
#
# Elastic Compliance Matrix: (Units=1/GPa)
#
#
# Indices 1 2 3 4 5 6 
#
# 1 0.014178 -0.006395 0.001048 0.000000 0.000000 0.000000
# 2 -0.006395 0.025933 -0.012594 0.000000 0.000000 0.000000
# 3 0.001048 -0.012594 0.019993 0.000000 0.000000 0.000000
# 4 0.000000 0.000000 0.000000 0.027694 0.000000 0.000000
# 5 0.000000 0.000000 0.000000 0.000000 0.025186 0.000000
# 6 0.000000 0.000000 0.000000 0.000000 0.000000 0.033624
#
#
# Mechanical properties :
#
#
# Convention : Reuss Voigt Hill
#
# Bulk Modulus (GPa) = 41.28745 41.40350 41.34548
# Shear Modulus (GPa) = 26.23799 30.58953 28.41376
#
# Velocity S-wave (km/s) = 3.66265 3.95473 3.81149
# Velocity P-wave (km/s) = 6.24470 6.48245 6.36468
#
# Compressibility (1/GPa) = 0.02422043
#
# Stress axis : x y z
#
# Youngs Moduli (GPa) = 70.53420 38.56157 50.01807
#
# Poissons Ratio (x) = 0.24661 -0.05242
# Poissons Ratio (y) = 0.45109 0.62992
# Poissons Ratio (z) = -0.07392 0.48564
#
# Static dielectric constant tensor:
#      x y z
#    x 3.775330 0.000000 0.000000 
#    y 0.000000 3.529390 0.000000 
#    z 0.000000 0.000000 3.579510 
# 
# 
# High freq. dielectric constant tensor:
#      x y z
#    x 1.781210 0.000000 0.000000 
#    y 0.000000 1.759920 0.000000 
#    z 0.000000 0.000000 1.773210 
# 
# From -- ./inp_files/10930.got.cif
#   From: 2010.03.12/outbox.cif.g09.slc.cpg/sg38_6_cif.got.tgz:10930.got - 2010.04.14 02:38:36.
