data_PCOD8179696
_publ_section_title
;
Structure prediction by ZEFSAII (Michael W. Deem and Ramdas Pophale) SiO2 
 PCOD8179696
Probable space group: A M M 2
;
_chemical_formula_sum "Si O2"
_cell_formula_units_Z 40
_cell_length_a 9.228595
_cell_length_b 11.570555
_cell_length_c 19.953096
_cell_angle_alpha 90.000000
_cell_angle_beta 90.000000
_cell_angle_gamma 90.000000
_cell_volume 2130.590913
_symmetry_space_group_name_H-M "A M M 2"
_symmetry_group_IT_number 38
_symmetry_cell_setting 'orthorhombic'
loop_
_space_group_symop_operation_xyz
x,y,z
-x,-y,z
-x,y,z
x,-y,z
x,1/2+y,1/2+z
-x,1/2-y,1/2+z
-x,1/2+y,1/2+z
x,1/2-y,1/2+z
loop_
_atom_site_type_symbol
_atom_site_label
_atom_site_fract_x
_atom_site_fract_y
_atom_site_fract_z
Si Si1 0.828257 0.252404 0.962470
Si Si2 0.664149 0.866505 0.581172
Si Si3 0.170839 0.000000 0.939310
Si Si4 0.170847 0.500000 0.290673
Si Si5 0.332912 0.368355 0.841483
Si Si6 0.663878 0.797836 0.725526
O O1 0.762590 0.293207 0.892045
O O2 0.000000 0.265627 0.957536
O O3 0.780984 0.118481 0.976355
O O4 0.772045 0.330646 0.022619
O O5 0.500000 0.851125 0.555037
O O6 0.692272 0.784984 0.645872
O O7 0.693658 0.000000 0.600711
O O8 0.238582 0.000000 0.865008
O O9 0.000000 0.000000 0.932039
O O10 0.221417 0.613020 0.253010
O O11 0.000000 0.500000 0.291971
O O12 0.500000 0.359765 0.864134
O O13 0.278320 0.500000 0.842754
O O14 0.313772 0.322367 0.765217
O O15 0.500000 0.844569 0.736292
#
# Coordination Sequence:
#
# PCOD8179696 Si02
#       6
#     8   8   4   4   8   8
#     4  11  22  38  58  81 111 147 186 227 275 332
#     4  10  21  38  57  81 114 146 181 230 278 321
#     4   9  20  37  55  79 113 144 175 228 281 319
#     4  11  19  33  59  87 113 138 177 232 281 327
#     4  10  21  37  58  84 113 145 182 228 279 329
#     4  10  20  37  59  83 112 146 184 227 277 331
#
# _framework density 18.774135000000001
#
# number of rings (size 3 to 8) (size 9 to 14) (size 15 to 20)
#    0.000    1.800    3.000    1.500    0.000    4.000 
#    1.800    2.000    0.000    0.000    0.000    0.000 
#    0.000    0.000    0.000    0.000    0.000    0.000 
#
# Total GULP energy -247958.420367 kJ/mol
# GULP energy per Si atom -12397.921018 kJ/mol
# Density = 1.873140 g / cm^3
# Si number density = 18.774135 Si / 1000 Ang^3
#
#
#
# Elastic Constant Matrix: (Units=GPa)
#
#
# Indices 1 2 3 4 5 6 
#
# 1 67.6259 36.3588 35.6095 0.0000 0.0000 0.0000
# 2 36.3588 108.5181 38.1989 0.0000 0.0000 0.0000
# 3 35.6095 38.1989 105.6706 0.0000 0.0000 0.0000
# 4 0.0000 0.0000 0.0000 33.0931 0.0000 0.0000
# 5 0.0000 0.0000 0.0000 0.0000 21.6565 0.0000
# 6 0.0000 0.0000 0.0000 0.0000 0.0000 19.7718
#
#
#
# Elastic Compliance Matrix: (Units=1/GPa)
#
#
# Indices 1 2 3 4 5 6 
#
# 1 0.020080 -0.004979 -0.004967 0.000000 0.000000 0.000000
# 2 -0.004979 0.011793 -0.002585 0.000000 0.000000 0.000000
# 3 -0.004967 -0.002585 0.012072 0.000000 0.000000 0.000000
# 4 0.000000 0.000000 0.000000 0.030218 0.000000 0.000000
# 5 0.000000 0.000000 0.000000 0.000000 0.046175 0.000000
# 6 0.000000 0.000000 0.000000 0.000000 0.000000 0.050577
#
#
# Mechanical properties :
#
#
# Convention : Reuss Voigt Hill
#
# Bulk Modulus (GPa) = 52.95976 55.79433 54.37704
# Shear Modulus (GPa) = 24.71926 26.34743 25.53335
#
# Velocity S-wave (km/s) = 3.63253 3.75025 3.69186
# Velocity P-wave (km/s) = 6.77228 6.96676 6.87021
#
# Compressibility (1/GPa) = 0.01888226
#
# Stress axis : x y z
#
# Youngs Moduli (GPa) = 49.80176 84.79320 82.83932
#
# Poissons Ratio (x) = 0.42222 0.41143
# Poissons Ratio (y) = 0.24798 0.21416
# Poissons Ratio (z) = 0.24734 0.21921
#
# Static dielectric constant tensor:
#      x y z
#    x 3.336690 0.000000 0.000000 
#    y 0.000000 3.795460 0.000000 
#    z 0.000000 0.000000 3.436800 
# 
# 
# High freq. dielectric constant tensor:
#      x y z
#    x 1.720950 0.000000 0.000000 
#    y 0.000000 1.727420 0.000000 
#    z 0.000000 0.000000 1.727200 
# 
# From -- ./inp_files/19481.got.cif
#   From: 2010.03.12/outbox.cif.g09.slc.cpg/sg38_10_cif.got.tgz:19481.got - 2010.04.14 02:38:36.
