data_PCOD8179171
_publ_section_title
;
Structure prediction by ZEFSAII (Michael W. Deem and Ramdas Pophale) SiO2 
 PCOD8179171
Probable space group: A M M 2
;
_chemical_formula_sum "Si O2"
_cell_formula_units_Z 64
_cell_length_a 20.868000
_cell_length_b 8.827315
_cell_length_c 18.566808
_cell_angle_alpha 90.000000
_cell_angle_beta 90.000000
_cell_angle_gamma 90.000000
_cell_volume 3420.162170
_symmetry_space_group_name_H-M "A M M 2"
_symmetry_group_IT_number 38
_symmetry_cell_setting 'orthorhombic'
loop_
_space_group_symop_operation_xyz
x,y,z
-x,-y,z
-x,y,z
x,-y,z
x,1/2+y,1/2+z
-x,1/2-y,1/2+z
-x,1/2+y,1/2+z
x,1/2-y,1/2+z
loop_
_atom_site_type_symbol
_atom_site_label
_atom_site_fract_x
_atom_site_fract_y
_atom_site_fract_z
Si Si1 0.570293 0.675509 0.509140
Si Si2 0.812334 0.322275 0.763415
Si Si3 0.294648 0.671024 0.175026
Si Si4 0.071016 0.319873 0.508677
Si Si5 0.189379 0.678958 0.418134
Si Si6 0.071042 0.679939 0.669914
Si Si7 0.301944 0.673569 0.004349
Si Si8 0.568374 0.671764 0.157620
O O1 0.500000 0.715331 0.475036
O O2 0.586363 0.500000 0.497197
O O3 0.628017 0.774106 0.475349
O O4 0.566823 0.707882 0.593877
O O5 0.817782 0.500000 0.775770
O O6 0.751750 0.289478 0.712809
O O7 0.802911 0.242888 0.838934
O O8 0.876190 0.255618 0.725075
O O9 0.272016 0.500000 0.192750
O O10 0.367555 0.699682 0.205242
O O11 0.295563 0.699759 0.089600
O O12 0.073630 0.500000 0.509959
O O13 0.124218 0.254785 0.454131
O O14 0.085325 0.258577 0.589366
O O15 0.000000 0.265666 0.483940
O O16 0.186352 0.500000 0.413596
O O17 0.249135 0.724980 0.466274
O O18 0.074762 0.500000 0.668584
O O19 0.000000 0.732962 0.694748
O O20 0.291446 0.500000 0.982501
O O21 0.500000 0.686021 0.200826
O O22 0.574603 0.500000 0.125385
#
# Coordination Sequence:
#
# PCOD8179171 Si02
#       8
#     8   8   8   8   8   8   8   8
#     4   9  16  26  44  73 105 133 165 207 253 302
#     4  11  22  34  50  73 102 137 174 210 251 302
#     4   9  18  32  51  75 102 132 166 208 255 301
#     4   8  15  30  53  79 103 129 165 208 255 307
#     4  11  22  35  52  74 103 138 174 214 258 304
#     4   8  15  30  52  76 100 127 163 206 249 297
#     4  10  20  34  53  76 103 135 172 215 260 307
#     4   8  14  26  45  70 100 132 165 204 253 303
#
# _framework density 18.712562999999999
#
# number of rings (size 3 to 8) (size 9 to 14) (size 15 to 20)
#    0.000    2.750    0.000    3.750    0.000    4.750 
#    0.000    0.000    0.000    3.000    0.000   10.500 
#    0.000    0.000    0.000    0.000    0.000    0.000 
#
# Total GULP energy -396526.622776 kJ/mol
# GULP energy per Si atom -12391.456962 kJ/mol
# Density = 1.866997 g / cm^3
# Si number density = 18.712563 Si / 1000 Ang^3
#
#
#
# Elastic Constant Matrix: (Units=GPa)
#
#
# Indices 1 2 3 4 5 6 
#
# 1 162.1627 30.8670 50.5981 0.0000 0.0000 0.0000
# 2 30.8670 46.8034 21.0219 0.0000 0.0000 0.0000
# 3 50.5981 21.0219 58.4459 0.0000 0.0000 0.0000
# 4 0.0000 0.0000 0.0000 15.8207 0.0000 0.0000
# 5 0.0000 0.0000 0.0000 0.0000 1.9146 0.0000
# 6 0.0000 0.0000 0.0000 0.0000 0.0000 19.6703
#
#
#
# Elastic Compliance Matrix: (Units=1/GPa)
#
#
# Indices 1 2 3 4 5 6 
#
# 1 0.008751 -0.002825 -0.006560 0.000000 0.000000 0.000000
# 2 -0.002825 0.026395 -0.007048 0.000000 0.000000 0.000000
# 3 -0.006560 -0.007048 0.025324 0.000000 0.000000 0.000000
# 4 0.000000 0.000000 0.000000 0.063208 0.000000 0.000000
# 5 0.000000 0.000000 0.000000 0.000000 0.522290 0.000000
# 6 0.000000 0.000000 0.000000 0.000000 0.000000 0.050838
#
#
# Mechanical properties :
#
#
# Convention : Reuss Voigt Hill
#
# Bulk Modulus (GPa) = 36.22679 52.48734 44.35707
# Shear Modulus (GPa) = 6.76705 18.47610 12.62158
#
# Velocity S-wave (km/s) = 1.90372 3.14564 2.59993
# Velocity P-wave (km/s) = 4.92279 6.42679 5.72440
#
# Compressibility (1/GPa) = 0.02760388
#
# Stress axis : x y z
#
# Youngs Moduli (GPa) = 114.26931 37.88633 39.48800
#
# Poissons Ratio (x) = 0.10703 0.25904
# Poissons Ratio (y) = 0.32281 0.27831
# Poissons Ratio (z) = 0.74962 0.26702
#
# Static dielectric constant tensor:
#      x y z
#    x 4.034110 0.000000 0.000000 
#    y 0.000000 3.207750 0.000000 
#    z 0.000000 0.000000 3.102300 
# 
# 
# High freq. dielectric constant tensor:
#      x y z
#    x 1.755090 0.000000 0.000000 
#    y 0.000000 1.706580 0.000000 
#    z 0.000000 0.000000 1.679260 
# 
# From -- ./inp_files/18996.got.cif
#   From: 2010.03.12/outbox.cif.g09.slc.cpg/sg38_10_cif.got.tgz:18996.got - 2010.04.14 02:38:36.
