data_PCOD8179406
_publ_section_title
;
Structure prediction by ZEFSAII (Michael W. Deem and Ramdas Pophale) SiO2 
 PCOD8179406
Probable space group: A M M 2
;
_chemical_formula_sum "Si O2"
_cell_formula_units_Z 56
_cell_length_a 21.537360
_cell_length_b 8.986579
_cell_length_c 15.296769
_cell_angle_alpha 90.000000
_cell_angle_beta 90.000000
_cell_angle_gamma 90.000000
_cell_volume 2960.646612
_symmetry_space_group_name_H-M "A M M 2"
_symmetry_group_IT_number 38
_symmetry_cell_setting 'orthorhombic'
loop_
_space_group_symop_operation_xyz
x,y,z
-x,-y,z
-x,y,z
x,-y,z
x,1/2+y,1/2+z
-x,1/2-y,1/2+z
-x,1/2+y,1/2+z
x,1/2-y,1/2+z
loop_
_atom_site_type_symbol
_atom_site_label
_atom_site_fract_x
_atom_site_fract_y
_atom_site_fract_z
Si Si1 0.849170 0.176520 0.479300
Si Si2 0.375101 0.674607 0.629082
Si Si3 0.500000 0.164554 0.620023
Si Si4 0.717928 0.672727 0.472610
Si Si5 0.929248 0.675421 0.818075
Si Si6 0.070850 0.824832 0.640768
Si Si7 0.500000 0.661140 0.326137
Si Si8 0.367350 0.178213 0.812564
O O1 0.779670 0.233207 0.480774
O O2 0.885300 0.237054 0.394519
O O3 0.885722 0.236572 0.563768
O O4 0.849017 0.000000 0.479056
O O5 0.385403 0.500000 0.643918
O O6 0.438792 0.744611 0.592198
O O7 0.323494 0.707983 0.556706
O O8 0.351473 0.747400 0.719710
O O9 0.500000 0.143371 0.722617
O O10 0.500000 0.000000 0.575735
O O11 0.734944 0.500000 0.467771
O O12 0.683826 0.723060 0.383461
O O13 0.923658 0.500000 0.807962
O O14 0.905470 0.749184 0.729179
O O15 0.000000 0.722496 0.839110
O O16 0.000000 0.779412 0.619566
O O17 0.077199 0.000000 0.652012
O O18 0.500000 0.500000 0.372666
O O19 0.434477 0.740789 0.349182
O O20 0.372022 0.000000 0.799631
#
# Coordination Sequence:
#
# PCOD8179406 Si02
#       8
#     8   8   4   8   8   8   4   8
#     4  10  21  36  54  75 104 142 178 214 258 310
#     4  10  20  35  55  80 107 135 172 222 269 307
#     4   9  17  32  55  81 106 136 172 213 265 321
#     4  10  23  38  52  75 108 145 182 216 257 311
#     4   9  18  34  56  81 106 133 169 215 266 314
#     4   9  18  34  56  81 106 134 172 216 262 314
#     4   7  12  26  51  75  92 118 162 207 247 295
#     4   9  18  35  56  76 101 137 175 213 262 318
#
# _framework density 18.914788000000001
#
# number of rings (size 3 to 8) (size 9 to 14) (size 15 to 20)
#    0.000    2.714    0.000    1.929    0.000    6.286 
#    0.000    7.857    0.000    4.286    0.000    0.000 
#    0.000    0.000    0.000    0.000    0.000    0.000 
#
# Total GULP energy -347103.099467 kJ/mol
# GULP energy per Si atom -12396.539267 kJ/mol
# Density = 1.887174 g / cm^3
# Si number density = 18.914788 Si / 1000 Ang^3
#
#
#
# Elastic Constant Matrix: (Units=GPa)
#
#
# Indices 1 2 3 4 5 6 
#
# 1 127.2947 38.7016 80.1682 0.0000 0.0000 0.0000
# 2 38.7016 48.2410 44.2532 0.0000 0.0000 0.0000
# 3 80.1682 44.2532 138.7082 0.0000 0.0000 0.0000
# 4 0.0000 0.0000 0.0000 29.1563 0.0000 0.0000
# 5 0.0000 0.0000 0.0000 0.0000 15.3575 0.0000
# 6 0.0000 0.0000 0.0000 0.0000 0.0000 32.0391
#
#
#
# Elastic Compliance Matrix: (Units=1/GPa)
#
#
# Indices 1 2 3 4 5 6 
#
# 1 0.013173 -0.005067 -0.005997 0.000000 0.000000 0.000000
# 2 -0.005067 0.031255 -0.007043 0.000000 0.000000 0.000000
# 3 -0.005997 -0.007043 0.012922 0.000000 0.000000 0.000000
# 4 0.000000 0.000000 0.000000 0.034298 0.000000 0.000000
# 5 0.000000 0.000000 0.000000 0.000000 0.065115 0.000000
# 6 0.000000 0.000000 0.000000 0.000000 0.000000 0.031212
#
#
# Mechanical properties :
#
#
# Convention : Reuss Voigt Hill
#
# Bulk Modulus (GPa) = 47.31125 71.16553 59.23839
# Shear Modulus (GPa) = 21.62304 25.38529 23.50417
#
# Velocity S-wave (km/s) = 3.38476 3.66743 3.52893
# Velocity P-wave (km/s) = 6.35159 7.45918 6.92755
#
# Compressibility (1/GPa) = 0.02113662
#
# Stress axis : x y z
#
# Youngs Moduli (GPa) = 75.91207 31.99477 77.38463
#
# Poissons Ratio (x) = 0.16211 0.46408
# Poissons Ratio (y) = 0.38464 0.54503
# Poissons Ratio (z) = 0.45525 0.22534
#
# Static dielectric constant tensor:
#      x y z
#    x 3.599410 0.000000 0.000000 
#    y 0.000000 3.309690 0.000000 
#    z 0.000000 0.000000 3.514890 
# 
# 
# High freq. dielectric constant tensor:
#      x y z
#    x 1.737980 0.000000 0.000000 
#    y 0.000000 1.718590 0.000000 
#    z 0.000000 0.000000 1.735950 
# 
# From -- ./inp_files/15589.got.cif
#   From: 2010.03.12/outbox.cif.g09.slc.cpg/sg38_8_cif.got.tgz:15589.got - 2010.04.14 02:38:36.
