data_PCOD8179948
_publ_section_title
;
Structure prediction by ZEFSAII (Michael W. Deem and Ramdas Pophale) SiO2 
 PCOD8179948
Probable space group: A M M 2
;
_chemical_formula_sum "Si O2"
_cell_formula_units_Z 56
_cell_length_a 9.580285
_cell_length_b 17.496349
_cell_length_c 17.348349
_cell_angle_alpha 90.000000
_cell_angle_beta 90.000000
_cell_angle_gamma 90.000000
_cell_volume 2907.930431
_symmetry_space_group_name_H-M "A M M 2"
_symmetry_group_IT_number 38
_symmetry_cell_setting 'orthorhombic'
loop_
_space_group_symop_operation_xyz
x,y,z
-x,-y,z
-x,y,z
x,-y,z
x,1/2+y,1/2+z
-x,1/2-y,1/2+z
-x,1/2+y,1/2+z
x,1/2-y,1/2+z
loop_
_atom_site_type_symbol
_atom_site_label
_atom_site_fract_x
_atom_site_fract_y
_atom_site_fract_z
Si Si1 0.844238 0.000000 0.357301
Si Si2 0.844238 0.500000 0.672866
Si Si3 0.653881 0.633969 0.854994
Si Si4 0.162364 0.911777 0.853413
Si Si5 0.662352 0.214544 0.933178
Si Si6 0.662352 0.785455 0.596987
Si Si7 0.162365 0.911777 0.676750
Si Si8 0.653880 0.133969 0.175173
O O1 0.849631 0.000000 0.265083
O O2 0.764616 0.074472 0.390237
O O3 0.000000 0.000000 0.391717
O O4 0.764616 0.574473 0.639929
O O5 0.000000 0.500000 0.638450
O O6 0.500000 0.619466 0.892070
O O7 0.700043 0.720604 0.870583
O O8 0.645140 0.619532 0.765083
O O9 0.249928 0.860498 0.912770
O O10 0.206664 0.894640 0.765082
O O11 0.000000 0.893061 0.864737
O O12 0.192972 0.000000 0.873203
O O13 0.500000 0.191692 0.931676
O O14 0.706113 0.249999 0.015083
O O15 0.500000 0.808307 0.598488
O O16 0.750072 0.860497 0.617394
O O17 0.700041 0.720604 0.659583
O O18 0.000000 0.893062 0.665426
O O19 0.192973 0.000000 0.656960
O O20 0.500000 0.119465 0.138098
#
# Coordination Sequence:
#
# PCOD8179948 Si02
#       8
#     4   4   8   8   8   8   8   8
#     4   9  17  29  47  73  99 123 162 211 252 297
#     4   9  17  29  47  73  99 123 162 211 252 297
#     4   9  17  31  51  72  98 135 174 212 258 309
#     4   9  19  37  60  84 110 143 185 232 280 329
#     4  10  21  36  53  79 112 144 180 222 271 327
#     4  10  21  36  53  79 112 144 180 222 271 327
#     4   9  19  37  60  84 110 143 185 232 280 329
#     4   9  17  31  51  72  98 135 174 212 258 309
#
# _framework density 19.257681999999999
#
# number of rings (size 3 to 8) (size 9 to 14) (size 15 to 20)
#    0.000    2.714    0.000    2.143    0.000    5.714 
#    2.571    4.286    0.000    0.000    0.000    0.000 
#    0.000    0.000    0.000    0.000    0.000    0.000 
#
# Total GULP energy -347120.846710 kJ/mol
# GULP energy per Si atom -12397.173097 kJ/mol
# Density = 1.921385 g / cm^3
# Si number density = 19.257682 Si / 1000 Ang^3
#
#
#
# Elastic Constant Matrix: (Units=GPa)
#
#
# Indices 1 2 3 4 5 6 
#
# 1 114.5575 85.9111 40.6473 0.0000 0.0000 0.0000
# 2 85.9111 135.3249 44.3717 0.0000 0.0000 0.0000
# 3 40.6473 44.3717 54.0062 0.0000 0.0000 0.0000
# 4 0.0000 0.0000 0.0000 25.7733 0.0000 0.0000
# 5 0.0000 0.0000 0.0000 0.0000 21.6028 0.0000
# 6 0.0000 0.0000 0.0000 0.0000 0.0000 39.7267
#
#
#
# Elastic Compliance Matrix: (Units=1/GPa)
#
#
# Indices 1 2 3 4 5 6 
#
# 1 0.017835 -0.009473 -0.005640 0.000000 0.000000 0.000000
# 2 -0.009473 0.015146 -0.005314 0.000000 0.000000 0.000000
# 3 -0.005640 -0.005314 0.027128 0.000000 0.000000 0.000000
# 4 0.000000 0.000000 0.000000 0.038800 0.000000 0.000000
# 5 0.000000 0.000000 0.000000 0.000000 0.046290 0.000000
# 6 0.000000 0.000000 0.000000 0.000000 0.000000 0.025172
#
#
# Mechanical properties :
#
#
# Convention : Reuss Voigt Hill
#
# Bulk Modulus (GPa) = 51.93831 71.74987 61.84409
# Shear Modulus (GPa) = 22.97342 26.28446 24.62894
#
# Velocity S-wave (km/s) = 3.45766 3.69844 3.58007
# Velocity P-wave (km/s) = 6.55509 7.45497 7.01947
#
# Compressibility (1/GPa) = 0.01925361
#
# Stress axis : x y z
#
# Youngs Moduli (GPa) = 56.07083 66.02367 36.86292
#
# Poissons Ratio (x) = 0.62544 0.20791
# Poissons Ratio (y) = 0.53116 0.19590
# Poissons Ratio (z) = 0.31624 0.35087
#
# Static dielectric constant tensor:
#      x y z
#    x 3.603910 0.000000 0.000000 
#    y 0.000000 3.569550 0.000000 
#    z 0.000000 0.000000 3.226020 
# 
# 
# High freq. dielectric constant tensor:
#      x y z
#    x 1.745270 0.000000 0.000000 
#    y 0.000000 1.755750 0.000000 
#    z 0.000000 0.000000 1.721550 
# 
# From -- ./inp_files/19878.got.cif
#   From: 2010.03.12/outbox.cif.g09.slc.cpg/sg38_10_cif.got.tgz:19878.got - 2010.04.14 02:38:36.
