data_PCOD8179151
_publ_section_title
;
Structure prediction by ZEFSAII (Michael W. Deem and Ramdas Pophale) SiO2 
 PCOD8179151
Probable space group: A M M 2
;
_chemical_formula_sum "Si O2"
_cell_formula_units_Z 48
_cell_length_a 7.784158
_cell_length_b 9.318562
_cell_length_c 34.531951
_cell_angle_alpha 90.000000
_cell_angle_beta 90.000000
_cell_angle_gamma 90.000000
_cell_volume 2504.849618
_symmetry_space_group_name_H-M "A M M 2"
_symmetry_group_IT_number 38
_symmetry_cell_setting 'orthorhombic'
loop_
_space_group_symop_operation_xyz
x,y,z
-x,-y,z
-x,y,z
x,-y,z
x,1/2+y,1/2+z
-x,1/2-y,1/2+z
-x,1/2+y,1/2+z
x,1/2-y,1/2+z
loop_
_atom_site_type_symbol
_atom_site_label
_atom_site_fract_x
_atom_site_fract_y
_atom_site_fract_z
Si Si1 0.500000 0.333989 0.734761
Si Si2 0.500000 0.171044 0.814347
Si Si3 0.810253 0.830194 0.866524
Si Si4 0.196857 0.333850 0.676779
Si Si5 0.796197 0.339378 0.101378
Si Si6 0.700276 0.337242 0.447599
Si Si7 0.797986 0.839046 0.029724
O O1 0.500000 0.500000 0.747000
O O2 0.500000 0.235300 0.772003
O O3 0.326441 0.296490 0.711409
O O4 0.331606 0.229711 0.836876
O O5 0.500000 0.000000 0.810913
O O6 0.787951 0.764251 0.909894
O O7 0.000000 0.790068 0.850907
O O8 0.783553 0.000000 0.869944
O O9 0.210984 0.500000 0.664996
O O10 0.259389 0.242779 0.640100
O O11 0.000000 0.295919 0.688997
O O12 0.719854 0.500000 0.102534
O O13 0.718434 0.257211 0.064080
O O14 0.000000 0.343958 0.098369
O O15 0.500000 0.329096 0.440046
O O16 0.767375 0.500000 0.451075
O O17 0.751131 0.263826 0.488457
O O18 0.000000 0.847393 0.034748
O O19 0.718524 0.000000 0.032380
#
# Coordination Sequence:
#
# PCOD8179151 Si02
#       7
#     4   4   8   8   8   8   8
#     4  10  22  38  56  79 104 131 163 202 251 304
#     4  10  20  34  52  77 106 131 161 204 251 302
#     4   9  16  28  48  74 104 135 166 205 253 297
#     4   9  18  35  57  77  99 130 168 208 249 295
#     4   9  17  30  49  72 100 134 169 208 252 296
#     4   9  15  25  42  67  99 131 167 213 253 286
#     4   9  16  26  43  68  96 129 170 211 250 292
#
# _framework density 19.162828000000001
#
# number of rings (size 3 to 8) (size 9 to 14) (size 15 to 20)
#    0.000    2.833    0.833    1.000    0.000    5.333 
#    1.500    0.000    0.000    1.000    0.000    0.000 
#    0.000    0.000    0.000    0.000    0.000    0.000 
#
# Total GULP energy -297477.243273 kJ/mol
# GULP energy per Si atom -12394.885136 kJ/mol
# Density = 1.911921 g / cm^3
# Si number density = 19.162828 Si / 1000 Ang^3
#
#
#
# Elastic Constant Matrix: (Units=GPa)
#
#
# Indices 1 2 3 4 5 6 
#
# 1 94.7797 26.0570 64.1934 0.0000 0.0000 0.0000
# 2 26.0570 59.2186 58.3664 0.0000 0.0000 0.0000
# 3 64.1934 58.3664 170.9621 0.0000 0.0000 0.0000
# 4 0.0000 0.0000 0.0000 24.5385 0.0000 0.0000
# 5 0.0000 0.0000 0.0000 0.0000 29.2474 0.0000
# 6 0.0000 0.0000 0.0000 0.0000 0.0000 9.0191
#
#
#
# Elastic Compliance Matrix: (Units=1/GPa)
#
#
# Indices 1 2 3 4 5 6 
#
# 1 0.014237 -0.001501 -0.004833 0.000000 0.000000 0.000000
# 2 -0.001501 0.025608 -0.008179 0.000000 0.000000 0.000000
# 3 -0.004833 -0.008179 0.010457 0.000000 0.000000 0.000000
# 4 0.000000 0.000000 0.000000 0.040752 0.000000 0.000000
# 5 0.000000 0.000000 0.000000 0.000000 0.034191 0.000000
# 6 0.000000 0.000000 0.000000 0.000000 0.000000 0.110875
#
#
# Mechanical properties :
#
#
# Convention : Reuss Voigt Hill
#
# Bulk Modulus (GPa) = 47.00275 69.13266 58.06770
# Shear Modulus (GPa) = 18.36620 24.31724 21.34172
#
# Velocity S-wave (km/s) = 3.09921 3.56614 3.34084
# Velocity P-wave (km/s) = 6.11458 7.28774 6.72679
#
# Compressibility (1/GPa) = 0.02127535
#
# Stress axis : x y z
#
# Youngs Moduli (GPa) = 70.23968 39.04962 95.63398
#
# Poissons Ratio (x) = 0.05860 0.46224
# Poissons Ratio (y) = 0.10540 0.78222
# Poissons Ratio (z) = 0.33950 0.31940
#
# Static dielectric constant tensor:
#      x y z
#    x 3.443120 0.000000 0.000000 
#    y 0.000000 3.248720 0.000000 
#    z 0.000000 0.000000 3.571550 
# 
# 
# High freq. dielectric constant tensor:
#      x y z
#    x 1.743700 0.000000 0.000000 
#    y 0.000000 1.691290 0.000000 
#    z 0.000000 0.000000 1.751120 
# 
# From -- ./inp_files/24423.got.cif
#   From: 2010.03.12/outbox.cif.g09.slc.cpg/sg38_13_cif.got.tgz:24423.got - 2010.04.14 02:38:36.
