data_PCOD8179621
_publ_section_title
;
Structure prediction by ZEFSAII (Michael W. Deem and Ramdas Pophale) SiO2 
 PCOD8179621
Probable space group: A M M 2
;
_chemical_formula_sum "Si O2"
_cell_formula_units_Z 48
_cell_length_a 9.105867
_cell_length_b 18.175382
_cell_length_c 14.873434
_cell_angle_alpha 90.000000
_cell_angle_beta 90.000000
_cell_angle_gamma 90.000000
_cell_volume 2461.592164
_symmetry_space_group_name_H-M "A M M 2"
_symmetry_group_IT_number 38
_symmetry_cell_setting 'orthorhombic'
loop_
_space_group_symop_operation_xyz
x,y,z
-x,-y,z
-x,y,z
x,-y,z
x,1/2+y,1/2+z
-x,1/2-y,1/2+z
-x,1/2+y,1/2+z
x,1/2-y,1/2+z
loop_
_atom_site_type_symbol
_atom_site_label
_atom_site_fract_x
_atom_site_fract_y
_atom_site_fract_z
Si Si1 0.828454 0.767582 0.302310
Si Si2 0.825656 0.000000 0.915981
Si Si3 0.665669 0.105226 0.041357
Si Si4 0.826058 0.156690 0.642985
Si Si5 0.165890 0.580052 0.717669
Si Si6 0.173833 0.000000 0.713709
Si Si7 0.666925 0.766921 0.487158
O O1 0.776641 0.713865 0.221311
O O2 0.791109 0.852970 0.282386
O O3 0.739421 0.749516 0.391571
O O4 0.000000 0.755153 0.321313
O O5 0.766572 0.000000 0.814758
O O6 0.764881 0.926380 0.961571
O O7 0.000000 0.000000 0.921867
O O8 0.500000 0.076966 0.028197
O O9 0.724806 0.075425 0.134885
O O10 0.673417 0.192566 0.043978
O O11 0.753914 0.173963 0.546715
O O12 0.000000 0.160799 0.630889
O O13 0.770330 0.074390 0.665782
O O14 0.175946 0.500000 0.767593
O O15 0.000000 0.593434 0.681804
O O16 0.000000 0.000000 0.715107
O O17 0.500000 0.793741 0.472526
#
# Coordination Sequence:
#
# PCOD8179621 Si02
#       7
#     8   4   8   8   8   4   8
#     4  10  21  38  62  88 115 153 200 247 292 347
#     4  11  21  35  59  88 119 150 191 243 296 356
#     4  11  22  35  54  84 121 154 189 234 293 355
#     4  10  20  39  64  87 115 151 197 247 295 347
#     4  10  20  36  59  87 115 147 191 243 293 339
#     4   9  20  37  59  88 115 146 191 249 298 336
#     4  11  24  39  58  86 120 159 198 240 293 354
#
# _framework density 19.499575
#
# number of rings (size 3 to 8) (size 9 to 14) (size 15 to 20)
#    0.000    1.667    2.500    2.250    0.000    4.667 
#    1.500    2.083    0.000    0.000    0.000    0.000 
#    0.000    0.000    0.000    0.000    0.000    0.000 
#
# Total GULP energy -297576.858647 kJ/mol
# GULP energy per Si atom -12399.035777 kJ/mol
# Density = 1.945519 g / cm^3
# Si number density = 19.499575 Si / 1000 Ang^3
#
#
#
# Elastic Constant Matrix: (Units=GPa)
#
#
# Indices 1 2 3 4 5 6 
#
# 1 75.7369 26.4206 35.7475 0.0000 0.0000 0.0000
# 2 26.4206 119.7507 22.5440 0.0000 0.0000 0.0000
# 3 35.7475 22.5440 78.4261 0.0000 0.0000 0.0000
# 4 0.0000 0.0000 0.0000 21.2099 0.0000 0.0000
# 5 0.0000 0.0000 0.0000 0.0000 10.3025 0.0000
# 6 0.0000 0.0000 0.0000 0.0000 0.0000 20.3381
#
#
#
# Elastic Compliance Matrix: (Units=1/GPa)
#
#
# Indices 1 2 3 4 5 6 
#
# 1 0.017500 -0.002494 -0.007260 0.000000 0.000000 0.000000
# 2 -0.002494 0.009184 -0.001503 0.000000 0.000000 0.000000
# 3 -0.007260 -0.001503 0.016492 0.000000 0.000000 0.000000
# 4 0.000000 0.000000 0.000000 0.047148 0.000000 0.000000
# 5 0.000000 0.000000 0.000000 0.000000 0.097064 0.000000
# 6 0.000000 0.000000 0.000000 0.000000 0.000000 0.049169
#
#
# Mechanical properties :
#
#
# Convention : Reuss Voigt Hill
#
# Bulk Modulus (GPa) = 48.39829 49.25976 48.82902
# Shear Modulus (GPa) = 18.79991 22.98354 20.89172
#
# Velocity S-wave (km/s) = 3.10840 3.43690 3.27677
# Velocity P-wave (km/s) = 6.14466 6.40832 6.27787
#
# Compressibility (1/GPa) = 0.02066189
#
# Stress axis : x y z
#
# Youngs Moduli (GPa) = 57.14161 108.88540 60.63539
#
# Poissons Ratio (x) = 0.27160 0.44020
# Poissons Ratio (y) = 0.14253 0.09114
# Poissons Ratio (z) = 0.41484 0.16366
#
# Static dielectric constant tensor:
#      x y z
#    x 3.466380 0.000000 0.000000 
#    y 0.000000 3.887550 0.000000 
#    z 0.000000 0.000000 3.339320 
# 
# 
# High freq. dielectric constant tensor:
#      x y z
#    x 1.749320 0.000000 0.000000 
#    y 0.000000 1.774350 0.000000 
#    z 0.000000 0.000000 1.744330 
# 
# From -- ./inp_files/12067.got.cif
#   From: 2010.03.12/outbox.cif.g09.slc.cpg/sg38_7_cif.got.tgz:12067.got - 2010.04.14 02:38:36.
