data_PCOD8179819
_publ_section_title
;
Structure prediction by ZEFSAII (Michael W. Deem and Ramdas Pophale) SiO2 
 PCOD8179819
Probable space group: A M M 2
;
_chemical_formula_sum "Si O2"
_cell_formula_units_Z 56
_cell_length_a 19.357356
_cell_length_b 19.509906
_cell_length_c 7.384087
_cell_angle_alpha 90.000000
_cell_angle_beta 90.000000
_cell_angle_gamma 90.000000
_cell_volume 2788.675743
_symmetry_space_group_name_H-M "A M M 2"
_symmetry_group_IT_number 38
_symmetry_cell_setting 'orthorhombic'
loop_
_space_group_symop_operation_xyz
x,y,z
-x,-y,z
-x,y,z
x,-y,z
x,1/2+y,1/2+z
-x,1/2-y,1/2+z
-x,1/2+y,1/2+z
x,1/2-y,1/2+z
loop_
_atom_site_type_symbol
_atom_site_label
_atom_site_fract_x
_atom_site_fract_y
_atom_site_fract_z
Si Si1 0.918274 0.921170 0.476190
Si Si2 0.847478 0.327639 0.688586
Si Si3 0.692140 0.174360 0.765720
Si Si4 0.692140 0.825640 0.186659
Si Si5 0.152522 0.827639 0.763794
Si Si6 0.423934 0.076896 0.191657
Si Si7 0.576066 0.576896 0.260722
O O1 0.893145 0.882331 0.295871
O O2 0.893146 0.882331 0.656509
O O3 0.000000 0.919786 0.476190
O O4 0.891416 0.000000 0.476190
O O5 0.769195 0.335395 0.765571
O O6 0.873225 0.250000 0.726190
O O7 0.853637 0.344316 0.476190
O O8 0.664552 0.250000 0.726189
O O9 0.769195 0.164604 0.686808
O O10 0.636479 0.123499 0.674163
O O11 0.696400 0.159429 0.976189
O O12 0.636479 0.876501 0.278217
O O13 0.500000 0.101313 0.258495
O O14 0.410285 0.000000 0.259210
O O15 0.421806 0.080559 0.976190
O O16 0.500000 0.601313 0.193884
O O17 0.589715 0.500000 0.193169
#
# Coordination Sequence:
#
# PCOD8179819 Si02
#       7
#     8   8   8   8   8   8   8
#     4  11  26  44  62  92 128 156 192 243 298 358
#     4  10  20  39  64  90 120 157 202 247 292 353
#     4   9  18  30  51  78 106 138 180 231 281 332
#     4   9  18  30  51  78 106 138 180 231 281 332
#     4  10  20  39  64  90 120 157 202 247 292 353
#     4   8  14  26  44  68 100 138 182 228 272 327
#     4   8  14  26  44  68 100 138 182 228 272 327
#
# _framework density 20.081218
#
# number of rings (size 3 to 8) (size 9 to 14) (size 15 to 20)
#    0.000    2.714    1.429    0.857    2.000    3.429 
#    0.000    4.286    0.000    0.000    0.000    2.000 
#    0.000    0.000    0.000    0.000    0.000    0.000 
#
# Total GULP energy -347049.403189 kJ/mol
# GULP energy per Si atom -12394.621542 kJ/mol
# Density = 2.003551 g / cm^3
# Si number density = 20.081218 Si / 1000 Ang^3
#
#
#
# Elastic Constant Matrix: (Units=GPa)
#
#
# Indices 1 2 3 4 5 6 
#
# 1 104.7547 83.2397 24.4252 0.0000 0.0000 0.0000
# 2 83.2397 151.2548 34.3805 0.0000 0.0000 0.0000
# 3 24.4252 34.3805 76.9634 0.0000 0.0000 0.0000
# 4 0.0000 0.0000 0.0000 22.1651 0.0000 0.0000
# 5 0.0000 0.0000 0.0000 0.0000 -4.6750 0.0000
# 6 0.0000 0.0000 0.0000 0.0000 0.0000 45.9639
#
#
#
# Elastic Compliance Matrix: (Units=1/GPa)
#
#
# Indices 1 2 3 4 5 6 
#
# 1 0.017092 -0.009097 -0.001361 0.000000 0.000000 0.000000
# 2 -0.009097 0.012200 -0.002563 0.000000 0.000000 0.000000
# 3 -0.001361 -0.002563 0.014570 0.000000 0.000000 0.000000
# 4 0.000000 0.000000 0.000000 0.045116 0.000000 0.000000
# 5 0.000000 0.000000 0.000000 0.000000 -0.213905 0.000000
# 6 0.000000 0.000000 0.000000 0.000000 0.000000 0.021756
#
#
# Mechanical properties :
#
#
# Convention : Reuss Voigt Hill
#
# Bulk Modulus (GPa) = 56.11343 68.56263 62.33803
# Shear Modulus (GPa) = -70.23461 25.41931 -22.40765
#
# Velocity S-wave (km/s) = -5.92041 3.56170 -3.34406
# Velocity P-wave (km/s) = 4.32794 7.15060 4.02493
#
# Compressibility (1/GPa) = 0.01782105
#
# Stress axis : x y z
#
# Youngs Moduli (GPa) = 58.50743 81.96602 68.63464
#
# Poissons Ratio (x) = 0.74563 0.09338
# Poissons Ratio (y) = 0.53223 0.17591
# Poissons Ratio (z) = 0.07961 0.21008
#
# Static dielectric constant tensor:
#      x y z
#    x 3.951300 0.000000 0.000000 
#    y 0.000000 3.780250 0.000000 
#    z 0.000000 0.000000 3.381150 
# 
# 
# High freq. dielectric constant tensor:
#      x y z
#    x 1.782400 0.000000 0.000000 
#    y 0.000000 1.776790 0.000000 
#    z 0.000000 0.000000 1.775020 
# 
# From -- ./inp_files/6802.got.cif
#   From: 2010.03.12/outbox.cif.g09.slc.cpg/sg38_4_cif.got.tgz:6802.got - 2010.04.14 02:38:36.
