data_PCOD8179455
_publ_section_title
;
Structure prediction by ZEFSAII (Michael W. Deem and Ramdas Pophale) SiO2 
 PCOD8179455
Probable space group: A M M 2
;
_chemical_formula_sum "Si O2"
_cell_formula_units_Z 64
_cell_length_a 18.313340
_cell_length_b 8.839872
_cell_length_c 20.969859
_cell_angle_alpha 90.000000
_cell_angle_beta 90.000000
_cell_angle_gamma 90.000000
_cell_volume 3394.759758
_symmetry_space_group_name_H-M "A M M 2"
_symmetry_group_IT_number 38
_symmetry_cell_setting 'orthorhombic'
loop_
_space_group_symop_operation_xyz
x,y,z
-x,-y,z
-x,y,z
x,-y,z
x,1/2+y,1/2+z
-x,1/2-y,1/2+z
-x,1/2+y,1/2+z
x,1/2-y,1/2+z
loop_
_atom_site_type_symbol
_atom_site_label
_atom_site_fract_x
_atom_site_fract_y
_atom_site_fract_z
Si Si1 0.086739 0.170988 0.522920
Si Si2 0.580312 0.321164 0.535319
Si Si3 0.916081 0.822501 0.151137
Si Si4 0.324566 0.178032 0.780459
Si Si5 0.412808 0.173355 0.172655
Si Si6 0.915900 0.821814 0.893698
Si Si7 0.582821 0.679390 0.398267
Si Si8 0.831715 0.678758 0.776635
O O1 0.117415 0.244301 0.588005
O O2 0.115259 0.260371 0.460892
O O3 0.000000 0.181056 0.524847
O O4 0.115059 0.000000 0.518384
O O5 0.500000 0.248151 0.534392
O O6 0.572237 0.500000 0.536012
O O7 0.618540 0.276017 0.602304
O O8 0.617036 0.271634 0.467776
O O9 0.871956 0.765319 0.212594
O O10 0.000000 0.775525 0.161918
O O11 0.907859 0.000000 0.140923
O O12 0.377889 0.210553 0.721747
O O13 0.364053 0.242697 0.843822
O O14 0.251238 0.270920 0.771446
O O15 0.307884 0.000000 0.784576
O O16 0.500000 0.189222 0.174081
O O17 0.390143 0.000000 0.188175
O O18 0.868985 0.753633 0.837212
O O19 0.000000 0.772885 0.884102
O O20 0.906591 0.000000 0.893846
O O21 0.500000 0.742415 0.389581
O O22 0.579859 0.500000 0.392286
O O23 0.837712 0.500000 0.783957
#
# Coordination Sequence:
#
# PCOD8179455 Si02
#       8
#     8   8   8   8   8   8   8   8
#     4   9  17  30  52  82 111 136 165 206 257 312
#     4   7  11  23  46  74  98 120 155 204 250 295
#     4   9  18  34  56  79 101 129 170 219 267 315
#     4  11  22  34  49  72 104 139 173 213 261 311
#     4   9  17  31  53  78 101 128 165 209 257 311
#     4  10  20  35  57  83 109 137 172 215 260 309
#     4   8  14  27  49  75  99 126 165 210 253 299
#     4  11  23  38  54  73 103 143 183 222 265 314
#
# _framework density 18.852587
#
# number of rings (size 3 to 8) (size 9 to 14) (size 15 to 20)
#    0.000    2.750    0.000    3.750    0.000    4.500 
#    0.000    2.500    0.000    7.500    0.000    3.500 
#    0.000    0.000    0.000    0.000    0.000    0.000 
#
# Total GULP energy -396563.888034 kJ/mol
# GULP energy per Si atom -12392.621501 kJ/mol
# Density = 1.880968 g / cm^3
# Si number density = 18.852587 Si / 1000 Ang^3
#
#
#
# Elastic Constant Matrix: (Units=GPa)
#
#
# Indices 1 2 3 4 5 6 
#
# 1 54.6200 16.3112 47.1166 0.0000 0.0000 0.0000
# 2 16.3112 40.7313 34.1904 0.0000 0.0000 0.0000
# 3 47.1166 34.1904 182.2243 0.0000 0.0000 0.0000
# 4 0.0000 0.0000 0.0000 32.7126 0.0000 0.0000
# 5 0.0000 0.0000 0.0000 0.0000 0.7539 0.0000
# 6 0.0000 0.0000 0.0000 0.0000 0.0000 21.9184
#
#
#
# Elastic Compliance Matrix: (Units=1/GPa)
#
#
# Indices 1 2 3 4 5 6 
#
# 1 0.024503 -0.005334 -0.005335 0.000000 0.000000 0.000000
# 2 -0.005334 0.030302 -0.004306 0.000000 0.000000 0.000000
# 3 -0.005335 -0.004306 0.007675 0.000000 0.000000 0.000000
# 4 0.000000 0.000000 0.000000 0.030569 0.000000 0.000000
# 5 0.000000 0.000000 0.000000 0.000000 1.326418 0.000000
# 6 0.000000 0.000000 0.000000 0.000000 0.000000 0.045624
#
#
# Mechanical properties :
#
#
# Convention : Reuss Voigt Hill
#
# Bulk Modulus (GPa) = 30.74129 52.53465 41.63797
# Shear Modulus (GPa) = 3.32031 23.07413 13.19722
#
# Velocity S-wave (km/s) = 1.32854 3.50226 2.64866
# Velocity P-wave (km/s) = 4.32376 6.65439 5.61141
#
# Compressibility (1/GPa) = 0.03252953
#
# Stress axis : x y z
#
# Youngs Moduli (GPa) = 40.81091 33.00099 130.29173
#
# Poissons Ratio (x) = 0.17604 0.69507
# Poissons Ratio (y) = 0.21771 0.56107
# Poissons Ratio (z) = 0.21772 0.14211
#
# Static dielectric constant tensor:
#      x y z
#    x 2.983370 0.000000 0.000000 
#    y 0.000000 3.210010 0.000000 
#    z 0.000000 0.000000 4.006290 
# 
# 
# High freq. dielectric constant tensor:
#      x y z
#    x 1.693840 0.000000 0.000000 
#    y 0.000000 1.709060 0.000000 
#    z 0.000000 0.000000 1.760070 
# 
# From -- ./inp_files/21397.got.cif
#   From: 2010.03.12/outbox.cif.g09.slc.cpg/sg38_11_cif.got.tgz:21397.got - 2010.04.14 02:38:36.
