data_PCOD8179821
_publ_section_title
;
Structure prediction by ZEFSAII (Michael W. Deem and Ramdas Pophale) SiO2 
 PCOD8179821
Probable space group: A M M 2
;
_chemical_formula_sum "Si O2"
_cell_formula_units_Z 44
_cell_length_a 15.073702
_cell_length_b 17.323028
_cell_length_c 8.526581
_cell_angle_alpha 90.000000
_cell_angle_beta 90.000000
_cell_angle_gamma 90.000000
_cell_volume 2226.479264
_symmetry_space_group_name_H-M "A M M 2"
_symmetry_group_IT_number 38
_symmetry_cell_setting 'orthorhombic'
loop_
_space_group_symop_operation_xyz
x,y,z
-x,-y,z
-x,y,z
x,-y,z
x,1/2+y,1/2+z
-x,1/2-y,1/2+z
-x,1/2+y,1/2+z
x,1/2-y,1/2+z
loop_
_atom_site_type_symbol
_atom_site_label
_atom_site_fract_x
_atom_site_fract_y
_atom_site_fract_z
Si Si1 0.291348 0.765009 0.471620
Si Si2 0.813881 0.838075 0.746792
Si Si3 0.000000 0.290235 0.121638
Si Si4 0.401330 0.500000 0.555474
Si Si5 0.601382 0.663154 0.697015
Si Si6 0.000000 0.864461 0.281590
Si Si7 0.905821 0.000000 0.163118
Si Si8 0.773813 0.500000 0.385620
O O1 0.249470 0.820161 0.601172
O O2 0.212655 0.715101 0.394299
O O3 0.364206 0.708154 0.544510
O O4 0.339496 0.818800 0.346961
O O5 0.915650 0.824397 0.709643
O O6 0.802714 0.927069 0.786490
O O7 0.000000 0.196862 0.137524
O O8 0.000000 0.315879 0.940935
O O9 0.500000 0.500000 0.479415
O O10 0.388195 0.427212 0.667514
O O11 0.331822 0.500000 0.412638
O O12 0.500000 0.687242 0.727951
O O13 0.912149 0.920685 0.268604
O O14 0.819497 0.000000 0.057087
O O15 0.000000 0.000000 0.063419
#
# Coordination Sequence:
#
# PCOD8179821 Si02
#       8
#     8   8   4   4   8   4   4   4
#     4  10  22  41  60  97 125 160 216 255 323 372
#     4  11  26  39  64  90 130 168 212 262 313 371
#     4  12  24  39  65  93 125 167 217 261 310 370
#     4  10  22  39  62  91 124 167 207 251 324 380
#     4  10  20  39  66  92 126 164 207 261 317 385
#     4   9  24  41  63  92 127 167 209 264 308 372
#     4   8  24  42  63  90 126 167 209 246 327 369
#     4  12  24  43  63  93 126 172 206 269 309 379
#
# _framework density 19.762141
#
# number of rings (size 3 to 8) (size 9 to 14) (size 15 to 20)
#    0.545    1.091    1.818    1.636    6.364    3.636 
#    0.000    0.909    0.000    0.000    0.000    0.000 
#    0.000    0.000    0.000    0.000    0.000    0.000 
#
# Total GULP energy -272783.415807 kJ/mol
# GULP energy per Si atom -12399.246173 kJ/mol
# Density = 1.971716 g / cm^3
# Si number density = 19.762141 Si / 1000 Ang^3
#
#
#
# Elastic Constant Matrix: (Units=GPa)
#
#
# Indices 1 2 3 4 5 6 
#
# 1 104.9853 49.5073 22.6213 0.0000 0.0000 0.0000
# 2 49.5073 162.4168 60.0625 0.0000 0.0000 0.0000
# 3 22.6213 60.0625 81.8678 0.0000 0.0000 0.0000
# 4 0.0000 0.0000 0.0000 28.3955 0.0000 0.0000
# 5 0.0000 0.0000 0.0000 0.0000 23.5872 0.0000
# 6 0.0000 0.0000 0.0000 0.0000 0.0000 16.1732
#
#
#
# Elastic Compliance Matrix: (Units=1/GPa)
#
#
# Indices 1 2 3 4 5 6 
#
# 1 0.011163 -0.003104 -0.000807 0.000000 0.000000 0.000000
# 2 -0.003104 0.009313 -0.005974 0.000000 0.000000 0.000000
# 3 -0.000807 -0.005974 0.016821 0.000000 0.000000 0.000000
# 4 0.000000 0.000000 0.000000 0.035217 0.000000 0.000000
# 5 0.000000 0.000000 0.000000 0.000000 0.042396 0.000000
# 6 0.000000 0.000000 0.000000 0.000000 0.000000 0.061831
#
#
# Mechanical properties :
#
#
# Convention : Reuss Voigt Hill
#
# Bulk Modulus (GPa) = 57.06130 68.18356 62.62243
# Shear Modulus (GPa) = 24.70929 28.10309 26.40619
#
# Velocity S-wave (km/s) = 3.53984 3.77512 3.65937
# Velocity P-wave (km/s) = 6.75604 7.31977 7.04355
#
# Compressibility (1/GPa) = 0.01752501
#
# Stress axis : x y z
#
# Youngs Moduli (GPa) = 89.58283 107.38149 59.44937
#
# Poissons Ratio (x) = 0.33333 0.04798
# Poissons Ratio (y) = 0.27808 0.35518
# Poissons Ratio (z) = 0.07230 0.64155
#
# Static dielectric constant tensor:
#      x y z
#    x 3.740960 0.000000 0.000000 
#    y 0.000000 3.726920 0.000000 
#    z 0.000000 0.000000 3.464430 
# 
# 
# High freq. dielectric constant tensor:
#      x y z
#    x 1.778700 0.000000 0.000000 
#    y 0.000000 1.784720 0.000000 
#    z 0.000000 0.000000 1.757950 
# 
# From -- ./inp_files/5442.got.cif
#   From: 2010.03.12/outbox.cif.g09.slc.cpg/sg38_3_cif.got.tgz:5442.got - 2010.04.14 02:38:36.
