data_PCOD8179523
_publ_section_title
;
Structure prediction by ZEFSAII (Michael W. Deem and Ramdas Pophale) SiO2 
 PCOD8179523
Probable space group: A M M 2
;
_chemical_formula_sum "Si O2"
_cell_formula_units_Z 64
_cell_length_a 23.776519
_cell_length_b 8.623869
_cell_length_c 15.447752
_cell_angle_alpha 90.000000
_cell_angle_beta 90.000000
_cell_angle_gamma 90.000000
_cell_volume 3167.493348
_symmetry_space_group_name_H-M "A M M 2"
_symmetry_group_IT_number 38
_symmetry_cell_setting 'orthorhombic'
loop_
_space_group_symop_operation_xyz
x,y,z
-x,-y,z
-x,y,z
x,-y,z
x,1/2+y,1/2+z
-x,1/2-y,1/2+z
-x,1/2+y,1/2+z
x,1/2-y,1/2+z
loop_
_atom_site_type_symbol
_atom_site_label
_atom_site_fract_x
_atom_site_fract_y
_atom_site_fract_z
Si Si1 0.736790 0.182413 0.262860
Si Si2 0.136519 0.182383 0.249677
Si Si3 0.937496 0.315545 0.594534
Si Si4 0.562439 0.676489 0.340339
Si Si5 0.324501 0.320806 0.426575
Si Si6 0.326868 0.679079 0.103531
Si Si7 0.563400 0.320459 0.658972
Si Si8 0.934757 0.819603 0.900470
O O1 0.800221 0.246553 0.253633
O O2 0.709266 0.272367 0.342021
O O3 0.704025 0.217591 0.174812
O O4 0.734723 0.000000 0.281485
O O5 0.105203 0.255102 0.165583
O O6 0.103572 0.221774 0.336668
O O7 0.138231 0.000000 0.238547
O O8 0.939328 0.500000 0.599308
O O9 0.918769 0.266393 0.497919
O O10 0.000000 0.250476 0.614423
O O11 0.500000 0.701386 0.380412
O O12 0.569333 0.500000 0.305928
O O13 0.608877 0.710933 0.413074
O O14 0.572601 0.791811 0.260820
O O15 0.312699 0.500000 0.446067
O O16 0.303408 0.221996 0.508645
O O17 0.315752 0.500000 0.123301
O O18 0.393311 0.717315 0.104418
O O19 0.500000 0.273431 0.632134
O O20 0.575083 0.500000 0.639202
O O21 0.000000 0.783614 0.881904
O O22 0.921862 0.000000 0.886838
#
# Coordination Sequence:
#
# PCOD8179523 Si02
#       8
#     8   8   8   8   8   8   8   8
#     4  11  24  42  60  84 119 155 201 256 301 351
#     4  10  21  36  58  85 112 149 195 241 289 341
#     4   8  15  31  55  82 114 151 188 226 274 335
#     4   9  18  34  58  87 117 148 187 237 293 355
#     4  11  23  40  63  88 115 155 198 243 302 360
#     4  12  25  41  62  87 117 157 199 245 300 357
#     4  10  20  35  59  89 120 153 190 237 293 353
#     4   9  18  33  55  85 119 153 190 234 284 340
#
# _framework density 20.205251000000001
#
# number of rings (size 3 to 8) (size 9 to 14) (size 15 to 20)
#    0.000    2.000    1.250    3.375    0.000    4.500 
#    0.000    3.125    0.000    0.750    0.000    0.000 
#    0.000    0.000    0.000    0.000    0.000    0.000 
#
# Total GULP energy -396828.284480 kJ/mol
# GULP energy per Si atom -12400.883890 kJ/mol
# Density = 2.015926 g / cm^3
# Si number density = 20.205251 Si / 1000 Ang^3
#
#
#
# Elastic Constant Matrix: (Units=GPa)
#
#
# Indices 1 2 3 4 5 6 
#
# 1 107.0905 14.6401 52.6326 0.0000 0.0000 0.0000
# 2 14.6401 36.1317 5.9086 0.0000 0.0000 0.0000
# 3 52.6326 5.9086 116.0453 0.0000 0.0000 0.0000
# 4 0.0000 0.0000 0.0000 32.7416 0.0000 0.0000
# 5 0.0000 0.0000 0.0000 0.0000 6.4688 0.0000
# 6 0.0000 0.0000 0.0000 0.0000 0.0000 23.1516
#
#
#
# Elastic Compliance Matrix: (Units=1/GPa)
#
#
# Indices 1 2 3 4 5 6 
#
# 1 0.012622 -0.004213 -0.005510 0.000000 0.000000 0.000000
# 2 -0.004213 0.029315 0.000418 0.000000 0.000000 0.000000
# 3 -0.005510 0.000418 0.011095 0.000000 0.000000 0.000000
# 4 0.000000 0.000000 0.000000 0.030542 0.000000 0.000000
# 5 0.000000 0.000000 0.000000 0.000000 0.154589 0.000000
# 6 0.000000 0.000000 0.000000 0.000000 0.000000 0.043194
#
#
# Mechanical properties :
#
#
# Convention : Reuss Voigt Hill
#
# Bulk Modulus (GPa) = 29.05100 45.07000 37.06050
# Shear Modulus (GPa) = 16.05437 24.87813 20.46625
#
# Velocity S-wave (km/s) = 2.82186 3.51275 3.18609
# Velocity P-wave (km/s) = 5.00263 6.22953 5.64949
#
# Compressibility (1/GPa) = 0.03442223
#
# Stress axis : x y z
#
# Youngs Moduli (GPa) = 79.22653 34.11188 90.12904
#
# Poissons Ratio (x) = 0.14372 0.49663
# Poissons Ratio (y) = 0.33380 -0.03770
# Poissons Ratio (z) = 0.43656 -0.01427
#
# Static dielectric constant tensor:
#      x y z
#    x 3.963370 0.000000 0.000000 
#    y 0.000000 3.426040 0.000000 
#    z 0.000000 0.000000 3.641640 
# 
# 
# High freq. dielectric constant tensor:
#      x y z
#    x 1.789750 0.000000 0.000000 
#    y 0.000000 1.770690 0.000000 
#    z 0.000000 0.000000 1.790190 
# 
# From -- ./inp_files/15793.got.cif
#   From: 2010.03.12/outbox.cif.g09.slc.cpg/sg38_8_cif.got.tgz:15793.got - 2010.04.14 02:38:36.
