data_PCOD8179737
_publ_section_title
;
Structure prediction by ZEFSAII (Michael W. Deem and Ramdas Pophale) SiO2 
 PCOD8179737
Probable space group: A M M 2
;
_chemical_formula_sum "Si O2"
_cell_formula_units_Z 48
_cell_length_a 8.754741
_cell_length_b 18.186870
_cell_length_c 14.925192
_cell_angle_alpha 90.000000
_cell_angle_beta 90.000000
_cell_angle_gamma 90.000000
_cell_volume 2376.409017
_symmetry_space_group_name_H-M "A M M 2"
_symmetry_group_IT_number 38
_symmetry_cell_setting 'orthorhombic'
loop_
_space_group_symop_operation_xyz
x,y,z
-x,-y,z
-x,y,z
x,-y,z
x,1/2+y,1/2+z
-x,1/2-y,1/2+z
-x,1/2+y,1/2+z
x,1/2-y,1/2+z
loop_
_atom_site_type_symbol
_atom_site_label
_atom_site_fract_x
_atom_site_fract_y
_atom_site_fract_z
Si Si1 0.820250 0.769484 0.302310
Si Si2 0.822615 0.000000 0.904400
Si Si3 0.672441 0.104755 0.036073
Si Si4 0.819741 0.151615 0.652401
Si Si5 0.173700 0.579647 0.716286
Si Si6 0.320323 0.000000 0.713681
Si Si7 0.673984 0.768334 0.493519
O O1 0.763848 0.711356 0.226741
O O2 0.772589 0.852997 0.277793
O O3 0.736357 0.753896 0.394618
O O4 0.000000 0.761744 0.317032
O O5 0.719682 0.000000 0.817299
O O6 0.784088 0.073194 0.960041
O O7 0.000000 0.000000 0.877433
O O8 0.500000 0.080253 0.013348
O O9 0.719285 0.071943 0.130758
O O10 0.687357 0.191585 0.044563
O O11 0.771920 0.174848 0.552032
O O12 0.000000 0.144033 0.656481
O O13 0.746838 0.072675 0.668571
O O14 0.184367 0.500000 0.767010
O O15 0.000000 0.594798 0.684319
O O16 0.500000 0.000000 0.699956
O O17 0.500000 0.796245 0.488175
#
# Coordination Sequence:
#
# PCOD8179737 Si02
#       7
#     8   4   8   8   8   4   8
#     4  10  22  40  64  93 124 164 214 263 310 372
#     4  12  24  38  60  91 126 165 210 258 314 380
#     4  11  22  36  58  90 125 161 203 255 317 375
#     4  11  23  43  69  94 125 167 216 264 314 375
#     4  10  20  37  61  90 123 161 203 254 311 369
#     4  12  26  44  64  91 128 163 206 262 324 380
#     4  11  24  40  62  92 126 167 210 260 318 375
#
# _framework density 20.198542
#
# number of rings (size 3 to 8) (size 9 to 14) (size 15 to 20)
#    0.000    1.167    2.500    4.000    0.000    6.667 
#    1.500    0.000    0.000    0.000    0.000    0.000 
#    0.000    0.000    0.000    0.000    0.000    0.000 
#
# Total GULP energy -297618.173515 kJ/mol
# GULP energy per Si atom -12400.757230 kJ/mol
# Density = 2.015257 g / cm^3
# Si number density = 20.198542 Si / 1000 Ang^3
#
#
#
# Elastic Constant Matrix: (Units=GPa)
#
#
# Indices 1 2 3 4 5 6 
#
# 1 87.3729 45.9644 35.1311 0.0000 0.0000 0.0000
# 2 45.9644 134.0635 29.5713 0.0000 0.0000 0.0000
# 3 35.1311 29.5713 80.7495 0.0000 0.0000 0.0000
# 4 0.0000 0.0000 0.0000 31.4585 0.0000 0.0000
# 5 0.0000 0.0000 0.0000 0.0000 30.0338 0.0000
# 6 0.0000 0.0000 0.0000 0.0000 0.0000 28.3853
#
#
#
# Elastic Compliance Matrix: (Units=1/GPa)
#
#
# Indices 1 2 3 4 5 6 
#
# 1 0.015823 -0.004250 -0.005328 0.000000 0.000000 0.000000
# 2 -0.004250 0.009256 -0.001541 0.000000 0.000000 0.000000
# 3 -0.005328 -0.001541 0.015266 0.000000 0.000000 0.000000
# 4 0.000000 0.000000 0.000000 0.031788 0.000000 0.000000
# 5 0.000000 0.000000 0.000000 0.000000 0.033296 0.000000
# 6 0.000000 0.000000 0.000000 0.000000 0.000000 0.035229
#
#
# Mechanical properties :
#
#
# Convention : Reuss Voigt Hill
#
# Bulk Modulus (GPa) = 55.22203 58.16884 56.69543
# Shear Modulus (GPa) = 29.59782 30.74345 30.17064
#
# Velocity S-wave (km/s) = 3.83213 3.90560 3.86904
# Velocity P-wave (km/s) = 6.85415 7.01422 6.93464
#
# Compressibility (1/GPa) = 0.01810872
#
# Stress axis : x y z
#
# Youngs Moduli (GPa) = 63.19871 108.03697 65.50465
#
# Poissons Ratio (x) = 0.45914 0.34899
# Poissons Ratio (y) = 0.26859 0.10092
# Poissons Ratio (z) = 0.33670 0.16645
#
# Static dielectric constant tensor:
#      x y z
#    x 3.689560 0.000000 0.000000 
#    y 0.000000 3.435990 0.000000 
#    z 0.000000 0.000000 3.494180 
# 
# 
# High freq. dielectric constant tensor:
#      x y z
#    x 1.792350 0.000000 0.000000 
#    y 0.000000 1.805070 0.000000 
#    z 0.000000 0.000000 1.774920 
# 
# From -- ./inp_files/12144.got.cif
#   From: 2010.03.12/outbox.cif.g09.slc.cpg/sg38_7_cif.got.tgz:12144.got - 2010.04.14 02:38:36.
