data_PCOD8179908
_publ_section_title
;
Structure prediction by ZEFSAII (Michael W. Deem and Ramdas Pophale) SiO2 
 PCOD8179908
Probable space group: A M M 2
;
_chemical_formula_sum "Si O2"
_cell_formula_units_Z 56
_cell_length_a 15.343313
_cell_length_b 18.594354
_cell_length_c 10.111438
_cell_angle_alpha 90.000000
_cell_angle_beta 90.000000
_cell_angle_gamma 90.000000
_cell_volume 2884.783084
_symmetry_space_group_name_H-M "A M M 2"
_symmetry_group_IT_number 38
_symmetry_cell_setting 'orthorhombic'
loop_
_space_group_symop_operation_xyz
x,y,z
-x,-y,z
-x,y,z
x,-y,z
x,1/2+y,1/2+z
-x,1/2-y,1/2+z
-x,1/2+y,1/2+z
x,1/2-y,1/2+z
loop_
_atom_site_type_symbol
_atom_site_label
_atom_site_fract_x
_atom_site_fract_y
_atom_site_fract_z
Si Si1 0.263430 0.079764 0.941680
Si Si2 0.597010 0.314084 0.085336
Si Si3 0.340785 0.213430 0.319714
Si Si4 0.097250 0.320147 0.136000
Si Si5 0.399569 0.917721 0.163463
Si Si6 0.836033 0.220071 0.912046
Si Si7 0.260001 0.419467 0.136519
O O1 0.194804 0.143025 0.971790
O O2 0.289078 0.084179 0.788681
O O3 0.223568 0.000000 0.973477
O O4 0.352018 0.092103 0.022883
O O5 0.500000 0.341073 0.118429
O O6 0.633297 0.264961 0.200913
O O7 0.662440 0.380245 0.058628
O O8 0.597252 0.271081 0.946152
O O9 0.351399 0.131158 0.272154
O O10 0.242615 0.229355 0.363711
O O11 0.102566 0.290231 0.285229
O O12 0.166547 0.383221 0.112681
O O13 0.000000 0.351171 0.115277
O O14 0.112256 0.256680 0.031016
O O15 0.500000 0.893035 0.146390
O O16 0.393972 0.000000 0.212575
O O17 0.252557 0.500000 0.082725
#
# Coordination Sequence:
#
# PCOD8179908 Si02
#       7
#     8   8   8   8   8   8   8
#     4   9  18  35  59  83 115 158 196 238 298 355
#     4  12  24  38  60  88 120 161 203 247 296 349
#     4  12  22  40  58  85 119 160 200 252 298 358
#     4  11  22  39  65  92 117 152 198 251 307 360
#     4  10  21  35  53  81 118 160 207 252 295 350
#     4  11  20  39  61  89 121 153 195 248 302 360
#     4  10  22  40  59  86 122 159 199 245 301 357
#
# _framework density 19.412206000000001
#
# number of rings (size 3 to 8) (size 9 to 14) (size 15 to 20)
#    0.000    1.286    4.286    3.429    0.000    1.714 
#    0.000    1.429    0.000    1.286    0.000    0.000 
#    0.000    0.000    0.000    0.000    0.000    0.000 
#
# Total GULP energy -347151.786406 kJ/mol
# GULP energy per Si atom -12398.278086 kJ/mol
# Density = 1.936802 g / cm^3
# Si number density = 19.412206 Si / 1000 Ang^3
#
#
#
# Elastic Constant Matrix: (Units=GPa)
#
#
# Indices 1 2 3 4 5 6 
#
# 1 116.0014 45.5506 26.8236 0.0000 0.0000 0.0000
# 2 45.5506 114.8036 39.9403 0.0000 0.0000 0.0000
# 3 26.8236 39.9403 82.1089 0.0000 0.0000 0.0000
# 4 0.0000 0.0000 0.0000 24.8297 0.0000 0.0000
# 5 0.0000 0.0000 0.0000 0.0000 22.0230 0.0000
# 6 0.0000 0.0000 0.0000 0.0000 0.0000 12.6561
#
#
#
# Elastic Compliance Matrix: (Units=1/GPa)
#
#
# Indices 1 2 3 4 5 6 
#
# 1 0.010399 -0.003544 -0.001673 0.000000 0.000000 0.000000
# 2 -0.003544 0.011693 -0.004530 0.000000 0.000000 0.000000
# 3 -0.001673 -0.004530 0.014929 0.000000 0.000000 0.000000
# 4 0.000000 0.000000 0.000000 0.040274 0.000000 0.000000
# 5 0.000000 0.000000 0.000000 0.000000 0.045407 0.000000
# 6 0.000000 0.000000 0.000000 0.000000 0.000000 0.079013
#
#
# Mechanical properties :
#
#
# Convention : Reuss Voigt Hill
#
# Bulk Modulus (GPa) = 57.05652 59.72701 58.39176
# Shear Modulus (GPa) = 22.02139 25.27505 23.64822
#
# Velocity S-wave (km/s) = 3.37175 3.61226 3.49408
# Velocity P-wave (km/s) = 6.67939 6.94496 6.81347
#
# Compressibility (1/GPa) = 0.01752648
#
# Stress axis : x y z
#
# Youngs Moduli (GPa) = 96.16201 85.52416 66.98334
#
# Poissons Ratio (x) = 0.30309 0.11209
# Poissons Ratio (y) = 0.34079 0.30343
# Poissons Ratio (z) = 0.16091 0.38742
#
# Static dielectric constant tensor:
#      x y z
#    x 3.429600 0.000000 0.000000 
#    y 0.000000 3.841740 0.000000 
#    z 0.000000 0.000000 3.715610 
# 
# 
# High freq. dielectric constant tensor:
#      x y z
#    x 1.739410 0.000000 0.000000 
#    y 0.000000 1.757180 0.000000 
#    z 0.000000 0.000000 1.763970 
# 
# From -- ./inp_files/5716.got.cif
#   From: 2010.03.12/outbox.cif.g09.slc.cpg/sg38_3_cif.got.tgz:5716.got - 2010.04.14 02:38:36.
