data_PCOD8179627
_publ_section_title
;
Structure prediction by ZEFSAII (Michael W. Deem and Ramdas Pophale) SiO2 
 PCOD8179627
Probable space group: A M M 2
;
_chemical_formula_sum "Si O2"
_cell_formula_units_Z 48
_cell_length_a 8.447327
_cell_length_b 10.022266
_cell_length_c 28.169685
_cell_angle_alpha 90.000000
_cell_angle_beta 90.000000
_cell_angle_gamma 90.000000
_cell_volume 2384.883792
_symmetry_space_group_name_H-M "A M M 2"
_symmetry_group_IT_number 38
_symmetry_cell_setting 'orthorhombic'
loop_
_space_group_symop_operation_xyz
x,y,z
-x,-y,z
-x,y,z
x,-y,z
x,1/2+y,1/2+z
-x,1/2-y,1/2+z
-x,1/2+y,1/2+z
x,1/2-y,1/2+z
loop_
_atom_site_type_symbol
_atom_site_label
_atom_site_fract_x
_atom_site_fract_y
_atom_site_fract_z
Si Si1 0.312121 0.656413 0.375000
Si Si2 0.185847 0.344248 0.956407
Si Si3 0.313926 0.243072 0.052822
Si Si4 0.310724 0.000000 0.711058
Si Si5 0.182758 0.000000 0.110945
Si Si6 0.311799 0.242257 0.771115
Si Si7 0.311873 0.500000 0.106443
Si Si8 0.687786 0.000000 0.217507
O O1 0.500000 0.669030 0.381018
O O2 0.262217 0.500000 0.381544
O O3 0.225723 0.757280 0.410387
O O4 0.253725 0.712139 0.324233
O O5 0.244052 0.500000 0.951900
O O6 0.000000 0.342392 0.965845
O O7 0.273962 0.263254 0.997828
O O8 0.500000 0.219620 0.058769
O O9 0.224937 0.123464 0.077841
O O10 0.248251 0.372549 0.079158
O O11 0.243601 0.127712 0.737670
O O12 0.238887 0.000000 0.658655
O O13 0.500000 0.000000 0.710195
O O14 0.268489 0.000000 0.161930
O O15 0.000000 0.000000 0.123022
O O16 0.500000 0.243718 0.770772
O O17 0.243182 0.376159 0.747472
O O18 0.500000 0.500000 0.107804
O O19 0.500000 0.000000 0.218872
#
# Coordination Sequence:
#
# PCOD8179627 Si02
#       8
#     8   8   8   4   4   8   4   4
#     4  10  21  38  62  94 125 157 202 257 310 365
#     4  11  25  43  62  88 123 164 203 249 312 378
#     4  11  22  41  66  93 120 154 204 259 307 361
#     4   9  14  26  49  81 118 145 173 231 302 361
#     4  12  26  42  59  88 129 172 207 246 305 372
#     4   9  17  31  55  87 120 151 195 252 307 354
#     4   9  18  32  60  95 118 144 189 248 306 355
#     4  10  20  36  59  88 119 159 209 259 305 358
#
# _framework density 20.126764999999999
#
# number of rings (size 3 to 8) (size 9 to 14) (size 15 to 20)
#    0.000    1.833    1.667    2.750    2.333    4.000 
#    0.000    0.833    0.000    0.000    0.000    0.000 
#    0.000    0.000    0.000    0.000    0.000    0.000 
#
# Total GULP energy -297491.389418 kJ/mol
# GULP energy per Si atom -12395.474559 kJ/mol
# Density = 2.008096 g / cm^3
# Si number density = 20.126765 Si / 1000 Ang^3
#
#
#
# Elastic Constant Matrix: (Units=GPa)
#
#
# Indices 1 2 3 4 5 6 
#
# 1 32.9565 16.6582 5.1420 0.0000 0.0000 0.0000
# 2 16.6582 167.8666 67.2023 0.0000 0.0000 0.0000
# 3 5.1420 67.2023 146.4781 0.0000 0.0000 0.0000
# 4 0.0000 0.0000 0.0000 47.2956 0.0000 0.0000
# 5 0.0000 0.0000 0.0000 0.0000 7.2653 0.0000
# 6 0.0000 0.0000 0.0000 0.0000 0.0000 22.4775
#
#
#
# Elastic Compliance Matrix: (Units=1/GPa)
#
#
# Indices 1 2 3 4 5 6 
#
# 1 0.031965 -0.003335 0.000408 0.000000 0.000000 0.000000
# 2 -0.003335 0.007645 -0.003391 0.000000 0.000000 0.000000
# 3 0.000408 -0.003391 0.008368 0.000000 0.000000 0.000000
# 4 0.000000 0.000000 0.000000 0.021144 0.000000 0.000000
# 5 0.000000 0.000000 0.000000 0.000000 0.137641 0.000000
# 6 0.000000 0.000000 0.000000 0.000000 0.000000 0.044489
#
#
# Mechanical properties :
#
#
# Convention : Reuss Voigt Hill
#
# Bulk Modulus (GPa) = 28.29399 58.36733 43.33066
# Shear Modulus (GPa) = 18.13766 32.62759 25.38263
#
# Velocity S-wave (km/s) = 3.00521 4.03066 3.55510
# Velocity P-wave (km/s) = 5.11176 7.12211 6.19897
#
# Compressibility (1/GPa) = 0.03534320
#
# Stress axis : x y z
#
# Youngs Moduli (GPa) = 31.28395 130.79682 119.50042
#
# Poissons Ratio (x) = 0.43627 -0.04877
# Poissons Ratio (y) = 0.10435 0.40517
# Poissons Ratio (z) = -0.01277 0.44347
#
# Static dielectric constant tensor:
#      x y z
#    x 3.211140 0.000000 0.000000 
#    y 0.000000 3.973550 0.000000 
#    z 0.000000 0.000000 3.838270 
# 
# 
# High freq. dielectric constant tensor:
#      x y z
#    x 1.747580 0.000000 0.000000 
#    y 0.000000 1.804420 0.000000 
#    z 0.000000 0.000000 1.804220 
# 
# From -- ./inp_files/24450.got.cif
#   From: 2010.03.12/outbox.cif.g09.slc.cpg/sg38_13_cif.got.tgz:24450.got - 2010.04.14 02:38:36.
