data_PCOD8179832
_publ_section_title
;
Structure prediction by ZEFSAII (Michael W. Deem and Ramdas Pophale) SiO2 
 PCOD8179832
Probable space group: A M M 2
;
_chemical_formula_sum "Si O2"
_cell_formula_units_Z 48
_cell_length_a 7.779624
_cell_length_b 9.123392
_cell_length_c 34.678654
_cell_angle_alpha 90.000000
_cell_angle_beta 90.000000
_cell_angle_gamma 90.000000
_cell_volume 2461.371544
_symmetry_space_group_name_H-M "A M M 2"
_symmetry_group_IT_number 38
_symmetry_cell_setting 'orthorhombic'
loop_
_space_group_symop_operation_xyz
x,y,z
-x,-y,z
-x,y,z
x,-y,z
x,1/2+y,1/2+z
-x,1/2-y,1/2+z
-x,1/2+y,1/2+z
x,1/2-y,1/2+z
loop_
_atom_site_type_symbol
_atom_site_label
_atom_site_fract_x
_atom_site_fract_y
_atom_site_fract_z
Si Si1 0.799150 0.827013 0.281850
Si Si2 0.500000 0.826380 0.916848
Si Si3 0.500000 0.324983 0.328258
Si Si4 0.192880 0.324815 0.468627
Si Si5 0.803811 0.842757 0.051585
Si Si6 0.201645 0.664830 0.204837
Si Si7 0.696313 0.835771 0.622816
O O1 0.675181 0.742745 0.311207
O O2 0.745224 0.771804 0.239407
O O3 0.000000 0.789347 0.290699
O O4 0.766149 0.000000 0.284312
O O5 0.500000 0.777954 0.872675
O O6 0.327438 0.762955 0.937119
O O7 0.500000 0.000000 0.920586
O O8 0.500000 0.500000 0.322122
O O9 0.190188 0.500000 0.468129
O O10 0.263884 0.273302 0.511167
O O11 0.000000 0.264335 0.459325
O O12 0.796259 0.743119 0.089010
O O13 0.000000 0.873265 0.042138
O O14 0.712709 0.000000 0.060339
O O15 0.275374 0.500000 0.212386
O O16 0.276966 0.734107 0.165245
O O17 0.000000 0.657736 0.200349
O O18 0.500000 0.830811 0.610634
O O19 0.769325 0.000000 0.625194
#
# Coordination Sequence:
#
# PCOD8179832 Si02
#       7
#     8   4   4   8   8   8   8
#     4  10  22  40  61  85 115 151 189 231 282 340
#     4   9  18  31  51  80 109 140 173 216 277 331
#     4  11  23  37  59  90 119 146 183 232 285 343
#     4   8  15  29  49  75 107 139 175 222 272 321
#     4   9  18  32  51  75 102 137 181 225 267 313
#     4   9  18  34  55  77 103 140 184 229 276 322
#     4  10  21  33  47  74 110 144 179 219 265 317
#
# _framework density 19.501321999999998
#
# number of rings (size 3 to 8) (size 9 to 14) (size 15 to 20)
#    0.000    2.667    0.000    2.250    2.333    3.667 
#    0.000    3.333    0.000    2.000    0.000    0.000 
#    0.000    0.000    0.000    0.000    0.000    0.000 
#
# Total GULP energy -297394.679750 kJ/mol
# GULP energy per Si atom -12391.444990 kJ/mol
# Density = 1.945694 g / cm^3
# Si number density = 19.501322 Si / 1000 Ang^3
#
#
#
# Elastic Constant Matrix: (Units=GPa)
#
#
# Indices 1 2 3 4 5 6 
#
# 1 87.6131 31.4588 68.8223 0.0000 0.0000 0.0000
# 2 31.4588 63.6764 53.3897 0.0000 0.0000 0.0000
# 3 68.8223 53.3897 176.3397 0.0000 0.0000 0.0000
# 4 0.0000 0.0000 0.0000 23.3834 0.0000 0.0000
# 5 0.0000 0.0000 0.0000 0.0000 35.9166 0.0000
# 6 0.0000 0.0000 0.0000 0.0000 0.0000 20.4524
#
#
#
# Elastic Compliance Matrix: (Units=1/GPa)
#
#
# Indices 1 2 3 4 5 6 
#
# 1 0.017130 -0.003830 -0.005526 0.000000 0.000000 0.000000
# 2 -0.003830 0.021904 -0.005137 0.000000 0.000000 0.000000
# 3 -0.005526 -0.005137 0.009383 0.000000 0.000000 0.000000
# 4 0.000000 0.000000 0.000000 0.042765 0.000000 0.000000
# 5 0.000000 0.000000 0.000000 0.000000 0.027842 0.000000
# 6 0.000000 0.000000 0.000000 0.000000 0.000000 0.048894
#
#
# Mechanical properties :
#
#
# Convention : Reuss Voigt Hill
#
# Bulk Modulus (GPa) = 51.46413 70.55231 61.00822
# Shear Modulus (GPa) = 24.58452 27.54768 26.06610
#
# Velocity S-wave (km/s) = 3.55443 3.76254 3.65996
# Velocity P-wave (km/s) = 6.57971 7.42512 7.01516
#
# Compressibility (1/GPa) = 0.01943101
#
# Stress axis : x y z
#
# Youngs Moduli (GPa) = 58.37830 45.65475 106.57701
#
# Poissons Ratio (x) = 0.17484 0.58894
# Poissons Ratio (y) = 0.22356 0.54749
# Poissons Ratio (z) = 0.32260 0.23453
#
# Static dielectric constant tensor:
#      x y z
#    x 3.590150 0.000000 0.000000 
#    y 0.000000 3.255550 0.000000 
#    z 0.000000 0.000000 3.687720 
# 
# 
# High freq. dielectric constant tensor:
#      x y z
#    x 1.763320 0.000000 0.000000 
#    y 0.000000 1.719030 0.000000 
#    z 0.000000 0.000000 1.766470 
# 
# From -- ./inp_files/24409.got.cif
#   From: 2010.03.12/outbox.cif.g09.slc.cpg/sg38_13_cif.got.tgz:24409.got - 2010.04.14 02:38:36.
