data_PCOD8179703
_publ_section_title
;
Structure prediction by ZEFSAII (Michael W. Deem and Ramdas Pophale) SiO2 
 PCOD8179703
Probable space group: A M M 2
;
_chemical_formula_sum "Si O2"
_cell_formula_units_Z 48
_cell_length_a 16.903140
_cell_length_b 8.802259
_cell_length_c 15.789055
_cell_angle_alpha 90.000000
_cell_angle_beta 90.000000
_cell_angle_gamma 90.000000
_cell_volume 2349.187435
_symmetry_space_group_name_H-M "A M M 2"
_symmetry_group_IT_number 38
_symmetry_cell_setting 'orthorhombic'
loop_
_space_group_symop_operation_xyz
x,y,z
-x,-y,z
-x,y,z
x,-y,z
x,1/2+y,1/2+z
-x,1/2-y,1/2+z
-x,1/2+y,1/2+z
x,1/2-y,1/2+z
loop_
_atom_site_type_symbol
_atom_site_label
_atom_site_fract_x
_atom_site_fract_y
_atom_site_fract_z
Si Si1 0.177583 0.824844 0.136250
Si Si2 0.339992 0.677808 0.877878
Si Si3 0.500000 0.324498 0.639744
Si Si4 0.189091 0.320367 0.308255
Si Si5 0.662814 0.826788 0.049867
Si Si6 0.089180 0.180693 0.968601
Si Si7 0.500000 0.821879 0.817550
O O1 0.151121 0.730379 0.218841
O O2 0.271684 0.804165 0.122430
O O3 0.155463 0.000000 0.151735
O O4 0.131244 0.760416 0.054203
O O5 0.345564 0.500000 0.861689
O O6 0.275518 0.745804 0.814074
O O7 0.424152 0.752472 0.862181
O O8 0.314993 0.714718 0.973762
O O9 0.500000 0.500000 0.669802
O O10 0.576863 0.285890 0.585114
O O11 0.500000 0.213770 0.718776
O O12 0.197539 0.500000 0.311177
O O13 0.134799 0.259254 0.385307
O O14 0.665670 0.000000 0.015833
O O15 0.000000 0.244238 0.966153
O O16 0.090374 0.000000 0.967720
O O17 0.500000 0.000000 0.833075
#
# Coordination Sequence:
#
# PCOD8179703 Si02
#       7
#     8   8   4   8   8   8   4
#     4  10  20  37  61  89 123 162 206 253 309 372
#     4  12  24  39  61  88 121 160 207 257 307 363
#     4  10  21  36  57  85 121 159 201 251 306 363
#     4  11  22  39  63  92 125 164 210 256 310 371
#     4  10  20  37  59  85 118 160 202 249 307 369
#     4   9  19  38  63  89 123 167 208 251 311 380
#     4  12  25  40  59  85 121 161 207 255 304 361
#
# _framework density 20.432596
#
# number of rings (size 3 to 8) (size 9 to 14) (size 15 to 20)
#    0.000    1.500    1.667    4.250    0.000    4.000 
#    0.000    0.000    0.000    3.500    0.000    0.000 
#    0.000    0.000    0.000    0.000    0.000    0.000 
#
# Total GULP energy -297703.515299 kJ/mol
# GULP energy per Si atom -12404.313137 kJ/mol
# Density = 2.038609 g / cm^3
# Si number density = 20.432596 Si / 1000 Ang^3
#
#
#
# Elastic Constant Matrix: (Units=GPa)
#
#
# Indices 1 2 3 4 5 6 
#
# 1 128.0168 32.2627 54.1687 0.0000 0.0000 0.0000
# 2 32.2627 93.6546 46.2494 0.0000 0.0000 0.0000
# 3 54.1687 46.2494 150.5086 0.0000 0.0000 0.0000
# 4 0.0000 0.0000 0.0000 39.6063 0.0000 0.0000
# 5 0.0000 0.0000 0.0000 0.0000 21.0600 0.0000
# 6 0.0000 0.0000 0.0000 0.0000 0.0000 19.4811
#
#
#
# Elastic Compliance Matrix: (Units=1/GPa)
#
#
# Indices 1 2 3 4 5 6 
#
# 1 0.009483 -0.001864 -0.002840 0.000000 0.000000 0.000000
# 2 -0.001864 0.012954 -0.003310 0.000000 0.000000 0.000000
# 3 -0.002840 -0.003310 0.008683 0.000000 0.000000 0.000000
# 4 0.000000 0.000000 0.000000 0.025249 0.000000 0.000000
# 5 0.000000 0.000000 0.000000 0.000000 0.047483 0.000000
# 6 0.000000 0.000000 0.000000 0.000000 0.000000 0.051332
#
#
# Mechanical properties :
#
#
# Convention : Reuss Voigt Hill
#
# Bulk Modulus (GPa) = 66.25846 70.83797 68.54822
# Shear Modulus (GPa) = 28.36990 31.99610 30.18300
#
# Velocity S-wave (km/s) = 3.73025 3.96148 3.84760
# Velocity P-wave (km/s) = 7.14502 7.46115 7.30480
#
# Compressibility (1/GPa) = 0.01509241
#
# Stress axis : x y z
#
# Youngs Moduli (GPa) = 105.45105 77.19524 115.16292
#
# Poissons Ratio (x) = 0.14391 0.32708
# Poissons Ratio (y) = 0.19659 0.38116
# Poissons Ratio (z) = 0.29950 0.25549
#
# Static dielectric constant tensor:
#      x y z
#    x 3.891330 0.000000 0.000000 
#    y 0.000000 3.500680 0.000000 
#    z 0.000000 0.000000 3.796680 
# 
# 
# High freq. dielectric constant tensor:
#      x y z
#    x 1.802500 0.000000 0.000000 
#    y 0.000000 1.773750 0.000000 
#    z 0.000000 0.000000 1.809870 
# 
# From -- ./inp_files/15063.got.cif
#   From: 2010.03.12/outbox.cif.g09.slc.cpg/sg38_8_cif.got.tgz:15063.got - 2010.04.14 02:38:36.
