data_PCOD8179391
_publ_section_title
;
Structure prediction by ZEFSAII (Michael W. Deem and Ramdas Pophale) SiO2 
 PCOD8179391
Probable space group: A M M 2
;
_chemical_formula_sum "Si O2"
_cell_formula_units_Z 56
_cell_length_a 15.627652
_cell_length_b 9.735347
_cell_length_c 20.125317
_cell_angle_alpha 90.000000
_cell_angle_beta 90.000000
_cell_angle_gamma 90.000000
_cell_volume 3061.878106
_symmetry_space_group_name_H-M "A M M 2"
_symmetry_group_IT_number 38
_symmetry_cell_setting 'orthorhombic'
loop_
_space_group_symop_operation_xyz
x,y,z
-x,-y,z
-x,y,z
x,-y,z
x,1/2+y,1/2+z
-x,1/2-y,1/2+z
-x,1/2+y,1/2+z
x,1/2-y,1/2+z
loop_
_atom_site_type_symbol
_atom_site_label
_atom_site_fract_x
_atom_site_fract_y
_atom_site_fract_z
Si Si1 0.222531 0.339291 0.842770
Si Si2 0.353477 0.845716 0.523588
Si Si3 0.250789 0.157473 0.197528
Si Si4 0.591459 0.341643 0.880574
Si Si5 0.902541 0.158742 0.931860
Si Si6 0.797280 0.843209 0.054377
Si Si7 0.405315 0.656989 0.168581
O O1 0.217630 0.500000 0.863913
O O2 0.196883 0.319594 0.765105
O O3 0.319756 0.279616 0.851917
O O4 0.156752 0.253509 0.886453
O O5 0.412582 0.822083 0.460002
O O6 0.273516 0.745457 0.517609
O O7 0.407651 0.816396 0.589555
O O8 0.316143 0.000000 0.524144
O O9 0.193790 0.199882 0.132633
O O10 0.337138 0.245352 0.203436
O O11 0.280138 0.000000 0.192419
O O12 0.500000 0.276756 0.854376
O O13 0.591606 0.500000 0.860254
O O14 0.000000 0.203528 0.920067
O O15 0.887693 0.000000 0.911693
O O16 0.883134 0.178597 0.010943
O O17 0.766884 0.000000 0.051001
O O18 0.500000 0.690843 0.196084
O O19 0.380178 0.500000 0.184355
#
# Coordination Sequence:
#
# PCOD8179391 Si02
#       7
#     8   8   8   8   8   8   8
#     4  10  20  35  54  79 109 139 174 215 258 307
#     4   9  15  26  46  70  97 131 172 218 259 296
#     4   9  19  33  50  73 103 139 172 209 260 312
#     4   9  16  26  44  71 102 136 173 212 253 297
#     4  10  21  37  58  80 102 133 171 213 265 321
#     4   9  17  32  52  74 101 131 166 208 256 310
#     4   9  17  28  44  69 100 136 180 222 258 302
#
# _framework density 18.289428000000001
#
# number of rings (size 3 to 8) (size 9 to 14) (size 15 to 20)
#    0.000    2.714    1.429    0.429    0.000    3.429 
#    0.000    2.143    0.000    5.143    0.000    0.000 
#    0.000    0.000    0.000    0.000    0.000    0.000 
#
# Total GULP energy -346888.789545 kJ/mol
# GULP energy per Si atom -12388.885341 kJ/mol
# Density = 1.824780 g / cm^3
# Si number density = 18.289428 Si / 1000 Ang^3
#
#
#
# Elastic Constant Matrix: (Units=GPa)
#
#
# Indices 1 2 3 4 5 6 
#
# 1 121.0564 44.2172 54.3287 0.0000 0.0000 0.0000
# 2 44.2172 54.4508 36.0996 0.0000 0.0000 0.0000
# 3 54.3287 36.0996 95.8985 0.0000 0.0000 0.0000
# 4 0.0000 0.0000 0.0000 21.1093 0.0000 0.0000
# 5 0.0000 0.0000 0.0000 0.0000 12.2926 0.0000
# 6 0.0000 0.0000 0.0000 0.0000 0.0000 25.2235
#
#
#
# Elastic Compliance Matrix: (Units=1/GPa)
#
#
# Indices 1 2 3 4 5 6 
#
# 1 0.013080 -0.007607 -0.004546 0.000000 0.000000 0.000000
# 2 -0.007607 0.028897 -0.006568 0.000000 0.000000 0.000000
# 3 -0.004546 -0.006568 0.015476 0.000000 0.000000 0.000000
# 4 0.000000 0.000000 0.000000 0.047372 0.000000 0.000000
# 5 0.000000 0.000000 0.000000 0.000000 0.081349 0.000000
# 6 0.000000 0.000000 0.000000 0.000000 0.000000 0.039646
#
#
# Mechanical properties :
#
#
# Convention : Reuss Voigt Hill
#
# Bulk Modulus (GPa) = 49.97728 60.07739 55.02734
# Shear Modulus (GPa) = 18.52309 20.84245 19.68277
#
# Velocity S-wave (km/s) = 3.18587 3.37944 3.28408
# Velocity P-wave (km/s) = 6.39672 6.93880 6.67327
#
# Compressibility (1/GPa) = 0.02000909
#
# Stress axis : x y z
#
# Youngs Moduli (GPa) = 76.45531 34.60520 64.61721
#
# Poissons Ratio (x) = 0.26325 0.29376
# Poissons Ratio (y) = 0.58162 0.42442
# Poissons Ratio (z) = 0.34758 0.22730
#
# Static dielectric constant tensor:
#      x y z
#    x 3.303280 0.000000 0.000000 
#    y 0.000000 3.247370 0.000000 
#    z 0.000000 0.000000 3.529600 
# 
# 
# High freq. dielectric constant tensor:
#      x y z
#    x 1.682630 0.000000 0.000000 
#    y 0.000000 1.689760 0.000000 
#    z 0.000000 0.000000 1.716540 
# 
# From -- ./inp_files/21028.got.cif
#   From: 2010.03.12/outbox.cif.g09.slc.cpg/sg38_11_cif.got.tgz:21028.got - 2010.04.14 02:38:36.
