data_PCOD8179554
_publ_section_title
;
Structure prediction by ZEFSAII (Michael W. Deem and Ramdas Pophale) SiO2 
 PCOD8179554
Probable space group: A M M 2
;
_chemical_formula_sum "Si O2"
_cell_formula_units_Z 48
_cell_length_a 9.058895
_cell_length_b 15.440261
_cell_length_c 18.538871
_cell_angle_alpha 90.000000
_cell_angle_beta 90.000000
_cell_angle_gamma 90.000000
_cell_volume 2593.063462
_symmetry_space_group_name_H-M "A M M 2"
_symmetry_group_IT_number 38
_symmetry_cell_setting 'orthorhombic'
loop_
_space_group_symop_operation_xyz
x,y,z
-x,-y,z
-x,y,z
x,-y,z
x,1/2+y,1/2+z
-x,1/2-y,1/2+z
-x,1/2+y,1/2+z
x,1/2-y,1/2+z
loop_
_atom_site_type_symbol
_atom_site_label
_atom_site_fract_x
_atom_site_fract_y
_atom_site_fract_z
Si Si1 0.826556 0.657581 0.067280
Si Si2 0.671688 0.166959 0.065632
Si Si3 0.675307 0.000000 0.646856
Si Si4 0.325255 0.000000 0.812739
Si Si5 0.672223 0.163383 0.899453
Si Si6 0.827560 0.662531 0.900663
Si Si7 0.175206 0.000000 0.309633
Si Si8 0.326999 0.000000 0.156838
O O1 0.767909 0.751483 0.091887
O O2 0.741716 0.585372 0.111727
O O3 0.000000 0.651132 0.082958
O O4 0.789210 0.642011 0.983539
O O5 0.500000 0.189924 0.075985
O O6 0.719771 0.084619 0.112283
O O7 0.706752 0.143884 0.982893
O O8 0.723387 0.000000 0.730086
O O9 0.500000 0.000000 0.637171
O O10 0.261195 0.914916 0.852233
O O11 0.500000 0.000000 0.821998
O O12 0.500000 0.174853 0.885414
O O13 0.748573 0.251159 0.873104
O O14 0.767412 0.583912 0.852519
O O15 0.000000 0.676651 0.890528
O O16 0.239690 0.000000 0.230544
O O17 0.000000 0.000000 0.305709
O O18 0.500000 0.000000 0.172835
#
# Coordination Sequence:
#
# PCOD8179554 Si02
#       8
#     8   8   4   4   8   8   4   4
#     4  10  20  36  57  78 102 135 175 216 258 306
#     4   9  18  34  56  80 104 133 172 216 258 301
#     4  11  22  35  52  77 110 141 170 210 258 307
#     4   9  19  34  52  76 106 137 166 204 256 305
#     4   9  17  33  57  79  99 130 172 211 250 302
#     4   9  19  36  55  75 101 133 170 215 260 298
#     4  10  21  36  52  72 103 140 172 206 256 312
#     4  10  21  35  52  77 109 140 170 210 258 306
#
# _framework density 18.510923999999999
#
# number of rings (size 3 to 8) (size 9 to 14) (size 15 to 20)
#    0.000    2.500    0.000    1.750    0.000    6.667 
#    0.000    7.917    0.000    4.000    0.000    0.000 
#    0.000    0.000    0.000    0.000    0.000    0.000 
#
# Total GULP energy -297661.922286 kJ/mol
# GULP energy per Si atom -12402.580095 kJ/mol
# Density = 1.846879 g / cm^3
# Si number density = 18.510924 Si / 1000 Ang^3
#
#
#
# Elastic Constant Matrix: (Units=GPa)
#
#
# Indices 1 2 3 4 5 6 
#
# 1 51.0071 59.4857 43.3999 0.0000 0.0000 0.0000
# 2 59.4857 194.1480 99.9049 0.0000 0.0000 0.0000
# 3 43.3999 99.9049 109.8607 0.0000 0.0000 0.0000
# 4 0.0000 0.0000 0.0000 14.6301 0.0000 0.0000
# 5 0.0000 0.0000 0.0000 0.0000 26.5693 0.0000
# 6 0.0000 0.0000 0.0000 0.0000 0.0000 16.5668
#
#
#
# Elastic Compliance Matrix: (Units=1/GPa)
#
#
# Indices 1 2 3 4 5 6 
#
# 1 0.033353 -0.006464 -0.007298 0.000000 0.000000 0.000000
# 2 -0.006464 0.010934 -0.007389 0.000000 0.000000 0.000000
# 3 -0.007298 -0.007389 0.018705 0.000000 0.000000 0.000000
# 4 0.000000 0.000000 0.000000 0.068352 0.000000 0.000000
# 5 0.000000 0.000000 0.000000 0.000000 0.037637 0.000000
# 6 0.000000 0.000000 0.000000 0.000000 0.000000 0.060362
#
#
# Mechanical properties :
#
#
# Convention : Reuss Voigt Hill
#
# Bulk Modulus (GPa) = 48.33335 84.51077 66.42206
# Shear Modulus (GPa) = 17.95070 21.70159 19.82614
#
# Velocity S-wave (km/s) = 3.11744 3.42770 3.27624
# Velocity P-wave (km/s) = 6.25502 7.83704 7.09029
#
# Compressibility (1/GPa) = 0.02068965
#
# Stress axis : x y z
#
# Youngs Moduli (GPa) = 29.98256 91.46176 53.46159
#
# Poissons Ratio (x) = 0.59119 0.39015
# Poissons Ratio (y) = 0.19380 0.39504
# Poissons Ratio (z) = 0.21881 0.67583
#
# Static dielectric constant tensor:
#      x y z
#    x 3.272270 0.000000 0.000000 
#    y 0.000000 3.539010 0.000000 
#    z 0.000000 0.000000 3.395140 
# 
# 
# High freq. dielectric constant tensor:
#      x y z
#    x 1.704970 0.000000 0.000000 
#    y 0.000000 1.734710 0.000000 
#    z 0.000000 0.000000 1.714250 
# 
# From -- ./inp_files/16749.got.cif
#   From: 2010.03.12/outbox.cif.g09.slc.cpg/sg38_9_cif.got.tgz:16749.got - 2010.04.14 02:38:36.
