data_PCOD8179911
_publ_section_title
;
Structure prediction by ZEFSAII (Michael W. Deem and Ramdas Pophale) SiO2 
 PCOD8179911
Probable space group: A M M 2
;
_chemical_formula_sum "Si O2"
_cell_formula_units_Z 48
_cell_length_a 9.108420
_cell_length_b 23.419378
_cell_length_c 11.722548
_cell_angle_alpha 90.000000
_cell_angle_beta 90.000000
_cell_angle_gamma 90.000000
_cell_volume 2500.578106
_symmetry_space_group_name_H-M "A M M 2"
_symmetry_group_IT_number 38
_symmetry_cell_setting 'orthorhombic'
loop_
_space_group_symop_operation_xyz
x,y,z
-x,-y,z
-x,y,z
x,-y,z
x,1/2+y,1/2+z
-x,1/2-y,1/2+z
-x,1/2+y,1/2+z
x,1/2-y,1/2+z
loop_
_atom_site_type_symbol
_atom_site_label
_atom_site_fract_x
_atom_site_fract_y
_atom_site_fract_z
Si Si1 0.832103 0.850059 0.910810
Si Si2 0.671972 0.157738 0.144677
Si Si3 0.164420 0.869762 0.497175
Si Si4 0.825690 0.434810 0.213470
Si Si5 0.830659 0.275509 0.829611
Si Si6 0.164484 0.564433 0.772802
O O1 0.784786 0.903386 0.831762
O O2 0.814412 0.791664 0.841140
O O3 0.000000 0.857335 0.952613
O O4 0.722904 0.845440 0.015224
O O5 0.500000 0.167532 0.148594
O O6 0.748329 0.209502 0.212461
O O7 0.714912 0.098691 0.203179
O O8 0.243292 0.896117 0.610041
O O9 0.234602 0.812281 0.438185
O O10 0.168211 0.920464 0.405717
O O11 0.000000 0.853002 0.534118
O O12 0.762755 0.500000 0.214132
O O13 0.000000 0.437559 0.197559
O O14 0.000000 0.294815 0.815529
O O15 0.212367 0.500000 0.757951
O O16 0.000000 0.575438 0.724254
#
# Coordination Sequence:
#
# PCOD8179911 Si02
#       6
#     8   8   8   8   8   8
#     4  10  21  35  56  81 108 144 187 233 275 329
#     4  11  23  37  53  77 113 148 182 224 278 346
#     4   8  14  27  50  81 108 133 169 224 283 326
#     4   9  17  29  49  81 114 140 173 222 281 333
#     4   9  19  35  58  82 106 136 185 240 283 330
#     4   9  17  32  56  82 108 141 184 233 278 323
#
# _framework density 19.195561999999999
#
# number of rings (size 3 to 8) (size 9 to 14) (size 15 to 20)
#    0.000    2.667    0.000    3.000    2.333    3.667 
#    0.000    1.667    0.000    1.000    0.000    0.000 
#    0.000    0.000    0.000    0.000    0.000    0.000 
#
# Total GULP energy -297428.949092 kJ/mol
# GULP energy per Si atom -12392.872879 kJ/mol
# Density = 1.915187 g / cm^3
# Si number density = 19.195562 Si / 1000 Ang^3
#
#
#
# Elastic Constant Matrix: (Units=GPa)
#
#
# Indices 1 2 3 4 5 6 
#
# 1 61.5175 17.8175 34.8972 0.0000 0.0000 0.0000
# 2 17.8175 98.2854 31.6503 0.0000 0.0000 0.0000
# 3 34.8972 31.6503 96.8926 0.0000 0.0000 0.0000
# 4 0.0000 0.0000 0.0000 17.9590 0.0000 0.0000
# 5 0.0000 0.0000 0.0000 0.0000 2.4305 0.0000
# 6 0.0000 0.0000 0.0000 0.0000 0.0000 5.6828
#
#
#
# Elastic Compliance Matrix: (Units=1/GPa)
#
#
# Indices 1 2 3 4 5 6 
#
# 1 0.020627 -0.001505 -0.006937 0.000000 0.000000 0.000000
# 2 -0.001505 0.011480 -0.003208 0.000000 0.000000 0.000000
# 3 -0.006937 -0.003208 0.013867 0.000000 0.000000 0.000000
# 4 0.000000 0.000000 0.000000 0.055682 0.000000 0.000000
# 5 0.000000 0.000000 0.000000 0.000000 0.411437 0.000000
# 6 0.000000 0.000000 0.000000 0.000000 0.000000 0.175970
#
#
# Mechanical properties :
#
#
# Convention : Reuss Voigt Hill
#
# Bulk Modulus (GPa) = 44.10488 47.26951 45.68719
# Shear Modulus (GPa) = 6.94519 16.70316 11.82417
#
# Velocity S-wave (km/s) = 1.90420 2.95304 2.48460
# Velocity P-wave (km/s) = 5.27836 6.02544 5.66423
#
# Compressibility (1/GPa) = 0.02267323
#
# Stress axis : x y z
#
# Youngs Moduli (GPa) = 48.48045 87.10515 72.11284
#
# Poissons Ratio (x) = 0.13112 0.50027
# Poissons Ratio (y) = 0.07298 0.23133
# Poissons Ratio (z) = 0.33632 0.27943
#
# Static dielectric constant tensor:
#      x y z
#    x 2.990300 0.000000 0.000000 
#    y 0.000000 3.653180 0.000000 
#    z 0.000000 0.000000 3.506440 
# 
# 
# High freq. dielectric constant tensor:
#      x y z
#    x 1.685070 0.000000 0.000000 
#    y 0.000000 1.758310 0.000000 
#    z 0.000000 0.000000 1.749040 
# 
# From -- ./inp_files/8112.got.cif
#   From: 2010.03.12/outbox.cif.g09.slc.cpg/sg38_5_cif.got.tgz:8112.got - 2010.04.14 02:38:36.
