data_PCOD8179834
_publ_section_title
;
Structure prediction by ZEFSAII (Michael W. Deem and Ramdas Pophale) SiO2 
 PCOD8179834
Probable space group: A M M 2
;
_chemical_formula_sum "Si O2"
_cell_formula_units_Z 48
_cell_length_a 7.752816
_cell_length_b 9.361924
_cell_length_c 34.179049
_cell_angle_alpha 90.000000
_cell_angle_beta 90.000000
_cell_angle_gamma 90.000000
_cell_volume 2480.758927
_symmetry_space_group_name_H-M "A M M 2"
_symmetry_group_IT_number 38
_symmetry_cell_setting 'orthorhombic'
loop_
_space_group_symop_operation_xyz
x,y,z
-x,-y,z
-x,y,z
x,-y,z
x,1/2+y,1/2+z
-x,1/2-y,1/2+z
-x,1/2+y,1/2+z
x,1/2-y,1/2+z
loop_
_atom_site_type_symbol
_atom_site_label
_atom_site_fract_x
_atom_site_fract_y
_atom_site_fract_z
Si Si1 0.690935 0.829891 0.222300
Si Si2 0.304438 0.334299 0.405972
Si Si3 0.198644 0.156448 0.563029
Si Si4 0.797485 0.162501 0.991668
Si Si5 0.000000 0.169468 0.274437
Si Si6 0.297428 0.659495 0.634954
Si Si7 0.000000 0.170520 0.364193
O O1 0.500000 0.769616 0.232791
O O2 0.746014 0.783255 0.178496
O O3 0.829203 0.768327 0.253171
O O4 0.684248 0.000000 0.223486
O O5 0.500000 0.306877 0.391095
O O6 0.250968 0.500000 0.400056
O O7 0.297127 0.294182 0.451703
O O8 0.173547 0.233817 0.382683
O O9 0.282106 0.244115 0.527067
O O10 0.212831 0.235176 0.604189
O O11 0.000000 0.139215 0.552883
O O12 0.286616 0.000000 0.565774
O O13 0.000000 0.186965 0.985200
O O14 0.757201 0.000000 0.003041
O O15 0.000000 0.218052 0.319094
O O16 0.000000 0.000000 0.270693
O O17 0.500000 0.656495 0.628362
O O18 0.221332 0.500000 0.629005
O O19 0.000000 0.000000 0.369518
#
# Coordination Sequence:
#
# PCOD8179834 Si02
#       7
#     8   8   8   8   4   8   4
#     4   8  15  29  49  75 106 137 177 227 269 313
#     4  10  21  39  63  86 111 149 194 236 280 333
#     4  10  21  33  47  74 111 146 178 215 266 325
#     4   9  17  33  55  77 104 140 186 236 277 315
#     4   9  18  31  51  80 109 144 175 210 277 337
#     4   9  18  32  51  75 101 134 180 230 270 308
#     4  11  23  37  57  88 125 150 177 228 287 349
#
# _framework density 19.348917
#
# number of rings (size 3 to 8) (size 9 to 14) (size 15 to 20)
#    0.000    2.667    0.833    1.750    1.167    3.667 
#    0.000    3.333    0.000    2.000    0.000    0.000 
#    0.000    0.000    0.000    0.000    0.000    0.000 
#
# Total GULP energy -297516.725578 kJ/mol
# GULP energy per Si atom -12396.530232 kJ/mol
# Density = 1.930488 g / cm^3
# Si number density = 19.348917 Si / 1000 Ang^3
#
#
#
# Elastic Constant Matrix: (Units=GPa)
#
#
# Indices 1 2 3 4 5 6 
#
# 1 89.6506 39.7422 64.9334 0.0000 0.0000 0.0000
# 2 39.7422 87.8917 65.2023 0.0000 0.0000 0.0000
# 3 64.9334 65.2023 140.8604 0.0000 0.0000 0.0000
# 4 0.0000 0.0000 0.0000 21.7118 0.0000 0.0000
# 5 0.0000 0.0000 0.0000 0.0000 6.0774 0.0000
# 6 0.0000 0.0000 0.0000 0.0000 0.0000 14.3381
#
#
#
# Elastic Compliance Matrix: (Units=1/GPa)
#
#
# Indices 1 2 3 4 5 6 
#
# 1 0.017214 -0.002889 -0.006598 0.000000 0.000000 0.000000
# 2 -0.002889 0.017813 -0.006914 0.000000 0.000000 0.000000
# 3 -0.006598 -0.006914 0.013341 0.000000 0.000000 0.000000
# 4 0.000000 0.000000 0.000000 0.046058 0.000000 0.000000
# 5 0.000000 0.000000 0.000000 0.000000 0.164544 0.000000
# 6 0.000000 0.000000 0.000000 0.000000 0.000000 0.069744
#
#
# Mechanical properties :
#
#
# Convention : Reuss Voigt Hill
#
# Bulk Modulus (GPa) = 64.23978 73.12870 68.68424
# Shear Modulus (GPa) = 13.63498 18.32712 15.98105
#
# Velocity S-wave (km/s) = 2.65748 3.08099 2.87704
# Velocity P-wave (km/s) = 6.53369 7.10869 6.82724
#
# Compressibility (1/GPa) = 0.01556668
#
# Stress axis : x y z
#
# Youngs Moduli (GPa) = 58.09239 56.13968 74.95745
#
# Poissons Ratio (x) = 0.16219 0.49457
# Poissons Ratio (y) = 0.16783 0.51822
# Poissons Ratio (z) = 0.38329 0.38812
#
# Static dielectric constant tensor:
#      x y z
#    x 3.570590 0.000000 0.000000 
#    y 0.000000 3.465270 0.000000 
#    z 0.000000 0.000000 3.633380 
# 
# 
# High freq. dielectric constant tensor:
#      x y z
#    x 1.752830 0.000000 0.000000 
#    y 0.000000 1.718550 0.000000 
#    z 0.000000 0.000000 1.753680 
# 
# From -- ./inp_files/24345.got.cif
#   From: 2010.03.12/outbox.cif.g09.slc.cpg/sg38_13_cif.got.tgz:24345.got - 2010.04.14 02:38:36.
