data_PCOD8179681
_publ_section_title
;
Structure prediction by ZEFSAII (Michael W. Deem and Ramdas Pophale) SiO2 
 PCOD8179681
Probable space group: A M M 2
;
_chemical_formula_sum "Si O2"
_cell_formula_units_Z 64
_cell_length_a 19.571171
_cell_length_b 9.082309
_cell_length_c 20.236340
_cell_angle_alpha 90.000000
_cell_angle_beta 90.000000
_cell_angle_gamma 90.000000
_cell_volume 3597.038221
_symmetry_space_group_name_H-M "A M M 2"
_symmetry_group_IT_number 38
_symmetry_cell_setting 'orthorhombic'
loop_
_space_group_symop_operation_xyz
x,y,z
-x,-y,z
-x,y,z
x,-y,z
x,1/2+y,1/2+z
-x,1/2-y,1/2+z
-x,1/2+y,1/2+z
x,1/2-y,1/2+z
loop_
_atom_site_type_symbol
_atom_site_label
_atom_site_fract_x
_atom_site_fract_y
_atom_site_fract_z
Si Si1 0.295470 0.330165 0.474330
Si Si2 0.920739 0.671882 0.643454
Si Si3 0.425579 0.328168 0.969939
Si Si4 0.921512 0.330480 0.886514
Si Si5 0.427408 0.170129 0.831694
Si Si6 0.142979 0.675443 0.266056
Si Si7 0.853127 0.329877 0.506200
Si Si8 0.281655 0.328490 0.324700
O O1 0.315531 0.500000 0.471673
O O2 0.361011 0.247386 0.506852
O O3 0.227833 0.303025 0.518168
O O4 0.280936 0.269339 0.400077
O O5 0.909148 0.500000 0.657624
O O6 0.877386 0.766072 0.694628
O O7 0.894091 0.715853 0.571204
O O8 0.000000 0.714536 0.648569
O O9 0.500000 0.294505 0.003694
O O10 0.411467 0.500000 0.968795
O O11 0.428359 0.270287 0.895699
O O12 0.902526 0.500000 0.873255
O O13 0.908857 0.238470 0.820195
O O14 0.000000 0.312080 0.906691
O O15 0.876408 0.270305 0.946021
O O16 0.500000 0.196395 0.792410
O O17 0.356905 0.206817 0.791814
O O18 0.422905 0.000000 0.854436
O O19 0.138407 0.500000 0.265953
O O20 0.219418 0.738503 0.282217
O O21 0.866797 0.500000 0.487307
O O22 0.266501 0.500000 0.326962
#
# Coordination Sequence:
#
# PCOD8179681 Si02
#       8
#     8   8   8   8   8   8   8   8
#     4   9  16  29  48  70  96 126 165 208 248 298
#     4  10  22  39  56  75 101 131 167 214 264 313
#     4   9  16  24  36  61  98 134 164 196 240 293
#     4  11  23  36  52  77 106 131 163 210 259 310
#     4   8  13  23  40  61  89 126 163 200 242 287
#     4  11  21  35  54  75 102 137 174 211 252 303
#     4  10  20  37  58  77  99 132 171 212 261 316
#     4   8  14  26  44  69  97 123 159 205 242 284
#
# _framework density 17.792415999999999
#
# number of rings (size 3 to 8) (size 9 to 14) (size 15 to 20)
#    0.000    2.500    1.250    2.625    0.000    5.000 
#    0.000    0.625    0.000    0.000    0.000    0.875 
#    0.000    3.000    0.000    0.000    0.000    0.000 
#
# Total GULP energy -396472.094782 kJ/mol
# GULP energy per Si atom -12389.752962 kJ/mol
# Density = 1.775192 g / cm^3
# Si number density = 17.792416 Si / 1000 Ang^3
#
#
#
# Elastic Constant Matrix: (Units=GPa)
#
#
# Indices 1 2 3 4 5 6 
#
# 1 127.8412 35.2898 19.4464 0.0000 0.0000 0.0000
# 2 35.2898 58.3880 21.3110 0.0000 0.0000 0.0000
# 3 19.4464 21.3110 44.1757 0.0000 0.0000 0.0000
# 4 0.0000 0.0000 0.0000 21.4947 0.0000 0.0000
# 5 0.0000 0.0000 0.0000 0.0000 18.6152 0.0000
# 6 0.0000 0.0000 0.0000 0.0000 0.0000 26.5197
#
#
#
# Elastic Compliance Matrix: (Units=1/GPa)
#
#
# Indices 1 2 3 4 5 6 
#
# 1 0.009494 -0.005113 -0.001713 0.000000 0.000000 0.000000
# 2 -0.005113 0.023541 -0.009105 0.000000 0.000000 0.000000
# 3 -0.001713 -0.009105 0.027783 0.000000 0.000000 0.000000
# 4 0.000000 0.000000 0.000000 0.046523 0.000000 0.000000
# 5 0.000000 0.000000 0.000000 0.000000 0.053720 0.000000
# 6 0.000000 0.000000 0.000000 0.000000 0.000000 0.037708
#
#
# Mechanical properties :
#
#
# Convention : Reuss Voigt Hill
#
# Bulk Modulus (GPa) = 34.53577 42.49992 38.51785
# Shear Modulus (GPa) = 20.80876 23.61644 22.21260
#
# Velocity S-wave (km/s) = 3.42355 3.64721 3.53715
# Velocity P-wave (km/s) = 5.92285 6.45558 6.19494
#
# Compressibility (1/GPa) = 0.02895549
#
# Stress axis : x y z
#
# Youngs Moduli (GPa) = 105.32753 42.47972 35.99265
#
# Poissons Ratio (x) = 0.21721 0.06165
# Poissons Ratio (y) = 0.53856 0.32773
# Poissons Ratio (z) = 0.18040 0.38680
#
# Static dielectric constant tensor:
#      x y z
#    x 4.069350 0.000000 0.000000 
#    y 0.000000 3.231210 0.000000 
#    z 0.000000 0.000000 2.845230 
# 
# 
# High freq. dielectric constant tensor:
#      x y z
#    x 1.721000 0.000000 0.000000 
#    y 0.000000 1.678970 0.000000 
#    z 0.000000 0.000000 1.625850 
# 
# From -- ./inp_files/18992.got.cif
#   From: 2010.03.12/outbox.cif.g09.slc.cpg/sg38_10_cif.got.tgz:18992.got - 2010.04.14 02:38:36.
