data_PCOD8179545
_publ_section_title
;
Structure prediction by ZEFSAII (Michael W. Deem and Ramdas Pophale) SiO2 
 PCOD8179545
Probable space group: A M M 2
;
_chemical_formula_sum "Si O2"
_cell_formula_units_Z 40
_cell_length_a 8.404296
_cell_length_b 7.968741
_cell_length_c 29.071946
_cell_angle_alpha 90.000000
_cell_angle_beta 90.000000
_cell_angle_gamma 90.000000
_cell_volume 1946.996428
_symmetry_space_group_name_H-M "A M M 2"
_symmetry_group_IT_number 38
_symmetry_cell_setting 'orthorhombic'
loop_
_space_group_symop_operation_xyz
x,y,z
-x,-y,z
-x,y,z
x,-y,z
x,1/2+y,1/2+z
-x,1/2-y,1/2+z
-x,1/2+y,1/2+z
x,1/2-y,1/2+z
loop_
_atom_site_type_symbol
_atom_site_label
_atom_site_fract_x
_atom_site_fract_y
_atom_site_fract_z
Si Si1 0.688996 0.687751 0.189750
Si Si2 0.313135 0.188677 0.496969
Si Si3 0.686269 0.500000 0.341147
Si Si4 0.311674 0.686279 0.593594
Si Si5 0.689506 0.183677 0.285839
Si Si6 0.183524 0.500000 0.441254
O O1 0.500000 0.696611 0.186308
O O2 0.747764 0.500000 0.198535
O O3 0.764529 0.751220 0.141624
O O4 0.749063 0.795860 0.233161
O O5 0.500000 0.225819 0.491654
O O6 0.261266 0.198209 0.550558
O O7 0.220807 0.329874 0.468730
O O8 0.271855 0.000000 0.479371
O O9 0.500000 0.500000 0.331286
O O10 0.760673 0.331491 0.318067
O O11 0.715012 0.500000 0.395073
O O12 0.500000 0.687927 0.598828
O O13 0.248588 0.500000 0.583223
O O14 0.500000 0.192739 0.287170
O O15 0.747716 0.000000 0.303389
O O16 0.000000 0.500000 0.428018
#
# Coordination Sequence:
#
# PCOD8179545 Si02
#       6
#     8   8   4   8   8   4
#     4   9  14  21  36  67 112 150 174 208 266 333
#     4  10  20  37  61  87 116 150 191 239 290 347
#     4  10  20  36  56  78 106 142 186 238 285 338
#     4   9  15  24  43  74 113 148 179 219 271 334
#     4   9  16  27  45  72 108 143 175 217 275 336
#     4  12  26  42  60  82 112 152 196 248 297 348
#
# _framework density 20.544464999999999
#
# number of rings (size 3 to 8) (size 9 to 14) (size 15 to 20)
#    0.000    2.400    2.000    2.100    0.000    6.000 
#    0.000    2.000    0.000    0.000    0.000    1.400 
#    0.000    0.000    0.000    0.000    0.000    0.000 
#
# Total GULP energy -247864.264249 kJ/mol
# GULP energy per Si atom -12393.213212 kJ/mol
# Density = 2.049770 g / cm^3
# Si number density = 20.544465 Si / 1000 Ang^3
#
#
#
# Elastic Constant Matrix: (Units=GPa)
#
#
# Indices 1 2 3 4 5 6 
#
# 1 13.4196 11.8566 -0.0462 0.0000 0.0000 0.0000
# 2 11.8566 168.2240 61.5081 0.0000 0.0000 0.0000
# 3 -0.0462 61.5081 118.0019 0.0000 0.0000 0.0000
# 4 0.0000 0.0000 0.0000 30.7465 0.0000 0.0000
# 5 0.0000 0.0000 0.0000 0.0000 -2.1225 0.0000
# 6 0.0000 0.0000 0.0000 0.0000 0.0000 7.4746
#
#
#
# Elastic Compliance Matrix: (Units=1/GPa)
#
#
# Indices 1 2 3 4 5 6 
#
# 1 0.080756 -0.007046 0.003704 0.000000 0.000000 0.000000
# 2 -0.007046 0.007959 -0.004151 0.000000 0.000000 0.000000
# 3 0.003704 -0.004151 0.010640 0.000000 0.000000 0.000000
# 4 0.000000 0.000000 0.000000 0.032524 0.000000 0.000000
# 5 0.000000 0.000000 0.000000 0.000000 -0.471140 0.000000
# 6 0.000000 0.000000 0.000000 0.000000 0.000000 0.133787
#
#
# Mechanical properties :
#
#
# Convention : Reuss Voigt Hill
#
# Bulk Modulus (GPa) = 11.85277 49.58696 30.71987
# Shear Modulus (GPa) = -30.79470 22.30819 -4.24326
#
# Velocity S-wave (km/s) = -3.87580 3.29880 -1.43871
# Velocity P-wave (km/s) = 3.77455 6.22079 3.49650
#
# Compressibility (1/GPa) = 0.08436846
#
# Stress axis : x y z
#
# Youngs Moduli (GPa) = 12.38298 125.64480 93.98713
#
# Poissons Ratio (x) = 0.88533 -0.34817
# Poissons Ratio (y) = 0.08725 0.39017
# Poissons Ratio (z) = -0.04587 0.52159
#
# Static dielectric constant tensor:
#      x y z
#    x 2.914640 0.000000 0.000000 
#    y 0.000000 4.041450 0.000000 
#    z 0.000000 0.000000 3.782300 
# 
# 
# High freq. dielectric constant tensor:
#      x y z
#    x 1.718830 0.000000 0.000000 
#    y 0.000000 1.821980 0.000000 
#    z 0.000000 0.000000 1.807450 
# 
# From -- ./inp_files/21696.got.cif
#   From: 2010.03.12/outbox.cif.g09.slc.cpg/sg38_11_cif.got.tgz:21696.got - 2010.04.14 02:38:36.
