data_PCOD8179702
_publ_section_title
;
Structure prediction by ZEFSAII (Michael W. Deem and Ramdas Pophale) SiO2 
 PCOD8179702
Probable space group: A M M 2
;
_chemical_formula_sum "Si O2"
_cell_formula_units_Z 64
_cell_length_a 23.917334
_cell_length_b 8.833867
_cell_length_c 15.365805
_cell_angle_alpha 90.000000
_cell_angle_beta 90.000000
_cell_angle_gamma 90.000000
_cell_volume 3246.526426
_symmetry_space_group_name_H-M "A M M 2"
_symmetry_group_IT_number 38
_symmetry_cell_setting 'orthorhombic'
loop_
_space_group_symop_operation_xyz
x,y,z
-x,-y,z
-x,y,z
x,-y,z
x,1/2+y,1/2+z
-x,1/2-y,1/2+z
-x,1/2+y,1/2+z
x,1/2-y,1/2+z
loop_
_atom_site_type_symbol
_atom_site_label
_atom_site_fract_x
_atom_site_fract_y
_atom_site_fract_z
Si Si1 0.937445 0.320913 0.976900
Si Si2 0.243054 0.322158 0.383480
Si Si3 0.138638 0.326019 0.819416
Si Si4 0.357550 0.321656 0.869973
Si Si5 0.437487 0.821279 0.216381
Si Si6 0.867718 0.672419 0.626279
Si Si7 0.239227 0.822787 0.568079
Si Si8 0.366186 0.675268 0.068996
O O1 0.939879 0.500000 0.977571
O O2 0.904609 0.263871 0.891451
O O3 0.000000 0.252552 0.974534
O O4 0.906956 0.268983 0.064165
O O5 0.244525 0.500000 0.402284
O O6 0.193626 0.279498 0.317440
O O7 0.302048 0.269759 0.343491
O O8 0.229374 0.228506 0.469757
O O9 0.155660 0.500000 0.838456
O O10 0.109606 0.313237 0.724830
O O11 0.344778 0.500000 0.863320
O O12 0.405130 0.267193 0.803017
O O13 0.376317 0.280008 0.968129
O O14 0.500000 0.752844 0.219863
O O15 0.407838 0.769633 0.128221
O O16 0.439855 0.000000 0.214713
O O17 0.868256 0.500000 0.593623
O O18 0.803902 0.732019 0.627765
O O19 0.302613 0.785862 0.596756
O O20 0.226589 0.000000 0.574690
O O21 0.379188 0.500000 0.083650
#
# Coordination Sequence:
#
# PCOD8179702 Si02
#       8
#     8   8   8   8   8   8   8   8
#     4  10  22  42  65  85 115 164 208 244 292 351
#     4  11  21  34  58  90 121 151 195 245 294 349
#     4  10  22  39  59  86 122 160 196 236 294 357
#     4   9  20  39  59  81 114 157 195 234 292 355
#     4  10  22  39  59  84 115 153 198 243 289 348
#     4  11  23  37  59  92 121 154 199 247 296 346
#     4  10  20  37  59  84 121 159 193 238 299 361
#     4   9  20  37  58  84 113 151 194 239 292 346
#
# _framework density 19.713377999999999
#
# number of rings (size 3 to 8) (size 9 to 14) (size 15 to 20)
#    0.000    2.000    1.250    2.625    1.750    5.500 
#    0.000    2.500    0.000    0.000    0.000    0.000 
#    0.000    0.000    0.000    0.000    0.000    0.000 
#
# Total GULP energy -396849.668705 kJ/mol
# GULP energy per Si atom -12401.552147 kJ/mol
# Density = 1.966851 g / cm^3
# Si number density = 19.713378 Si / 1000 Ang^3
#
#
#
# Elastic Constant Matrix: (Units=GPa)
#
#
# Indices 1 2 3 4 5 6 
#
# 1 138.5312 22.7400 65.8318 0.0000 0.0000 0.0000
# 2 22.7400 19.2410 12.8480 0.0000 0.0000 0.0000
# 3 65.8318 12.8480 109.6355 0.0000 0.0000 0.0000
# 4 0.0000 0.0000 0.0000 29.3502 0.0000 0.0000
# 5 0.0000 0.0000 0.0000 0.0000 21.9691 0.0000
# 6 0.0000 0.0000 0.0000 0.0000 0.0000 23.7319
#
#
#
# Elastic Compliance Matrix: (Units=1/GPa)
#
#
# Indices 1 2 3 4 5 6 
#
# 1 0.011591 -0.009820 -0.005809 0.000000 0.000000 0.000000
# 2 -0.009820 0.064704 -0.001686 0.000000 0.000000 0.000000
# 3 -0.005809 -0.001686 0.012807 0.000000 0.000000 0.000000
# 4 0.000000 0.000000 0.000000 0.034071 0.000000 0.000000
# 5 0.000000 0.000000 0.000000 0.000000 0.045519 0.000000
# 6 0.000000 0.000000 0.000000 0.000000 0.000000 0.042137
#
#
# Mechanical properties :
#
#
# Convention : Reuss Voigt Hill
#
# Bulk Modulus (GPa) = 18.35821 52.24971 35.30396
# Shear Modulus (GPa) = 18.96691 26.07610 22.52151
#
# Velocity S-wave (km/s) = 3.10519 3.64092 3.38368
# Velocity P-wave (km/s) = 4.71053 6.65112 5.76309
#
# Compressibility (1/GPa) = 0.05447155
#
# Stress axis : x y z
#
# Youngs Moduli (GPa) = 86.27236 15.45501 78.08261
#
# Poissons Ratio (x) = 0.15177 0.45360
# Poissons Ratio (y) = 0.84720 0.13165
# Poissons Ratio (z) = 0.50118 0.02606
#
# Static dielectric constant tensor:
#      x y z
#    x 3.822250 0.000000 0.000000 
#    y 0.000000 3.448180 0.000000 
#    z 0.000000 0.000000 3.560700 
# 
# 
# High freq. dielectric constant tensor:
#      x y z
#    x 1.764870 0.000000 0.000000 
#    y 0.000000 1.759210 0.000000 
#    z 0.000000 0.000000 1.772410 
# 
# From -- ./inp_files/15741.got.cif
#   From: 2010.03.12/outbox.cif.g09.slc.cpg/sg38_8_cif.got.tgz:15741.got - 2010.04.14 02:38:36.
