data_PCOD8179957
_publ_section_title
;
Structure prediction by ZEFSAII (Michael W. Deem and Ramdas Pophale) SiO2 
 PCOD8179957
Probable space group: A M M 2
;
_chemical_formula_sum "Si O2"
_cell_formula_units_Z 56
_cell_length_a 19.738291
_cell_length_b 9.051346
_cell_length_c 15.446108
_cell_angle_alpha 90.000000
_cell_angle_beta 90.000000
_cell_angle_gamma 90.000000
_cell_volume 2759.572328
_symmetry_space_group_name_H-M "A M M 2"
_symmetry_group_IT_number 38
_symmetry_cell_setting 'orthorhombic'
loop_
_space_group_symop_operation_xyz
x,y,z
-x,-y,z
-x,y,z
x,-y,z
x,1/2+y,1/2+z
-x,1/2-y,1/2+z
-x,1/2+y,1/2+z
x,1/2-y,1/2+z
loop_
_atom_site_type_symbol
_atom_site_label
_atom_site_fract_x
_atom_site_fract_y
_atom_site_fract_z
Si Si1 0.827963 0.672183 0.609300
Si Si2 0.702906 0.338538 0.312668
Si Si3 0.424393 0.827445 0.372361
Si Si4 0.697579 0.838561 0.616183
Si Si5 0.165053 0.174023 0.309855
Si Si6 0.921626 0.171551 0.951129
Si Si7 0.575230 0.670418 0.553461
O O1 0.810901 0.500000 0.605974
O O2 0.761087 0.755431 0.572901
O O3 0.847872 0.715347 0.708460
O O4 0.887469 0.715990 0.542830
O O5 0.700143 0.500000 0.359451
O O6 0.631077 0.256761 0.316664
O O7 0.719010 0.364919 0.213589
O O8 0.764829 0.241022 0.348798
O O9 0.500000 0.796203 0.335237
O O10 0.418806 0.768137 0.468667
O O11 0.408173 0.000000 0.371049
O O12 0.630767 0.736384 0.617628
O O13 0.685307 0.000000 0.571977
O O14 0.105014 0.237360 0.368737
O O15 0.168810 0.000000 0.321996
O O16 0.000000 0.209584 0.962328
O O17 0.908927 0.000000 0.930963
O O18 0.500000 0.686042 0.594545
O O19 0.590961 0.500000 0.532342
#
# Coordination Sequence:
#
# PCOD8179957 Si02
#       7
#     8   8   8   8   8   8   8
#     4   9  20  39  61  85 117 157 198 240 289 349
#     4  10  21  37  57  81 111 149 190 233 287 348
#     4  10  21  36  54  78 109 145 188 239 290 339
#     4  10  21  36  56  82 111 145 188 237 287 340
#     4  10  21  38  61  89 120 154 196 246 293 343
#     4  10  22  40  62  89 120 156 195 234 288 357
#     4  10  21  36  54  77 108 148 191 234 285 344
#
# _framework density 20.292999999999999
#
# number of rings (size 3 to 8) (size 9 to 14) (size 15 to 20)
#    0.000    2.143    0.000    2.143    2.000    6.000 
#    0.000    4.286    0.000    0.000    0.000    0.000 
#    0.000    0.000    0.000    0.000    0.000    0.000 
#
# Total GULP energy -347066.202636 kJ/mol
# GULP energy per Si atom -12395.221523 kJ/mol
# Density = 2.024681 g / cm^3
# Si number density = 20.293000 Si / 1000 Ang^3
#
#
#
# Elastic Constant Matrix: (Units=GPa)
#
#
# Indices 1 2 3 4 5 6 
#
# 1 155.1341 75.8514 47.7799 0.0000 0.0000 0.0000
# 2 75.8514 120.6108 38.5787 0.0000 0.0000 0.0000
# 3 47.7799 38.5787 68.2778 0.0000 0.0000 0.0000
# 4 0.0000 0.0000 0.0000 27.6417 0.0000 0.0000
# 5 0.0000 0.0000 0.0000 0.0000 29.7971 0.0000
# 6 0.0000 0.0000 0.0000 0.0000 0.0000 34.5552
#
#
#
# Elastic Compliance Matrix: (Units=1/GPa)
#
#
# Indices 1 2 3 4 5 6 
#
# 1 0.010252 -0.005069 -0.004310 0.000000 0.000000 0.000000
# 2 -0.005069 0.012626 -0.003587 0.000000 0.000000 0.000000
# 3 -0.004310 -0.003587 0.019689 0.000000 0.000000 0.000000
# 4 0.000000 0.000000 0.000000 0.036177 0.000000 0.000000
# 5 0.000000 0.000000 0.000000 0.000000 0.033560 0.000000
# 6 0.000000 0.000000 0.000000 0.000000 0.000000 0.028939
#
#
# Mechanical properties :
#
#
# Convention : Reuss Voigt Hill
#
# Bulk Modulus (GPa) = 60.11368 74.27140 67.19254
# Shear Modulus (GPa) = 28.94848 30.51965 29.73406
#
# Velocity S-wave (km/s) = 3.78103 3.88229 3.83199
# Velocity P-wave (km/s) = 6.98203 7.53493 7.26374
#
# Compressibility (1/GPa) = 0.01663515
#
# Stress axis : x y z
#
# Youngs Moduli (GPa) = 97.54402 79.20075 50.78966
#
# Poissons Ratio (x) = 0.40144 0.21891
# Poissons Ratio (y) = 0.49441 0.18219
# Poissons Ratio (z) = 0.42043 0.28410
#
# Static dielectric constant tensor:
#      x y z
#    x 3.761610 0.000000 0.000000 
#    y 0.000000 3.972560 0.000000 
#    z 0.000000 0.000000 3.472490 
# 
# 
# High freq. dielectric constant tensor:
#      x y z
#    x 1.793590 0.000000 0.000000 
#    y 0.000000 1.803710 0.000000 
#    z 0.000000 0.000000 1.776920 
# 
# From -- ./inp_files/15459.got.cif
#   From: 2010.03.12/outbox.cif.g09.slc.cpg/sg38_8_cif.got.tgz:15459.got - 2010.04.14 02:38:36.
