data_PCOD8179800
_publ_section_title
;
Structure prediction by ZEFSAII (Michael W. Deem and Ramdas Pophale) SiO2 
 PCOD8179800
Probable space group: A M M 2
;
_chemical_formula_sum "Si O2"
_cell_formula_units_Z 64
_cell_length_a 14.439425
_cell_length_b 16.819984
_cell_length_c 12.287701
_cell_angle_alpha 90.000000
_cell_angle_beta 90.000000
_cell_angle_gamma 90.000000
_cell_volume 2984.324970
_symmetry_space_group_name_H-M "A M M 2"
_symmetry_group_IT_number 38
_symmetry_cell_setting 'orthorhombic'
loop_
_space_group_symop_operation_xyz
x,y,z
-x,-y,z
-x,y,z
x,-y,z
x,1/2+y,1/2+z
-x,1/2-y,1/2+z
-x,1/2+y,1/2+z
x,1/2-y,1/2+z
loop_
_atom_site_type_symbol
_atom_site_label
_atom_site_fract_x
_atom_site_fract_y
_atom_site_fract_z
Si Si1 0.604305 0.688696 0.230490
Si Si2 0.697216 0.351848 0.664677
Si Si3 0.346765 0.409159 0.428181
Si Si4 0.100947 0.164231 0.100924
Si Si5 0.863069 0.089773 0.872439
Si Si6 0.709974 0.408159 0.060357
Si Si7 0.398901 0.910445 0.362157
Si Si8 0.898624 0.348533 0.137093
O O1 0.500000 0.709353 0.192342
O O2 0.670679 0.764930 0.212438
O O3 0.597528 0.653239 0.352949
O O4 0.649283 0.618945 0.161283
O O5 0.654326 0.368535 0.546721
O O6 0.808506 0.369189 0.663510
O O7 0.651828 0.413782 0.746538
O O8 0.388254 0.500000 0.433239
O O9 0.246282 0.414855 0.376664
O O10 0.113108 0.257925 0.103542
O O11 0.000000 0.140532 0.153681
O O12 0.097145 0.134432 0.977125
O O13 0.891187 0.139827 0.766673
O O14 0.903675 0.000000 0.866015
O O15 0.694725 0.500000 0.050568
O O16 0.819209 0.393837 0.071608
O O17 0.667581 0.367220 0.951020
O O18 0.500000 0.866660 0.355650
O O19 0.417006 0.000000 0.398302
O O20 0.000000 0.379544 0.099538
#
# Coordination Sequence:
#
# PCOD8179800 Si02
#       8
#     8   8   8   8   8   8   8   8
#     4  12  25  39  62  95 128 165 208 268 334 386
#     4  11  23  42  66  94 130 167 218 271 318 383
#     4  10  22  41  66  95 130 169 211 269 332 383
#     4  10  22  39  61  92 130 172 213 259 322 385
#     4  10  20  38  64  95 130 169 213 263 319 385
#     4  11  23  42  64  90 126 166 210 265 318 382
#     4  10  23  43  66  89 121 173 223 260 314 390
#     4  11  22  38  63  95 129 170 214 263 321 385
#
# _framework density 21.445385999999999
#
# number of rings (size 3 to 8) (size 9 to 14) (size 15 to 20)
#    0.000    1.375    2.500    2.250    1.750    5.750 
#    0.000    1.875    0.000    0.750    0.000    0.000 
#    0.000    0.000    0.000    0.000    0.000    0.000 
#
# Total GULP energy -396535.958105 kJ/mol
# GULP energy per Si atom -12391.748691 kJ/mol
# Density = 2.139658 g / cm^3
# Si number density = 21.445386 Si / 1000 Ang^3
#
#
#
# Elastic Constant Matrix: (Units=GPa)
#
#
# Indices 1 2 3 4 5 6 
#
# 1 163.5175 17.5919 56.4072 0.0000 0.0000 0.0000
# 2 17.5919 89.4533 40.8711 0.0000 0.0000 0.0000
# 3 56.4072 40.8711 119.7933 0.0000 0.0000 0.0000
# 4 0.0000 0.0000 0.0000 35.1691 0.0000 0.0000
# 5 0.0000 0.0000 0.0000 0.0000 -13.3504 0.0000
# 6 0.0000 0.0000 0.0000 0.0000 0.0000 14.9254
#
#
#
# Elastic Compliance Matrix: (Units=1/GPa)
#
#
# Indices 1 2 3 4 5 6 
#
# 1 0.007303 0.000160 -0.003494 0.000000 0.000000 0.000000
# 2 0.000160 0.013247 -0.004595 0.000000 0.000000 0.000000
# 3 -0.003494 -0.004595 0.011560 0.000000 0.000000 0.000000
# 4 0.000000 0.000000 0.000000 0.028434 0.000000 0.000000
# 5 0.000000 0.000000 0.000000 0.000000 -0.074904 0.000000
# 6 0.000000 0.000000 0.000000 0.000000 0.000000 0.067000
#
#
# Mechanical properties :
#
#
# Convention : Reuss Voigt Hill
#
# Bulk Modulus (GPa) = 61.52418 66.94495 64.23456
# Shear Modulus (GPa) = 67.64465 24.54175 46.09320
#
# Velocity S-wave (km/s) = 5.62239 3.38654 4.64112
# Velocity P-wave (km/s) = 8.42018 6.82465 7.66405
#
# Compressibility (1/GPa) = 0.01625377
#
# Stress axis : x y z
#
# Youngs Moduli (GPa) = 136.92079 75.48887 86.50204
#
# Poissons Ratio (x) = -0.01207 0.30220
# Poissons Ratio (y) = -0.02189 0.39747
# Poissons Ratio (z) = 0.47834 0.34686
#
# Static dielectric constant tensor:
#      x y z
#    x 4.364630 0.000000 0.000000 
#    y 0.000000 3.842720 0.000000 
#    z 0.000000 0.000000 4.080730 
# 
# 
# High freq. dielectric constant tensor:
#      x y z
#    x 1.859680 0.000000 0.000000 
#    y 0.000000 1.835000 0.000000 
#    z 0.000000 0.000000 1.833480 
# 
# From -- ./inp_files/10234.got.cif
#   From: 2010.03.12/outbox.cif.g09.slc.cpg/sg38_6_cif.got.tgz:10234.got - 2010.04.14 02:38:36.
