data_PCOD8179260
_publ_section_title
;
Structure prediction by ZEFSAII (Michael W. Deem and Ramdas Pophale) SiO2 
 PCOD8179260
Probable space group: A M M 2
;
_chemical_formula_sum "Si O2"
_cell_formula_units_Z 40
_cell_length_a 8.855190
_cell_length_b 28.932868
_cell_length_c 7.807532
_cell_angle_alpha 90.000000
_cell_angle_beta 90.000000
_cell_angle_gamma 90.000000
_cell_volume 2000.336882
_symmetry_space_group_name_H-M "A M M 2"
_symmetry_group_IT_number 38
_symmetry_cell_setting 'orthorhombic'
loop_
_space_group_symop_operation_xyz
x,y,z
-x,-y,z
-x,y,z
x,-y,z
x,1/2+y,1/2+z
-x,1/2-y,1/2+z
-x,1/2+y,1/2+z
x,1/2-y,1/2+z
loop_
_atom_site_type_symbol
_atom_site_label
_atom_site_fract_x
_atom_site_fract_y
_atom_site_fract_z
Si Si1 0.171719 0.898451 0.579730
Si Si2 0.323515 0.946809 0.892348
Si Si3 0.829867 0.704368 0.077692
Si Si4 0.329073 0.785148 0.243649
Si Si5 0.323309 0.612105 0.712756
O O1 0.252622 0.932136 0.712144
O O2 0.181745 0.846649 0.659571
O O3 0.240831 0.901253 0.389018
O O4 0.000000 0.914794 0.562517
O O5 0.500000 0.937520 0.875976
O O6 0.284753 0.000000 0.925739
O O7 0.259473 0.918665 0.056166
O O8 0.694097 0.706500 0.943294
O O9 0.000000 0.711278 0.003827
O O10 0.793496 0.745569 0.207202
O O11 0.500000 0.768712 0.206608
O O12 0.294383 0.834502 0.154541
O O13 0.500000 0.603305 0.743964
#
# Coordination Sequence:
#
# PCOD8179260 Si02
#       5
#     8   8   8   8   8
#     4  10  22  39  59  86 120 157 194 240 296 352
#     4  10  22  40  63  89 116 152 198 247 299 352
#     4  10  21  36  53  80 116 155 192 233 290 352
#     4  10  20  34  54  82 112 150 196 241 285 341
#     4   9  20  39  60  85 117 154 197 244 293 348
#
# _framework density 19.996632000000002
#
# number of rings (size 3 to 8) (size 9 to 14) (size 15 to 20)
#    0.000    2.200    0.000    1.800    2.800    5.200 
#    0.000    2.000    0.000    0.000    0.000    0.000 
#    0.000    0.000    0.000    0.000    0.000    0.000 
#
# Total GULP energy -247868.042574 kJ/mol
# GULP energy per Si atom -12393.402129 kJ/mol
# Density = 1.995112 g / cm^3
# Si number density = 19.996632 Si / 1000 Ang^3
#
#
#
# Elastic Constant Matrix: (Units=GPa)
#
#
# Indices 1 2 3 4 5 6 
#
# 1 69.0189 45.3462 32.7058 0.0000 0.0000 0.0000
# 2 45.3462 55.0823 25.9958 0.0000 0.0000 0.0000
# 3 32.7058 25.9958 77.9917 0.0000 0.0000 0.0000
# 4 0.0000 0.0000 0.0000 34.8137 0.0000 0.0000
# 5 0.0000 0.0000 0.0000 0.0000 24.8720 0.0000
# 6 0.0000 0.0000 0.0000 0.0000 0.0000 23.7157
#
#
#
# Elastic Compliance Matrix: (Units=1/GPa)
#
#
# Indices 1 2 3 4 5 6 
#
# 1 0.033621 -0.024949 -0.005783 0.000000 0.000000 0.000000
# 2 -0.024949 0.040057 -0.002889 0.000000 0.000000 0.000000
# 3 -0.005783 -0.002889 0.016210 0.000000 0.000000 0.000000
# 4 0.000000 0.000000 0.000000 0.028724 0.000000 0.000000
# 5 0.000000 0.000000 0.000000 0.000000 0.040206 0.000000
# 6 0.000000 0.000000 0.000000 0.000000 0.000000 0.042166
#
#
# Mechanical properties :
#
#
# Convention : Reuss Voigt Hill
#
# Bulk Modulus (GPa) = 44.15879 45.57652 44.86765
# Shear Modulus (GPa) = 18.13068 23.21664 20.67366
#
# Velocity S-wave (km/s) = 3.01439 3.41108 3.21885
# Velocity P-wave (km/s) = 5.85205 6.19319 6.02503
#
# Compressibility (1/GPa) = 0.02264555
#
# Stress axis : x y z
#
# Youngs Moduli (GPa) = 29.74344 24.96424 61.69002
#
# Poissons Ratio (x) = 0.62283 0.35676
# Poissons Ratio (y) = 0.74207 0.17825
# Poissons Ratio (z) = 0.17201 0.07213
#
# Static dielectric constant tensor:
#      x y z
#    x 3.518950 0.000000 0.000000 
#    y 0.000000 3.938170 0.000000 
#    z 0.000000 0.000000 3.423840 
# 
# 
# High freq. dielectric constant tensor:
#      x y z
#    x 1.780720 0.000000 0.000000 
#    y 0.000000 1.784380 0.000000 
#    z 0.000000 0.000000 1.767120 
# 
# From -- ./inp_files/3316.got.cif
#   From: 2010.03.12/outbox.cif.g09.slc.cpg/sg38_2_cif.got.tgz:3316.got - 2010.04.14 02:38:36.
