data_PCOD8179765
_publ_section_title
;
Structure prediction by ZEFSAII (Michael W. Deem and Ramdas Pophale) SiO2 
 PCOD8179765
Probable space group: A M M 2
;
_chemical_formula_sum "Si O2"
_cell_formula_units_Z 40
_cell_length_a 8.752741
_cell_length_b 22.760423
_cell_length_c 10.095802
_cell_angle_alpha 90.000000
_cell_angle_beta 90.000000
_cell_angle_gamma 90.000000
_cell_volume 2011.246175
_symmetry_space_group_name_H-M "A M M 2"
_symmetry_group_IT_number 38
_symmetry_cell_setting 'orthorhombic'
loop_
_space_group_symop_operation_xyz
x,y,z
-x,-y,z
-x,y,z
x,-y,z
x,1/2+y,1/2+z
-x,1/2-y,1/2+z
-x,1/2+y,1/2+z
x,1/2-y,1/2+z
loop_
_atom_site_type_symbol
_atom_site_label
_atom_site_fract_x
_atom_site_fract_y
_atom_site_fract_z
Si Si1 0.823080 0.185694 0.052530
Si Si2 0.320515 0.000000 0.385002
Si Si3 0.822215 0.500000 0.172342
Si Si4 0.321788 0.809834 0.549019
Si Si5 0.179335 0.618528 0.814797
Si Si6 0.176019 0.125050 0.781858
O O1 0.719357 0.242175 0.028330
O O2 0.769121 0.156176 0.188546
O O3 0.000000 0.205201 0.059476
O O4 0.795026 0.139139 0.935463
O O5 0.269178 0.000000 0.536724
O O6 0.260408 0.056073 0.305975
O O7 0.500000 0.000000 0.382638
O O8 0.777561 0.442664 0.257552
O O9 0.000000 0.500000 0.135651
O O10 0.500000 0.819212 0.522494
O O11 0.226045 0.848789 0.447983
O O12 0.279369 0.830888 0.696242
O O13 0.000000 0.607782 0.815787
O O14 0.000000 0.136131 0.743079
#
# Coordination Sequence:
#
# PCOD8179765 Si02
#       6
#     8   4   4   8   8   8
#     4  10  23  41  62  90 122 159 205 252 300 359
#     4  12  24  39  62  92 124 156 200 251 304 364
#     4  10  20  37  64  90 116 154 198 247 300 358
#     4  12  24  38  60  90 125 163 204 249 301 361
#     4  11  23  41  65  90 121 162 207 251 297 357
#     4  10  21  39  64  91 119 154 201 252 302 357
#
# _framework density 19.888168
#
# number of rings (size 3 to 8) (size 9 to 14) (size 15 to 20)
#    0.000    1.200    2.000    4.500    0.000    8.000 
#    0.000    3.000    0.000    1.200    0.000    0.000 
#    0.000    0.000    0.000    0.000    0.000    0.000 
#
# Total GULP energy -248138.990592 kJ/mol
# GULP energy per Si atom -12406.949530 kJ/mol
# Density = 1.984290 g / cm^3
# Si number density = 19.888168 Si / 1000 Ang^3
#
#
#
# Elastic Constant Matrix: (Units=GPa)
#
#
# Indices 1 2 3 4 5 6 
#
# 1 72.7182 33.8781 13.8219 0.0000 0.0000 0.0000
# 2 33.8781 119.2012 12.8726 0.0000 0.0000 0.0000
# 3 13.8219 12.8726 66.0823 0.0000 0.0000 0.0000
# 4 0.0000 0.0000 0.0000 12.0111 0.0000 0.0000
# 5 0.0000 0.0000 0.0000 0.0000 4.0441 0.0000
# 6 0.0000 0.0000 0.0000 0.0000 0.0000 64.6311
#
#
#
# Elastic Compliance Matrix: (Units=1/GPa)
#
#
# Indices 1 2 3 4 5 6 
#
# 1 0.016262 -0.004346 -0.002555 0.000000 0.000000 0.000000
# 2 -0.004346 0.009731 -0.000987 0.000000 0.000000 0.000000
# 3 -0.002555 -0.000987 0.015859 0.000000 0.000000 0.000000
# 4 0.000000 0.000000 0.000000 0.083257 0.000000 0.000000
# 5 0.000000 0.000000 0.000000 0.000000 0.247273 0.000000
# 6 0.000000 0.000000 0.000000 0.000000 0.000000 0.015472
#
#
# Mechanical properties :
#
#
# Convention : Reuss Voigt Hill
#
# Bulk Modulus (GPa) = 38.34720 42.12741 40.23730
# Shear Modulus (GPa) = 12.12648 29.29919 20.71283
#
# Velocity S-wave (km/s) = 2.47196 3.84239 3.23067
# Velocity P-wave (km/s) = 5.24125 6.39636 5.84740
#
# Compressibility (1/GPa) = 0.02607753
#
# Stress axis : x y z
#
# Youngs Moduli (GPa) = 61.49301 102.76579 63.05489
#
# Poissons Ratio (x) = 0.44661 0.16109
# Poissons Ratio (y) = 0.26724 0.06221
# Poissons Ratio (z) = 0.15710 0.10138
#
# Static dielectric constant tensor:
#      x y z
#    x 3.580940 0.000000 0.000000 
#    y 0.000000 3.926100 0.000000 
#    z 0.000000 0.000000 3.638850 
# 
# 
# High freq. dielectric constant tensor:
#      x y z
#    x 1.770010 0.000000 0.000000 
#    y 0.000000 1.790240 0.000000 
#    z 0.000000 0.000000 1.778260 
# 
# From -- ./inp_files/3330.got.cif
#   From: 2010.03.12/outbox.cif.g09.slc.cpg/sg38_2_cif.got.tgz:3330.got - 2010.04.14 02:38:36.
