data_PCOD8179405
_publ_section_title
;
Structure prediction by ZEFSAII (Michael W. Deem and Ramdas Pophale) SiO2 
 PCOD8179405
Probable space group: A M M 2
;
_chemical_formula_sum "Si O2"
_cell_formula_units_Z 48
_cell_length_a 15.173015
_cell_length_b 8.657066
_cell_length_c 18.624940
_cell_angle_alpha 90.000000
_cell_angle_beta 90.000000
_cell_angle_gamma 90.000000
_cell_volume 2446.456500
_symmetry_space_group_name_H-M "A M M 2"
_symmetry_group_IT_number 38
_symmetry_cell_setting 'orthorhombic'
loop_
_space_group_symop_operation_xyz
x,y,z
-x,-y,z
-x,y,z
x,-y,z
x,1/2+y,1/2+z
-x,1/2-y,1/2+z
-x,1/2+y,1/2+z
x,1/2-y,1/2+z
loop_
_atom_site_type_symbol
_atom_site_label
_atom_site_fract_x
_atom_site_fract_y
_atom_site_fract_z
Si Si1 0.715881 0.169771 0.718820
Si Si2 0.599508 0.681713 0.608196
Si Si3 0.809451 0.817248 0.352946
Si Si4 0.142683 0.331031 0.099687
Si Si5 0.000000 0.180545 0.835055
Si Si6 0.258617 0.682751 0.491182
Si Si7 0.000000 0.825280 0.185478
O O1 0.628961 0.250329 0.685877
O O2 0.769326 0.271711 0.775953
O O3 0.773553 0.146479 0.648808
O O4 0.693572 0.000000 0.751662
O O5 0.500000 0.736638 0.593257
O O6 0.607120 0.500000 0.616879
O O7 0.656339 0.733583 0.538238
O O8 0.909166 0.753667 0.365335
O O9 0.739655 0.748836 0.410417
O O10 0.813519 0.000000 0.358451
O O11 0.097155 0.500000 0.088367
O O12 0.082866 0.202099 0.135533
O O13 0.171008 0.260240 0.023861
O O14 0.000000 0.203074 0.749611
O O15 0.000000 0.000000 0.853224
O O16 0.248823 0.500000 0.489170
O O17 0.000000 0.000000 0.215916
#
# Coordination Sequence:
#
# PCOD8179405 Si02
#       7
#     8   8   8   8   4   8   4
#     4  10  20  35  58  85 115 150 190 237 289 345
#     4   9  19  38  64  91 118 150 191 241 297 357
#     4  12  24  39  59  85 119 159 201 243 294 351
#     4  10  20  35  55  79 110 147 192 240 288 338
#     4  12  24  39  58  83 116 155 199 247 295 345
#     4  10  21  38  59  84 117 154 194 240 297 356
#     4  12  22  33  54  83 112 149 197 243 291 341
#
# _framework density 19.620214000000001
#
# number of rings (size 3 to 8) (size 9 to 14) (size 15 to 20)
#    0.000    1.500    1.667    4.500    0.000    3.000 
#    0.000    4.167    0.000    3.000    0.000    0.000 
#    0.000    0.000    0.000    0.000    0.000    0.000 
#
# Total GULP energy -297450.517278 kJ/mol
# GULP energy per Si atom -12393.771553 kJ/mol
# Density = 1.957556 g / cm^3
# Si number density = 19.620214 Si / 1000 Ang^3
#
#
#
# Elastic Constant Matrix: (Units=GPa)
#
#
# Indices 1 2 3 4 5 6 
#
# 1 105.9258 41.5273 37.6240 0.0000 0.0000 0.0000
# 2 41.5273 121.9670 33.5211 0.0000 0.0000 0.0000
# 3 37.6240 33.5211 82.0336 0.0000 0.0000 0.0000
# 4 0.0000 0.0000 0.0000 34.3226 0.0000 0.0000
# 5 0.0000 0.0000 0.0000 0.0000 34.7257 0.0000
# 6 0.0000 0.0000 0.0000 0.0000 0.0000 25.0298
#
#
#
# Elastic Compliance Matrix: (Units=1/GPa)
#
#
# Indices 1 2 3 4 5 6 
#
# 1 0.012143 -0.002933 -0.004371 0.000000 0.000000 0.000000
# 2 -0.002933 0.009945 -0.002718 0.000000 0.000000 0.000000
# 3 -0.004371 -0.002718 0.015306 0.000000 0.000000 0.000000
# 4 0.000000 0.000000 0.000000 0.029135 0.000000 0.000000
# 5 0.000000 0.000000 0.000000 0.000000 0.028797 0.000000
# 6 0.000000 0.000000 0.000000 0.000000 0.000000 0.039952
#
#
# Mechanical properties :
#
#
# Convention : Reuss Voigt Hill
#
# Bulk Modulus (GPa) = 57.64136 59.47458 58.55797
# Shear Modulus (GPa) = 31.03556 31.96587 31.50071
#
# Velocity S-wave (km/s) = 3.98152 4.04075 4.01125
# Velocity P-wave (km/s) = 7.11189 7.22142 7.16687
#
# Compressibility (1/GPa) = 0.01734865
#
# Stress axis : x y z
#
# Youngs Moduli (GPa) = 82.35235 100.55554 65.33589
#
# Poissons Ratio (x) = 0.29495 0.28556
# Poissons Ratio (y) = 0.24156 0.17761
# Poissons Ratio (z) = 0.35994 0.27335
#
# Static dielectric constant tensor:
#      x y z
#    x 3.550370 0.000000 0.000000 
#    y 0.000000 3.821610 0.000000 
#    z 0.000000 0.000000 3.511710 
# 
# 
# High freq. dielectric constant tensor:
#      x y z
#    x 1.745740 0.000000 0.000000 
#    y 0.000000 1.778190 0.000000 
#    z 0.000000 0.000000 1.758210 
# 
# From -- ./inp_files/18175.got.cif
#   From: 2010.03.12/outbox.cif.g09.slc.cpg/sg38_10_cif.got.tgz:18175.got - 2010.04.14 02:38:36.
