data_PCOD8179375
_publ_section_title
;
Structure prediction by ZEFSAII (Michael W. Deem and Ramdas Pophale) SiO2 
 PCOD8179375
Probable space group: A M M 2
;
_chemical_formula_sum "Si O2"
_cell_formula_units_Z 40
_cell_length_a 8.915650
_cell_length_b 25.587981
_cell_length_c 9.599144
_cell_angle_alpha 90.000000
_cell_angle_beta 90.000000
_cell_angle_gamma 90.000000
_cell_volume 2189.886153
_symmetry_space_group_name_H-M "A M M 2"
_symmetry_group_IT_number 38
_symmetry_cell_setting 'orthorhombic'
loop_
_space_group_symop_operation_xyz
x,y,z
-x,-y,z
-x,y,z
x,-y,z
x,1/2+y,1/2+z
-x,1/2-y,1/2+z
-x,1/2+y,1/2+z
x,1/2-y,1/2+z
loop_
_atom_site_type_symbol
_atom_site_label
_atom_site_fract_x
_atom_site_fract_y
_atom_site_fract_z
Si Si1 0.677017 0.500000 0.508250
Si Si2 0.674317 0.299383 0.024931
Si Si3 0.823079 0.592061 0.004188
Si Si4 0.678661 0.409219 0.712345
Si Si5 0.672280 0.706268 0.705506
Si Si6 0.175236 0.000000 0.708581
O O1 0.500000 0.500000 0.494991
O O2 0.731405 0.448882 0.592716
O O3 0.743724 0.500000 0.355809
O O4 0.500000 0.310131 0.060209
O O5 0.764959 0.351939 0.055964
O O6 0.747629 0.252990 0.117532
O O7 0.694709 0.281077 0.866905
O O8 0.776107 0.550970 0.122403
O O9 0.000000 0.593735 0.981449
O O10 0.748475 0.573960 0.859607
O O11 0.500000 0.408868 0.732943
O O12 0.738716 0.351252 0.670958
O O13 0.500000 0.705580 0.660870
O O14 0.000000 0.000000 0.738333
#
# Coordination Sequence:
#
# PCOD8179375 Si02
#       6
#     4   8   8   8   8   4
#     4  10  21  34  54  82 104 124 163 214 256 292
#     4   9  17  31  50  72  97 129 166 206 247 291
#     4  10  20  35  53  73  98 135 175 206 241 296
#     4   9  18  34  54  78 103 129 165 209 251 298
#     4   8  15  28  48  71  97 128 160 194 244 299
#     4  10  23  38  50  70 104 138 167 200 250 308
#
# _framework density 18.265789999999999
#
# number of rings (size 3 to 8) (size 9 to 14) (size 15 to 20)
#    0.000    2.800    0.000    2.400    0.000    4.000 
#    0.000    8.000    0.000    0.000    0.000    0.000 
#    0.000    0.000    0.000    0.000    0.000    0.000 
#
# Total GULP energy -247950.576054 kJ/mol
# GULP energy per Si atom -12397.528803 kJ/mol
# Density = 1.822422 g / cm^3
# Si number density = 18.265790 Si / 1000 Ang^3
#
#
#
# Elastic Constant Matrix: (Units=GPa)
#
#
# Indices 1 2 3 4 5 6 
#
# 1 36.3656 35.4269 35.3477 0.0000 0.0000 0.0000
# 2 35.4269 148.9807 99.8358 0.0000 0.0000 0.0000
# 3 35.3477 99.8358 130.3120 0.0000 0.0000 0.0000
# 4 0.0000 0.0000 0.0000 40.3058 0.0000 0.0000
# 5 0.0000 0.0000 0.0000 0.0000 22.1326 0.0000
# 6 0.0000 0.0000 0.0000 0.0000 0.0000 22.5794
#
#
#
# Elastic Compliance Matrix: (Units=1/GPa)
#
#
# Indices 1 2 3 4 5 6 
#
# 1 0.038735 -0.004459 -0.007090 0.000000 0.000000 0.000000
# 2 -0.004459 0.014308 -0.009752 0.000000 0.000000 0.000000
# 3 -0.007090 -0.009752 0.017068 0.000000 0.000000 0.000000
# 4 0.000000 0.000000 0.000000 0.024810 0.000000 0.000000
# 5 0.000000 0.000000 0.000000 0.000000 0.045182 0.000000
# 6 0.000000 0.000000 0.000000 0.000000 0.000000 0.044288
#
#
# Mechanical properties :
#
#
# Convention : Reuss Voigt Hill
#
# Bulk Modulus (GPa) = 36.35393 72.98658 54.67025
# Shear Modulus (GPa) = 21.17165 26.67340 23.92253
#
# Velocity S-wave (km/s) = 3.40823 3.82552 3.62289
# Velocity P-wave (km/s) = 5.95265 7.71736 6.89172
#
# Compressibility (1/GPa) = 0.02750734
#
# Stress axis : x y z
#
# Youngs Moduli (GPa) = 25.81650 69.89218 58.58759
#
# Poissons Ratio (x) = 0.31168 0.41541
# Poissons Ratio (y) = 0.11513 0.57134
# Poissons Ratio (z) = 0.18305 0.68158
#
# Static dielectric constant tensor:
#      x y z
#    x 3.091560 0.000000 0.000000 
#    y 0.000000 3.772640 0.000000 
#    z 0.000000 0.000000 3.342320 
# 
# 
# High freq. dielectric constant tensor:
#      x y z
#    x 1.677960 0.000000 0.000000 
#    y 0.000000 1.725080 0.000000 
#    z 0.000000 0.000000 1.704450 
# 
# From -- ./inp_files/3503.got.cif
#   From: 2010.03.12/outbox.cif.g09.slc.cpg/sg38_2_cif.got.tgz:3503.got - 2010.04.14 02:38:36.
