data_PCOD8179257
_publ_section_title
;
Structure prediction by ZEFSAII (Michael W. Deem and Ramdas Pophale) SiO2 
 PCOD8179257
Probable space group: A M M 2
;
_chemical_formula_sum "Si O2"
_cell_formula_units_Z 64
_cell_length_a 8.927143
_cell_length_b 18.304658
_cell_length_c 20.618646
_cell_angle_alpha 90.000000
_cell_angle_beta 90.000000
_cell_angle_gamma 90.000000
_cell_volume 3369.257882
_symmetry_space_group_name_H-M "A M M 2"
_symmetry_group_IT_number 38
_symmetry_cell_setting 'orthorhombic'
loop_
_space_group_symop_operation_xyz
x,y,z
-x,-y,z
-x,y,z
x,-y,z
x,1/2+y,1/2+z
-x,1/2-y,1/2+z
-x,1/2+y,1/2+z
x,1/2-y,1/2+z
loop_
_atom_site_type_symbol
_atom_site_label
_atom_site_fract_x
_atom_site_fract_y
_atom_site_fract_z
Si Si1 0.325694 0.673528 0.041830
Si Si2 0.825616 0.670135 0.280314
Si Si3 0.673040 0.086076 0.154371
Si Si4 0.327795 0.584838 0.167975
Si Si5 0.666263 0.160389 0.401224
Si Si6 0.177293 0.827702 0.039897
Si Si7 0.825454 0.339226 0.773931
Si Si8 0.667342 0.333831 0.408885
O O1 0.500000 0.697111 0.040162
O O2 0.290634 0.614942 0.096892
O O3 0.229794 0.745711 0.055205
O O4 0.283141 0.634480 0.973189
O O5 0.779384 0.623893 0.218487
O O6 0.782709 0.754202 0.266880
O O7 0.744098 0.636739 0.343400
O O8 0.000000 0.662417 0.293330
O O9 0.500000 0.107986 0.145267
O O10 0.770005 0.119973 0.097109
O O11 0.729335 0.116014 0.222898
O O12 0.696419 0.000000 0.153527
O O13 0.500000 0.600344 0.186712
O O14 0.290136 0.500000 0.167880
O O15 0.500000 0.131216 0.383825
O O16 0.781006 0.133119 0.346208
O O17 0.665429 0.247236 0.405744
O O18 0.000000 0.828580 0.035884
O O19 0.242033 0.859004 0.972374
O O20 0.000000 0.353922 0.762423
O O21 0.500000 0.366270 0.413131
#
# Coordination Sequence:
#
# PCOD8179257 Si02
#       8
#     8   8   8   8   8   8   8   8
#     4   9  18  34  56  80 108 142 180 221 262 310
#     4  10  20  34  54  82 111 139 174 217 267 318
#     4  11  24  40  56  75 103 141 182 220 260 312
#     4  10  21  36  53  75 105 143 185 225 264 308
#     4   8  15  29  51  79 107 136 172 214 260 308
#     4  11  21  34  56  84 111 137 170 216 267 318
#     4  10  20  34  55  82 109 137 171 215 266 317
#     4   9  17  32  55  81 108 138 174 216 260 309
#
# _framework density 18.995282
#
# number of rings (size 3 to 8) (size 9 to 14) (size 15 to 20)
#    0.000    2.250    0.000    4.125    0.000    8.250 
#    0.000    1.250    0.000    6.000    0.000    0.000 
#    0.000    0.000    0.000    0.000    0.000    0.000 
#
# Total GULP energy -396823.613957 kJ/mol
# GULP energy per Si atom -12400.737936 kJ/mol
# Density = 1.895205 g / cm^3
# Si number density = 18.995282 Si / 1000 Ang^3
#
#
#
# Elastic Constant Matrix: (Units=GPa)
#
#
# Indices 1 2 3 4 5 6 
#
# 1 117.3751 52.9035 72.8785 0.0000 0.0000 0.0000
# 2 52.9035 79.6827 72.3550 0.0000 0.0000 0.0000
# 3 72.8785 72.3550 185.6263 0.0000 0.0000 0.0000
# 4 0.0000 0.0000 0.0000 -5.1014 0.0000 0.0000
# 5 0.0000 0.0000 0.0000 0.0000 28.2391 0.0000
# 6 0.0000 0.0000 0.0000 0.0000 0.0000 17.9912
#
#
#
# Elastic Compliance Matrix: (Units=1/GPa)
#
#
# Indices 1 2 3 4 5 6 
#
# 1 0.012969 -0.006171 -0.002686 0.000000 0.000000 0.000000
# 2 -0.006171 0.022362 -0.006293 0.000000 0.000000 0.000000
# 3 -0.002686 -0.006293 0.008895 0.000000 0.000000 0.000000
# 4 0.000000 0.000000 0.000000 -0.196024 0.000000 0.000000
# 5 0.000000 0.000000 0.000000 0.000000 0.035412 0.000000
# 6 0.000000 0.000000 0.000000 0.000000 0.000000 0.055583
#
#
# Mechanical properties :
#
#
# Convention : Reuss Voigt Hill
#
# Bulk Modulus (GPa) = 71.81970 86.55089 79.18530
# Shear Modulus (GPa) = -193.34777 20.52890 -86.40944
#
# Velocity S-wave (km/s) = -10.09991 3.29102 -6.75194
# Velocity P-wave (km/s) = 9.90554 7.75271 4.35977
#
# Compressibility (1/GPa) = 0.01392376
#
# Stress axis : x y z
#
# Youngs Moduli (GPa) = 77.10587 44.71919 112.42340
#
# Poissons Ratio (x) = 0.27598 0.30200
# Poissons Ratio (y) = 0.47585 0.70753
# Poissons Ratio (z) = 0.20713 0.28144
#
# Static dielectric constant tensor:
#      x y z
#    x 3.541490 0.000000 0.000000 
#    y 0.000000 3.122300 0.000000 
#    z 0.000000 0.000000 3.883340 
# 
# 
# High freq. dielectric constant tensor:
#      x y z
#    x 1.742700 0.000000 0.000000 
#    y 0.000000 1.698480 0.000000 
#    z 0.000000 0.000000 1.759990 
# 
# From -- ./inp_files/20036.got.cif
#   From: 2010.03.12/outbox.cif.g09.slc.cpg/sg38_11_cif.got.tgz:20036.got - 2010.04.14 02:38:36.
