data_PCOD8179677
_publ_section_title
;
Structure prediction by ZEFSAII (Michael W. Deem and Ramdas Pophale) SiO2 
 PCOD8179677
Probable space group: A M M 2
;
_chemical_formula_sum "Si O2"
_cell_formula_units_Z 40
_cell_length_a 7.574490
_cell_length_b 11.734222
_cell_length_c 22.236942
_cell_angle_alpha 90.000000
_cell_angle_beta 90.000000
_cell_angle_gamma 90.000000
_cell_volume 1976.436020
_symmetry_space_group_name_H-M "A M M 2"
_symmetry_group_IT_number 38
_symmetry_cell_setting 'orthorhombic'
loop_
_space_group_symop_operation_xyz
x,y,z
-x,-y,z
-x,y,z
x,-y,z
x,1/2+y,1/2+z
-x,1/2-y,1/2+z
-x,1/2+y,1/2+z
x,1/2-y,1/2+z
loop_
_atom_site_type_symbol
_atom_site_label
_atom_site_fract_x
_atom_site_fract_y
_atom_site_fract_z
Si Si1 0.799264 0.752929 0.934760
Si Si2 0.500000 0.872413 0.223040
Si Si3 0.791637 0.626208 0.052622
Si Si4 0.204447 0.500000 0.268228
Si Si5 0.500000 0.870595 0.364924
Si Si6 0.791973 0.291989 0.182123
Si Si7 0.301306 0.500000 0.403049
O O1 0.675463 0.695140 0.885416
O O2 0.000000 0.711241 0.923577
O O3 0.795186 0.889274 0.929576
O O4 0.731327 0.713264 0.000484
O O5 0.500000 0.868428 0.294167
O O6 0.319551 0.817960 0.199158
O O7 0.500000 0.000000 0.198388
O O8 0.713958 0.500000 0.039284
O O9 0.723150 0.669285 0.116794
O O10 0.000000 0.618700 0.056080
O O11 0.255222 0.610184 0.229774
O O12 0.308115 0.500000 0.330688
O O13 0.000000 0.500000 0.284941
O O14 0.500000 0.000000 0.389741
O O15 0.000000 0.262671 0.182710
O O16 0.500000 0.500000 0.427053
#
# Coordination Sequence:
#
# PCOD8179677 Si02
#       7
#     8   4   8   4   4   8   4
#     4  11  23  41  64  92 126 166 207 251 309 375
#     4  11  26  42  57  87 124 167 211 249 294 373
#     4   9  18  38  65  93 123 154 201 260 314 367
#     4  10  20  36  66  98 124 155 203 259 313 371
#     4  11  24  42  63  91 126 159 211 261 308 365
#     4  10  21  40  65  94 124 156 201 261 317 362
#     4  12  24  40  60  89 133 172 207 254 302 369
#
# _framework density 20.238448000000002
#
# number of rings (size 3 to 8) (size 9 to 14) (size 15 to 20)
#    0.000    1.600    2.000    2.700    1.400    4.800 
#    1.800    3.000    0.000    0.000    0.000    0.000 
#    0.000    0.000    0.000    0.000    0.000    0.000 
#
# Total GULP energy -248039.139580 kJ/mol
# GULP energy per Si atom -12401.956979 kJ/mol
# Density = 2.019238 g / cm^3
# Si number density = 20.238448 Si / 1000 Ang^3
#
#
#
# Elastic Constant Matrix: (Units=GPa)
#
#
# Indices 1 2 3 4 5 6 
#
# 1 90.4273 44.5134 22.9300 0.0000 0.0000 0.0000
# 2 44.5134 174.7207 69.2131 0.0000 0.0000 0.0000
# 3 22.9300 69.2131 120.9731 0.0000 0.0000 0.0000
# 4 0.0000 0.0000 0.0000 34.3970 0.0000 0.0000
# 5 0.0000 0.0000 0.0000 0.0000 20.8362 0.0000
# 6 0.0000 0.0000 0.0000 0.0000 0.0000 5.0502
#
#
#
# Elastic Compliance Matrix: (Units=1/GPa)
#
#
# Indices 1 2 3 4 5 6 
#
# 1 0.012692 -0.002949 -0.000719 0.000000 0.000000 0.000000
# 2 -0.002949 0.008086 -0.004067 0.000000 0.000000 0.000000
# 3 -0.000719 -0.004067 0.010730 0.000000 0.000000 0.000000
# 4 0.000000 0.000000 0.000000 0.029072 0.000000 0.000000
# 5 0.000000 0.000000 0.000000 0.000000 0.047993 0.000000
# 6 0.000000 0.000000 0.000000 0.000000 0.000000 0.198011
#
#
# Mechanical properties :
#
#
# Convention : Reuss Voigt Hill
#
# Bulk Modulus (GPa) = 62.35102 73.27048 67.81075
# Shear Modulus (GPa) = 15.27181 28.68766 21.97973
#
# Velocity S-wave (km/s) = 2.74997 3.76903 3.29909
# Velocity P-wave (km/s) = 6.39986 7.43122 6.93474
#
# Compressibility (1/GPa) = 0.01603823
#
# Stress axis : x y z
#
# Youngs Moduli (GPa) = 78.78680 123.67160 93.20055
#
# Poissons Ratio (x) = 0.36471 0.06697
# Poissons Ratio (y) = 0.23234 0.37907
# Poissons Ratio (z) = 0.05662 0.50301
#
# Static dielectric constant tensor:
#      x y z
#    x 3.546190 0.000000 0.000000 
#    y 0.000000 3.823420 0.000000 
#    z 0.000000 0.000000 3.803300 
# 
# 
# High freq. dielectric constant tensor:
#      x y z
#    x 1.792670 0.000000 0.000000 
#    y 0.000000 1.789540 0.000000 
#    z 0.000000 0.000000 1.795180 
# 
# From -- ./inp_files/19536.got.cif
#   From: 2010.03.12/outbox.cif.g09.slc.cpg/sg38_10_cif.got.tgz:19536.got - 2010.04.14 02:38:36.
