data_PCOD8179518
_publ_section_title
;
Structure prediction by ZEFSAII (Michael W. Deem and Ramdas Pophale) SiO2 
 PCOD8179518
Probable space group: A M M 2
;
_chemical_formula_sum "Si O2"
_cell_formula_units_Z 64
_cell_length_a 8.900092
_cell_length_b 24.062433
_cell_length_c 14.731945
_cell_angle_alpha 90.000000
_cell_angle_beta 90.000000
_cell_angle_gamma 90.000000
_cell_volume 3154.961924
_symmetry_space_group_name_H-M "A M M 2"
_symmetry_group_IT_number 38
_symmetry_cell_setting 'orthorhombic'
loop_
_space_group_symop_operation_xyz
x,y,z
-x,-y,z
-x,y,z
x,-y,z
x,1/2+y,1/2+z
-x,1/2-y,1/2+z
-x,1/2+y,1/2+z
x,1/2-y,1/2+z
loop_
_atom_site_type_symbol
_atom_site_label
_atom_site_fract_x
_atom_site_fract_y
_atom_site_fract_z
Si Si1 0.333308 0.242537 0.470290
Si Si2 0.674167 0.564082 0.603369
Si Si3 0.175558 0.352260 0.468592
Si Si4 0.667467 0.235846 0.255232
Si Si5 0.827236 0.936929 0.616938
Si Si6 0.825064 0.154444 0.759151
Si Si7 0.322842 0.120932 0.457483
Si Si8 0.178048 0.376684 0.764103
O O1 0.500000 0.255034 0.508399
O O2 0.222899 0.290939 0.505277
O O3 0.336465 0.240374 0.362491
O O4 0.277007 0.181185 0.500099
O O5 0.500000 0.577820 0.619934
O O6 0.698943 0.500000 0.577552
O O7 0.734604 0.600146 0.519907
O O8 0.765379 0.576426 0.695152
O O9 0.219774 0.357637 0.363066
O O10 0.000000 0.360218 0.486771
O O11 0.500000 0.229359 0.214987
O O12 0.739745 0.292395 0.216748
O O13 0.764905 0.182670 0.226142
O O14 0.777288 0.899169 0.701477
O O15 0.725965 0.925415 0.529084
O O16 0.000000 0.925633 0.590695
O O17 0.801086 0.000000 0.647837
O O18 0.000000 0.167895 0.753022
O O19 0.500000 0.118698 0.438595
O O20 0.240325 0.108966 0.363193
O O21 0.000000 0.376011 0.767748
#
# Coordination Sequence:
#
# PCOD8179518 Si02
#       8
#     8   8   8   8   8   8   8   8
#     4   8  16  32  54  81 114 149 183 222 274 337
#     4  11  25  43  60  80 110 149 193 238 282 334
#     4  10  20  35  59  88 116 148 185 230 284 337
#     4   9  17  32  56  86 119 150 183 226 278 339
#     4  10  22  39  57  80 112 152 198 241 280 329
#     4   9  19  36  58  85 118 153 189 233 284 335
#     4  10  21  38  60  86 116 150 187 232 285 336
#     4  11  22  38  62  88 115 147 184 230 283 340
#
# _framework density 20.285506999999999
#
# number of rings (size 3 to 8) (size 9 to 14) (size 15 to 20)
#    0.000    2.250    0.000    3.375    0.000    7.750 
#    0.000    3.750    0.000    0.000    0.000    0.000 
#    0.000    0.000    0.000    0.000    0.000    0.000 
#
# Total GULP energy -396840.230631 kJ/mol
# GULP energy per Si atom -12401.257207 kJ/mol
# Density = 2.023934 g / cm^3
# Si number density = 20.285507 Si / 1000 Ang^3
#
#
#
# Elastic Constant Matrix: (Units=GPa)
#
#
# Indices 1 2 3 4 5 6 
#
# 1 107.1544 33.3426 23.7631 0.0000 0.0000 0.0000
# 2 33.3426 87.0167 12.9293 0.0000 0.0000 0.0000
# 3 23.7631 12.9293 49.9939 0.0000 0.0000 0.0000
# 4 0.0000 0.0000 0.0000 33.7534 0.0000 0.0000
# 5 0.0000 0.0000 0.0000 0.0000 25.2955 0.0000
# 6 0.0000 0.0000 0.0000 0.0000 0.0000 31.8947
#
#
#
# Elastic Compliance Matrix: (Units=1/GPa)
#
#
# Indices 1 2 3 4 5 6 
#
# 1 0.011492 -0.003735 -0.004496 0.000000 0.000000 0.000000
# 2 -0.003735 0.013165 -0.001629 0.000000 0.000000 0.000000
# 3 -0.004496 -0.001629 0.022561 0.000000 0.000000 0.000000
# 4 0.000000 0.000000 0.000000 0.029627 0.000000 0.000000
# 5 0.000000 0.000000 0.000000 0.000000 0.039533 0.000000
# 6 0.000000 0.000000 0.000000 0.000000 0.000000 0.031353
#
#
# Mechanical properties :
#
#
# Convention : Reuss Voigt Hill
#
# Bulk Modulus (GPa) = 36.36845 42.69279 39.53062
# Shear Modulus (GPa) = 28.30972 29.79739 29.05356
#
# Velocity S-wave (km/s) = 3.73978 3.83678 3.78859
# Velocity P-wave (km/s) = 6.05104 6.38118 6.21830
#
# Compressibility (1/GPa) = 0.02749636
#
# Stress axis : x y z
#
# Youngs Moduli (GPa) = 87.01922 75.95663 44.32435
#
# Poissons Ratio (x) = 0.28372 0.19929
# Poissons Ratio (y) = 0.32504 0.07222
# Poissons Ratio (z) = 0.39126 0.12376
#
# Static dielectric constant tensor:
#      x y z
#    x 3.732830 0.000000 0.000000 
#    y 0.000000 3.827120 0.000000 
#    z 0.000000 0.000000 3.520830 
# 
# 
# High freq. dielectric constant tensor:
#      x y z
#    x 1.795000 0.000000 0.000000 
#    y 0.000000 1.792960 0.000000 
#    z 0.000000 0.000000 1.785960 
# 
# From -- ./inp_files/12790.got.cif
#   From: 2010.03.12/outbox.cif.g09.slc.cpg/sg38_7_cif.got.tgz:12790.got - 2010.04.14 02:38:36.
