data_PCOD8179864
_publ_section_title
;
Structure prediction by ZEFSAII (Michael W. Deem and Ramdas Pophale) SiO2 
 PCOD8179864
Probable space group: A M M 2
;
_chemical_formula_sum "Si O2"
_cell_formula_units_Z 48
_cell_length_a 9.614873
_cell_length_b 9.478343
_cell_length_c 30.885367
_cell_angle_alpha 90.000000
_cell_angle_beta 90.000000
_cell_angle_gamma 90.000000
_cell_volume 2814.678134
_symmetry_space_group_name_H-M "A M M 2"
_symmetry_group_IT_number 38
_symmetry_cell_setting 'orthorhombic'
loop_
_space_group_symop_operation_xyz
x,y,z
-x,-y,z
-x,y,z
x,-y,z
x,1/2+y,1/2+z
-x,1/2-y,1/2+z
-x,1/2+y,1/2+z
x,1/2-y,1/2+z
loop_
_atom_site_type_symbol
_atom_site_label
_atom_site_fract_x
_atom_site_fract_y
_atom_site_fract_z
Si Si1 0.837408 0.164612 0.335980
Si Si2 0.335440 0.844824 0.670476
Si Si3 0.345230 0.668039 0.499438
Si Si4 0.337942 0.835536 0.767763
Si Si5 0.161619 0.162825 0.920260
Si Si6 0.334291 0.156249 0.093960
O O1 0.752935 0.234643 0.297373
O O2 0.792185 0.241731 0.380071
O O3 0.000000 0.187786 0.326911
O O4 0.799709 0.000000 0.339604
O O5 0.500000 0.852095 0.665056
O O6 0.300492 0.790106 0.718652
O O7 0.269480 0.746751 0.633234
O O8 0.271345 0.000000 0.664095
O O9 0.500000 0.725426 0.489107
O O10 0.347882 0.500000 0.501418
O O11 0.242258 0.721667 0.462172
O O12 0.294140 0.721841 0.546869
O O13 0.500000 0.809604 0.777626
O O14 0.301081 0.000000 0.775578
O O15 0.000000 0.179489 0.930515
O O16 0.200190 0.000000 0.910098
O O17 0.500000 0.150005 0.097149
O O18 0.271289 0.000000 0.098952
#
# Coordination Sequence:
#
# PCOD8179864 Si02
#       6
#     8   8   8   8   8   8
#     4  10  21  35  49  67  93 123 154 190 234 282
#     4   8  14  25  41  63  91 118 144 178 219 262
#     4   8  14  25  42  65  90 114 144 183 221 257
#     4   9  18  32  50  72  95 120 154 194 232 271
#     4   9  17  30  48  66  84 113 153 189 223 269
#     4   8  13  22  38  60  85 114 147 179 213 258
#
# _framework density 17.053460999999999
#
# number of rings (size 3 to 8) (size 9 to 14) (size 15 to 20)
#    0.000    3.333    0.000    2.500    0.000    2.667 
#    0.000    4.167    0.000    2.000    0.000    2.333 
#    0.000    0.000    0.000    0.000    0.000    0.000 
#
# Total GULP energy -297448.220176 kJ/mol
# GULP energy per Si atom -12393.675841 kJ/mol
# Density = 1.701465 g / cm^3
# Si number density = 17.053461 Si / 1000 Ang^3
#
#
#
# Elastic Constant Matrix: (Units=GPa)
#
#
# Indices 1 2 3 4 5 6 
#
# 1 38.6319 33.6899 55.6706 0.0000 0.0000 0.0000
# 2 33.6899 83.4106 79.9572 0.0000 0.0000 0.0000
# 3 55.6706 79.9572 175.7458 0.0000 0.0000 0.0000
# 4 0.0000 0.0000 0.0000 30.3920 0.0000 0.0000
# 5 0.0000 0.0000 0.0000 0.0000 -0.3868 0.0000
# 6 0.0000 0.0000 0.0000 0.0000 0.0000 17.6534
#
#
#
# Elastic Compliance Matrix: (Units=1/GPa)
#
#
# Indices 1 2 3 4 5 6 
#
# 1 0.051254 -0.009113 -0.012090 0.000000 0.000000 0.000000
# 2 -0.009113 0.022882 -0.007524 0.000000 0.000000 0.000000
# 3 -0.012090 -0.007524 0.012943 0.000000 0.000000 0.000000
# 4 0.000000 0.000000 0.000000 0.032903 0.000000 0.000000
# 5 0.000000 0.000000 0.000000 0.000000 -2.585181 0.000000
# 6 0.000000 0.000000 0.000000 0.000000 0.000000 0.056646
#
#
# Mechanical properties :
#
#
# Convention : Reuss Voigt Hill
#
# Bulk Modulus (GPa) = 33.75363 70.71375 52.23369
# Shear Modulus (GPa) = -2.13563 18.09644 7.98040
#
# Velocity S-wave (km/s) = -1.12028 3.26108 2.16559
# Velocity P-wave (km/s) = 4.26174 7.46562 6.07856
#
# Compressibility (1/GPa) = 0.02962644
#
# Stress axis : x y z
#
# Youngs Moduli (GPa) = 19.51062 43.70320 77.26387
#
# Poissons Ratio (x) = 0.39825 0.93411
# Poissons Ratio (y) = 0.17779 0.58131
# Poissons Ratio (z) = 0.23588 0.32881
#
# Static dielectric constant tensor:
#      x y z
#    x 2.872260 0.000000 0.000000 
#    y 0.000000 3.217140 0.000000 
#    z 0.000000 0.000000 3.489140 
# 
# 
# High freq. dielectric constant tensor:
#      x y z
#    x 1.616230 0.000000 0.000000 
#    y 0.000000 1.638440 0.000000 
#    z 0.000000 0.000000 1.673740 
# 
# From -- ./inp_files/22437.got.cif
#   From: 2010.03.12/outbox.cif.g09.slc.cpg/sg38_12_cif.got.tgz:22437.got - 2010.04.14 02:38:36.
