data_PCOD8179858
_publ_section_title
;
Structure prediction by ZEFSAII (Michael W. Deem and Ramdas Pophale) SiO2 
 PCOD8179858
Probable space group: A M M 2
;
_chemical_formula_sum "Si O2"
_cell_formula_units_Z 48
_cell_length_a 9.062568
_cell_length_b 29.847115
_cell_length_c 10.171408
_cell_angle_alpha 90.000000
_cell_angle_beta 90.000000
_cell_angle_gamma 90.000000
_cell_volume 2751.279502
_symmetry_space_group_name_H-M "A M M 2"
_symmetry_group_IT_number 38
_symmetry_cell_setting 'orthorhombic'
loop_
_space_group_symop_operation_xyz
x,y,z
-x,-y,z
-x,y,z
x,-y,z
x,1/2+y,1/2+z
-x,1/2-y,1/2+z
-x,1/2+y,1/2+z
x,1/2-y,1/2+z
loop_
_atom_site_type_symbol
_atom_site_label
_atom_site_fract_x
_atom_site_fract_y
_atom_site_fract_z
Si Si1 0.674782 0.383661 0.187460
Si Si2 0.673587 0.111960 0.390588
Si Si3 0.323786 0.216030 0.680086
Si Si4 0.325502 0.213693 0.387700
Si Si5 0.828142 0.448031 0.678779
Si Si6 0.326026 0.448644 0.412553
O O1 0.500000 0.384095 0.192626
O O2 0.730940 0.333568 0.222161
O O3 0.738216 0.418911 0.292900
O O4 0.723620 0.397398 0.040619
O O5 0.500000 0.103402 0.371550
O O6 0.716159 0.162779 0.351370
O O7 0.764515 0.078509 0.301382
O O8 0.500000 0.217578 0.681150
O O9 0.265709 0.226519 0.532769
O O10 0.255718 0.252513 0.780379
O O11 0.500000 0.218832 0.388148
O O12 0.794290 0.500000 0.703751
O O13 0.749818 0.431616 0.545665
O O14 0.000000 0.438189 0.664827
O O15 0.500000 0.442336 0.429828
O O16 0.284361 0.500000 0.382044
#
# Coordination Sequence:
#
# PCOD8179858 Si02
#       6
#     8   8   8   8   8   8
#     4   8  15  27  44  69  98 123 150 188 230 270
#     4   9  17  30  48  71  96 120 150 188 229 271
#     4   8  13  22  36  60  95 124 145 177 221 264
#     4   8  14  23  37  61  92 121 147 179 220 264
#     4  10  21  35  48  65  91 121 153 189 229 274
#     4   9  17  30  48  69  92 120 155 192 229 269
#
# _framework density 17.446428000000001
#
# number of rings (size 3 to 8) (size 9 to 14) (size 15 to 20)
#    0.000    3.333    0.000    2.500    0.000    3.000 
#    0.000    7.500    0.000    2.000    0.000   10.500 
#    0.000    0.000    0.000    0.000    0.000    0.000 
#
# Total GULP energy -297482.945210 kJ/mol
# GULP energy per Si atom -12395.122717 kJ/mol
# Density = 1.740672 g / cm^3
# Si number density = 17.446428 Si / 1000 Ang^3
#
#
#
# Elastic Constant Matrix: (Units=GPa)
#
#
# Indices 1 2 3 4 5 6 
#
# 1 23.9122 28.0139 31.1717 0.0000 0.0000 0.0000
# 2 28.0139 103.4456 92.8603 0.0000 0.0000 0.0000
# 3 31.1717 92.8603 145.9326 0.0000 0.0000 0.0000
# 4 0.0000 0.0000 0.0000 42.9543 0.0000 0.0000
# 5 0.0000 0.0000 0.0000 0.0000 2.6528 0.0000
# 6 0.0000 0.0000 0.0000 0.0000 0.0000 9.9831
#
#
#
# Elastic Compliance Matrix: (Units=1/GPa)
#
#
# Indices 1 2 3 4 5 6 
#
# 1 0.063509 -0.011710 -0.006114 0.000000 0.000000 0.000000
# 2 -0.011710 0.024704 -0.013218 0.000000 0.000000 0.000000
# 3 -0.006114 -0.013218 0.016570 0.000000 0.000000 0.000000
# 4 0.000000 0.000000 0.000000 0.023281 0.000000 0.000000
# 5 0.000000 0.000000 0.000000 0.000000 0.376954 0.000000
# 6 0.000000 0.000000 0.000000 0.000000 0.000000 0.100169
#
#
# Mechanical properties :
#
#
# Convention : Reuss Voigt Hill
#
# Bulk Modulus (GPa) = 23.42084 64.15357 43.78720
# Shear Modulus (GPa) = 7.33672 19.20103 13.26887
#
# Velocity S-wave (km/s) = 2.05290 3.32108 2.76080
# Velocity P-wave (km/s) = 4.36724 7.18037 5.94266
#
# Compressibility (1/GPa) = 0.04269702
#
# Stress axis : x y z
#
# Youngs Moduli (GPa) = 15.74579 40.47963 60.35151
#
# Poissons Ratio (x) = 0.47402 0.36901
# Poissons Ratio (y) = 0.18439 0.79774
# Poissons Ratio (z) = 0.09627 0.53507
#
# Static dielectric constant tensor:
#      x y z
#    x 2.702440 0.000000 0.000000 
#    y 0.000000 3.488600 0.000000 
#    z 0.000000 0.000000 3.621110 
# 
# 
# High freq. dielectric constant tensor:
#      x y z
#    x 1.615990 0.000000 0.000000 
#    y 0.000000 1.677600 0.000000 
#    z 0.000000 0.000000 1.683900 
# 
# From -- ./inp_files/3788.got.cif
#   From: 2010.03.12/outbox.cif.g09.slc.cpg/sg38_2_cif.got.tgz:3788.got - 2010.04.14 02:38:36.
