data_PCOD8179356
_publ_section_title
;
Structure prediction by ZEFSAII (Michael W. Deem and Ramdas Pophale) SiO2 
 PCOD8179356
Probable space group: A M M 2
;
_chemical_formula_sum "Si O2"
_cell_formula_units_Z 64
_cell_length_a 8.963013
_cell_length_b 18.242131
_cell_length_c 19.047593
_cell_angle_alpha 90.000000
_cell_angle_beta 90.000000
_cell_angle_gamma 90.000000
_cell_volume 3114.366356
_symmetry_space_group_name_H-M "A M M 2"
_symmetry_group_IT_number 38
_symmetry_cell_setting 'orthorhombic'
loop_
_space_group_symop_operation_xyz
x,y,z
-x,-y,z
-x,y,z
x,-y,z
x,1/2+y,1/2+z
-x,1/2-y,1/2+z
-x,1/2+y,1/2+z
x,1/2-y,1/2+z
loop_
_atom_site_type_symbol
_atom_site_label
_atom_site_fract_x
_atom_site_fract_y
_atom_site_fract_z
Si Si1 0.838214 0.085396 0.227340
Si Si2 0.175060 0.293297 0.521048
Si Si3 0.322803 0.083912 0.748789
Si Si4 0.668020 0.586132 0.596165
Si Si5 0.324897 0.807819 0.870144
Si Si6 0.172499 0.669453 0.860391
Si Si7 0.330095 0.833272 0.610536
Si Si8 0.330660 0.582398 0.974491
O O1 0.709156 0.112008 0.174941
O O2 0.797122 0.103621 0.306837
O O3 0.000000 0.121140 0.207566
O O4 0.853504 0.000000 0.220626
O O5 0.216421 0.375218 0.544596
O O6 0.237344 0.292238 0.442292
O O7 0.242476 0.235427 0.576993
O O8 0.000000 0.280723 0.518592
O O9 0.500000 0.081279 0.742352
O O10 0.277288 0.121321 0.823657
O O11 0.262361 0.134449 0.684020
O O12 0.259548 0.000000 0.746830
O O13 0.500000 0.611546 0.579867
O O14 0.686306 0.500000 0.584677
O O15 0.500000 0.809848 0.885850
O O16 0.273103 0.735401 0.828272
O O17 0.225588 0.641137 0.936270
O O18 0.000000 0.692726 0.865952
O O19 0.500000 0.806872 0.622275
O O20 0.323219 0.901376 0.557126
O O21 0.500000 0.591406 0.946830
O O22 0.272577 0.500000 0.961876
#
# Coordination Sequence:
#
# PCOD8179356 Si02
#       8
#     8   8   8   8   8   8   8   8
#     4   9  19  36  56  82 119 160 198 240 295 359
#     4  12  25  41  62  90 125 166 207 256 317 378
#     4   9  20  40  67  97 126 159 204 260 320 377
#     4  10  22  40  63  90 118 153 201 255 308 367
#     4  11  23  40  62  90 122 161 209 260 309 366
#     4  11  22  36  55  83 122 167 206 249 305 365
#     4  10  20  38  64  94 126 160 202 255 313 378
#     4  10  20  34  57  88 122 161 203 250 306 370
#
# _framework density 20.549925999999999
#
# number of rings (size 3 to 8) (size 9 to 14) (size 15 to 20)
#    0.000    1.750    1.250    3.000    1.750    4.500 
#    0.000    3.125    0.000    3.750    0.000    0.000 
#    0.000    0.000    0.000    0.000    0.000    0.000 
#
# Total GULP energy -396555.539047 kJ/mol
# GULP energy per Si atom -12392.360595 kJ/mol
# Density = 2.050315 g / cm^3
# Si number density = 20.549926 Si / 1000 Ang^3
#
#
#
# Elastic Constant Matrix: (Units=GPa)
#
#
# Indices 1 2 3 4 5 6 
#
# 1 90.1641 50.4576 42.2943 0.0000 0.0000 0.0000
# 2 50.4576 93.3487 55.4031 0.0000 0.0000 0.0000
# 3 42.2943 55.4031 95.4203 0.0000 0.0000 0.0000
# 4 0.0000 0.0000 0.0000 35.9492 0.0000 0.0000
# 5 0.0000 0.0000 0.0000 0.0000 19.4526 0.0000
# 6 0.0000 0.0000 0.0000 0.0000 0.0000 23.3805
#
#
#
# Elastic Compliance Matrix: (Units=1/GPa)
#
#
# Indices 1 2 3 4 5 6 
#
# 1 0.016542 -0.007003 -0.003266 0.000000 0.000000 0.000000
# 2 -0.007003 0.019310 -0.008108 0.000000 0.000000 0.000000
# 3 -0.003266 -0.008108 0.016635 0.000000 0.000000 0.000000
# 4 0.000000 0.000000 0.000000 0.027817 0.000000 0.000000
# 5 0.000000 0.000000 0.000000 0.000000 0.051407 0.000000
# 6 0.000000 0.000000 0.000000 0.000000 0.000000 0.042771
#
#
# Mechanical properties :
#
#
# Convention : Reuss Voigt Hill
#
# Bulk Modulus (GPa) = 63.55871 63.91591 63.73731
# Shear Modulus (GPa) = 23.09689 24.47499 23.78594
#
# Velocity S-wave (km/s) = 3.35616 3.45483 3.40585
# Velocity P-wave (km/s) = 6.78340 6.86183 6.82273
#
# Compressibility (1/GPa) = 0.01573348
#
# Stress axis : x y z
#
# Youngs Moduli (GPa) = 60.45249 51.78718 60.11401
#
# Poissons Ratio (x) = 0.36267 0.19633
# Poissons Ratio (y) = 0.42335 0.48738
# Poissons Ratio (z) = 0.19744 0.41987
#
# Static dielectric constant tensor:
#      x y z
#    x 3.757050 0.000000 0.000000 
#    y 0.000000 3.936700 0.000000 
#    z 0.000000 0.000000 3.830620 
# 
# 
# High freq. dielectric constant tensor:
#      x y z
#    x 1.785470 0.000000 0.000000 
#    y 0.000000 1.809440 0.000000 
#    z 0.000000 0.000000 1.805700 
# 
# From -- ./inp_files/20113.got.cif
#   From: 2010.03.12/outbox.cif.g09.slc.cpg/sg38_11_cif.got.tgz:20113.got - 2010.04.14 02:38:36.
