data_PCOD8179693
_publ_section_title
;
Structure prediction by ZEFSAII (Michael W. Deem and Ramdas Pophale) SiO2 
 PCOD8179693
Probable space group: A M M 2
;
_chemical_formula_sum "Si O2"
_cell_formula_units_Z 64
_cell_length_a 18.727437
_cell_length_b 9.234441
_cell_length_c 19.781377
_cell_angle_alpha 90.000000
_cell_angle_beta 90.000000
_cell_angle_gamma 90.000000
_cell_volume 3420.940145
_symmetry_space_group_name_H-M "A M M 2"
_symmetry_group_IT_number 38
_symmetry_cell_setting 'orthorhombic'
loop_
_space_group_symop_operation_xyz
x,y,z
-x,-y,z
-x,y,z
x,-y,z
x,1/2+y,1/2+z
-x,1/2-y,1/2+z
-x,1/2+y,1/2+z
x,1/2-y,1/2+z
loop_
_atom_site_type_symbol
_atom_site_label
_atom_site_fract_x
_atom_site_fract_y
_atom_site_fract_z
Si Si1 0.692335 0.668632 0.698690
Si Si2 0.149751 0.331525 0.667216
Si Si3 0.917817 0.165372 0.545130
Si Si4 0.851402 0.668500 0.903168
Si Si5 0.082011 0.334690 0.288331
Si Si6 0.418176 0.330329 0.590641
Si Si7 0.418354 0.669575 0.954438
Si Si8 0.301382 0.828249 0.349543
O O1 0.678228 0.500000 0.708815
O O2 0.765975 0.696208 0.658697
O O3 0.629040 0.733108 0.652347
O O4 0.692807 0.739380 0.773892
O O5 0.131584 0.500000 0.673845
O O6 0.106354 0.269161 0.604783
O O7 0.128410 0.255273 0.736173
O O8 0.867204 0.197318 0.481587
O O9 0.000000 0.197518 0.526152
O O10 0.908989 0.000000 0.569621
O O11 0.862369 0.500000 0.884991
O O12 0.907850 0.763254 0.861527
O O13 0.771616 0.722635 0.885612
O O14 0.108548 0.500000 0.289785
O O15 0.000000 0.326051 0.266551
O O16 0.500000 0.297061 0.608919
O O17 0.404344 0.500000 0.579626
O O18 0.395009 0.250654 0.522331
O O19 0.500000 0.705724 0.934866
O O20 0.407243 0.500000 0.967271
O O21 0.368557 0.726388 0.893567
O O22 0.301349 0.000000 0.345096
#
# Coordination Sequence:
#
# PCOD8179693 Si02
#       8
#     8   8   8   8   8   8   8   8
#     4   9  18  33  53  79 108 135 175 225 262 306
#     4  11  22  37  57  80 108 144 183 225 271 325
#     4  10  22  38  55  79 110 141 179 228 276 325
#     4  10  20  37  59  81 107 144 185 223 269 327
#     4  11  23  38  57  81 110 141 177 226 277 324
#     4   9  18  33  54  79 108 143 178 214 261 313
#     4   9  18  32  53  82 111 140 176 217 261 310
#     4   9  17  32  54  79 108 138 175 222 263 308
#
# _framework density 18.708307000000001
#
# number of rings (size 3 to 8) (size 9 to 14) (size 15 to 20)
#    0.000    2.250    1.250    1.500    1.750    4.250 
#    0.000    3.750    0.000    0.000    0.000    3.500 
#    0.000    0.000    0.000    0.000    0.000    0.000 
#
# Total GULP energy -396833.016406 kJ/mol
# GULP energy per Si atom -12401.031763 kJ/mol
# Density = 1.866573 g / cm^3
# Si number density = 18.708307 Si / 1000 Ang^3
#
#
#
# Elastic Constant Matrix: (Units=GPa)
#
#
# Indices 1 2 3 4 5 6 
#
# 1 87.5700 27.0024 47.6364 0.0000 0.0000 0.0000
# 2 27.0024 62.6997 36.8969 0.0000 0.0000 0.0000
# 3 47.6364 36.8969 103.6740 0.0000 0.0000 0.0000
# 4 0.0000 0.0000 0.0000 30.5022 0.0000 0.0000
# 5 0.0000 0.0000 0.0000 0.0000 41.5362 0.0000
# 6 0.0000 0.0000 0.0000 0.0000 0.0000 19.5309
#
#
#
# Elastic Compliance Matrix: (Units=1/GPa)
#
#
# Indices 1 2 3 4 5 6 
#
# 1 0.015712 -0.003185 -0.006086 0.000000 0.000000 0.000000
# 2 -0.003185 0.020820 -0.005946 0.000000 0.000000 0.000000
# 3 -0.006086 -0.005946 0.014558 0.000000 0.000000 0.000000
# 4 0.000000 0.000000 0.000000 0.032784 0.000000 0.000000
# 5 0.000000 0.000000 0.000000 0.000000 0.024075 0.000000
# 6 0.000000 0.000000 0.000000 0.000000 0.000000 0.051201
#
#
# Mechanical properties :
#
#
# Convention : Reuss Voigt Hill
#
# Bulk Modulus (GPa) = 48.41260 53.00166 50.70713
# Shear Modulus (GPa) = 25.44907 27.80774 26.62841
#
# Velocity S-wave (km/s) = 3.69224 3.85955 3.77682
# Velocity P-wave (km/s) = 6.64158 6.94648 6.79574
#
# Compressibility (1/GPa) = 0.02065578
#
# Stress axis : x y z
#
# Youngs Moduli (GPa) = 63.64473 48.03092 68.69014
#
# Poissons Ratio (x) = 0.15299 0.41804
# Poissons Ratio (y) = 0.20273 0.40844
# Poissons Ratio (z) = 0.38733 0.28560
#
# Static dielectric constant tensor:
#      x y z
#    x 3.551540 0.000000 0.000000 
#    y 0.000000 3.212310 0.000000 
#    z 0.000000 0.000000 3.604570 
# 
# 
# High freq. dielectric constant tensor:
#      x y z
#    x 1.734630 0.000000 0.000000 
#    y 0.000000 1.698200 0.000000 
#    z 0.000000 0.000000 1.732640 
# 
# From -- ./inp_files/21356.got.cif
#   From: 2010.03.12/outbox.cif.g09.slc.cpg/sg38_11_cif.got.tgz:21356.got - 2010.04.14 02:38:36.
