data_PCOD8179817
_publ_section_title
;
Structure prediction by ZEFSAII (Michael W. Deem and Ramdas Pophale) SiO2 
 PCOD8179817
Probable space group: A M M 2
;
_chemical_formula_sum "Si O2"
_cell_formula_units_Z 48
_cell_length_a 17.045318
_cell_length_b 14.295452
_cell_length_c 9.649611
_cell_angle_alpha 90.000000
_cell_angle_beta 90.000000
_cell_angle_gamma 90.000000
_cell_volume 2351.325781
_symmetry_space_group_name_H-M "A M M 2"
_symmetry_group_IT_number 38
_symmetry_cell_setting 'orthorhombic'
loop_
_space_group_symop_operation_xyz
x,y,z
-x,-y,z
-x,y,z
x,-y,z
x,1/2+y,1/2+z
-x,1/2-y,1/2+z
-x,1/2+y,1/2+z
x,1/2-y,1/2+z
loop_
_atom_site_type_symbol
_atom_site_label
_atom_site_fract_x
_atom_site_fract_y
_atom_site_fract_z
Si Si1 0.246293 0.500000 0.302980
Si Si2 0.172816 0.809928 0.889344
Si Si3 0.412661 0.795867 0.671744
Si Si4 0.414359 0.500000 0.293101
Si Si5 0.088577 0.190874 0.168907
Si Si6 0.679301 0.695232 0.904797
Si Si7 0.089280 0.500000 0.825811
Si Si8 0.250233 0.000000 0.472711
O O1 0.195535 0.413754 0.350062
O O2 0.332681 0.500000 0.380562
O O3 0.262108 0.500000 0.137832
O O4 0.143689 0.762886 0.748400
O O5 0.246580 0.755767 0.952146
O O6 0.106161 0.809043 0.005807
O O7 0.500000 0.755829 0.693346
O O8 0.409349 0.906169 0.702612
O O9 0.351931 0.732471 0.757725
O O10 0.390463 0.785703 0.511750
O O11 0.500000 0.500000 0.373329
O O12 0.102555 0.088224 0.228164
O O13 0.000000 0.224706 0.188647
O O14 0.706980 0.587772 0.900407
O O15 0.155897 0.500000 0.944905
O O16 0.000000 0.500000 0.889584
#
# Coordination Sequence:
#
# PCOD8179817 Si02
#       8
#     4   8   8   4   8   8   4   4
#     4  12  23  44  63  97 128 167 225 265 316 395
#     4  12  24  41  68  96 128 170 217 269 319 384
#     4  11  23  41  64  93 128 168 213 264 322 388
#     4  10  20  39  63  89 126 170 206 253 317 380
#     4  11  24  44  65  95 132 171 212 263 326 388
#     4  12  22  40  64  94 126 166 215 265 324 381
#     4  10  23  41  63  91 131 169 205 262 331 382
#     4  12  22  40  65  97 129 164 220 274 322 383
#
# _framework density 20.414014999999999
#
# number of rings (size 3 to 8) (size 9 to 14) (size 15 to 20)
#    0.000    0.667    5.000    3.500    0.000    0.000 
#    0.000    4.167    0.000    0.000    0.000    0.000 
#    0.000    0.000    0.000    0.000    0.000    0.000 
#
# Total GULP energy -297557.885696 kJ/mol
# GULP energy per Si atom -12398.245237 kJ/mol
# Density = 2.036755 g / cm^3
# Si number density = 20.414015 Si / 1000 Ang^3
#
#
#
# Elastic Constant Matrix: (Units=GPa)
#
#
# Indices 1 2 3 4 5 6 
#
# 1 122.7531 47.4294 38.2558 0.0000 0.0000 0.0000
# 2 47.4294 144.1054 36.8232 0.0000 0.0000 0.0000
# 3 38.2558 36.8232 75.5951 0.0000 0.0000 0.0000
# 4 0.0000 0.0000 0.0000 18.2081 0.0000 0.0000
# 5 0.0000 0.0000 0.0000 0.0000 40.6618 0.0000
# 6 0.0000 0.0000 0.0000 0.0000 0.0000 24.5574
#
#
#
# Elastic Compliance Matrix: (Units=1/GPa)
#
#
# Indices 1 2 3 4 5 6 
#
# 1 0.010328 -0.002357 -0.004079 0.000000 0.000000 0.000000
# 2 -0.002357 0.008464 -0.002930 0.000000 0.000000 0.000000
# 3 -0.004079 -0.002930 0.016720 0.000000 0.000000 0.000000
# 4 0.000000 0.000000 0.000000 0.054921 0.000000 0.000000
# 5 0.000000 0.000000 0.000000 0.000000 0.024593 0.000000
# 6 0.000000 0.000000 0.000000 0.000000 0.000000 0.040721
#
#
# Mechanical properties :
#
#
# Convention : Reuss Voigt Hill
#
# Bulk Modulus (GPa) = 59.59343 65.27449 62.43396
# Shear Modulus (GPa) = 27.76681 31.34848 29.55765
#
# Velocity S-wave (km/s) = 3.69207 3.92297 3.80927
# Velocity P-wave (km/s) = 6.88701 7.25013 7.07090
#
# Compressibility (1/GPa) = 0.01678037
#
# Stress axis : x y z
#
# Youngs Moduli (GPa) = 96.82173 118.14926 59.81003
#
# Poissons Ratio (x) = 0.27849 0.24394
# Poissons Ratio (y) = 0.22822 0.17524
# Poissons Ratio (z) = 0.39489 0.34618
#
# Static dielectric constant tensor:
#      x y z
#    x 4.081250 0.000000 0.000000 
#    y 0.000000 3.720090 0.000000 
#    z 0.000000 0.000000 3.414180 
# 
# 
# High freq. dielectric constant tensor:
#      x y z
#    x 1.821390 0.000000 0.000000 
#    y 0.000000 1.810940 0.000000 
#    z 0.000000 0.000000 1.773200 
# 
# From -- ./inp_files/6262.got.cif
#   From: 2010.03.12/outbox.cif.g09.slc.cpg/sg38_4_cif.got.tgz:6262.got - 2010.04.14 02:38:36.
