data_PCOD8179496
_publ_section_title
;
Structure prediction by ZEFSAII (Michael W. Deem and Ramdas Pophale) SiO2 
 PCOD8179496
Probable space group: A M M 2
;
_chemical_formula_sum "Si O2"
_cell_formula_units_Z 64
_cell_length_a 8.914544
_cell_length_b 23.779399
_cell_length_c 15.410418
_cell_angle_alpha 90.000000
_cell_angle_beta 90.000000
_cell_angle_gamma 90.000000
_cell_volume 3266.738913
_symmetry_space_group_name_H-M "A M M 2"
_symmetry_group_IT_number 38
_symmetry_cell_setting 'orthorhombic'
loop_
_space_group_symop_operation_xyz
x,y,z
-x,-y,z
-x,y,z
x,-y,z
x,1/2+y,1/2+z
-x,1/2-y,1/2+z
-x,1/2+y,1/2+z
x,1/2-y,1/2+z
loop_
_atom_site_type_symbol
_atom_site_label
_atom_site_fract_x
_atom_site_fract_y
_atom_site_fract_z
Si Si1 0.321589 0.063127 0.533510
Si Si2 0.672244 0.141083 0.380418
Si Si3 0.823519 0.244799 0.637103
Si Si4 0.677853 0.866532 0.699226
Si Si5 0.672859 0.564908 0.529687
Si Si6 0.176955 0.249293 0.938996
Si Si7 0.177253 0.872304 0.876451
Si Si8 0.671634 0.356517 0.687064
O O1 0.500000 0.060536 0.531019
O O2 0.259355 0.096734 0.449404
O O3 0.265505 0.094539 0.620103
O O4 0.254871 0.000000 0.532215
O O5 0.500000 0.152197 0.404499
O O6 0.754618 0.200751 0.383044
O O7 0.690572 0.116802 0.283170
O O8 0.738561 0.196263 0.688447
O O9 0.769022 0.244524 0.537854
O O10 0.781416 0.303840 0.679406
O O11 0.000000 0.234965 0.646541
O O12 0.500000 0.865428 0.704424
O O13 0.743882 0.892040 0.787791
O O14 0.500000 0.576333 0.505297
O O15 0.704117 0.500000 0.547518
O O16 0.776890 0.584719 0.451351
O O17 0.719275 0.596770 0.617605
O O18 0.000000 0.252456 0.932347
O O19 0.234733 0.189979 0.901842
O O20 0.000000 0.874055 0.864110
O O21 0.500000 0.336859 0.672439
#
# Coordination Sequence:
#
# PCOD8179496 Si02
#       8
#     8   8   8   8   8   8   8   8
#     4   9  19  36  57  81 111 147 187 230 277 331
#     4  10  20  35  58  87 114 145 187 232 282 339
#     4  11  21  36  58  84 116 153 190 234 287 346
#     4  11  22  37  59  88 117 151 191 236 289 346
#     4  10  22  40  60  84 116 154 196 244 294 344
#     4  10  21  36  56  82 114 150 186 230 286 341
#     4  11  23  40  60  86 116 152 194 238 291 350
#     4  10  21  36  58  88 118 149 189 239 290 344
#
# _framework density 19.591404000000001
#
# number of rings (size 3 to 8) (size 9 to 14) (size 15 to 20)
#    0.000    1.750    2.500    1.875    0.000    5.250 
#    0.000    3.750    0.000    3.000    0.000    1.750 
#    0.000    0.000    0.000    0.000    0.000    0.000 
#
# Total GULP energy -396927.561687 kJ/mol
# GULP energy per Si atom -12403.986303 kJ/mol
# Density = 1.954681 g / cm^3
# Si number density = 19.591404 Si / 1000 Ang^3
#
#
#
# Elastic Constant Matrix: (Units=GPa)
#
#
# Indices 1 2 3 4 5 6 
#
# 1 41.2784 23.3108 33.1626 0.0000 0.0000 0.0000
# 2 23.3108 118.2530 47.8287 0.0000 0.0000 0.0000
# 3 33.1626 47.8287 148.2246 0.0000 0.0000 0.0000
# 4 0.0000 0.0000 0.0000 12.4009 0.0000 0.0000
# 5 0.0000 0.0000 0.0000 0.0000 24.8130 0.0000
# 6 0.0000 0.0000 0.0000 0.0000 0.0000 14.0524
#
#
#
# Elastic Compliance Matrix: (Units=1/GPa)
#
#
# Indices 1 2 3 4 5 6 
#
# 1 0.030948 -0.003796 -0.005699 0.000000 0.000000 0.000000
# 2 -0.003796 0.010191 -0.002439 0.000000 0.000000 0.000000
# 3 -0.005699 -0.002439 0.008809 0.000000 0.000000 0.000000
# 4 0.000000 0.000000 0.000000 0.080639 0.000000 0.000000
# 5 0.000000 0.000000 0.000000 0.000000 0.040301 0.000000
# 6 0.000000 0.000000 0.000000 0.000000 0.000000 0.071162
#
#
# Mechanical properties :
#
#
# Convention : Reuss Voigt Hill
#
# Bulk Modulus (GPa) = 38.34409 57.37337 47.85873
# Shear Modulus (GPa) = 18.20748 23.81685 21.01216
#
# Velocity S-wave (km/s) = 3.05185 3.49044 3.27849
# Velocity P-wave (km/s) = 5.65975 6.75224 6.22999
#
# Compressibility (1/GPa) = 0.02607964
#
# Stress axis : x y z
#
# Youngs Moduli (GPa) = 32.31235 98.12346 113.52349
#
# Poissons Ratio (x) = 0.37243 0.64701
# Poissons Ratio (y) = 0.12264 0.27692
# Poissons Ratio (z) = 0.18416 0.23935
#
# Static dielectric constant tensor:
#      x y z
#    x 3.367970 0.000000 0.000000 
#    y 0.000000 3.555310 0.000000 
#    z 0.000000 0.000000 3.809040 
# 
# 
# High freq. dielectric constant tensor:
#      x y z
#    x 1.745060 0.000000 0.000000 
#    y 0.000000 1.755480 0.000000 
#    z 0.000000 0.000000 1.781670 
# 
# From -- ./inp_files/12716.got.cif
#   From: 2010.03.12/outbox.cif.g09.slc.cpg/sg38_7_cif.got.tgz:12716.got - 2010.04.14 02:38:36.
