data_PCOD8179512
_publ_section_title
;
Structure prediction by ZEFSAII (Michael W. Deem and Ramdas Pophale) SiO2 
 PCOD8179512
Probable space group: A M M 2
;
_chemical_formula_sum "Si O2"
_cell_formula_units_Z 56
_cell_length_a 13.659682
_cell_length_b 16.468648
_cell_length_c 11.797526
_cell_angle_alpha 90.000000
_cell_angle_beta 90.000000
_cell_angle_gamma 90.000000
_cell_volume 2653.930095
_symmetry_space_group_name_H-M "A M M 2"
_symmetry_group_IT_number 38
_symmetry_cell_setting 'orthorhombic'
loop_
_space_group_symop_operation_xyz
x,y,z
-x,-y,z
-x,y,z
x,-y,z
x,1/2+y,1/2+z
-x,1/2-y,1/2+z
-x,1/2+y,1/2+z
x,1/2-y,1/2+z
loop_
_atom_site_type_symbol
_atom_site_label
_atom_site_fract_x
_atom_site_fract_y
_atom_site_fract_z
Si Si1 0.721704 0.092276 0.000000
Si Si2 0.888560 0.408095 0.104206
Si Si3 0.754202 0.677270 0.283866
Si Si4 0.890690 0.092995 0.167511
Si Si5 0.607148 0.405166 0.877249
Si Si6 0.391151 0.798500 0.163584
Si Si7 0.805234 0.166391 0.391914
O O1 0.831385 0.104349 0.050504
O O2 0.652782 0.163020 0.049702
O O3 0.685500 0.000000 0.025642
O O4 0.718140 0.103533 0.863487
O O5 0.847304 0.500000 0.094892
O O6 0.830584 0.355949 0.194427
O O7 0.000000 0.409762 0.144032
O O8 0.884203 0.363859 0.982197
O O9 0.668546 0.722664 0.215114
O O10 0.806677 0.737065 0.374953
O O11 0.826840 0.131909 0.267254
O O12 0.000000 0.132171 0.156177
O O13 0.903072 0.000000 0.199845
O O14 0.500000 0.386681 0.934021
O O15 0.628409 0.500000 0.875285
O O16 0.606331 0.373481 0.749538
O O17 0.697850 0.361519 0.940399
O O18 0.500000 0.765909 0.137238
#
# Coordination Sequence:
#
# PCOD8179512 Si02
#       7
#     8   8   8   8   8   8   8
#     4  11  22  40  65  92 125 168 214 260 314 380
#     4  11  25  44  65  89 122 169 215 256 310 377
#     4  11  24  42  60  93 130 167 202 258 317 380
#     4  10  20  35  58  90 125 163 210 267 327 377
#     4   9  16  29  55  90 124 158 200 251 307 366
#     4  10  21  39  62  91 126 162 203 254 314 373
#     4  11  21  37  62  89 126 162 213 267 316 373
#
# _framework density 21.100783
#
# number of rings (size 3 to 8) (size 9 to 14) (size 15 to 20)
#    0.000    1.571    2.857    3.429    0.000    4.286 
#    0.000    5.000    0.000    2.143    0.000    0.000 
#    0.000    0.000    0.000    0.000    0.000    0.000 
#
# Total GULP energy -347081.223073 kJ/mol
# GULP energy per Si atom -12395.757967 kJ/mol
# Density = 2.105276 g / cm^3
# Si number density = 21.100783 Si / 1000 Ang^3
#
#
#
# Elastic Constant Matrix: (Units=GPa)
#
#
# Indices 1 2 3 4 5 6 
#
# 1 118.0287 45.2459 29.9506 0.0000 0.0000 0.0000
# 2 45.2459 93.6300 37.9349 0.0000 0.0000 0.0000
# 3 29.9506 37.9349 82.0722 0.0000 0.0000 0.0000
# 4 0.0000 0.0000 0.0000 32.7557 0.0000 0.0000
# 5 0.0000 0.0000 0.0000 0.0000 16.8865 0.0000
# 6 0.0000 0.0000 0.0000 0.0000 0.0000 29.0677
#
#
#
# Elastic Compliance Matrix: (Units=1/GPa)
#
#
# Indices 1 2 3 4 5 6 
#
# 1 0.010622 -0.004384 -0.001850 0.000000 0.000000 0.000000
# 2 -0.004384 0.014950 -0.005311 0.000000 0.000000 0.000000
# 3 -0.001850 -0.005311 0.015314 0.000000 0.000000 0.000000
# 4 0.000000 0.000000 0.000000 0.030529 0.000000 0.000000
# 5 0.000000 0.000000 0.000000 0.000000 0.059219 0.000000
# 6 0.000000 0.000000 0.000000 0.000000 0.000000 0.034402
#
#
# Mechanical properties :
#
#
# Convention : Reuss Voigt Hill
#
# Bulk Modulus (GPa) = 56.18558 57.77708 56.98133
# Shear Modulus (GPa) = 25.76536 27.78193 26.77365
#
# Velocity S-wave (km/s) = 3.49816 3.63248 3.56595
# Velocity P-wave (km/s) = 6.55753 6.71075 6.63458
#
# Compressibility (1/GPa) = 0.01779816
#
# Stress axis : x y z
#
# Youngs Moduli (GPa) = 94.14009 66.88852 65.29870
#
# Poissons Ratio (x) = 0.29321 0.12082
# Poissons Ratio (y) = 0.41267 0.34677
# Poissons Ratio (z) = 0.17419 0.35521
#
# Static dielectric constant tensor:
#      x y z
#    x 4.306960 0.000000 0.000000 
#    y 0.000000 3.862220 0.000000 
#    z 0.000000 0.000000 3.541200 
# 
# 
# High freq. dielectric constant tensor:
#      x y z
#    x 1.828020 0.000000 0.000000 
#    y 0.000000 1.829690 0.000000 
#    z 0.000000 0.000000 1.808560 
# 
# From -- ./inp_files/10105.got.cif
#   From: 2010.03.12/outbox.cif.g09.slc.cpg/sg38_6_cif.got.tgz:10105.got - 2010.04.14 02:38:36.
