data_PCOD8179018
_publ_section_title
;
Structure prediction by ZEFSAII (Michael W. Deem and Ramdas Pophale) SiO2 
 PCOD8179018
Probable space group: A M M 2
;
_chemical_formula_sum "Si O2"
_cell_formula_units_Z 56
_cell_length_a 8.532119
_cell_length_b 16.257075
_cell_length_c 22.899148
_cell_angle_alpha 90.000000
_cell_angle_beta 90.000000
_cell_angle_gamma 90.000000
_cell_volume 3176.278957
_symmetry_space_group_name_H-M "A M M 2"
_symmetry_group_IT_number 38
_symmetry_cell_setting 'orthorhombic'
loop_
_space_group_symop_operation_xyz
x,y,z
-x,-y,z
-x,y,z
x,-y,z
x,1/2+y,1/2+z
-x,1/2-y,1/2+z
-x,1/2+y,1/2+z
x,1/2-y,1/2+z
loop_
_atom_site_type_symbol
_atom_site_label
_atom_site_fract_x
_atom_site_fract_y
_atom_site_fract_z
Si Si1 0.318588 0.819229 0.615930
Si Si2 0.682101 0.500000 0.694457
Si Si3 0.682345 0.151106 0.386322
Si Si4 0.816779 0.332966 0.673097
Si Si5 0.182513 0.095097 0.504284
Si Si6 0.817761 0.756653 0.792004
Si Si7 0.317048 0.093363 0.733826
Si Si8 0.816943 0.500000 0.818885
O O1 0.500000 0.796089 0.616546
O O2 0.223842 0.734183 0.623625
O O3 0.277614 0.863853 0.556195
O O4 0.275158 0.882142 0.667616
O O5 0.500000 0.500000 0.712018
O O6 0.723277 0.417139 0.658554
O O7 0.797119 0.500000 0.749825
O O8 0.500000 0.147382 0.401538
O O9 0.779060 0.145749 0.446014
O O10 0.723457 0.233744 0.350735
O O11 0.731809 0.078694 0.343771
O O12 0.763436 0.298476 0.736584
O O13 0.000000 0.351354 0.671624
O O14 0.000000 0.101536 0.518340
O O15 0.234436 0.000000 0.496255
O O16 0.781435 0.851707 0.778857
O O17 0.000000 0.743261 0.804091
O O18 0.500000 0.106253 0.746278
O O19 0.264400 0.000000 0.743661
O O20 0.000000 0.500000 0.835880
#
# Coordination Sequence:
#
# PCOD8179018 Si02
#       8
#     8   4   8   8   8   8   8   4
#     4  10  20  35  54  77 107 139 179 222 261 310
#     4  12  22  32  52  80 108 142 178 215 262 315
#     4  12  23  35  53  77 106 141 179 217 259 311
#     4  10  20  34  52  75 107 142 176 217 266 315
#     4  11  23  37  54  76 107 143 179 217 261 313
#     4  10  20  33  51  75 107 140 173 216 263 315
#     4   9  18  33  53  77 106 139 175 219 264 308
#     4  12  22  34  50  74 110 144 174 213 258 311
#
# _framework density 17.630693999999998
#
# number of rings (size 3 to 8) (size 9 to 14) (size 15 to 20)
#    0.000    1.429    2.143    4.714    0.000    3.429 
#    0.000    0.000    0.000    0.000    1.857    0.000 
#    0.000    0.000    0.000    0.000    0.000    0.000 
#
# Total GULP energy -347305.697451 kJ/mol
# GULP energy per Si atom -12403.774909 kJ/mol
# Density = 1.759057 g / cm^3
# Si number density = 17.630694 Si / 1000 Ang^3
#
#
#
# Elastic Constant Matrix: (Units=GPa)
#
#
# Indices 1 2 3 4 5 6 
#
# 1 57.0353 30.1608 9.0439 0.0000 0.0000 0.0000
# 2 30.1608 111.7980 36.2643 0.0000 0.0000 0.0000
# 3 9.0439 36.2643 75.8830 0.0000 0.0000 0.0000
# 4 0.0000 0.0000 0.0000 5.4585 0.0000 0.0000
# 5 0.0000 0.0000 0.0000 0.0000 28.2372 0.0000
# 6 0.0000 0.0000 0.0000 0.0000 0.0000 30.0331
#
#
#
# Elastic Compliance Matrix: (Units=1/GPa)
#
#
# Indices 1 2 3 4 5 6 
#
# 1 0.020454 -0.005595 0.000236 0.000000 0.000000 0.000000
# 2 -0.005595 0.012116 -0.005123 0.000000 0.000000 0.000000
# 3 0.000236 -0.005123 0.015599 0.000000 0.000000 0.000000
# 4 0.000000 0.000000 0.000000 0.183201 0.000000 0.000000
# 5 0.000000 0.000000 0.000000 0.000000 0.035414 0.000000
# 6 0.000000 0.000000 0.000000 0.000000 0.000000 0.033297
#
#
# Mechanical properties :
#
#
# Convention : Reuss Voigt Hill
#
# Bulk Modulus (GPa) = 36.75892 43.96161 40.36026
# Shear Modulus (GPa) = 15.14636 24.02890 19.58763
#
# Velocity S-wave (km/s) = 2.93420 3.69575 3.33678
# Velocity P-wave (km/s) = 5.68982 6.57269 6.14713
#
# Compressibility (1/GPa) = 0.02720428
#
# Stress axis : x y z
#
# Youngs Moduli (GPa) = 48.88998 82.53616 64.10869
#
# Poissons Ratio (x) = 0.46176 -0.01512
# Poissons Ratio (y) = 0.27352 0.32845
# Poissons Ratio (z) = -0.01153 0.42286
#
# Static dielectric constant tensor:
#      x y z
#    x 3.277950 0.000000 0.000000 
#    y 0.000000 3.328640 0.000000 
#    z 0.000000 0.000000 3.067910 
# 
# 
# High freq. dielectric constant tensor:
#      x y z
#    x 1.694530 0.000000 0.000000 
#    y 0.000000 1.678800 0.000000 
#    z 0.000000 0.000000 1.652980 
# 
# From -- ./inp_files/19869.got.cif
#   From: 2010.03.12/outbox.cif.g09.slc.cpg/sg38_10_cif.got.tgz:19869.got - 2010.04.14 02:38:36.
