data_PCOD8179707
_publ_section_title
;
Structure prediction by ZEFSAII (Michael W. Deem and Ramdas Pophale) SiO2 
 PCOD8179707
Probable space group: A M M 2
;
_chemical_formula_sum "Si O2"
_cell_formula_units_Z 64
_cell_length_a 8.758831
_cell_length_b 28.606429
_cell_length_c 12.620142
_cell_angle_alpha 90.000000
_cell_angle_beta 90.000000
_cell_angle_gamma 90.000000
_cell_volume 3162.088609
_symmetry_space_group_name_H-M "A M M 2"
_symmetry_group_IT_number 38
_symmetry_cell_setting 'orthorhombic'
loop_
_space_group_symop_operation_xyz
x,y,z
-x,-y,z
-x,y,z
x,-y,z
x,1/2+y,1/2+z
-x,1/2-y,1/2+z
-x,1/2+y,1/2+z
x,1/2-y,1/2+z
loop_
_atom_site_type_symbol
_atom_site_label
_atom_site_fract_x
_atom_site_fract_y
_atom_site_fract_z
Si Si1 0.175605 0.296898 0.663060
Si Si2 0.823888 0.390923 0.769375
Si Si3 0.319362 0.946681 0.460977
Si Si4 0.671219 0.294246 0.232272
Si Si5 0.670850 0.329202 0.457217
Si Si6 0.822604 0.579025 0.391895
Si Si7 0.680130 0.899048 0.677737
Si Si8 0.327418 0.551196 0.593206
O O1 0.211351 0.335558 0.754725
O O2 0.206859 0.244928 0.703125
O O3 0.284761 0.302489 0.562921
O O4 0.000000 0.301424 0.628377
O O5 0.729043 0.414083 0.863606
O O6 0.780629 0.414120 0.657649
O O7 0.000000 0.400167 0.794014
O O8 0.500000 0.948677 0.461258
O O9 0.260620 0.921978 0.568599
O O10 0.254490 0.000000 0.452270
O O11 0.500000 0.282302 0.191305
O O12 0.671786 0.293870 0.359330
O O13 0.724349 0.344122 0.183211
O O14 0.500000 0.350706 0.469048
O O15 0.794349 0.368949 0.434744
O O16 0.759652 0.572698 0.273004
O O17 0.732999 0.545581 0.473055
O O18 0.000000 0.566553 0.392826
O O19 0.500000 0.904639 0.692393
O O20 0.500000 0.570595 0.594924
O O21 0.322081 0.500000 0.646506
#
# Coordination Sequence:
#
# PCOD8179707 Si02
#       8
#     8   8   8   8   8   8   8   8
#     4  11  23  37  57  87 120 157 200 250 310 369
#     4  11  24  40  58  85 121 158 199 251 310 369
#     4  10  22  41  65  90 119 161 210 258 308 368
#     4   9  20  37  58  86 116 155 203 250 302 360
#     4  10  20  37  60  82 112 154 196 243 297 357
#     4  11  21  35  58  88 119 151 189 240 304 362
#     4   9  20  40  62  86 120 160 206 253 301 363
#     4  11  23  38  59  86 115 152 197 242 292 355
#
# _framework density 20.239787
#
# number of rings (size 3 to 8) (size 9 to 14) (size 15 to 20)
#    0.000    1.750    1.250    3.750    0.000    8.750 
#    0.000    5.000    0.000    0.000    0.000    0.000 
#    0.000    0.000    0.000    0.000    0.000    0.000 
#
# Total GULP energy -396742.923527 kJ/mol
# GULP energy per Si atom -12398.216360 kJ/mol
# Density = 2.019372 g / cm^3
# Si number density = 20.239787 Si / 1000 Ang^3
#
#
#
# Elastic Constant Matrix: (Units=GPa)
#
#
# Indices 1 2 3 4 5 6 
#
# 1 49.5000 20.2754 22.2502 0.0000 0.0000 0.0000
# 2 20.2754 90.8672 41.8893 0.0000 0.0000 0.0000
# 3 22.2502 41.8893 117.6529 0.0000 0.0000 0.0000
# 4 0.0000 0.0000 0.0000 23.9256 0.0000 0.0000
# 5 0.0000 0.0000 0.0000 0.0000 26.9548 0.0000
# 6 0.0000 0.0000 0.0000 0.0000 0.0000 -43.0334
#
#
#
# Elastic Compliance Matrix: (Units=1/GPa)
#
#
# Indices 1 2 3 4 5 6 
#
# 1 0.023104 -0.003758 -0.003031 0.000000 0.000000 0.000000
# 2 -0.003758 0.013777 -0.004195 0.000000 0.000000 0.000000
# 3 -0.003031 -0.004195 0.010566 0.000000 0.000000 0.000000
# 4 0.000000 0.000000 0.000000 0.041796 0.000000 0.000000
# 5 0.000000 0.000000 0.000000 0.000000 0.037099 0.000000
# 6 0.000000 0.000000 0.000000 0.000000 0.000000 -0.023238
#
#
# Mechanical properties :
#
#
# Convention : Reuss Voigt Hill
#
# Bulk Modulus (GPa) = 39.24674 47.42779 43.33726
# Shear Modulus (GPa) = 37.43472 13.14307 25.28890
#
# Velocity S-wave (km/s) = 4.30532 2.55103 3.53861
# Velocity P-wave (km/s) = 6.64435 5.67105 6.17690
#
# Compressibility (1/GPa) = 0.02547983
#
# Stress axis : x y z
#
# Youngs Moduli (GPa) = 43.28290 72.58345 94.64026
#
# Poissons Ratio (x) = 0.27275 0.28690
# Poissons Ratio (y) = 0.16265 0.39698
# Poissons Ratio (z) = 0.13121 0.30446
#
# Static dielectric constant tensor:
#      x y z
#    x 3.530330 0.000000 0.000000 
#    y 0.000000 3.630780 0.000000 
#    z 0.000000 0.000000 3.771660 
# 
# 
# High freq. dielectric constant tensor:
#      x y z
#    x 1.786720 0.000000 0.000000 
#    y 0.000000 1.788330 0.000000 
#    z 0.000000 0.000000 1.791480 
# 
# From -- ./inp_files/8524.got.cif
#   From: 2010.03.12/outbox.cif.g09.slc.cpg/sg38_5_cif.got.tgz:8524.got - 2010.04.14 02:38:36.
