data_PCOD8179996
_publ_section_title
;
Structure prediction by ZEFSAII (Michael W. Deem and Ramdas Pophale) SiO2 
 PCOD8179996
Probable space group: A M M 2
;
_chemical_formula_sum "Si O2"
_cell_formula_units_Z 64
_cell_length_a 9.121084
_cell_length_b 32.880565
_cell_length_c 11.643998
_cell_angle_alpha 90.000000
_cell_angle_beta 90.000000
_cell_angle_gamma 90.000000
_cell_volume 3492.109467
_symmetry_space_group_name_H-M "A M M 2"
_symmetry_group_IT_number 38
_symmetry_cell_setting 'orthorhombic'
loop_
_space_group_symop_operation_xyz
x,y,z
-x,-y,z
-x,y,z
x,-y,z
x,1/2+y,1/2+z
-x,1/2-y,1/2+z
-x,1/2+y,1/2+z
x,1/2-y,1/2+z
loop_
_atom_site_type_symbol
_atom_site_label
_atom_site_fract_x
_atom_site_fract_y
_atom_site_fract_z
Si Si1 0.160984 0.102170 0.842430
Si Si2 0.172353 0.379836 0.878148
Si Si3 0.826434 0.652713 0.126531
Si Si4 0.326821 0.952908 0.260317
Si Si5 0.171410 0.695250 0.720732
Si Si6 0.161790 0.815244 0.959299
Si Si7 0.673055 0.278083 0.256415
Si Si8 0.672510 0.045322 0.003810
O O1 0.221837 0.119474 0.721579
O O2 0.150140 0.137221 0.936533
O O3 0.000000 0.082832 0.823068
O O4 0.268371 0.069269 0.894662
O O5 0.249387 0.422648 0.849944
O O6 0.219749 0.345208 0.788236
O O7 0.000000 0.387789 0.875481
O O8 0.222532 0.364248 0.003521
O O9 0.747445 0.695677 0.153877
O O10 0.000000 0.661092 0.134194
O O11 0.500000 0.948200 0.274637
O O12 0.277279 0.939926 0.130957
O O13 0.281712 0.000000 0.284918
O O14 0.211715 0.689580 0.588880
O O15 0.268223 0.732516 0.762670
O O16 0.000000 0.704344 0.741563
O O17 0.286263 0.796143 0.880006
O O18 0.000000 0.795367 0.937102
O O19 0.500000 0.278697 0.238185
O O20 0.500000 0.047475 0.998167
O O21 0.730840 0.000000 0.987449
#
# Coordination Sequence:
#
# PCOD8179996 Si02
#       8
#     8   8   8   8   8   8   8   8
#     4   9  17  32  54  77 101 131 173 221 261 308
#     4  10  21  37  59  84 106 140 189 234 273 322
#     4   9  20  39  57  75 106 146 184 221 271 331
#     4   9  19  36  56  80 114 150 178 217 279 337
#     4  10  21  36  56  80 106 139 180 225 274 328
#     4   9  19  36  55  74 101 136 173 214 265 322
#     4  11  23  36  53  79 109 139 178 225 272 323
#     4   9  18  32  51  77 109 142 174 212 265 328
#
# _framework density 18.327031000000002
#
# number of rings (size 3 to 8) (size 9 to 14) (size 15 to 20)
#    0.000    2.500    0.000    3.375    1.750    5.500 
#    0.000    1.875    0.000    3.750    0.000    0.000 
#    0.000    0.000    0.000    0.000    0.000    0.000 
#
# Total GULP energy -396693.876715 kJ/mol
# GULP energy per Si atom -12396.683647 kJ/mol
# Density = 1.828532 g / cm^3
# Si number density = 18.327031 Si / 1000 Ang^3
#
#
#
# Elastic Constant Matrix: (Units=GPa)
#
#
# Indices 1 2 3 4 5 6 
#
# 1 57.0364 43.6311 33.2564 0.0000 0.0000 0.0000
# 2 43.6311 104.6210 54.2652 0.0000 0.0000 0.0000
# 3 33.2564 54.2652 88.5351 0.0000 0.0000 0.0000
# 4 0.0000 0.0000 0.0000 24.9482 0.0000 0.0000
# 5 0.0000 0.0000 0.0000 0.0000 24.3312 0.0000
# 6 0.0000 0.0000 0.0000 0.0000 0.0000 63.9769
#
#
#
# Elastic Compliance Matrix: (Units=1/GPa)
#
#
# Indices 1 2 3 4 5 6 
#
# 1 0.027048 -0.008812 -0.004759 0.000000 0.000000 0.000000
# 2 -0.008812 0.016884 -0.007039 0.000000 0.000000 0.000000
# 3 -0.004759 -0.007039 0.017397 0.000000 0.000000 0.000000
# 4 0.000000 0.000000 0.000000 0.040083 0.000000 0.000000
# 5 0.000000 0.000000 0.000000 0.000000 0.041100 0.000000
# 6 0.000000 0.000000 0.000000 0.000000 0.000000 0.015631
#
#
# Mechanical properties :
#
#
# Convention : Reuss Voigt Hill
#
# Bulk Modulus (GPa) = 49.72667 56.94421 53.33544
# Shear Modulus (GPa) = 24.26421 30.58725 27.42573
#
# Velocity S-wave (km/s) = 3.64257 4.08973 3.87261
# Velocity P-wave (km/s) = 6.69947 7.31026 7.01152
#
# Compressibility (1/GPa) = 0.02010993
#
# Stress axis : x y z
#
# Youngs Moduli (GPa) = 36.97087 59.22787 57.48180
#
# Poissons Ratio (x) = 0.52190 0.27357
# Poissons Ratio (y) = 0.32578 0.40459
# Poissons Ratio (z) = 0.17595 0.41688
#
# Static dielectric constant tensor:
#      x y z
#    x 3.200110 0.000000 0.000000 
#    y 0.000000 3.346380 0.000000 
#    z 0.000000 0.000000 3.432540 
# 
# 
# High freq. dielectric constant tensor:
#      x y z
#    x 1.696950 0.000000 0.000000 
#    y 0.000000 1.706570 0.000000 
#    z 0.000000 0.000000 1.712440 
# 
# From -- ./inp_files/8664.got.cif
#   From: 2010.03.12/outbox.cif.g09.slc.cpg/sg38_5_cif.got.tgz:8664.got - 2010.04.14 02:38:36.
