data_PCOD8179203
_publ_section_title
;
Structure prediction by ZEFSAII (Michael W. Deem and Ramdas Pophale) SiO2 
 PCOD8179203
Probable space group: A M M 2
;
_chemical_formula_sum "Si O2"
_cell_formula_units_Z 56
_cell_length_a 19.103637
_cell_length_b 9.342605
_cell_length_c 16.062681
_cell_angle_alpha 90.000000
_cell_angle_beta 90.000000
_cell_angle_gamma 90.000000
_cell_volume 2866.830916
_symmetry_space_group_name_H-M "A M M 2"
_symmetry_group_IT_number 38
_symmetry_cell_setting 'orthorhombic'
loop_
_space_group_symop_operation_xyz
x,y,z
-x,-y,z
-x,y,z
x,-y,z
x,1/2+y,1/2+z
-x,1/2-y,1/2+z
-x,1/2+y,1/2+z
x,1/2-y,1/2+z
loop_
_atom_site_type_symbol
_atom_site_label
_atom_site_fract_x
_atom_site_fract_y
_atom_site_fract_z
Si Si1 0.578173 0.162210 0.358180
Si Si2 0.299760 0.334654 0.101904
Si Si3 0.082128 0.665267 0.188886
Si Si4 0.420590 0.334826 0.523572
Si Si5 0.712423 0.161145 0.256654
Si Si6 0.157207 0.833420 0.524814
Si Si7 0.146234 0.335441 0.841277
O O1 0.500000 0.178516 0.320040
O O2 0.589155 0.271525 0.432450
O O3 0.635004 0.199699 0.288858
O O4 0.589893 0.000000 0.391521
O O5 0.319332 0.500000 0.111097
O O6 0.370148 0.246751 0.086376
O O7 0.266615 0.276241 0.187267
O O8 0.240929 0.309190 0.031605
O O9 0.104665 0.500000 0.199337
O O10 0.117263 0.733559 0.105098
O O11 0.104864 0.746915 0.272214
O O12 0.000000 0.682463 0.177602
O O13 0.500000 0.314321 0.555177
O O14 0.399230 0.500000 0.520785
O O15 0.770048 0.174783 0.328886
O O16 0.712770 0.000000 0.219605
O O17 0.131718 0.772759 0.434820
O O18 0.139564 0.000000 0.525231
O O19 0.121386 0.500000 0.834621
#
# Coordination Sequence:
#
# PCOD8179203 Si02
#       7
#     8   8   8   8   8   8   8
#     4   9  18  34  55  77 105 144 189 236 286 342
#     4  11  21  35  57  81 110 147 193 241 286 345
#     4  10  21  39  61  86 119 153 188 234 286 341
#     4  10  21  36  53  76 109 146 187 238 293 346
#     4  10  20  34  53  81 116 149 188 238 290 338
#     4   9  19  37  60  86 115 152 193 232 282 342
#     4  10  20  36  60  86 115 152 195 238 280 339
#
# _framework density 19.533766
#
# number of rings (size 3 to 8) (size 9 to 14) (size 15 to 20)
#    0.000    2.143    1.429    1.714    0.000    5.143 
#    0.000    6.429    0.000    0.000    0.000    0.000 
#    0.000    0.000    0.000    0.000    0.000    0.000 
#
# Total GULP energy -347123.394975 kJ/mol
# GULP energy per Si atom -12397.264106 kJ/mol
# Density = 1.948931 g / cm^3
# Si number density = 19.533766 Si / 1000 Ang^3
#
#
#
# Elastic Constant Matrix: (Units=GPa)
#
#
# Indices 1 2 3 4 5 6 
#
# 1 76.3419 39.1672 42.2526 0.0000 0.0000 0.0000
# 2 39.1672 86.2386 51.7584 0.0000 0.0000 0.0000
# 3 42.2526 51.7584 138.6179 0.0000 0.0000 0.0000
# 4 0.0000 0.0000 0.0000 31.1240 0.0000 0.0000
# 5 0.0000 0.0000 0.0000 0.0000 27.4318 0.0000
# 6 0.0000 0.0000 0.0000 0.0000 0.0000 25.3951
#
#
#
# Elastic Compliance Matrix: (Units=1/GPa)
#
#
# Indices 1 2 3 4 5 6 
#
# 1 0.018088 -0.006323 -0.003152 0.000000 0.000000 0.000000
# 2 -0.006323 0.017155 -0.004478 0.000000 0.000000 0.000000
# 3 -0.003152 -0.004478 0.009847 0.000000 0.000000 0.000000
# 4 0.000000 0.000000 0.000000 0.032130 0.000000 0.000000
# 5 0.000000 0.000000 0.000000 0.000000 0.036454 0.000000
# 6 0.000000 0.000000 0.000000 0.000000 0.000000 0.039378
#
#
# Mechanical properties :
#
#
# Convention : Reuss Voigt Hill
#
# Bulk Modulus (GPa) = 58.19787 63.06164 60.62975
# Shear Modulus (GPa) = 26.78292 27.99151 27.38722
#
# Velocity S-wave (km/s) = 3.70687 3.78958 3.74845
# Velocity P-wave (km/s) = 6.94113 7.17645 7.05977
#
# Compressibility (1/GPa) = 0.01718276
#
# Stress axis : x y z
#
# Youngs Moduli (GPa) = 55.28613 58.29156 101.55252
#
# Poissons Ratio (x) = 0.36857 0.32014
# Poissons Ratio (y) = 0.34957 0.45478
# Poissons Ratio (z) = 0.17429 0.26104
#
# Static dielectric constant tensor:
#      x y z
#    x 3.631980 0.000000 0.000000 
#    y 0.000000 3.474730 0.000000 
#    z 0.000000 0.000000 3.562560 
# 
# 
# High freq. dielectric constant tensor:
#      x y z
#    x 1.766400 0.000000 0.000000 
#    y 0.000000 1.741950 0.000000 
#    z 0.000000 0.000000 1.758100 
# 
# From -- ./inp_files/15438.got.cif
#   From: 2010.03.12/outbox.cif.g09.slc.cpg/sg38_8_cif.got.tgz:15438.got - 2010.04.14 02:38:36.
