data_PCOD8179403
_publ_section_title
;
Structure prediction by ZEFSAII (Michael W. Deem and Ramdas Pophale) SiO2 
 PCOD8179403
Probable space group: A M M 2
;
_chemical_formula_sum "Si O2"
_cell_formula_units_Z 56
_cell_length_a 19.704445
_cell_length_b 8.901744
_cell_length_c 15.974676
_cell_angle_alpha 90.000000
_cell_angle_beta 90.000000
_cell_angle_gamma 90.000000
_cell_volume 2802.020872
_symmetry_space_group_name_H-M "A M M 2"
_symmetry_group_IT_number 38
_symmetry_cell_setting 'orthorhombic'
loop_
_space_group_symop_operation_xyz
x,y,z
-x,-y,z
-x,y,z
x,-y,z
x,1/2+y,1/2+z
-x,1/2-y,1/2+z
-x,1/2+y,1/2+z
x,1/2-y,1/2+z
loop_
_atom_site_type_symbol
_atom_site_label
_atom_site_fract_x
_atom_site_fract_y
_atom_site_fract_z
Si Si1 0.079350 0.324695 0.471500
Si Si2 0.574017 0.164898 0.365590
Si Si3 0.843707 0.171502 0.810388
Si Si4 0.297727 0.326641 0.622447
Si Si5 0.425963 0.334645 0.060623
Si Si6 0.158902 0.321222 0.120100
Si Si7 0.307033 0.829751 0.791170
O O1 0.097875 0.500000 0.480549
O O2 0.112816 0.254672 0.386193
O O3 0.103812 0.241413 0.555449
O O4 0.000000 0.296879 0.463432
O O5 0.500000 0.212101 0.328099
O O6 0.566298 0.149319 0.463088
O O7 0.629868 0.292840 0.350074
O O8 0.594949 0.000000 0.329269
O O9 0.855488 0.238777 0.715988
O O10 0.765017 0.188135 0.838111
O O11 0.866882 0.000000 0.804805
O O12 0.281750 0.500000 0.607067
O O13 0.367349 0.284703 0.577157
O O14 0.233075 0.232791 0.589372
O O15 0.309982 0.292196 0.718852
O O16 0.500000 0.282466 0.096946
O O17 0.407575 0.500000 0.098328
O O18 0.157723 0.500000 0.118950
O O19 0.313197 0.000000 0.756762
#
# Coordination Sequence:
#
# PCOD8179403 Si02
#       7
#     8   8   8   8   8   8   8
#     4  10  21  38  61  90 121 154 191 232 286 351
#     4   9  19  35  53  76 108 144 184 232 286 341
#     4   8  18  37  58  82 115 153 194 235 282 341
#     4  11  22  36  56  81 110 146 190 237 289 345
#     4   9  19  36  55  77 109 147 187 234 288 341
#     4  10  21  39  61  87 119 155 196 244 293 346
#     4  10  20  35  55  79 108 144 190 237 282 338
#
# _framework density 19.985575999999998
#
# number of rings (size 3 to 8) (size 9 to 14) (size 15 to 20)
#    0.000    2.429    0.000    3.857    2.000    2.571 
#    0.000    6.429    0.000    0.000    0.000    0.000 
#    0.000    0.000    0.000    0.000    0.000    0.000 
#
# Total GULP energy -346928.398997 kJ/mol
# GULP energy per Si atom -12390.299964 kJ/mol
# Density = 1.994009 g / cm^3
# Si number density = 19.985576 Si / 1000 Ang^3
#
#
#
# Elastic Constant Matrix: (Units=GPa)
#
#
# Indices 1 2 3 4 5 6 
#
# 1 132.6379 48.4162 60.3490 0.0000 0.0000 0.0000
# 2 48.4162 79.4470 32.2769 0.0000 0.0000 0.0000
# 3 60.3490 32.2769 86.1880 0.0000 0.0000 0.0000
# 4 0.0000 0.0000 0.0000 25.7190 0.0000 0.0000
# 5 0.0000 0.0000 0.0000 0.0000 17.9556 0.0000
# 6 0.0000 0.0000 0.0000 0.0000 0.0000 31.2818
#
#
#
# Elastic Compliance Matrix: (Units=1/GPa)
#
#
# Indices 1 2 3 4 5 6 
#
# 1 0.012424 -0.004762 -0.006916 0.000000 0.000000 0.000000
# 2 -0.004762 0.016671 -0.002909 0.000000 0.000000 0.000000
# 3 -0.006916 -0.002909 0.017535 0.000000 0.000000 0.000000
# 4 0.000000 0.000000 0.000000 0.038882 0.000000 0.000000
# 5 0.000000 0.000000 0.000000 0.000000 0.055693 0.000000
# 6 0.000000 0.000000 0.000000 0.000000 0.000000 0.031967
#
#
# Mechanical properties :
#
#
# Convention : Reuss Voigt Hill
#
# Bulk Modulus (GPa) = 57.28733 64.48413 60.88573
# Shear Modulus (GPa) = 24.01947 25.47332 24.74640
#
# Velocity S-wave (km/s) = 3.47052 3.57401 3.52264
# Velocity P-wave (km/s) = 6.69223 7.02615 6.86122
#
# Compressibility (1/GPa) = 0.01745587
#
# Stress axis : x y z
#
# Youngs Moduli (GPa) = 80.48733 59.98569 57.02963
#
# Poissons Ratio (x) = 0.28563 0.39443
# Poissons Ratio (y) = 0.38325 0.16590
# Poissons Ratio (z) = 0.55668 0.17449
#
# Static dielectric constant tensor:
#      x y z
#    x 3.992370 0.000000 0.000000 
#    y 0.000000 3.558220 0.000000 
#    z 0.000000 0.000000 3.603870 
# 
# 
# High freq. dielectric constant tensor:
#      x y z
#    x 1.787180 0.000000 0.000000 
#    y 0.000000 1.759030 0.000000 
#    z 0.000000 0.000000 1.769500 
# 
# From -- ./inp_files/15461.got.cif
#   From: 2010.03.12/outbox.cif.g09.slc.cpg/sg38_8_cif.got.tgz:15461.got - 2010.04.14 02:38:36.
