data_PCOD8179275
_publ_section_title
;
Structure prediction by ZEFSAII (Michael W. Deem and Ramdas Pophale) SiO2 
 PCOD8179275
Probable space group: A M M 2
;
_chemical_formula_sum "Si O2"
_cell_formula_units_Z 48
_cell_length_a 9.212164
_cell_length_b 28.085570
_cell_length_c 10.198837
_cell_angle_alpha 90.000000
_cell_angle_beta 90.000000
_cell_angle_gamma 90.000000
_cell_volume 2638.733642
_symmetry_space_group_name_H-M "A M M 2"
_symmetry_group_IT_number 38
_symmetry_cell_setting 'orthorhombic'
loop_
_space_group_symop_operation_xyz
x,y,z
-x,-y,z
-x,y,z
x,-y,z
x,1/2+y,1/2+z
-x,1/2-y,1/2+z
-x,1/2+y,1/2+z
x,1/2-y,1/2+z
loop_
_atom_site_type_symbol
_atom_site_label
_atom_site_fract_x
_atom_site_fract_y
_atom_site_fract_z
Si Si1 0.827207 0.850631 0.164910
Si Si2 0.827915 0.948280 0.047443
Si Si3 0.669083 0.858582 0.674088
Si Si4 0.667850 0.308507 0.906509
Si Si5 0.669401 0.801500 0.930073
Si Si6 0.169036 0.946481 0.751609
O O1 0.774128 0.904970 0.138050
O O2 0.768505 0.836894 0.306473
O O3 0.000000 0.846241 0.161758
O O4 0.762202 0.815763 0.055929
O O5 0.000000 0.949275 0.041391
O O6 0.772030 0.000000 0.100665
O O7 0.770471 0.940680 0.899583
O O8 0.500000 0.868948 0.679858
O O9 0.709406 0.825604 0.551619
O O10 0.721339 0.832004 0.805550
O O11 0.748733 0.909178 0.659004
O O12 0.500000 0.318957 0.873389
O O13 0.702116 0.252955 0.895690
O O14 0.500000 0.809004 0.962461
O O15 0.000000 0.934574 0.745377
O O16 0.199443 0.000000 0.700492
#
# Coordination Sequence:
#
# PCOD8179275 Si02
#       6
#     8   8   8   8   8   8
#     4  11  21  34  56  85 111 138 175 225 272 309
#     4   8  15  30  52  77 105 137 171 210 263 322
#     4  10  20  34  55  81 106 139 182 225 263 303
#     4  10  22  39  55  74 109 152 184 213 260 324
#     4  10  20  37  59  78 102 143 187 220 260 318
#     4   9  17  32  55  79 105 139 175 215 268 325
#
# _framework density 18.190543000000002
#
# number of rings (size 3 to 8) (size 9 to 14) (size 15 to 20)
#    0.000    2.333    1.667    2.500    0.000    4.333 
#    0.000    2.500    0.000    5.000    0.000    0.000 
#    0.000    0.000    0.000    0.000    0.000    0.000 
#
# Total GULP energy -297591.128872 kJ/mol
# GULP energy per Si atom -12399.630370 kJ/mol
# Density = 1.814914 g / cm^3
# Si number density = 18.190543 Si / 1000 Ang^3
#
#
#
# Elastic Constant Matrix: (Units=GPa)
#
#
# Indices 1 2 3 4 5 6 
#
# 1 46.1055 39.0445 31.5891 0.0000 0.0000 0.0000
# 2 39.0445 121.7599 32.9773 0.0000 0.0000 0.0000
# 3 31.5891 32.9773 67.8783 0.0000 0.0000 0.0000
# 4 0.0000 0.0000 0.0000 16.8407 0.0000 0.0000
# 5 0.0000 0.0000 0.0000 0.0000 29.6173 0.0000
# 6 0.0000 0.0000 0.0000 0.0000 0.0000 29.9716
#
#
#
# Elastic Compliance Matrix: (Units=1/GPa)
#
#
# Indices 1 2 3 4 5 6 
#
# 1 0.038323 -0.008589 -0.013662 0.000000 0.000000 0.000000
# 2 -0.008589 0.011382 -0.001533 0.000000 0.000000 0.000000
# 3 -0.013662 -0.001533 0.021835 0.000000 0.000000 0.000000
# 4 0.000000 0.000000 0.000000 0.059380 0.000000 0.000000
# 5 0.000000 0.000000 0.000000 0.000000 0.033764 0.000000
# 6 0.000000 0.000000 0.000000 0.000000 0.000000 0.033365
#
#
# Mechanical properties :
#
#
# Convention : Reuss Voigt Hill
#
# Bulk Modulus (GPa) = 41.71345 49.21839 45.46592
# Shear Modulus (GPa) = 19.71546 24.09477 21.90511
#
# Velocity S-wave (km/s) = 3.29573 3.64342 3.47393
# Velocity P-wave (km/s) = 6.12075 6.69442 6.41400
#
# Compressibility (1/GPa) = 0.02397308
#
# Stress axis : x y z
#
# Youngs Moduli (GPa) = 26.09366 87.85660 45.79806
#
# Poissons Ratio (x) = 0.75459 0.62570
# Poissons Ratio (y) = 0.22411 0.07020
# Poissons Ratio (z) = 0.35650 0.13466
#
# Static dielectric constant tensor:
#      x y z
#    x 3.146010 0.000000 0.000000 
#    y 0.000000 3.670090 0.000000 
#    z 0.000000 0.000000 3.227430 
# 
# 
# High freq. dielectric constant tensor:
#      x y z
#    x 1.684790 0.000000 0.000000 
#    y 0.000000 1.721670 0.000000 
#    z 0.000000 0.000000 1.689380 
# 
# From -- ./inp_files/3725.got.cif
#   From: 2010.03.12/outbox.cif.g09.slc.cpg/sg38_2_cif.got.tgz:3725.got - 2010.04.14 02:38:36.
