data_PCOD8179269
_publ_section_title
;
Structure prediction by ZEFSAII (Michael W. Deem and Ramdas Pophale) SiO2 
 PCOD8179269
Probable space group: A M M 2
;
_chemical_formula_sum "Si O2"
_cell_formula_units_Z 40
_cell_length_a 12.961390
_cell_length_b 8.048904
_cell_length_c 19.958012
_cell_angle_alpha 90.000000
_cell_angle_beta 90.000000
_cell_angle_gamma 90.000000
_cell_volume 2082.119279
_symmetry_space_group_name_H-M "A M M 2"
_symmetry_group_IT_number 38
_symmetry_cell_setting 'orthorhombic'
loop_
_space_group_symop_operation_xyz
x,y,z
-x,-y,z
-x,y,z
x,-y,z
x,1/2+y,1/2+z
-x,1/2-y,1/2+z
-x,1/2+y,1/2+z
x,1/2-y,1/2+z
loop_
_atom_site_type_symbol
_atom_site_label
_atom_site_fract_x
_atom_site_fract_y
_atom_site_fract_z
Si Si1 0.751915 0.191128 0.458830
Si Si2 0.384741 0.311351 0.083068
Si Si3 0.879549 0.500000 0.652219
Si Si4 0.119128 0.500000 0.492759
Si Si5 0.618769 0.688062 0.341748
Si Si6 0.704083 0.178159 0.212989
O O1 0.688503 0.246009 0.523772
O O2 0.840310 0.331512 0.456342
O O3 0.677072 0.196558 0.394808
O O4 0.794495 0.000000 0.463973
O O5 0.500000 0.284711 0.056483
O O6 0.361942 0.500000 0.102878
O O7 0.368190 0.207106 0.149533
O O8 0.860890 0.500000 0.572551
O O9 0.823580 0.663596 0.685532
O O10 0.000000 0.500000 0.670971
O O11 0.000000 0.500000 0.476995
O O12 0.500000 0.747357 0.331937
O O13 0.621184 0.500000 0.368150
O O14 0.682475 0.690601 0.271572
O O15 0.670844 0.000000 0.243541
#
# Coordination Sequence:
#
# PCOD8179269 Si02
#       6
#     8   8   4   4   8   8
#     4  11  22  40  63  90 123 163 206 255 310 371
#     4  10  20  34  54  84 120 155 197 247 309 377
#     4   9  20  40  64  86 114 159 202 263 323 361
#     4  11  22  44  68  92 124 157 208 267 319 365
#     4  11  23  38  59  86 127 170 203 247 313 378
#     4  10  20  35  57  85 114 156 200 256 301 372
#
# _framework density 19.211196000000001
#
# number of rings (size 3 to 8) (size 9 to 14) (size 15 to 20)
#    0.600    1.000    3.000    2.400    0.000    5.600 
#    0.000    1.000    0.000    1.800    0.000    0.000 
#    0.000    0.000    0.000    0.000    0.000    0.000 
#
# Total GULP energy -247822.361906 kJ/mol
# GULP energy per Si atom -12391.118095 kJ/mol
# Density = 1.916747 g / cm^3
# Si number density = 19.211196 Si / 1000 Ang^3
#
#
#
# Elastic Constant Matrix: (Units=GPa)
#
#
# Indices 1 2 3 4 5 6 
#
# 1 114.7601 43.9794 37.7629 0.0000 0.0000 0.0000
# 2 43.9794 88.6728 24.1399 0.0000 0.0000 0.0000
# 3 37.7629 24.1399 95.0183 0.0000 0.0000 0.0000
# 4 0.0000 0.0000 0.0000 31.5996 0.0000 0.0000
# 5 0.0000 0.0000 0.0000 0.0000 28.1265 0.0000
# 6 0.0000 0.0000 0.0000 0.0000 0.0000 25.5939
#
#
#
# Elastic Compliance Matrix: (Units=1/GPa)
#
#
# Indices 1 2 3 4 5 6 
#
# 1 0.011706 -0.004877 -0.003413 0.000000 0.000000 0.000000
# 2 -0.004877 0.014147 -0.001656 0.000000 0.000000 0.000000
# 3 -0.003413 -0.001656 0.012302 0.000000 0.000000 0.000000
# 4 0.000000 0.000000 0.000000 0.031646 0.000000 0.000000
# 5 0.000000 0.000000 0.000000 0.000000 0.035554 0.000000
# 6 0.000000 0.000000 0.000000 0.000000 0.000000 0.039072
#
#
# Mechanical properties :
#
#
# Convention : Reuss Voigt Hill
#
# Bulk Modulus (GPa) = 54.75698 56.69063 55.72380
# Shear Modulus (GPa) = 29.34186 29.90194 29.62190
#
# Velocity S-wave (km/s) = 3.91235 3.94951 3.93097
# Velocity P-wave (km/s) = 6.99808 7.09728 7.04786
#
# Compressibility (1/GPa) = 0.01826251
#
# Stress axis : x y z
#
# Youngs Moduli (GPa) = 85.42733 70.68685 81.29057
#
# Poissons Ratio (x) = 0.34471 0.27747
# Poissons Ratio (y) = 0.41659 0.13462
# Poissons Ratio (z) = 0.29159 0.11706
#
# Static dielectric constant tensor:
#      x y z
#    x 3.344980 0.000000 0.000000 
#    y 0.000000 3.486560 0.000000 
#    z 0.000000 0.000000 3.458120 
# 
# 
# High freq. dielectric constant tensor:
#      x y z
#    x 1.728120 0.000000 0.000000 
#    y 0.000000 1.745870 0.000000 
#    z 0.000000 0.000000 1.749590 
# 
# From -- ./inp_files/20502.got.cif
#   From: 2010.03.12/outbox.cif.g09.slc.cpg/sg38_11_cif.got.tgz:20502.got - 2010.04.14 02:38:36.
