data_PCOD8179433
_publ_section_title
;
Structure prediction by ZEFSAII (Michael W. Deem and Ramdas Pophale) SiO2 
 PCOD8179433
Probable space group: A M M 2
;
_chemical_formula_sum "Si O2"
_cell_formula_units_Z 48
_cell_length_a 8.585562
_cell_length_b 18.686589
_cell_length_c 15.086388
_cell_angle_alpha 90.000000
_cell_angle_beta 90.000000
_cell_angle_gamma 90.000000
_cell_volume 2420.382674
_symmetry_space_group_name_H-M "A M M 2"
_symmetry_group_IT_number 38
_symmetry_cell_setting 'orthorhombic'
loop_
_space_group_symop_operation_xyz
x,y,z
-x,-y,z
-x,y,z
x,-y,z
x,1/2+y,1/2+z
-x,1/2-y,1/2+z
-x,1/2+y,1/2+z
x,1/2-y,1/2+z
loop_
_atom_site_type_symbol
_atom_site_label
_atom_site_fract_x
_atom_site_fract_y
_atom_site_fract_z
Si Si1 0.181737 0.654055 0.851350
Si Si2 0.183131 0.809442 0.050578
Si Si3 0.182497 0.316496 0.353881
Si Si4 0.181199 0.582256 0.201762
Si Si5 0.318314 0.659079 0.041379
Si Si6 0.680059 0.082536 0.187127
O O1 0.224229 0.735660 0.825728
O O2 0.278269 0.601972 0.787927
O O3 0.000000 0.638761 0.838336
O O4 0.226394 0.638715 0.952443
O O5 0.267226 0.736261 0.079613
O O6 0.217045 0.871728 0.119697
O O7 0.000000 0.793386 0.048016
O O8 0.246067 0.832229 0.953057
O O9 0.254177 0.371354 0.282660
O O10 0.000000 0.328766 0.355532
O O11 0.205059 0.500000 0.227142
O O12 0.277022 0.599294 0.113460
O O13 0.000000 0.600729 0.185550
O O14 0.500000 0.658649 0.020438
O O15 0.500000 0.098795 0.169614
O O16 0.720211 0.000000 0.170699
#
# Coordination Sequence:
#
# PCOD8179433 Si02
#       6
#     8   8   8   8   8   8
#     4  10  20  37  61  84 108 144 192 238 280 336
#     4  10  20  37  61  86 112 145 191 238 279 334
#     4   8  17  34  57  84 109 137 179 233 281 322
#     4  10  20  35  56  82 113 148 186 229 278 336
#     4  11  22  37  58  83 114 149 187 235 288 338
#     4  11  24  39  55  82 120 155 187 230 288 347
#
# _framework density 19.831575000000001
#
# number of rings (size 3 to 8) (size 9 to 14) (size 15 to 20)
#    0.000    2.000    0.000    5.000    0.000    4.333 
#    0.000    5.833    0.000    0.000    0.000    0.000 
#    0.000    0.000    0.000    0.000    0.000    0.000 
#
# Total GULP energy -297678.877370 kJ/mol
# GULP energy per Si atom -12403.286557 kJ/mol
# Density = 1.978644 g / cm^3
# Si number density = 19.831575 Si / 1000 Ang^3
#
#
#
# Elastic Constant Matrix: (Units=GPa)
#
#
# Indices 1 2 3 4 5 6 
#
# 1 47.2082 24.2546 14.1645 0.0000 0.0000 0.0000
# 2 24.2546 55.1342 25.1796 0.0000 0.0000 0.0000
# 3 14.1645 25.1796 76.7660 0.0000 0.0000 0.0000
# 4 0.0000 0.0000 0.0000 20.7571 0.0000 0.0000
# 5 0.0000 0.0000 0.0000 0.0000 22.3749 0.0000
# 6 0.0000 0.0000 0.0000 0.0000 0.0000 24.5354
#
#
#
# Elastic Compliance Matrix: (Units=1/GPa)
#
#
# Indices 1 2 3 4 5 6 
#
# 1 0.027478 -0.011495 -0.001300 0.000000 0.000000 0.000000
# 2 -0.011495 0.026142 -0.006454 0.000000 0.000000 0.000000
# 3 -0.001300 -0.006454 0.015383 0.000000 0.000000 0.000000
# 4 0.000000 0.000000 0.000000 0.048176 0.000000 0.000000
# 5 0.000000 0.000000 0.000000 0.000000 0.044693 0.000000
# 6 0.000000 0.000000 0.000000 0.000000 0.000000 0.040758
#
#
# Mechanical properties :
#
#
# Convention : Reuss Voigt Hill
#
# Bulk Modulus (GPa) = 32.77933 34.03395 33.40664
# Shear Modulus (GPa) = 19.89690 21.23412 20.56551
#
# Velocity S-wave (km/s) = 3.17092 3.27574 3.22375
# Velocity P-wave (km/s) = 5.47458 5.61302 5.54423
#
# Compressibility (1/GPa) = 0.03050703
#
# Stress axis : x y z
#
# Youngs Moduli (GPa) = 36.39216 38.25322 65.00566
#
# Poissons Ratio (x) = 0.43971 0.08450
# Poissons Ratio (y) = 0.41831 0.41952
# Poissons Ratio (z) = 0.04731 0.24687
#
# Static dielectric constant tensor:
#      x y z
#    x 3.437130 0.000000 0.000000 
#    y 0.000000 3.560820 0.000000 
#    z 0.000000 0.000000 3.807800 
# 
# 
# High freq. dielectric constant tensor:
#      x y z
#    x 1.759920 0.000000 0.000000 
#    y 0.000000 1.766460 0.000000 
#    z 0.000000 0.000000 1.784520 
# 
# From -- ./inp_files/12020.got.cif
#   From: 2010.03.12/outbox.cif.g09.slc.cpg/sg38_7_cif.got.tgz:12020.got - 2010.04.14 02:38:36.
