data_PCOD8179355
_publ_section_title
;
Structure prediction by ZEFSAII (Michael W. Deem and Ramdas Pophale) SiO2 
 PCOD8179355
Probable space group: A M M 2
;
_chemical_formula_sum "Si O2"
_cell_formula_units_Z 64
_cell_length_a 23.703722
_cell_length_b 8.816971
_cell_length_c 15.459802
_cell_angle_alpha 90.000000
_cell_angle_beta 90.000000
_cell_angle_gamma 90.000000
_cell_volume 3231.021775
_symmetry_space_group_name_H-M "A M M 2"
_symmetry_group_IT_number 38
_symmetry_cell_setting 'orthorhombic'
loop_
_space_group_symop_operation_xyz
x,y,z
-x,-y,z
-x,y,z
x,-y,z
x,1/2+y,1/2+z
-x,1/2-y,1/2+z
-x,1/2+y,1/2+z
x,1/2-y,1/2+z
loop_
_atom_site_type_symbol
_atom_site_label
_atom_site_fract_x
_atom_site_fract_y
_atom_site_fract_z
Si Si1 0.863785 0.678824 0.012640
Si Si2 0.327727 0.826274 0.358892
Si Si3 0.334595 0.325412 0.666819
Si Si4 0.937417 0.819919 0.669884
Si Si5 0.066069 0.174984 0.863804
Si Si6 0.563684 0.323470 0.413241
Si Si7 0.562990 0.326155 0.095008
Si Si8 0.741931 0.678032 0.508230
O O1 0.859783 0.500000 0.018371
O O2 0.894497 0.745760 0.098313
O O3 0.801733 0.743128 0.007073
O O4 0.898742 0.721281 0.927941
O O5 0.305502 0.805412 0.260673
O O6 0.393234 0.776719 0.357857
O O7 0.291949 0.721339 0.422205
O O8 0.322279 0.000000 0.389221
O O9 0.351023 0.500000 0.650652
O O10 0.391448 0.224818 0.665799
O O11 0.291625 0.267119 0.593360
O O12 0.917810 0.773230 0.766305
O O13 0.000000 0.753959 0.651001
O O14 0.940368 0.000000 0.664504
O O15 0.000000 0.200789 0.880278
O O16 0.082344 0.000000 0.878899
O O17 0.500000 0.286284 0.382651
O O18 0.577811 0.500000 0.401323
O O19 0.571721 0.282069 0.513254
O O20 0.500000 0.306817 0.133872
O O21 0.573367 0.500000 0.067318
O O22 0.751415 0.500000 0.509228
#
# Coordination Sequence:
#
# PCOD8179355 Si02
#       8
#     8   8   8   8   8   8   8   8
#     4  11  22  36  58  86 116 151 193 241 287 335
#     4  11  23  40  62  88 115 147 190 242 295 348
#     4  10  23  41  61  84 114 150 189 238 297 352
#     4   8  16  33  57  85 118 154 190 229 277 335
#     4   9  18  35  59  87 120 156 192 231 279 338
#     4  10  20  35  57  85 118 154 189 230 286 347
#     4  10  20  34  57  88 118 149 188 235 285 343
#     4  11  24  43  61  80 112 154 197 241 290 346
#
# _framework density 19.807974999999999
#
# number of rings (size 3 to 8) (size 9 to 14) (size 15 to 20)
#    0.000    2.000    1.250    3.000    0.000    5.250 
#    0.000    6.250    0.000    1.500    0.000    0.000 
#    0.000    0.000    0.000    0.000    0.000    0.000 
#
# Total GULP energy -396827.741402 kJ/mol
# GULP energy per Si atom -12400.866919 kJ/mol
# Density = 1.976289 g / cm^3
# Si number density = 19.807975 Si / 1000 Ang^3
#
#
#
# Elastic Constant Matrix: (Units=GPa)
#
#
# Indices 1 2 3 4 5 6 
#
# 1 111.4218 33.5407 63.9917 0.0000 0.0000 0.0000
# 2 33.5407 52.3028 29.4371 0.0000 0.0000 0.0000
# 3 63.9917 29.4371 126.0866 0.0000 0.0000 0.0000
# 4 0.0000 0.0000 0.0000 27.2171 0.0000 0.0000
# 5 0.0000 0.0000 0.0000 0.0000 9.9420 0.0000
# 6 0.0000 0.0000 0.0000 0.0000 0.0000 23.7184
#
#
#
# Elastic Compliance Matrix: (Units=1/GPa)
#
#
# Indices 1 2 3 4 5 6 
#
# 1 0.014020 -0.005740 -0.005775 0.000000 0.000000 0.000000
# 2 -0.005740 0.024362 -0.002774 0.000000 0.000000 0.000000
# 3 -0.005775 -0.002774 0.011510 0.000000 0.000000 0.000000
# 4 0.000000 0.000000 0.000000 0.036742 0.000000 0.000000
# 5 0.000000 0.000000 0.000000 0.000000 0.100584 0.000000
# 6 0.000000 0.000000 0.000000 0.000000 0.000000 0.042161
#
#
# Mechanical properties :
#
#
# Convention : Reuss Voigt Hill
#
# Bulk Modulus (GPa) = 46.92208 60.41669 53.66938
# Shear Modulus (GPa) = 18.86354 23.03160 20.94757
#
# Velocity S-wave (km/s) = 3.08932 3.41360 3.25550
# Velocity P-wave (km/s) = 6.03863 6.79002 6.42532
#
# Compressibility (1/GPa) = 0.02131193
#
# Stress axis : x y z
#
# Youngs Moduli (GPa) = 71.32881 41.04756 86.88249
#
# Poissons Ratio (x) = 0.23562 0.50176
# Poissons Ratio (y) = 0.40944 0.24105
# Poissons Ratio (z) = 0.41193 0.11389
#
# Static dielectric constant tensor:
#      x y z
#    x 3.763730 0.000000 0.000000 
#    y 0.000000 3.457660 0.000000 
#    z 0.000000 0.000000 3.669340 
# 
# 
# High freq. dielectric constant tensor:
#      x y z
#    x 1.769050 0.000000 0.000000 
#    y 0.000000 1.763980 0.000000 
#    z 0.000000 0.000000 1.775420 
# 
# From -- ./inp_files/15808.got.cif
#   From: 2010.03.12/outbox.cif.g09.slc.cpg/sg38_8_cif.got.tgz:15808.got - 2010.04.14 02:38:36.
