data_PCOD8179390
_publ_section_title
;
Structure prediction by ZEFSAII (Michael W. Deem and Ramdas Pophale) SiO2 
 PCOD8179390
Probable space group: A M M 2
;
_chemical_formula_sum "Si O2"
_cell_formula_units_Z 64
_cell_length_a 8.821861
_cell_length_b 33.739430
_cell_length_c 11.735270
_cell_angle_alpha 90.000000
_cell_angle_beta 90.000000
_cell_angle_gamma 90.000000
_cell_volume 3492.939295
_symmetry_space_group_name_H-M "A M M 2"
_symmetry_group_IT_number 38
_symmetry_cell_setting 'orthorhombic'
loop_
_space_group_symop_operation_xyz
x,y,z
-x,-y,z
-x,y,z
x,-y,z
x,1/2+y,1/2+z
-x,1/2-y,1/2+z
-x,1/2+y,1/2+z
x,1/2-y,1/2+z
loop_
_atom_site_type_symbol
_atom_site_label
_atom_site_fract_x
_atom_site_fract_y
_atom_site_fract_z
Si Si1 0.679747 0.671140 0.219650
Si Si2 0.329900 0.114453 0.515538
Si Si3 0.326329 0.814411 0.366927
Si Si4 0.180701 0.371495 0.435173
Si Si5 0.179054 0.766519 0.563382
Si Si6 0.177476 0.457184 0.096837
Si Si7 0.679554 0.814867 0.105448
Si Si8 0.180024 0.456070 0.351901
O O1 0.500000 0.675913 0.235846
O O2 0.725445 0.639884 0.123147
O O3 0.755090 0.656871 0.336085
O O4 0.746129 0.713157 0.175465
O O5 0.500000 0.100490 0.535727
O O6 0.311510 0.139396 0.400481
O O7 0.230837 0.075086 0.505965
O O8 0.500000 0.800196 0.386457
O O9 0.216272 0.788933 0.446004
O O10 0.274903 0.811671 0.237362
O O11 0.247377 0.354762 0.553232
O O12 0.235961 0.417651 0.424002
O O13 0.000000 0.368855 0.433527
O O14 0.248010 0.723068 0.544742
O O15 0.000000 0.764588 0.581052
O O16 0.231537 0.500000 0.051833
O O17 0.243659 0.449821 0.223811
O O18 0.000000 0.455269 0.105881
O O19 0.500000 0.815887 0.087181
O O20 0.235363 0.500000 0.397597
O O21 0.000000 0.456352 0.350689
#
# Coordination Sequence:
#
# PCOD8179390 Si02
#       8
#     8   8   8   8   8   8   8   8
#     4  10  20  35  54  78 111 148 182 215 270 336
#     4   9  17  31  52  76 102 134 177 222 261 314
#     4   9  21  41  59  76 102 143 186 219 268 332
#     4  11  21  34  56  85 114 144 188 236 278 325
#     4  11  23  38  59  84 110 137 179 234 277 318
#     4   9  16  27  46  75 109 142 174 210 264 329
#     4  11  24  41  59  77 108 149 186 224 275 335
#     4   8  15  29  50  77 112 148 179 221 279 336
#
# _framework density 18.322678
#
# number of rings (size 3 to 8) (size 9 to 14) (size 15 to 20)
#    0.000    2.250    1.250    3.750    1.750    3.250 
#    0.000    0.000    0.000    2.250    0.000    3.500 
#    0.000    0.000    0.000    0.000    0.000    0.000 
#
# Total GULP energy -396655.299319 kJ/mol
# GULP energy per Si atom -12395.478104 kJ/mol
# Density = 1.828097 g / cm^3
# Si number density = 18.322678 Si / 1000 Ang^3
#
#
#
# Elastic Constant Matrix: (Units=GPa)
#
#
# Indices 1 2 3 4 5 6 
#
# 1 64.6971 32.5658 24.7577 0.0000 0.0000 0.0000
# 2 32.5658 124.6582 33.5642 0.0000 0.0000 0.0000
# 3 24.7577 33.5642 69.8140 0.0000 0.0000 0.0000
# 4 0.0000 0.0000 0.0000 24.3444 0.0000 0.0000
# 5 0.0000 0.0000 0.0000 0.0000 25.2201 0.0000
# 6 0.0000 0.0000 0.0000 0.0000 0.0000 26.0718
#
#
#
# Elastic Compliance Matrix: (Units=1/GPa)
#
#
# Indices 1 2 3 4 5 6 
#
# 1 0.019237 -0.003663 -0.005061 0.000000 0.000000 0.000000
# 2 -0.003663 0.009912 -0.003467 0.000000 0.000000 0.000000
# 3 -0.005061 -0.003467 0.017785 0.000000 0.000000 0.000000
# 4 0.000000 0.000000 0.000000 0.041077 0.000000 0.000000
# 5 0.000000 0.000000 0.000000 0.000000 0.039651 0.000000
# 6 0.000000 0.000000 0.000000 0.000000 0.000000 0.038356
#
#
# Mechanical properties :
#
#
# Convention : Reuss Voigt Hill
#
# Bulk Modulus (GPa) = 44.33860 48.99386 46.66623
# Shear Modulus (GPa) = 25.26318 26.34604 25.80461
#
# Velocity S-wave (km/s) = 3.71724 3.79607 3.75686
# Velocity P-wave (km/s) = 6.53262 6.78314 6.65906
#
# Compressibility (1/GPa) = 0.02255371
#
# Stress axis : x y z
#
# Youngs Moduli (GPa) = 51.98310 100.88612 56.22693
#
# Poissons Ratio (x) = 0.36953 0.28456
# Poissons Ratio (y) = 0.19041 0.19491
# Poissons Ratio (z) = 0.26308 0.34972
#
# Static dielectric constant tensor:
#      x y z
#    x 3.226390 0.000000 0.000000 
#    y 0.000000 3.737150 0.000000 
#    z 0.000000 0.000000 3.197490 
# 
# 
# High freq. dielectric constant tensor:
#      x y z
#    x 1.701970 0.000000 0.000000 
#    y 0.000000 1.718890 0.000000 
#    z 0.000000 0.000000 1.680850 
# 
# From -- ./inp_files/8634.got.cif
#   From: 2010.03.12/outbox.cif.g09.slc.cpg/sg38_5_cif.got.tgz:8634.got - 2010.04.14 02:38:36.
