data_PCOD8179954
_publ_section_title
;
Structure prediction by ZEFSAII (Michael W. Deem and Ramdas Pophale) SiO2 
 PCOD8179954
Probable space group: A M M 2
;
_chemical_formula_sum "Si O2"
_cell_formula_units_Z 56
_cell_length_a 9.419663
_cell_length_b 23.322263
_cell_length_c 13.775928
_cell_angle_alpha 90.000000
_cell_angle_beta 90.000000
_cell_angle_gamma 90.000000
_cell_volume 3026.404112
_symmetry_space_group_name_H-M "A M M 2"
_symmetry_group_IT_number 38
_symmetry_cell_setting 'orthorhombic'
loop_
_space_group_symop_operation_xyz
x,y,z
-x,-y,z
-x,y,z
x,-y,z
x,1/2+y,1/2+z
-x,1/2-y,1/2+z
-x,1/2+y,1/2+z
x,1/2-y,1/2+z
loop_
_atom_site_type_symbol
_atom_site_label
_atom_site_fract_x
_atom_site_fract_y
_atom_site_fract_z
Si Si1 0.837687 0.063434 0.561940
Si Si2 0.163197 0.935694 0.009404
Si Si3 0.835873 0.174070 0.893611
Si Si4 0.666905 0.768529 0.503606
Si Si5 0.335457 0.384448 0.897210
Si Si6 0.335918 0.566120 0.695832
Si Si7 0.165451 0.824299 0.671026
O O1 0.746475 0.071517 0.465452
O O2 0.798163 0.109922 0.643699
O O3 0.000000 0.070690 0.529930
O O4 0.808536 0.000000 0.604972
O O5 0.249334 0.913395 0.102382
O O6 0.000000 0.935742 0.040777
O O7 0.211633 0.000000 0.978290
O O8 0.189576 0.892710 0.919876
O O9 0.792022 0.184088 0.782529
O O10 0.000000 0.191191 0.910880
O O11 0.735166 0.211332 0.961579
O O12 0.500000 0.759414 0.520403
O O13 0.698811 0.819295 0.427255
O O14 0.739162 0.781762 0.607037
O O15 0.500000 0.399126 0.909629
O O16 0.287486 0.394611 0.786390
O O17 0.500000 0.575758 0.671556
O O18 0.303723 0.500000 0.721224
O O19 0.000000 0.810529 0.652871
#
# Coordination Sequence:
#
# PCOD8179954 Si02
#       7
#     8   8   8   8   8   8   8
#     4   9  17  29  48  76 106 135 169 209 253 300
#     4   9  19  35  53  75 102 130 165 209 253 300
#     4  10  21  37  57  78 101 134 171 207 254 307
#     4  10  21  36  54  77 105 135 171 215 257 301
#     4   9  18  32  49  71 101 137 173 208 251 301
#     4   9  17  30  49  73 102 136 171 207 250 299
#     4   9  19  36  55  76 105 137 170 210 254 304
#
# _framework density 18.503806999999998
#
# number of rings (size 3 to 8) (size 9 to 14) (size 15 to 20)
#    0.000    2.714    0.000    0.857    0.000    4.857 
#    0.000    7.143    0.000    0.000    0.000    4.000 
#    0.000    0.000    0.000    0.000    0.000    0.000 
#
# Total GULP energy -347214.033748 kJ/mol
# GULP energy per Si atom -12400.501205 kJ/mol
# Density = 1.846169 g / cm^3
# Si number density = 18.503807 Si / 1000 Ang^3
#
#
#
# Elastic Constant Matrix: (Units=GPa)
#
#
# Indices 1 2 3 4 5 6 
#
# 1 66.9073 43.3020 55.5639 0.0000 0.0000 0.0000
# 2 43.3020 90.6129 55.6101 0.0000 0.0000 0.0000
# 3 55.5639 55.6101 125.3335 0.0000 0.0000 0.0000
# 4 0.0000 0.0000 0.0000 24.2018 0.0000 0.0000
# 5 0.0000 0.0000 0.0000 0.0000 24.1277 0.0000
# 6 0.0000 0.0000 0.0000 0.0000 0.0000 23.9426
#
#
#
# Elastic Compliance Matrix: (Units=1/GPa)
#
#
# Indices 1 2 3 4 5 6 
#
# 1 0.027027 -0.007644 -0.008590 0.000000 0.000000 0.000000
# 2 -0.007644 0.017327 -0.004299 0.000000 0.000000 0.000000
# 3 -0.008590 -0.004299 0.013695 0.000000 0.000000 0.000000
# 4 0.000000 0.000000 0.000000 0.041319 0.000000 0.000000
# 5 0.000000 0.000000 0.000000 0.000000 0.041446 0.000000
# 6 0.000000 0.000000 0.000000 0.000000 0.000000 0.041767
#
#
# Mechanical properties :
#
#
# Convention : Reuss Voigt Hill
#
# Bulk Modulus (GPa) = 58.88549 65.75619 62.32084
# Shear Modulus (GPa) = 21.80471 23.01293 22.40882
#
# Velocity S-wave (km/s) = 3.43649 3.53042 3.48377
# Velocity P-wave (km/s) = 6.90207 7.22718 7.06650
#
# Compressibility (1/GPa) = 0.01698211
#
# Stress axis : x y z
#
# Youngs Moduli (GPa) = 37.00016 57.71250 73.02087
#
# Poissons Ratio (x) = 0.44113 0.62728
# Poissons Ratio (y) = 0.28281 0.31395
# Poissons Ratio (z) = 0.31784 0.24813
#
# Static dielectric constant tensor:
#      x y z
#    x 3.378460 0.000000 0.000000 
#    y 0.000000 3.434080 0.000000 
#    z 0.000000 0.000000 3.339790 
# 
# 
# High freq. dielectric constant tensor:
#      x y z
#    x 1.714200 0.000000 0.000000 
#    y 0.000000 1.717440 0.000000 
#    z 0.000000 0.000000 1.709350 
# 
# From -- ./inp_files/12361.got.cif
#   From: 2010.03.12/outbox.cif.g09.slc.cpg/sg38_7_cif.got.tgz:12361.got - 2010.04.14 02:38:36.
