data_PCOD8179089
_publ_section_title
;
Structure prediction by ZEFSAII (Michael W. Deem and Ramdas Pophale) SiO2 
 PCOD8179089
Probable space group: A M M 2
;
_chemical_formula_sum "Si O2"
_cell_formula_units_Z 40
_cell_length_a 8.537042
_cell_length_b 13.611528
_cell_length_c 18.373875
_cell_angle_alpha 90.000000
_cell_angle_beta 90.000000
_cell_angle_gamma 90.000000
_cell_volume 2135.084444
_symmetry_space_group_name_H-M "A M M 2"
_symmetry_group_IT_number 38
_symmetry_cell_setting 'orthorhombic'
loop_
_space_group_symop_operation_xyz
x,y,z
-x,-y,z
-x,y,z
x,-y,z
x,1/2+y,1/2+z
-x,1/2-y,1/2+z
-x,1/2+y,1/2+z
x,1/2-y,1/2+z
loop_
_atom_site_type_symbol
_atom_site_label
_atom_site_fract_x
_atom_site_fract_y
_atom_site_fract_z
Si Si1 0.318087 0.112755 0.519770
Si Si2 0.182599 0.199760 0.662887
Si Si3 0.814778 0.107686 0.239945
Si Si4 0.183369 0.716072 0.882451
Si Si5 0.319668 0.111575 0.804357
O O1 0.500000 0.120960 0.500698
O O2 0.287678 0.160203 0.597878
O O3 0.219296 0.171376 0.460570
O O4 0.262068 0.000000 0.520836
O O5 0.234099 0.312788 0.678876
O O6 0.213279 0.135455 0.734544
O O7 0.000000 0.192064 0.642380
O O8 0.755623 0.142213 0.319478
O O9 0.000000 0.100201 0.242414
O O10 0.742122 0.000000 0.222198
O O11 0.270978 0.820131 0.872378
O O12 0.000000 0.735582 0.874976
O O13 0.500000 0.129431 0.783330
O O14 0.289656 0.000000 0.828682
#
# Coordination Sequence:
#
# PCOD8179089 Si02
#       5
#     8   8   8   8   8
#     4  11  23  37  53  75 106 142 176 216 270 324
#     4  10  20  33  53  80 106 137 179 223 264 310
#     4   8  15  30  52  77 103 130 164 209 259 308
#     4  10  20  34  55  81 106 135 174 220 266 314
#     4  10  20  35  55  78 107 142 176 215 265 317
#
# _framework density 18.734622000000002
#
# number of rings (size 3 to 8) (size 9 to 14) (size 15 to 20)
#    0.000    2.200    0.000    4.800    0.000    6.400 
#    0.000    1.000    0.000   15.600    0.000    0.000 
#    0.000    0.000    0.000    0.000    0.000    0.000 
#
# Total GULP energy -248011.690078 kJ/mol
# GULP energy per Si atom -12400.584504 kJ/mol
# Density = 1.869198 g / cm^3
# Si number density = 18.734622 Si / 1000 Ang^3
#
#
#
# Elastic Constant Matrix: (Units=GPa)
#
#
# Indices 1 2 3 4 5 6 
#
# 1 46.0760 32.9135 6.9128 0.0000 0.0000 0.0000
# 2 32.9135 164.2119 51.8908 0.0000 0.0000 0.0000
# 3 6.9128 51.8908 82.5969 0.0000 0.0000 0.0000
# 4 0.0000 0.0000 0.0000 24.2183 0.0000 0.0000
# 5 0.0000 0.0000 0.0000 0.0000 29.7482 0.0000
# 6 0.0000 0.0000 0.0000 0.0000 0.0000 25.7934
#
#
#
# Elastic Compliance Matrix: (Units=1/GPa)
#
#
# Indices 1 2 3 4 5 6 
#
# 1 0.025448 -0.005524 0.001341 0.000000 0.000000 0.000000
# 2 -0.005524 0.008797 -0.005065 0.000000 0.000000 0.000000
# 3 0.001341 -0.005065 0.015177 0.000000 0.000000 0.000000
# 4 0.000000 0.000000 0.000000 0.041291 0.000000 0.000000
# 5 0.000000 0.000000 0.000000 0.000000 0.033615 0.000000
# 6 0.000000 0.000000 0.000000 0.000000 0.000000 0.038770
#
#
# Mechanical properties :
#
#
# Convention : Reuss Voigt Hill
#
# Bulk Modulus (GPa) = 32.33523 52.92433 42.62978
# Shear Modulus (GPa) = 26.05479 29.36315 27.70897
#
# Velocity S-wave (km/s) = 3.73329 3.96323 3.84998
# Velocity P-wave (km/s) = 5.99002 7.01810 6.52435
#
# Compressibility (1/GPa) = 0.03092602
#
# Stress axis : x y z
#
# Youngs Moduli (GPa) = 39.29528 113.67065 65.89132
#
# Poissons Ratio (x) = 0.62796 -0.08835
# Poissons Ratio (y) = 0.21708 0.33371
# Poissons Ratio (z) = -0.05269 0.57569
#
# Static dielectric constant tensor:
#      x y z
#    x 3.311280 0.000000 0.000000 
#    y 0.000000 3.891940 0.000000 
#    z 0.000000 0.000000 3.220900 
# 
# 
# High freq. dielectric constant tensor:
#      x y z
#    x 1.721620 0.000000 0.000000 
#    y 0.000000 1.738060 0.000000 
#    z 0.000000 0.000000 1.709180 
# 
# From -- ./inp_files/16318.got.cif
#   From: 2010.03.12/outbox.cif.g09.slc.cpg/sg38_9_cif.got.tgz:16318.got - 2010.04.14 02:38:36.
