data_PCOD8179465
_publ_section_title
;
Structure prediction by ZEFSAII (Michael W. Deem and Ramdas Pophale) SiO2 
 PCOD8179465
Probable space group: A M M 2
;
_chemical_formula_sum "Si O2"
_cell_formula_units_Z 56
_cell_length_a 17.684273
_cell_length_b 18.373329
_cell_length_c 9.563899
_cell_angle_alpha 90.000000
_cell_angle_beta 90.000000
_cell_angle_gamma 90.000000
_cell_volume 3107.492174
_symmetry_space_group_name_H-M "A M M 2"
_symmetry_group_IT_number 38
_symmetry_cell_setting 'orthorhombic'
loop_
_space_group_symop_operation_xyz
x,y,z
-x,-y,z
-x,y,z
x,-y,z
x,1/2+y,1/2+z
-x,1/2-y,1/2+z
-x,1/2+y,1/2+z
x,1/2-y,1/2+z
loop_
_atom_site_type_symbol
_atom_site_label
_atom_site_fract_x
_atom_site_fract_y
_atom_site_fract_z
Si Si1 0.587459 0.083340 0.158590
Si Si2 0.843136 0.582187 0.533142
Si Si3 0.174732 0.224071 0.169282
Si Si4 0.913781 0.211077 0.912961
Si Si5 0.413050 0.692905 0.893085
Si Si6 0.335773 0.796625 0.689712
Si Si7 0.681542 0.418995 0.400415
O O1 0.500000 0.093993 0.120620
O O2 0.606814 0.120037 0.306657
O O3 0.611405 0.000000 0.176492
O O4 0.634490 0.117990 0.028923
O O5 0.868678 0.500000 0.576665
O O6 0.828352 0.634443 0.669918
O O7 0.905487 0.622877 0.434775
O O8 0.768298 0.578313 0.441258
O O9 0.110812 0.260048 0.263845
O O10 0.258301 0.251615 0.201711
O O11 0.146191 0.250328 0.016777
O O12 0.000000 0.233834 0.941050
O O13 0.500000 0.694616 0.941482
O O14 0.398694 0.758301 0.785100
O O15 0.360651 0.697040 0.029302
O O16 0.325968 0.876349 0.755145
O O17 0.649423 0.500000 0.373214
#
# Coordination Sequence:
#
# PCOD8179465 Si02
#       7
#     8   8   8   8   8   8   8
#     4   9  19  36  55  77 107 144 185 230 284 337
#     4   9  19  35  57  84 112 144 186 227 274 336
#     4  10  20  35  57  84 109 149 186 227 276 336
#     4  10  20  35  57  86 115 143 183 231 279 334
#     4  11  23  34  53  79 110 145 184 234 282 329
#     4  12  21  37  55  79 111 146 189 232 278 338
#     4  10  20  36  57  80 108 144 186 234 281 336
#
# _framework density 18.020963999999999
#
# number of rings (size 3 to 8) (size 9 to 14) (size 15 to 20)
#    0.857    1.000    1.429    4.286    0.000    3.143 
#    0.000    0.000    0.000    3.429    0.000    0.000 
#    0.000    0.000    0.000    0.000    0.000    0.000 
#
# Total GULP energy -346925.880639 kJ/mol
# GULP energy per Si atom -12390.210023 kJ/mol
# Density = 1.797995 g / cm^3
# Si number density = 18.020964 Si / 1000 Ang^3
#
#
#
# Elastic Constant Matrix: (Units=GPa)
#
#
# Indices 1 2 3 4 5 6 
#
# 1 57.4609 20.7426 28.2729 0.0000 0.0000 0.0000
# 2 20.7426 101.1981 42.6653 0.0000 0.0000 0.0000
# 3 28.2729 42.6653 89.3854 0.0000 0.0000 0.0000
# 4 0.0000 0.0000 0.0000 32.7100 0.0000 0.0000
# 5 0.0000 0.0000 0.0000 0.0000 23.5793 0.0000
# 6 0.0000 0.0000 0.0000 0.0000 0.0000 18.4948
#
#
#
# Elastic Compliance Matrix: (Units=1/GPa)
#
#
# Indices 1 2 3 4 5 6 
#
# 1 0.020891 -0.001873 -0.005714 0.000000 0.000000 0.000000
# 2 -0.001873 0.012539 -0.005393 0.000000 0.000000 0.000000
# 3 -0.005714 -0.005393 0.015569 0.000000 0.000000 0.000000
# 4 0.000000 0.000000 0.000000 0.030572 0.000000 0.000000
# 5 0.000000 0.000000 0.000000 0.000000 0.042410 0.000000
# 6 0.000000 0.000000 0.000000 0.000000 0.000000 0.054069
#
#
# Mechanical properties :
#
#
# Convention : Reuss Voigt Hill
#
# Bulk Modulus (GPa) = 43.40352 47.93400 45.66876
# Shear Modulus (GPa) = 23.84491 25.38107 24.61299
#
# Velocity S-wave (km/s) = 3.64149 3.75696 3.69968
# Velocity P-wave (km/s) = 6.46668 6.74362 6.60660
#
# Compressibility (1/GPa) = 0.02303961
#
# Stress axis : x y z
#
# Youngs Moduli (GPa) = 47.86829 79.75061 64.23095
#
# Poissons Ratio (x) = 0.14938 0.36700
# Poissons Ratio (y) = 0.08966 0.34638
# Poissons Ratio (z) = 0.27351 0.43007
#
# Static dielectric constant tensor:
#      x y z
#    x 3.220480 0.000000 0.000000 
#    y 0.000000 3.549970 0.000000 
#    z 0.000000 0.000000 3.220030 
# 
# 
# High freq. dielectric constant tensor:
#      x y z
#    x 1.698970 0.000000 0.000000 
#    y 0.000000 1.692010 0.000000 
#    z 0.000000 0.000000 1.685360 
# 
# From -- ./inp_files/6443.got.cif
#   From: 2010.03.12/outbox.cif.g09.slc.cpg/sg38_4_cif.got.tgz:6443.got - 2010.04.14 02:38:36.
