data_PCOD8179216
_publ_section_title
;
Structure prediction by ZEFSAII (Michael W. Deem and Ramdas Pophale) SiO2 
 PCOD8179216
Probable space group: A M M 2
;
_chemical_formula_sum "Si O2"
_cell_formula_units_Z 64
_cell_length_a 18.406651
_cell_length_b 9.129714
_cell_length_c 20.856179
_cell_angle_alpha 90.000000
_cell_angle_beta 90.000000
_cell_angle_gamma 90.000000
_cell_volume 3504.827892
_symmetry_space_group_name_H-M "A M M 2"
_symmetry_group_IT_number 38
_symmetry_cell_setting 'orthorhombic'
loop_
_space_group_symop_operation_xyz
x,y,z
-x,-y,z
-x,y,z
x,-y,z
x,1/2+y,1/2+z
-x,1/2-y,1/2+z
-x,1/2+y,1/2+z
x,1/2-y,1/2+z
loop_
_atom_site_type_symbol
_atom_site_label
_atom_site_fract_x
_atom_site_fract_y
_atom_site_fract_z
Si Si1 0.085747 0.159286 0.516120
Si Si2 0.586308 0.337311 0.500813
Si Si3 0.918591 0.675103 0.152583
Si Si4 0.342178 0.171748 0.760306
Si Si5 0.416200 0.172364 0.144033
Si Si6 0.917604 0.675038 0.877829
Si Si7 0.586370 0.834367 0.378017
Si Si8 0.826368 0.171359 0.771210
O O1 0.107840 0.240358 0.582966
O O2 0.104407 0.238795 0.448731
O O3 0.000000 0.136550 0.518864
O O4 0.123815 0.000000 0.514856
O O5 0.500000 0.343532 0.499037
O O6 0.617421 0.500000 0.487465
O O7 0.609655 0.284132 0.571964
O O8 0.616272 0.229993 0.445491
O O9 0.917851 0.500000 0.147770
O O10 0.863558 0.731919 0.206457
O O11 0.000000 0.729887 0.169742
O O12 0.367403 0.238219 0.693150
O O13 0.385460 0.240582 0.818994
O O14 0.257960 0.208215 0.768592
O O15 0.357772 0.000000 0.759521
O O16 0.500000 0.215896 0.154798
O O17 0.405723 0.000000 0.155558
O O18 0.911890 0.500000 0.877405
O O19 0.860309 0.743532 0.830196
O O20 0.000000 0.722871 0.859992
O O21 0.500000 0.828661 0.376615
O O22 0.614971 0.000000 0.371815
O O23 0.841764 0.000000 0.779968
#
# Coordination Sequence:
#
# PCOD8179216 Si02
#       8
#     8   8   8   8   8   8   8   8
#     4   7  11  22  43  71  96 116 147 193 238 280
#     4   8  15  30  53  79 104 128 156 196 249 305
#     4   8  13  25  48  72  91 117 155 196 236 278
#     4  11  23  35  47  68 102 140 174 211 253 295
#     4   9  18  34  56  79 101 128 164 204 248 303
#     4   9  17  30  50  75  99 124 158 200 245 294
#     4  10  20  34  54  78 100 125 164 212 256 302
#     4  10  21  34  47  68  99 132 166 203 241 286
#
# _framework density 18.260525999999999
#
# number of rings (size 3 to 8) (size 9 to 14) (size 15 to 20)
#    0.000    3.000    0.000    3.750    0.000    4.750 
#    0.000    2.500    0.000    2.250    0.000    1.750 
#    0.000    0.000    0.000    0.000    0.000    0.000 
#
# Total GULP energy -396519.073275 kJ/mol
# GULP energy per Si atom -12391.221040 kJ/mol
# Density = 1.821896 g / cm^3
# Si number density = 18.260526 Si / 1000 Ang^3
#
#
#
# Elastic Constant Matrix: (Units=GPa)
#
#
# Indices 1 2 3 4 5 6 
#
# 1 35.1400 22.8849 30.4961 0.0000 0.0000 0.0000
# 2 22.8849 51.2424 43.4236 0.0000 0.0000 0.0000
# 3 30.4961 43.4236 154.8257 0.0000 0.0000 0.0000
# 4 0.0000 0.0000 0.0000 25.1539 0.0000 0.0000
# 5 0.0000 0.0000 0.0000 0.0000 4.5507 0.0000
# 6 0.0000 0.0000 0.0000 0.0000 0.0000 13.9989
#
#
#
# Elastic Compliance Matrix: (Units=1/GPa)
#
#
# Indices 1 2 3 4 5 6 
#
# 1 0.041885 -0.015367 -0.003940 0.000000 0.000000 0.000000
# 2 -0.015367 0.031237 -0.005734 0.000000 0.000000 0.000000
# 3 -0.003940 -0.005734 0.008843 0.000000 0.000000 0.000000
# 4 0.000000 0.000000 0.000000 0.039755 0.000000 0.000000
# 5 0.000000 0.000000 0.000000 0.000000 0.219745 0.000000
# 6 0.000000 0.000000 0.000000 0.000000 0.000000 0.071434
#
#
# Mechanical properties :
#
#
# Convention : Reuss Voigt Hill
#
# Bulk Modulus (GPa) = 31.36493 48.31304 39.83899
# Shear Modulus (GPa) = 10.55722 18.36761 14.46241
#
# Velocity S-wave (km/s) = 2.40707 3.17498 2.81731
# Velocity P-wave (km/s) = 4.99389 6.32105 5.69626
#
# Compressibility (1/GPa) = 0.03188274
#
# Stress axis : x y z
#
# Youngs Moduli (GPa) = 23.87509 32.01308 113.08075
#
# Poissons Ratio (x) = 0.49194 0.44556
# Poissons Ratio (y) = 0.36688 0.64843
# Poissons Ratio (z) = 0.09407 0.18357
#
# Static dielectric constant tensor:
#      x y z
#    x 2.934530 0.000000 0.000000 
#    y 0.000000 3.138400 0.000000 
#    z 0.000000 0.000000 3.891960 
# 
# 
# High freq. dielectric constant tensor:
#      x y z
#    x 1.672700 0.000000 0.000000 
#    y 0.000000 1.676980 0.000000 
#    z 0.000000 0.000000 1.734600 
# 
# From -- ./inp_files/21396.got.cif
#   From: 2010.03.12/outbox.cif.g09.slc.cpg/sg38_11_cif.got.tgz:21396.got - 2010.04.14 02:38:36.
