data_PCOD8179617
_publ_section_title
;
Structure prediction by ZEFSAII (Michael W. Deem and Ramdas Pophale) SiO2 
 PCOD8179617
Probable space group: A M M 2
;
_chemical_formula_sum "Si O2"
_cell_formula_units_Z 48
_cell_length_a 8.994936
_cell_length_b 28.096516
_cell_length_c 10.041819
_cell_angle_alpha 90.000000
_cell_angle_beta 90.000000
_cell_angle_gamma 90.000000
_cell_volume 2537.832396
_symmetry_space_group_name_H-M "A M M 2"
_symmetry_group_IT_number 38
_symmetry_cell_setting 'orthorhombic'
loop_
_space_group_symop_operation_xyz
x,y,z
-x,-y,z
-x,y,z
x,-y,z
x,1/2+y,1/2+z
-x,1/2-y,1/2+z
-x,1/2+y,1/2+z
x,1/2-y,1/2+z
loop_
_atom_site_type_symbol
_atom_site_label
_atom_site_fract_x
_atom_site_fract_y
_atom_site_fract_z
Si Si1 0.826301 0.553403 0.130230
Si Si2 0.325998 0.302142 0.456787
Si Si3 0.826781 0.646172 0.691186
Si Si4 0.172836 0.201627 0.458105
Si Si5 0.823710 0.448149 0.828191
Si Si6 0.325977 0.144581 0.687586
O O1 0.796140 0.500000 0.184373
O O2 0.734665 0.591405 0.217806
O O3 0.000000 0.565665 0.139684
O O4 0.766740 0.557721 0.978946
O O5 0.500000 0.294110 0.476766
O O6 0.269057 0.339725 0.564395
O O7 0.245134 0.252585 0.479191
O O8 0.287226 0.321867 0.311549
O O9 0.800454 0.684253 0.808057
O O10 0.764262 0.594432 0.735878
O O11 0.000000 0.643805 0.652303
O O12 0.244486 0.163953 0.557504
O O13 0.000000 0.205406 0.492398
O O14 0.772715 0.500000 0.771949
O O15 0.000000 0.445279 0.833816
O O16 0.500000 0.142753 0.660593
#
# Coordination Sequence:
#
# PCOD8179617 Si02
#       6
#     8   8   8   8   8   8
#     4   9  17  33  59  87 113 143 185 236 280 323
#     4  11  25  40  53  77 115 155 188 226 278 334
#     4  10  20  36  59  86 111 143 184 229 281 331
#     4  11  22  38  61  86 108 140 190 240 281 328
#     4   8  14  29  55  85 112 136 172 226 278 322
#     4  11  23  38  57  83 117 154 187 225 278 337
#
# _framework density 18.913778000000001
#
# number of rings (size 3 to 8) (size 9 to 14) (size 15 to 20)
#    0.000    2.000    1.667    3.500    0.000    7.000 
#    0.000    0.833    0.000    3.500    0.000    0.000 
#    0.000    0.000    0.000    0.000    0.000    0.000 
#
# Total GULP energy -297614.927146 kJ/mol
# GULP energy per Si atom -12400.621964 kJ/mol
# Density = 1.887073 g / cm^3
# Si number density = 18.913778 Si / 1000 Ang^3
#
#
#
# Elastic Constant Matrix: (Units=GPa)
#
#
# Indices 1 2 3 4 5 6 
#
# 1 73.1292 38.6513 37.8478 0.0000 0.0000 0.0000
# 2 38.6513 123.7968 14.2988 0.0000 0.0000 0.0000
# 3 37.8478 14.2988 44.9539 0.0000 0.0000 0.0000
# 4 0.0000 0.0000 0.0000 17.1731 0.0000 0.0000
# 5 0.0000 0.0000 0.0000 0.0000 29.2946 0.0000
# 6 0.0000 0.0000 0.0000 0.0000 0.0000 17.5443
#
#
#
# Elastic Compliance Matrix: (Units=1/GPa)
#
#
# Indices 1 2 3 4 5 6 
#
# 1 0.028309 -0.006318 -0.021824 0.000000 0.000000 0.000000
# 2 -0.006318 0.009796 0.002203 0.000000 0.000000 0.000000
# 3 -0.021824 0.002203 0.039919 0.000000 0.000000 0.000000
# 4 0.000000 0.000000 0.000000 0.058231 0.000000 0.000000
# 5 0.000000 0.000000 0.000000 0.000000 0.034136 0.000000
# 6 0.000000 0.000000 0.000000 0.000000 0.000000 0.056999
#
#
# Mechanical properties :
#
#
# Convention : Reuss Voigt Hill
#
# Bulk Modulus (GPa) = 38.24740 47.05286 42.65013
# Shear Modulus (GPa) = 17.36226 22.87451 20.11839
#
# Velocity S-wave (km/s) = 3.03309 3.48143 3.26496
# Velocity P-wave (km/s) = 5.70369 6.41031 6.06729
#
# Compressibility (1/GPa) = 0.02614557
#
# Stress axis : x y z
#
# Youngs Moduli (GPa) = 35.32497 102.08507 25.05098
#
# Poissons Ratio (x) = 0.64494 0.54672
# Poissons Ratio (y) = 0.22317 -0.05519
# Poissons Ratio (z) = 0.77094 -0.22491
#
# Static dielectric constant tensor:
#      x y z
#    x 3.284490 0.000000 0.000000 
#    y 0.000000 3.836150 0.000000 
#    z 0.000000 0.000000 3.292920 
# 
# 
# High freq. dielectric constant tensor:
#      x y z
#    x 1.719700 0.000000 0.000000 
#    y 0.000000 1.756240 0.000000 
#    z 0.000000 0.000000 1.714970 
# 
# From -- ./inp_files/3775.got.cif
#   From: 2010.03.12/outbox.cif.g09.slc.cpg/sg38_2_cif.got.tgz:3775.got - 2010.04.14 02:38:36.
