data_PCOD8179935
_publ_section_title
;
Structure prediction by ZEFSAII (Michael W. Deem and Ramdas Pophale) SiO2 
 PCOD8179935
Probable space group: A M M 2
;
_chemical_formula_sum "Si O2"
_cell_formula_units_Z 64
_cell_length_a 20.657270
_cell_length_b 18.623359
_cell_length_c 8.774614
_cell_angle_alpha 90.000000
_cell_angle_beta 90.000000
_cell_angle_gamma 90.000000
_cell_volume 3375.662054
_symmetry_space_group_name_H-M "A M M 2"
_symmetry_group_IT_number 38
_symmetry_cell_setting 'orthorhombic'
loop_
_space_group_symop_operation_xyz
x,y,z
-x,-y,z
-x,y,z
x,-y,z
x,1/2+y,1/2+z
-x,1/2-y,1/2+z
-x,1/2+y,1/2+z
x,1/2-y,1/2+z
loop_
_atom_site_type_symbol
_atom_site_label
_atom_site_fract_x
_atom_site_fract_y
_atom_site_fract_z
Si Si1 0.929909 0.164551 0.122610
Si Si2 0.801915 0.164227 0.990668
Si Si3 0.070187 0.319569 0.978310
Si Si4 0.803005 0.679050 0.132867
Si Si5 0.427782 0.332910 0.005522
Si Si6 0.695275 0.082249 0.485606
Si Si7 0.313758 0.916926 0.131494
Si Si8 0.572311 0.314540 0.650293
O O1 0.867839 0.123887 0.050537
O O2 0.933478 0.237996 0.030204
O O3 0.915848 0.179027 0.299111
O O4 0.000000 0.124534 0.102301
O O5 0.792268 0.239615 0.077462
O O6 0.743020 0.111299 0.023794
O O7 0.806659 0.179644 0.813328
O O8 0.130285 0.356047 0.066508
O O9 0.000000 0.356657 0.014328
O O10 0.744276 0.630481 0.079219
O O11 0.500000 0.356960 0.057569
O O12 0.377920 0.397592 0.034946
O O13 0.403449 0.263241 0.096442
O O14 0.427996 0.311572 0.830514
O O15 0.705914 0.096155 0.306560
O O16 0.707143 0.000000 0.529199
O O17 0.379661 0.875574 0.088235
O O18 0.326363 0.000000 0.097171
O O19 0.500000 0.330693 0.586690
#
# Coordination Sequence:
#
# PCOD8179935 Si02
#       8
#     8   8   8   8   8   8   8   8
#     4   9  16  27  46  73 103 132 165 208 257 306
#     4  11  21  33  52  76 104 137 174 215 257 305
#     4   9  16  27  46  73 103 132 165 208 257 306
#     4  11  21  33  52  76 104 137 174 215 257 305
#     4   9  18  33  54  79 104 132 168 209 254 304
#     4  10  21  36  53  74 103 138 174 214 259 306
#     4  10  21  36  53  74 103 138 174 214 259 306
#     4   9  18  33  54  79 104 132 168 209 254 304
#
# _framework density 18.959244999999999
#
# number of rings (size 3 to 8) (size 9 to 14) (size 15 to 20)
#    0.000    2.250    0.000    5.250    0.000    5.500 
#    0.000    2.500    0.000    0.750    0.000   10.500 
#    0.000    0.000    0.000    0.000    0.000    0.000 
#
# Total GULP energy -396626.259122 kJ/mol
# GULP energy per Si atom -12394.570598 kJ/mol
# Density = 1.891609 g / cm^3
# Si number density = 18.959245 Si / 1000 Ang^3
#
#
#
# Elastic Constant Matrix: (Units=GPa)
#
#
# Indices 1 2 3 4 5 6 
#
# 1 107.7240 17.3194 23.7579 0.0000 0.0000 0.0000
# 2 17.3194 33.6855 3.0802 0.0000 0.0000 0.0000
# 3 23.7579 3.0802 64.7834 0.0000 0.0000 0.0000
# 4 0.0000 0.0000 0.0000 19.2384 0.0000 0.0000
# 5 0.0000 0.0000 0.0000 0.0000 27.7757 0.0000
# 6 0.0000 0.0000 0.0000 0.0000 0.0000 1.6255
#
#
#
# Elastic Compliance Matrix: (Units=1/GPa)
#
#
# Indices 1 2 3 4 5 6 
#
# 1 0.010965 -0.005293 -0.003770 0.000000 0.000000 0.000000
# 2 -0.005293 0.032371 0.000402 0.000000 0.000000 0.000000
# 3 -0.003770 0.000402 0.016799 0.000000 0.000000 0.000000
# 4 0.000000 0.000000 0.000000 0.051979 0.000000 0.000000
# 5 0.000000 0.000000 0.000000 0.000000 0.036003 0.000000
# 6 0.000000 0.000000 0.000000 0.000000 0.000000 0.615208
#
#
# Mechanical properties :
#
#
# Convention : Reuss Voigt Hill
#
# Bulk Modulus (GPa) = 23.35669 32.72311 28.03990
# Shear Modulus (GPa) = 6.28995 20.53028 13.41011
#
# Velocity S-wave (km/s) = 1.82341 3.29426 2.66242
# Velocity P-wave (km/s) = 4.09625 5.63620 4.92676
#
# Compressibility (1/GPa) = 0.04281429
#
# Stress axis : x y z
#
# Youngs Moduli (GPa) = 91.19628 30.89175 59.52602
#
# Poissons Ratio (x) = 0.16351 0.22439
# Poissons Ratio (y) = 0.48272 -0.02393
# Poissons Ratio (z) = 0.34378 -0.01242
#
# Static dielectric constant tensor:
#      x y z
#    x 4.352910 0.000000 0.000000 
#    y 0.000000 3.058470 0.000000 
#    z 0.000000 0.000000 3.470750 
# 
# 
# High freq. dielectric constant tensor:
#      x y z
#    x 1.764180 0.000000 0.000000 
#    y 0.000000 1.687030 0.000000 
#    z 0.000000 0.000000 1.738530 
# 
# From -- ./inp_files/6875.got.cif
#   From: 2010.03.12/outbox.cif.g09.slc.cpg/sg38_4_cif.got.tgz:6875.got - 2010.04.14 02:38:36.
