data_PCOD8179675
_publ_section_title
;
Structure prediction by ZEFSAII (Michael W. Deem and Ramdas Pophale) SiO2 
 PCOD8179675
Probable space group: A M M 2
;
_chemical_formula_sum "Si O2"
_cell_formula_units_Z 64
_cell_length_a 8.610048
_cell_length_b 30.895591
_cell_length_c 11.952674
_cell_angle_alpha 90.000000
_cell_angle_beta 90.000000
_cell_angle_gamma 90.000000
_cell_volume 3179.560949
_symmetry_space_group_name_H-M "A M M 2"
_symmetry_group_IT_number 38
_symmetry_cell_setting 'orthorhombic'
loop_
_space_group_symop_operation_xyz
x,y,z
-x,-y,z
-x,y,z
x,-y,z
x,1/2+y,1/2+z
-x,1/2-y,1/2+z
-x,1/2+y,1/2+z
x,1/2-y,1/2+z
loop_
_atom_site_type_symbol
_atom_site_label
_atom_site_fract_x
_atom_site_fract_y
_atom_site_fract_z
Si Si1 0.182172 0.932660 0.940840
Si Si2 0.682806 0.374008 0.054675
Si Si3 0.678733 0.047734 0.709388
Si Si4 0.184112 0.834540 0.929237
Si Si5 0.678034 0.048191 0.170320
Si Si6 0.182166 0.623770 0.811493
Si Si7 0.815191 0.201242 0.697573
Si Si8 0.184907 0.202360 0.158554
O O1 0.222784 0.953897 0.822790
O O2 0.238895 0.883455 0.937845
O O3 0.000000 0.937371 0.963739
O O4 0.273831 0.955384 0.040733
O O5 0.500000 0.370325 0.064499
O O6 0.744087 0.415371 0.125838
O O7 0.756992 0.329528 0.098419
O O8 0.728111 0.381303 0.926957
O O9 0.500000 0.057478 0.738939
O O10 0.695703 0.000000 0.653005
O O11 0.253609 0.814872 0.815532
O O12 0.000000 0.830924 0.925657
O O13 0.251388 0.809400 0.036275
O O14 0.500000 0.063363 0.180556
O O15 0.786283 0.082008 0.235023
O O16 0.698693 0.000000 0.222044
O O17 0.242856 0.667240 0.749350
O O18 0.000000 0.626798 0.835432
O O19 0.751206 0.249931 0.684773
O O20 0.000000 0.200624 0.694722
O O21 0.000000 0.201380 0.156651
#
# Coordination Sequence:
#
# PCOD8179675 Si02
#       8
#     8   8   8   8   8   8   8   8
#     4  11  20  35  60  91 124 152 191 248 299 344
#     4  11  24  41  59  84 121 159 197 246 304 363
#     4  10  22  40  60  82 113 156 200 240 294 363
#     4   9  17  32  56  89 121 148 188 243 295 341
#     4  11  24  41  61  87 122 162 199 238 296 365
#     4  11  23  41  64  89 117 154 204 256 300 351
#     4  10  20  36  63  90 116 154 200 244 292 352
#     4   9  19  35  60  91 118 150 194 245 297 350
#
# _framework density 20.128564999999998
#
# number of rings (size 3 to 8) (size 9 to 14) (size 15 to 20)
#    0.000    1.750    2.500    1.875    1.750    3.750 
#    0.000    2.500    0.000    0.000    0.000    0.000 
#    0.000    0.000    0.000    0.000    0.000    0.000 
#
# Total GULP energy -396831.668932 kJ/mol
# GULP energy per Si atom -12400.989654 kJ/mol
# Density = 2.008275 g / cm^3
# Si number density = 20.128565 Si / 1000 Ang^3
#
#
#
# Elastic Constant Matrix: (Units=GPa)
#
#
# Indices 1 2 3 4 5 6 
#
# 1 32.1129 22.8610 6.2259 0.0000 0.0000 0.0000
# 2 22.8610 147.7361 44.7786 0.0000 0.0000 0.0000
# 3 6.2259 44.7786 111.6607 0.0000 0.0000 0.0000
# 4 0.0000 0.0000 0.0000 22.0543 0.0000 0.0000
# 5 0.0000 0.0000 0.0000 0.0000 28.1190 0.0000
# 6 0.0000 0.0000 0.0000 0.0000 0.0000 19.8099
#
#
#
# Elastic Compliance Matrix: (Units=1/GPa)
#
#
# Indices 1 2 3 4 5 6 
#
# 1 0.035001 -0.005492 0.000251 0.000000 0.000000 0.000000
# 2 -0.005492 0.008567 -0.003129 0.000000 0.000000 0.000000
# 3 0.000251 -0.003129 0.010197 0.000000 0.000000 0.000000
# 4 0.000000 0.000000 0.000000 0.045343 0.000000 0.000000
# 5 0.000000 0.000000 0.000000 0.000000 0.035563 0.000000
# 6 0.000000 0.000000 0.000000 0.000000 0.000000 0.050480
#
#
# Mechanical properties :
#
#
# Convention : Reuss Voigt Hill
#
# Bulk Modulus (GPa) = 27.00966 48.80453 37.90710
# Shear Modulus (GPa) = 23.33902 28.50626 25.92264
#
# Velocity S-wave (km/s) = 3.40883 3.76734 3.59256
# Velocity P-wave (km/s) = 5.37971 6.57441 6.00683
#
# Compressibility (1/GPa) = 0.03702379
#
# Stress axis : x y z
#
# Youngs Moduli (GPa) = 28.57033 116.72375 98.07106
#
# Poissons Ratio (x) = 0.64107 -0.02461
# Poissons Ratio (y) = 0.15692 0.30691
# Poissons Ratio (z) = -0.00717 0.36528
#
# Static dielectric constant tensor:
#      x y z
#    x 3.328290 0.000000 0.000000 
#    y 0.000000 3.922890 0.000000 
#    z 0.000000 0.000000 3.715650 
# 
# 
# High freq. dielectric constant tensor:
#      x y z
#    x 1.758480 0.000000 0.000000 
#    y 0.000000 1.802810 0.000000 
#    z 0.000000 0.000000 1.787760 
# 
# From -- ./inp_files/8543.got.cif
#   From: 2010.03.12/outbox.cif.g09.slc.cpg/sg38_5_cif.got.tgz:8543.got - 2010.04.14 02:38:36.
