data_PCOD8179027
_publ_section_title
;
Structure prediction by ZEFSAII (Michael W. Deem and Ramdas Pophale) SiO2 
 PCOD8179027
Probable space group: A M M 2
;
_chemical_formula_sum "Si O2"
_cell_formula_units_Z 64
_cell_length_a 8.944761
_cell_length_b 19.608333
_cell_length_c 20.930547
_cell_angle_alpha 90.000000
_cell_angle_beta 90.000000
_cell_angle_gamma 90.000000
_cell_volume 3671.047408
_symmetry_space_group_name_H-M "A M M 2"
_symmetry_group_IT_number 38
_symmetry_cell_setting 'orthorhombic'
loop_
_space_group_symop_operation_xyz
x,y,z
-x,-y,z
-x,y,z
x,-y,z
x,1/2+y,1/2+z
-x,1/2-y,1/2+z
-x,1/2+y,1/2+z
x,1/2-y,1/2+z
loop_
_atom_site_type_symbol
_atom_site_label
_atom_site_fract_x
_atom_site_fract_y
_atom_site_fract_z
Si Si1 0.674382 0.422796 0.793410
Si Si2 0.670486 0.075312 0.817526
Si Si3 0.173305 0.714546 0.986672
Si Si4 0.822597 0.293491 0.749868
Si Si5 0.177704 0.710410 0.127893
Si Si6 0.823006 0.925856 0.685591
Si Si7 0.169661 0.075734 0.424723
Si Si8 0.673491 0.782469 0.868680
O O1 0.500000 0.407879 0.786198
O O2 0.714562 0.500000 0.772833
O O3 0.765650 0.371334 0.748464
O O4 0.718733 0.409824 0.866697
O O5 0.500000 0.079037 0.793220
O O6 0.776448 0.088906 0.757870
O O7 0.701109 0.135730 0.868080
O O8 0.702942 0.000000 0.847845
O O9 0.197437 0.633002 0.978215
O O10 0.267929 0.757172 0.936491
O O11 0.000000 0.733721 0.977671
O O12 0.231972 0.733895 0.057692
O O13 0.764567 0.260582 0.683539
O O14 0.757950 0.253614 0.810508
O O15 0.000000 0.291431 0.755045
O O16 0.241016 0.634168 0.140953
O O17 0.000000 0.708245 0.128461
O O18 0.000000 0.925351 0.684026
O O19 0.761769 0.000000 0.662746
O O20 0.000000 0.081040 0.398323
O O21 0.198049 0.000000 0.454002
O O22 0.500000 0.763884 0.862134
#
# Coordination Sequence:
#
# PCOD8179027 Si02
#       8
#     8   8   8   8   8   8   8   8
#     4  10  20  33  51  76 105 132 165 215 263 302
#     4   9  18  32  50  73 101 131 165 207 254 301
#     4  10  20  34  51  72 103 140 172 210 254 303
#     4  11  20  33  54  77 103 136 172 212 254 305
#     4   9  19  33  49  74 105 136 172 210 254 299
#     4   9  16  28  48  73 102 134 168 204 241 288
#     4   9  17  29  47  72 101 136 175 206 242 299
#     4  11  21  33  52  77 102 132 172 215 257 303
#
# _framework density 17.433717000000001
#
# number of rings (size 3 to 8) (size 9 to 14) (size 15 to 20)
#    0.000    2.250    2.500    1.125    0.000    1.750 
#    0.000    4.375    0.000    0.750    0.000    7.000 
#    0.000    0.000    0.000    0.000    0.000    0.000 
#
# Total GULP energy -396642.667601 kJ/mol
# GULP energy per Si atom -12395.083363 kJ/mol
# Density = 1.739404 g / cm^3
# Si number density = 17.433717 Si / 1000 Ang^3
#
#
#
# Elastic Constant Matrix: (Units=GPa)
#
#
# Indices 1 2 3 4 5 6 
#
# 1 49.9352 36.5152 31.1489 0.0000 0.0000 0.0000
# 2 36.5152 120.5212 67.4746 0.0000 0.0000 0.0000
# 3 31.1489 67.4746 115.7863 0.0000 0.0000 0.0000
# 4 0.0000 0.0000 0.0000 24.7785 0.0000 0.0000
# 5 0.0000 0.0000 0.0000 0.0000 1.7307 0.0000
# 6 0.0000 0.0000 0.0000 0.0000 0.0000 23.1409
#
#
#
# Elastic Compliance Matrix: (Units=1/GPa)
#
#
# Indices 1 2 3 4 5 6 
#
# 1 0.026736 -0.006046 -0.003669 0.000000 0.000000 0.000000
# 2 -0.006046 0.013683 -0.006347 0.000000 0.000000 0.000000
# 3 -0.003669 -0.006347 0.013322 0.000000 0.000000 0.000000
# 4 0.000000 0.000000 0.000000 0.040358 0.000000 0.000000
# 5 0.000000 0.000000 0.000000 0.000000 0.577791 0.000000
# 6 0.000000 0.000000 0.000000 0.000000 0.000000 0.043214
#
#
# Mechanical properties :
#
#
# Convention : Reuss Voigt Hill
#
# Bulk Modulus (GPa) = 46.26130 61.83557 54.04843
# Shear Modulus (GPa) = 6.62749 20.00363 13.31556
#
# Velocity S-wave (km/s) = 1.95187 3.39102 2.76666
# Velocity P-wave (km/s) = 5.62786 7.13288 6.42459
#
# Compressibility (1/GPa) = 0.02161634
#
# Stress axis : x y z
#
# Youngs Moduli (GPa) = 37.40275 73.08569 75.06175
#
# Poissons Ratio (x) = 0.44189 0.27541
# Poissons Ratio (y) = 0.22615 0.47641
# Poissons Ratio (z) = 0.13723 0.46387
#
# Static dielectric constant tensor:
#      x y z
#    x 3.166840 0.000000 0.000000 
#    y 0.000000 3.677920 0.000000 
#    z 0.000000 0.000000 3.102480 
# 
# 
# High freq. dielectric constant tensor:
#      x y z
#    x 1.664470 0.000000 0.000000 
#    y 0.000000 1.686160 0.000000 
#    z 0.000000 0.000000 1.640260 
# 
# From -- ./inp_files/20235.got.cif
#   From: 2010.03.12/outbox.cif.g09.slc.cpg/sg38_11_cif.got.tgz:20235.got - 2010.04.14 02:38:36.
