data_PCOD8179488
_publ_section_title
;
Structure prediction by ZEFSAII (Michael W. Deem and Ramdas Pophale) SiO2 
 PCOD8179488
Probable space group: A M M 2
;
_chemical_formula_sum "Si O2"
_cell_formula_units_Z 48
_cell_length_a 15.110127
_cell_length_b 8.826773
_cell_length_c 18.812741
_cell_angle_alpha 90.000000
_cell_angle_beta 90.000000
_cell_angle_gamma 90.000000
_cell_volume 2509.124141
_symmetry_space_group_name_H-M "A M M 2"
_symmetry_group_IT_number 38
_symmetry_cell_setting 'orthorhombic'
loop_
_space_group_symop_operation_xyz
x,y,z
-x,-y,z
-x,y,z
x,-y,z
x,1/2+y,1/2+z
-x,1/2-y,1/2+z
-x,1/2+y,1/2+z
x,1/2-y,1/2+z
loop_
_atom_site_type_symbol
_atom_site_label
_atom_site_fract_x
_atom_site_fract_y
_atom_site_fract_z
Si Si1 0.898190 0.176158 0.613860
Si Si2 0.500000 0.169903 0.689249
Si Si3 0.500000 0.321207 0.836208
Si Si4 0.773535 0.173863 0.001122
Si Si5 0.211243 0.167103 0.226586
Si Si6 0.310513 0.820169 0.856658
Si Si7 0.360161 0.838063 0.113110
O O1 0.846286 0.229386 0.543097
O O2 0.872526 0.250445 0.690198
O O3 0.000000 0.214094 0.599516
O O4 0.879517 0.000000 0.622788
O O5 0.500000 0.290949 0.751993
O O6 0.416577 0.195912 0.638731
O O7 0.500000 0.000000 0.719786
O O8 0.500000 0.500000 0.850102
O O9 0.591209 0.251500 0.867289
O O10 0.675543 0.194620 0.034471
O O11 0.805161 0.000000 0.003998
O O12 0.756657 0.226853 0.920048
O O13 0.261518 0.264204 0.285958
O O14 0.274972 0.144538 0.160957
O O15 0.184819 0.000000 0.256667
O O16 0.323829 0.000000 0.852437
O O17 0.412405 0.000000 0.114625
#
# Coordination Sequence:
#
# PCOD8179488 Si02
#       7
#     8   4   4   8   8   8   8
#     4  10  21  38  62  90 117 147 188 239 290 345
#     4  12  22  31  50  79 107 143 193 245 286 327
#     4  12  24  37  54  79 115 159 199 239 286 339
#     4   9  21  39  59  83 113 151 190 233 291 349
#     4  10  20  35  58  84 112 148 187 232 286 343
#     4  11  22  38  59  85 117 155 197 241 287 340
#     4   9  18  34  53  74 105 142 184 230 280 337
#
# _framework density 19.130182000000001
#
# number of rings (size 3 to 8) (size 9 to 14) (size 15 to 20)
#    0.000    1.833    1.667    4.000    0.000    6.000 
#    0.000    4.167    0.000    1.000    0.000    0.000 
#    0.000    0.000    0.000    0.000    0.000    0.000 
#
# Total GULP energy -297381.882119 kJ/mol
# GULP energy per Si atom -12390.911755 kJ/mol
# Density = 1.908664 g / cm^3
# Si number density = 19.130182 Si / 1000 Ang^3
#
#
#
# Elastic Constant Matrix: (Units=GPa)
#
#
# Indices 1 2 3 4 5 6 
#
# 1 100.1680 52.3416 35.1508 0.0000 0.0000 0.0000
# 2 52.3416 117.0812 32.6899 0.0000 0.0000 0.0000
# 3 35.1508 32.6899 79.3947 0.0000 0.0000 0.0000
# 4 0.0000 0.0000 0.0000 23.3381 0.0000 0.0000
# 5 0.0000 0.0000 0.0000 0.0000 62.5700 0.0000
# 6 0.0000 0.0000 0.0000 0.0000 0.0000 31.1526
#
#
#
# Elastic Compliance Matrix: (Units=1/GPa)
#
#
# Indices 1 2 3 4 5 6 
#
# 1 0.014131 -0.005164 -0.004130 0.000000 0.000000 0.000000
# 2 -0.005164 0.011538 -0.002464 0.000000 0.000000 0.000000
# 3 -0.004130 -0.002464 0.015438 0.000000 0.000000 0.000000
# 4 0.000000 0.000000 0.000000 0.042848 0.000000 0.000000
# 5 0.000000 0.000000 0.000000 0.000000 0.015982 0.000000
# 6 0.000000 0.000000 0.000000 0.000000 0.000000 0.032100
#
#
# Mechanical properties :
#
#
# Convention : Reuss Voigt Hill
#
# Bulk Modulus (GPa) = 56.84907 59.66760 58.25834
# Shear Modulus (GPa) = 30.97550 35.17624 33.07587
#
# Velocity S-wave (km/s) = 4.02829 4.29275 4.16262
# Velocity P-wave (km/s) = 7.17061 7.47184 7.32277
#
# Compressibility (1/GPa) = 0.01759044
#
# Stress axis : x y z
#
# Youngs Moduli (GPa) = 70.76636 86.67188 64.77365
#
# Poissons Ratio (x) = 0.44759 0.26751
# Poissons Ratio (y) = 0.36545 0.15961
# Poissons Ratio (z) = 0.29226 0.21357
#
# Static dielectric constant tensor:
#      x y z
#    x 3.219870 0.000000 0.000000 
#    y 0.000000 3.655110 0.000000 
#    z 0.000000 0.000000 3.523790 
# 
# 
# High freq. dielectric constant tensor:
#      x y z
#    x 1.728960 0.000000 0.000000 
#    y 0.000000 1.752260 0.000000 
#    z 0.000000 0.000000 1.738980 
# 
# From -- ./inp_files/18184.got.cif
#   From: 2010.03.12/outbox.cif.g09.slc.cpg/sg38_10_cif.got.tgz:18184.got - 2010.04.14 02:38:36.
