data_PCOD8179988
_publ_section_title
;
Structure prediction by ZEFSAII (Michael W. Deem and Ramdas Pophale) SiO2 
 PCOD8179988
Probable space group: A M M 2
;
_chemical_formula_sum "Si O2"
_cell_formula_units_Z 48
_cell_length_a 8.566137
_cell_length_b 23.568475
_cell_length_c 11.895701
_cell_angle_alpha 90.000000
_cell_angle_beta 90.000000
_cell_angle_gamma 90.000000
_cell_volume 2401.632422
_symmetry_space_group_name_H-M "A M M 2"
_symmetry_group_IT_number 38
_symmetry_cell_setting 'orthorhombic'
loop_
_space_group_symop_operation_xyz
x,y,z
-x,-y,z
-x,y,z
x,-y,z
x,1/2+y,1/2+z
-x,1/2-y,1/2+z
-x,1/2+y,1/2+z
x,1/2-y,1/2+z
loop_
_atom_site_type_symbol
_atom_site_label
_atom_site_fract_x
_atom_site_fract_y
_atom_site_fract_z
Si Si1 0.679860 0.133713 0.230470
Si Si2 0.815502 0.775298 0.382890
Si Si3 0.824037 0.154342 0.589431
Si Si4 0.824003 0.563262 0.917188
Si Si5 0.815176 0.649363 0.335322
Si Si6 0.814875 0.065114 0.022994
O O1 0.500000 0.140763 0.199206
O O2 0.747364 0.195077 0.269571
O O3 0.700951 0.091692 0.334709
O O4 0.766375 0.105209 0.125651
O O5 0.745793 0.803295 0.497482
O O6 0.770260 0.709490 0.390911
O O7 0.000000 0.786143 0.377640
O O8 0.820486 0.091294 0.539565
O O9 0.738435 0.150595 0.710329
O O10 0.000000 0.176225 0.610462
O O11 0.768269 0.500000 0.935257
O O12 0.000000 0.567612 0.866271
O O13 0.751017 0.596919 0.410289
O O14 0.000000 0.642497 0.325943
O O15 0.000000 0.062102 0.021412
O O16 0.748331 0.000000 0.030382
#
# Coordination Sequence:
#
# PCOD8179988 Si02
#       6
#     8   8   8   8   8   8
#     4  11  22  35  53  78 108 144 183 228 274 320
#     4   9  18  33  56  81 107 139 179 226 274 325
#     4   8  15  28  47  78 107 131 169 217 267 317
#     4   9  17  31  53  78 105 138 175 220 270 317
#     4   9  18  31  54  83 110 142 178 220 270 326
#     4  10  21  36  55  82 114 147 185 227 272 325
#
# _framework density 19.986405999999999
#
# number of rings (size 3 to 8) (size 9 to 14) (size 15 to 20)
#    0.000    2.667    0.000    3.000    2.333    3.333 
#    0.000    4.167    0.000    4.000    0.000    4.667 
#    0.000    0.000    0.000    0.000    0.000    0.000 
#
# Total GULP energy -297362.683400 kJ/mol
# GULP energy per Si atom -12390.111808 kJ/mol
# Density = 1.994092 g / cm^3
# Si number density = 19.986406 Si / 1000 Ang^3
#
#
#
# Elastic Constant Matrix: (Units=GPa)
#
#
# Indices 1 2 3 4 5 6 
#
# 1 25.7928 13.8079 7.0966 0.0000 0.0000 0.0000
# 2 13.8079 112.8014 43.9422 0.0000 0.0000 0.0000
# 3 7.0966 43.9422 131.4758 0.0000 0.0000 0.0000
# 4 0.0000 0.0000 0.0000 25.9624 0.0000 0.0000
# 5 0.0000 0.0000 0.0000 0.0000 2.1506 0.0000
# 6 0.0000 0.0000 0.0000 0.0000 0.0000 8.8901
#
#
#
# Elastic Compliance Matrix: (Units=1/GPa)
#
#
# Indices 1 2 3 4 5 6 
#
# 1 0.041534 -0.004841 -0.000624 0.000000 0.000000 0.000000
# 2 -0.004841 0.010756 -0.003334 0.000000 0.000000 0.000000
# 3 -0.000624 -0.003334 0.008754 0.000000 0.000000 0.000000
# 4 0.000000 0.000000 0.000000 0.038517 0.000000 0.000000
# 5 0.000000 0.000000 0.000000 0.000000 0.464985 0.000000
# 6 0.000000 0.000000 0.000000 0.000000 0.000000 0.112484
#
#
# Mechanical properties :
#
#
# Convention : Reuss Voigt Hill
#
# Bulk Modulus (GPa) = 23.01672 44.41817 33.71745
# Shear Modulus (GPa) = 7.05109 21.08218 14.06663
#
# Velocity S-wave (km/s) = 1.88032 3.25133 2.65582
# Velocity P-wave (km/s) = 4.03179 6.03053 5.12946
#
# Compressibility (1/GPa) = 0.04344668
#
# Stress axis : x y z
#
# Youngs Moduli (GPa) = 24.07680 92.96795 114.23548
#
# Poissons Ratio (x) = 0.45007 0.07127
# Poissons Ratio (y) = 0.11656 0.38083
# Poissons Ratio (z) = 0.01502 0.30993
#
# Static dielectric constant tensor:
#      x y z
#    x 3.075690 0.000000 0.000000 
#    y 0.000000 3.862930 0.000000 
#    z 0.000000 0.000000 3.884640 
# 
# 
# High freq. dielectric constant tensor:
#      x y z
#    x 1.719440 0.000000 0.000000 
#    y 0.000000 1.788220 0.000000 
#    z 0.000000 0.000000 1.783800 
# 
# From -- ./inp_files/8234.got.cif
#   From: 2010.03.12/outbox.cif.g09.slc.cpg/sg38_5_cif.got.tgz:8234.got - 2010.04.14 02:38:36.
