data_PCOD8179374
_publ_section_title
;
Structure prediction by ZEFSAII (Michael W. Deem and Ramdas Pophale) SiO2 
 PCOD8179374
Probable space group: A M M 2
;
_chemical_formula_sum "Si O2"
_cell_formula_units_Z 64
_cell_length_a 8.707201
_cell_length_b 22.993231
_cell_length_c 18.958284
_cell_angle_alpha 90.000000
_cell_angle_beta 90.000000
_cell_angle_gamma 90.000000
_cell_volume 3795.575173
_symmetry_space_group_name_H-M "A M M 2"
_symmetry_group_IT_number 38
_symmetry_cell_setting 'orthorhombic'
loop_
_space_group_symop_operation_xyz
x,y,z
-x,-y,z
-x,y,z
x,-y,z
x,1/2+y,1/2+z
-x,1/2-y,1/2+z
-x,1/2+y,1/2+z
x,1/2-y,1/2+z
loop_
_atom_site_type_symbol
_atom_site_label
_atom_site_fract_x
_atom_site_fract_y
_atom_site_fract_z
Si Si1 0.323826 0.158100 0.689140
Si Si2 0.680176 0.231983 0.558675
Si Si3 0.179702 0.834746 0.142838
Si Si4 0.179566 0.250907 0.915342
Si Si5 0.321511 0.125359 0.912169
Si Si6 0.678663 0.566890 0.559058
Si Si7 0.677863 0.275531 0.772195
Si Si8 0.823396 0.566850 0.280486
O O1 0.500000 0.138236 0.692511
O O2 0.278944 0.178221 0.610087
O O3 0.293211 0.210994 0.742662
O O4 0.217668 0.104147 0.710932
O O5 0.500000 0.245723 0.562131
O O6 0.766398 0.290197 0.582626
O O7 0.733527 0.217164 0.479847
O O8 0.222180 0.899163 0.117130
O O9 0.264133 0.822953 0.216539
O O10 0.000000 0.828449 0.154909
O O11 0.222098 0.183399 0.911213
O O12 0.228879 0.283667 0.844240
O O13 0.000000 0.257853 0.927027
O O14 0.500000 0.143087 0.909592
O O15 0.283304 0.086026 0.844965
O O16 0.280005 0.088290 0.980822
O O17 0.500000 0.576872 0.575092
O O18 0.725902 0.500000 0.564820
O O19 0.500000 0.286514 0.787259
O O20 0.790288 0.500000 0.262317
O O21 0.000000 0.577235 0.300985
#
# Coordination Sequence:
#
# PCOD8179374 Si02
#       8
#     8   8   8   8   8   8   8   8
#     4   9  19  34  53  73  95 131 175 214 252 299
#     4  10  20  35  53  73 101 135 172 210 256 312
#     4  11  21  33  51  76 103 134 171 217 263 302
#     4  12  22  32  51  80 107 135 169 210 260 311
#     4  11  21  34  51  71 101 141 181 214 247 297
#     4  10  21  36  53  72  99 140 184 219 254 303
#     4  10  20  35  54  74 101 136 171 210 257 310
#     4  11  23  35  49  72 104 139 175 217 260 300
#
# _framework density 16.861740000000001
#
# number of rings (size 3 to 8) (size 9 to 14) (size 15 to 20)
#    0.000    1.500    2.500    4.875    0.000    4.750 
#    0.000    0.000    0.000    0.000    0.000    0.875 
#    0.000    3.000    0.000    0.000    0.000    0.000 
#
# Total GULP energy -396954.299813 kJ/mol
# GULP energy per Si atom -12404.821869 kJ/mol
# Density = 1.682336 g / cm^3
# Si number density = 16.861740 Si / 1000 Ang^3
#
#
#
# Elastic Constant Matrix: (Units=GPa)
#
#
# Indices 1 2 3 4 5 6 
#
# 1 56.2961 27.7305 18.7531 0.0000 0.0000 0.0000
# 2 27.7305 74.4108 44.4464 0.0000 0.0000 0.0000
# 3 18.7531 44.4464 103.0542 0.0000 0.0000 0.0000
# 4 0.0000 0.0000 0.0000 23.2023 0.0000 0.0000
# 5 0.0000 0.0000 0.0000 0.0000 26.0341 0.0000
# 6 0.0000 0.0000 0.0000 0.0000 0.0000 24.0402
#
#
#
# Elastic Compliance Matrix: (Units=1/GPa)
#
#
# Indices 1 2 3 4 5 6 
#
# 1 0.021787 -0.007747 -0.000623 0.000000 0.000000 0.000000
# 2 -0.007747 0.020857 -0.007586 0.000000 0.000000 0.000000
# 3 -0.000623 -0.007586 0.013089 0.000000 0.000000 0.000000
# 4 0.000000 0.000000 0.000000 0.043099 0.000000 0.000000
# 5 0.000000 0.000000 0.000000 0.000000 0.038411 0.000000
# 6 0.000000 0.000000 0.000000 0.000000 0.000000 0.041597
#
#
# Mechanical properties :
#
#
# Convention : Reuss Voigt Hill
#
# Bulk Modulus (GPa) = 41.98068 46.18013 44.08040
# Shear Modulus (GPa) = 22.86320 24.17740 23.52030
#
# Velocity S-wave (km/s) = 3.68628 3.79074 3.73888
# Velocity P-wave (km/s) = 6.56272 6.82691 6.69611
#
# Compressibility (1/GPa) = 0.02382048
#
# Stress axis : x y z
#
# Youngs Moduli (GPa) = 45.89920 47.94568 76.40156
#
# Poissons Ratio (x) = 0.37143 0.04763
# Poissons Ratio (y) = 0.35557 0.57956
# Poissons Ratio (z) = 0.02862 0.36370
#
# Static dielectric constant tensor:
#      x y z
#    x 3.202160 0.000000 0.000000 
#    y 0.000000 2.960700 0.000000 
#    z 0.000000 0.000000 3.265890 
# 
# 
# High freq. dielectric constant tensor:
#      x y z
#    x 1.661870 0.000000 0.000000 
#    y 0.000000 1.617540 0.000000 
#    z 0.000000 0.000000 1.650640 
# 
# From -- ./inp_files/17236.got.cif
#   From: 2010.03.12/outbox.cif.g09.slc.cpg/sg38_9_cif.got.tgz:17236.got - 2010.04.14 02:38:36.
