data_PCOD8179098
_publ_section_title
;
Structure prediction by ZEFSAII (Michael W. Deem and Ramdas Pophale) SiO2 
 PCOD8179098
Probable space group: A M M 2
;
_chemical_formula_sum "Si O2"
_cell_formula_units_Z 56
_cell_length_a 9.062188
_cell_length_b 16.552106
_cell_length_c 19.644791
_cell_angle_alpha 90.000000
_cell_angle_beta 90.000000
_cell_angle_gamma 90.000000
_cell_volume 2946.685183
_symmetry_space_group_name_H-M "A M M 2"
_symmetry_group_IT_number 38
_symmetry_cell_setting 'orthorhombic'
loop_
_space_group_symop_operation_xyz
x,y,z
-x,-y,z
-x,y,z
x,-y,z
x,1/2+y,1/2+z
-x,1/2-y,1/2+z
-x,1/2+y,1/2+z
x,1/2-y,1/2+z
loop_
_atom_site_type_symbol
_atom_site_label
_atom_site_fract_x
_atom_site_fract_y
_atom_site_fract_z
Si Si1 0.326442 0.673969 0.120290
Si Si2 0.324480 0.000000 0.430058
Si Si3 0.165264 0.910737 0.837241
Si Si4 0.830040 0.654830 0.870507
Si Si5 0.831167 0.744090 0.502087
Si Si6 0.171141 0.762702 0.746263
Si Si7 0.670283 0.090210 0.974163
Si Si8 0.326340 0.000000 0.584792
O O1 0.500000 0.684828 0.122691
O O2 0.259521 0.735652 0.175668
O O3 0.278752 0.579473 0.127784
O O4 0.267576 0.696361 0.046183
O O5 0.269339 0.078946 0.389923
O O6 0.500000 0.000000 0.428351
O O7 0.260472 0.000000 0.507402
O O8 0.209073 0.848700 0.779126
O O9 0.286875 0.906221 0.895421
O O10 0.000000 0.890468 0.866366
O O11 0.166192 0.000000 0.804573
O O12 0.812070 0.728734 0.923712
O O13 0.780034 0.690042 0.796755
O O14 0.000000 0.626621 0.868436
O O15 0.771935 0.653337 0.514361
O O16 0.000000 0.748405 0.526149
O O17 0.000000 0.753858 0.728865
O O18 0.500000 0.114977 0.981687
O O19 0.698441 0.000000 0.003355
O O20 0.500000 0.000000 0.574241
#
# Coordination Sequence:
#
# PCOD8179098 Si02
#       8
#     8   4   8   8   8   8   8   4
#     4  11  23  39  57  83 121 159 195 240 297 359
#     4  11  21  37  63  91 119 150 195 250 307 361
#     4   9  17  31  51  77 112 148 184 224 264 316
#     4  10  21  38  60  87 118 151 196 248 296 350
#     4  11  21  37  60  85 112 150 194 240 293 351
#     4  10  21  38  56  82 116 155 198 238 285 348
#     4  10  20  33  53  83 114 144 183 231 282 336
#     4   9  20  37  55  85 127 162 191 238 299 359
#
# _framework density 19.004404000000001
#
# number of rings (size 3 to 8) (size 9 to 14) (size 15 to 20)
#    0.000    1.857    2.857    1.500    1.000    2.571 
#    0.000    1.071    1.571    0.000    0.000    0.000 
#    0.000    0.000    0.000    0.000    0.000    0.000 
#
# Total GULP energy -347125.431890 kJ/mol
# GULP energy per Si atom -12397.336853 kJ/mol
# Density = 1.896115 g / cm^3
# Si number density = 19.004404 Si / 1000 Ang^3
#
#
#
# Elastic Constant Matrix: (Units=GPa)
#
#
# Indices 1 2 3 4 5 6 
#
# 1 69.5936 44.9967 32.1970 0.0000 0.0000 0.0000
# 2 44.9967 98.3381 24.8477 0.0000 0.0000 0.0000
# 3 32.1970 24.8477 75.7666 0.0000 0.0000 0.0000
# 4 0.0000 0.0000 0.0000 27.6357 0.0000 0.0000
# 5 0.0000 0.0000 0.0000 0.0000 25.5936 0.0000
# 6 0.0000 0.0000 0.0000 0.0000 0.0000 31.4366
#
#
#
# Elastic Compliance Matrix: (Units=1/GPa)
#
#
# Indices 1 2 3 4 5 6 
#
# 1 0.023385 -0.008929 -0.007009 0.000000 0.000000 0.000000
# 2 -0.008929 0.014497 -0.000960 0.000000 0.000000 0.000000
# 3 -0.007009 -0.000960 0.016492 0.000000 0.000000 0.000000
# 4 0.000000 0.000000 0.000000 0.036185 0.000000 0.000000
# 5 0.000000 0.000000 0.000000 0.000000 0.039072 0.000000
# 6 0.000000 0.000000 0.000000 0.000000 0.000000 0.031810
#
#
# Mechanical properties :
#
#
# Convention : Reuss Voigt Hill
#
# Bulk Modulus (GPa) = 48.59666 49.75346 49.17506
# Shear Modulus (GPa) = 24.74051 26.37700 25.55875
#
# Velocity S-wave (km/s) = 3.61200 3.72955 3.67125
# Velocity P-wave (km/s) = 6.55913 6.69200 6.62590
#
# Compressibility (1/GPa) = 0.02057755
#
# Stress axis : x y z
#
# Youngs Moduli (GPa) = 42.76194 68.97804 60.63638
#
# Poissons Ratio (x) = 0.61593 0.42501
# Poissons Ratio (y) = 0.38184 0.05820
# Poissons Ratio (z) = 0.29972 0.06621
#
# Static dielectric constant tensor:
#      x y z
#    x 3.399160 0.000000 0.000000 
#    y 0.000000 3.693310 0.000000 
#    z 0.000000 0.000000 3.205500 
# 
# 
# High freq. dielectric constant tensor:
#      x y z
#    x 1.735330 0.000000 0.000000 
#    y 0.000000 1.745010 0.000000 
#    z 0.000000 0.000000 1.711410 
# 
# From -- ./inp_files/19885.got.cif
#   From: 2010.03.12/outbox.cif.g09.slc.cpg/sg38_10_cif.got.tgz:19885.got - 2010.04.14 02:38:36.
