data_PCOD8179980
_publ_section_title
;
Structure prediction by ZEFSAII (Michael W. Deem and Ramdas Pophale) SiO2 
 PCOD8179980
Probable space group: A M M 2
;
_chemical_formula_sum "Si O2"
_cell_formula_units_Z 40
_cell_length_a 9.062519
_cell_length_b 9.331678
_cell_length_c 25.185629
_cell_angle_alpha 90.000000
_cell_angle_beta 90.000000
_cell_angle_gamma 90.000000
_cell_volume 2129.911097
_symmetry_space_group_name_H-M "A M M 2"
_symmetry_group_IT_number 38
_symmetry_cell_setting 'orthorhombic'
loop_
_space_group_symop_operation_xyz
x,y,z
-x,-y,z
-x,y,z
x,-y,z
x,1/2+y,1/2+z
-x,1/2-y,1/2+z
-x,1/2+y,1/2+z
x,1/2-y,1/2+z
loop_
_atom_site_type_symbol
_atom_site_label
_atom_site_fract_x
_atom_site_fract_y
_atom_site_fract_z
Si Si1 0.333481 0.666570 0.145560
Si Si2 0.673614 0.334575 0.450855
Si Si3 0.170087 0.834057 0.057489
Si Si4 0.828134 0.167681 0.357141
Si Si5 0.329503 0.164997 0.767844
O O1 0.500000 0.718416 0.133484
O O2 0.318114 0.500000 0.132650
O O3 0.218885 0.751212 0.109798
O O4 0.294136 0.696845 0.206614
O O5 0.500000 0.312232 0.452088
O O6 0.716635 0.500000 0.440738
O O7 0.738385 0.280153 0.506705
O O8 0.740033 0.239401 0.404687
O O9 0.000000 0.801639 0.046003
O O10 0.200430 0.000000 0.068194
O O11 0.775110 0.232852 0.301599
O O12 0.000000 0.199974 0.364568
O O13 0.793754 0.000000 0.356947
O O14 0.500000 0.198381 0.780812
O O15 0.295063 0.000000 0.781806
#
# Coordination Sequence:
#
# PCOD8179980 Si02
#       5
#     8   8   8   8   8
#     4   9  19  36  57  81 109 142 181 223 266 314
#     4  10  21  38  60  82 104 137 182 225 266 318
#     4  10  21  36  55  81 112 144 178 218 266 319
#     4  11  24  38  53  79 113 144 176 218 269 322
#     4   9  19  37  59  81 106 140 183 225 265 315
#
# _framework density 18.780125999999999
#
# number of rings (size 3 to 8) (size 9 to 14) (size 15 to 20)
#    0.000    2.200    0.000    3.600    0.000    9.600 
#    0.000    6.000    0.000    0.000    0.000    0.000 
#    0.000    0.000    0.000    0.000    0.000    0.000 
#
# Total GULP energy -248081.894642 kJ/mol
# GULP energy per Si atom -12404.094732 kJ/mol
# Density = 1.873738 g / cm^3
# Si number density = 18.780126 Si / 1000 Ang^3
#
#
#
# Elastic Constant Matrix: (Units=GPa)
#
#
# Indices 1 2 3 4 5 6 
#
# 1 92.8304 56.0787 61.1329 0.0000 0.0000 0.0000
# 2 56.0787 76.7028 61.7136 0.0000 0.0000 0.0000
# 3 61.1329 61.7136 118.1857 0.0000 0.0000 0.0000
# 4 0.0000 0.0000 0.0000 35.2874 0.0000 0.0000
# 5 0.0000 0.0000 0.0000 0.0000 17.7509 0.0000
# 6 0.0000 0.0000 0.0000 0.0000 0.0000 34.4433
#
#
#
# Elastic Compliance Matrix: (Units=1/GPa)
#
#
# Indices 1 2 3 4 5 6 
#
# 1 0.020795 -0.011294 -0.004859 0.000000 0.000000 0.000000
# 2 -0.011294 0.028617 -0.009101 0.000000 0.000000 0.000000
# 3 -0.004859 -0.009101 0.015727 0.000000 0.000000 0.000000
# 4 0.000000 0.000000 0.000000 0.028339 0.000000 0.000000
# 5 0.000000 0.000000 0.000000 0.000000 0.056335 0.000000
# 6 0.000000 0.000000 0.000000 0.000000 0.000000 0.029033
#
#
# Mechanical properties :
#
#
# Convention : Reuss Voigt Hill
#
# Bulk Modulus (GPa) = 68.34925 71.72993 70.03959
# Shear Modulus (GPa) = 21.34639 24.74923 23.04781
#
# Velocity S-wave (km/s) = 3.37508 3.63415 3.50701
# Velocity P-wave (km/s) = 7.18761 7.47575 7.33309
#
# Compressibility (1/GPa) = 0.01463074
#
# Stress axis : x y z
#
# Youngs Moduli (GPa) = 48.08879 34.94391 63.58484
#
# Poissons Ratio (x) = 0.39466 0.30895
# Poissons Ratio (y) = 0.54312 0.57870
# Poissons Ratio (z) = 0.23366 0.31803
#
# Static dielectric constant tensor:
#      x y z
#    x 3.526230 0.000000 0.000000 
#    y 0.000000 3.374060 0.000000 
#    z 0.000000 0.000000 3.504240 
# 
# 
# High freq. dielectric constant tensor:
#      x y z
#    x 1.735740 0.000000 0.000000 
#    y 0.000000 1.723330 0.000000 
#    z 0.000000 0.000000 1.741310 
# 
# From -- ./inp_files/21660.got.cif
#   From: 2010.03.12/outbox.cif.g09.slc.cpg/sg38_11_cif.got.tgz:21660.got - 2010.04.14 02:38:36.
