data_PCOD8179715
_publ_section_title
;
Structure prediction by ZEFSAII (Michael W. Deem and Ramdas Pophale) SiO2 
 PCOD8179715
Probable space group: A M M 2
;
_chemical_formula_sum "Si O2"
_cell_formula_units_Z 48
_cell_length_a 16.507817
_cell_length_b 15.716578
_cell_length_c 8.794982
_cell_angle_alpha 90.000000
_cell_angle_beta 90.000000
_cell_angle_gamma 90.000000
_cell_volume 2281.826361
_symmetry_space_group_name_H-M "A M M 2"
_symmetry_group_IT_number 38
_symmetry_cell_setting 'orthorhombic'
loop_
_space_group_symop_operation_xyz
x,y,z
-x,-y,z
-x,y,z
x,-y,z
x,1/2+y,1/2+z
-x,1/2-y,1/2+z
-x,1/2+y,1/2+z
x,1/2-y,1/2+z
loop_
_atom_site_type_symbol
_atom_site_label
_atom_site_fract_x
_atom_site_fract_y
_atom_site_fract_z
Si Si1 0.650093 0.676389 0.075700
Si Si2 0.164801 0.819633 0.493724
Si Si3 0.407398 0.662777 0.409205
Si Si4 0.847224 0.000000 0.128131
Si Si5 0.907756 0.328803 0.670810
Si Si6 0.162561 0.000000 0.469626
Si Si7 0.343501 0.000000 0.086693
Si Si8 0.647179 0.500000 0.930302
O O1 0.644953 0.674923 0.257345
O O2 0.741909 0.698694 0.029304
O O3 0.595455 0.752110 0.010226
O O4 0.616283 0.586186 0.011995
O O5 0.104367 0.752030 0.563776
O O6 0.154170 0.821322 0.311538
O O7 0.139517 0.913596 0.559461
O O8 0.500000 0.643752 0.365716
O O9 0.371939 0.583983 0.501600
O O10 0.886454 0.087950 0.066964
O O11 0.877300 0.000000 0.303855
O O12 0.752957 0.000000 0.093190
O O13 0.000000 0.330975 0.727755
O O14 0.257358 0.000000 0.438512
O O15 0.381983 0.000000 0.255458
#
# Coordination Sequence:
#
# PCOD8179715 Si02
#       8
#     8   8   8   4   8   4   4   4
#     4  11  22  41  65  89 122 165 210 257 307 374
#     4  10  20  37  60  86 115 156 203 245 298 367
#     4  12  25  41  60  90 125 161 205 262 319 367
#     4   9  19  36  59  83 110 153 198 236 287 357
#     4  11  21  36  57  87 122 156 196 251 306 357
#     4   7  16  34  57  82 108 143 194 241 280 340
#     4  11  22  41  65  90 121 161 206 251 304 377
#     4   9  19  37  63  89 115 153 204 252 297 356
#
# _framework density 21.035781
#
# number of rings (size 3 to 8) (size 9 to 14) (size 15 to 20)
#    0.000    1.667    0.000    6.000    0.000    0.000 
#    0.000    5.833    0.000    0.000    0.000    0.000 
#    0.000    0.000    0.000    0.000    0.000    0.000 
#
# Total GULP energy -297542.718656 kJ/mol
# GULP energy per Si atom -12397.613277 kJ/mol
# Density = 2.098790 g / cm^3
# Si number density = 21.035781 Si / 1000 Ang^3
#
#
#
# Elastic Constant Matrix: (Units=GPa)
#
#
# Indices 1 2 3 4 5 6 
#
# 1 93.0832 38.6285 11.4137 0.0000 0.0000 0.0000
# 2 38.6285 192.2956 62.5874 0.0000 0.0000 0.0000
# 3 11.4137 62.5874 94.3491 0.0000 0.0000 0.0000
# 4 0.0000 0.0000 0.0000 36.6146 0.0000 0.0000
# 5 0.0000 0.0000 0.0000 0.0000 26.7826 0.0000
# 6 0.0000 0.0000 0.0000 0.0000 0.0000 -2.0003
#
#
#
# Elastic Compliance Matrix: (Units=1/GPa)
#
#
# Indices 1 2 3 4 5 6 
#
# 1 0.011723 -0.002415 0.000184 0.000000 0.000000 0.000000
# 2 -0.002415 0.007130 -0.004437 0.000000 0.000000 0.000000
# 3 0.000184 -0.004437 0.013520 0.000000 0.000000 0.000000
# 4 0.000000 0.000000 0.000000 0.027312 0.000000 0.000000
# 5 0.000000 0.000000 0.000000 0.000000 0.037338 0.000000
# 6 0.000000 0.000000 0.000000 0.000000 0.000000 -0.499937
#
#
# Mechanical properties :
#
#
# Convention : Reuss Voigt Hill
#
# Bulk Modulus (GPa) = 52.53264 67.22077 59.87671
# Shear Modulus (GPa) = -13.04688 30.08595 8.51953
#
# Velocity S-wave (km/s) = -2.49313 3.78594 2.01465
# Velocity P-wave (km/s) = 4.09141 7.15094 5.82561
#
# Compressibility (1/GPa) = 0.01903578
#
# Stress axis : x y z
#
# Youngs Moduli (GPa) = 85.30532 140.25956 73.96278
#
# Poissons Ratio (x) = 0.33867 -0.01358
# Poissons Ratio (y) = 0.20598 0.32820
# Poissons Ratio (z) = -0.01567 0.62239
#
# Static dielectric constant tensor:
#      x y z
#    x 3.525750 0.000000 0.000000 
#    y 0.000000 4.454640 0.000000 
#    z 0.000000 0.000000 3.593410 
# 
# 
# High freq. dielectric constant tensor:
#      x y z
#    x 1.812400 0.000000 0.000000 
#    y 0.000000 1.855960 0.000000 
#    z 0.000000 0.000000 1.800100 
# 
# From -- ./inp_files/6235.got.cif
#   From: 2010.03.12/outbox.cif.g09.slc.cpg/sg38_4_cif.got.tgz:6235.got - 2010.04.14 02:38:36.
