data_PCOD8179290
_publ_section_title
;
Structure prediction by ZEFSAII (Michael W. Deem and Ramdas Pophale) SiO2 
 PCOD8179290
Probable space group: A M M 2
;
_chemical_formula_sum "Si O2"
_cell_formula_units_Z 40
_cell_length_a 14.742787
_cell_length_b 9.575752
_cell_length_c 14.414119
_cell_angle_alpha 90.000000
_cell_angle_beta 90.000000
_cell_angle_gamma 90.000000
_cell_volume 2034.888344
_symmetry_space_group_name_H-M "A M M 2"
_symmetry_group_IT_number 38
_symmetry_cell_setting 'orthorhombic'
loop_
_space_group_symop_operation_xyz
x,y,z
-x,-y,z
-x,y,z
x,-y,z
x,1/2+y,1/2+z
-x,1/2-y,1/2+z
-x,1/2+y,1/2+z
x,1/2-y,1/2+z
loop_
_atom_site_type_symbol
_atom_site_label
_atom_site_fract_x
_atom_site_fract_y
_atom_site_fract_z
Si Si1 0.600655 0.843161 0.634910
Si Si2 0.238882 0.158465 0.349096
Si Si3 0.768459 0.164708 0.135348
Si Si4 0.400668 0.156328 0.855406
Si Si5 0.895022 0.839748 0.509647
O O1 0.500000 0.801799 0.598232
O O2 0.674773 0.733102 0.597246
O O3 0.600077 0.838715 0.745094
O O4 0.626109 0.000000 0.601296
O O5 0.217381 0.200395 0.243554
O O6 0.321542 0.245354 0.394422
O O7 0.149083 0.185715 0.408875
O O8 0.271783 0.000000 0.353428
O O9 0.766265 0.000000 0.115387
O O10 0.853011 0.235159 0.084441
O O11 0.500000 0.206793 0.890720
O O12 0.381437 0.000000 0.890788
O O13 0.000000 0.802786 0.499520
O O14 0.880139 0.000000 0.541883
#
# Coordination Sequence:
#
# PCOD8179290 Si02
#       5
#     8   8   8   8   8
#     4   8  14  27  49  76 107 144 180 210 247 303
#     4   9  19  35  55  79 106 138 174 213 260 311
#     4  10  20  34  55  83 111 137 170 218 269 311
#     4   8  14  26  47  76 108 140 172 208 252 301
#     4  10  22  40  58  75 100 137 179 220 264 319
#
# _framework density 19.657098999999999
#
# number of rings (size 3 to 8) (size 9 to 14) (size 15 to 20)
#    0.000    3.000    0.000    1.800    0.000    3.600 
#    0.000    7.000    0.000    1.200    0.000    0.000 
#    0.000    0.000    0.000    0.000    0.000    0.000 
#
# Total GULP energy -247941.843971 kJ/mol
# GULP energy per Si atom -12397.092199 kJ/mol
# Density = 1.961236 g / cm^3
# Si number density = 19.657099 Si / 1000 Ang^3
#
#
#
# Elastic Constant Matrix: (Units=GPa)
#
#
# Indices 1 2 3 4 5 6 
#
# 1 184.0143 96.5466 48.9189 0.0000 0.0000 0.0000
# 2 96.5466 119.0670 46.7774 0.0000 0.0000 0.0000
# 3 48.9189 46.7774 56.5900 0.0000 0.0000 0.0000
# 4 0.0000 0.0000 0.0000 23.2503 0.0000 0.0000
# 5 0.0000 0.0000 0.0000 0.0000 -8.3012 0.0000
# 6 0.0000 0.0000 0.0000 0.0000 0.0000 34.9087
#
#
#
# Elastic Compliance Matrix: (Units=1/GPa)
#
#
# Indices 1 2 3 4 5 6 
#
# 1 0.009750 -0.006804 -0.002804 0.000000 0.000000 0.000000
# 2 -0.006804 0.017186 -0.008324 0.000000 0.000000 0.000000
# 3 -0.002804 -0.008324 0.026976 0.000000 0.000000 0.000000
# 4 0.000000 0.000000 0.000000 0.043010 0.000000 0.000000
# 5 0.000000 0.000000 0.000000 0.000000 -0.120464 0.000000
# 6 0.000000 0.000000 0.000000 0.000000 0.000000 0.028646
#
#
# Mechanical properties :
#
#
# Convention : Reuss Voigt Hill
#
# Bulk Modulus (GPa) = 55.41089 82.68412 69.04750
# Shear Modulus (GPa) = 106.41960 21.13344 63.77652
#
# Velocity S-wave (km/s) = 7.36584 3.28244 5.70219
# Velocity P-wave (km/s) = 10.02949 7.51800 8.86316
#
# Compressibility (1/GPa) = 0.01804699
#
# Stress axis : x y z
#
# Youngs Moduli (GPa) = 102.56837 58.18639 37.07055
#
# Poissons Ratio (x) = 0.39590 0.10394
# Poissons Ratio (y) = 0.69788 0.30859
# Poissons Ratio (z) = 0.28757 0.48437
#
# Static dielectric constant tensor:
#      x y z
#    x 3.759840 0.000000 0.000000 
#    y 0.000000 3.673740 0.000000 
#    z 0.000000 0.000000 3.348270 
# 
# 
# High freq. dielectric constant tensor:
#      x y z
#    x 1.764420 0.000000 0.000000 
#    y 0.000000 1.763580 0.000000 
#    z 0.000000 0.000000 1.750510 
# 
# From -- ./inp_files/14260.got.cif
#   From: 2010.03.12/outbox.cif.g09.slc.cpg/sg38_8_cif.got.tgz:14260.got - 2010.04.14 02:38:36.
