data_PCOD8179236
_publ_section_title
;
Structure prediction by ZEFSAII (Michael W. Deem and Ramdas Pophale) SiO2 
 PCOD8179236
Probable space group: A M M 2
;
_chemical_formula_sum "Si O2"
_cell_formula_units_Z 48
_cell_length_a 9.018839
_cell_length_b 22.351443
_cell_length_c 13.031080
_cell_angle_alpha 90.000000
_cell_angle_beta 90.000000
_cell_angle_gamma 90.000000
_cell_volume 2626.858089
_symmetry_space_group_name_H-M "A M M 2"
_symmetry_group_IT_number 38
_symmetry_cell_setting 'orthorhombic'
loop_
_space_group_symop_operation_xyz
x,y,z
-x,-y,z
-x,y,z
x,-y,z
x,1/2+y,1/2+z
-x,1/2-y,1/2+z
-x,1/2+y,1/2+z
x,1/2-y,1/2+z
loop_
_atom_site_type_symbol
_atom_site_label
_atom_site_fract_x
_atom_site_fract_y
_atom_site_fract_z
Si Si1 0.324924 0.121215 0.059520
Si Si2 0.829089 0.930718 0.864939
Si Si3 0.167668 0.772907 0.141122
Si Si4 0.167764 0.884464 0.257999
Si Si5 0.176634 0.860299 0.666699
Si Si6 0.176656 0.932385 0.472427
O O1 0.500000 0.122005 0.060199
O O2 0.263037 0.189943 0.056548
O O3 0.264453 0.088733 0.163530
O O4 0.268807 0.084023 0.963149
O O5 0.766281 0.892272 0.769670
O O6 0.000000 0.914910 0.888680
O O7 0.811525 0.000000 0.835639
O O8 0.168560 0.811681 0.247265
O O9 0.236773 0.707779 0.162759
O O10 0.000000 0.766472 0.098541
O O11 0.237211 0.903400 0.366826
O O12 0.000000 0.909425 0.247864
O O13 0.241048 0.895130 0.568007
O O14 0.000000 0.861807 0.666097
O O15 0.000000 0.930048 0.473760
O O16 0.234970 0.000000 0.480879
#
# Coordination Sequence:
#
# PCOD8179236 Si02
#       6
#     8   8   8   8   8   8
#     4  10  20  35  53  75 104 138 176 218 261 306
#     4  10  20  34  54  80 109 139 173 215 260 308
#     4   8  16  32  52  77 105 132 167 211 259 309
#     4   8  16  31  49  75 105 132 165 210 260 307
#     4   9  17  30  52  79 106 135 167 209 256 309
#     4   9  16  27  48  78 106 130 161 205 255 305
#
# _framework density 18.272780000000001
#
# number of rings (size 3 to 8) (size 9 to 14) (size 15 to 20)
#    1.000    2.000    0.000    1.500    0.000    4.333 
#    0.000    7.500    0.000    1.000    0.000    0.000 
#    0.000    0.000    0.000    0.000    0.000    0.000 
#
# Total GULP energy -297386.365682 kJ/mol
# GULP energy per Si atom -12391.098570 kJ/mol
# Density = 1.823119 g / cm^3
# Si number density = 18.272780 Si / 1000 Ang^3
#
#
#
# Elastic Constant Matrix: (Units=GPa)
#
#
# Indices 1 2 3 4 5 6 
#
# 1 61.4410 16.5829 29.5519 0.0000 0.0000 0.0000
# 2 16.5829 86.7941 31.6725 0.0000 0.0000 0.0000
# 3 29.5519 31.6725 121.3439 0.0000 0.0000 0.0000
# 4 0.0000 0.0000 0.0000 34.7097 0.0000 0.0000
# 5 0.0000 0.0000 0.0000 0.0000 3.8890 0.0000
# 6 0.0000 0.0000 0.0000 0.0000 0.0000 6.4459
#
#
#
# Elastic Compliance Matrix: (Units=1/GPa)
#
#
# Indices 1 2 3 4 5 6 
#
# 1 0.018782 -0.002121 -0.004020 0.000000 0.000000 0.000000
# 2 -0.002121 0.012974 -0.002870 0.000000 0.000000 0.000000
# 3 -0.004020 -0.002870 0.009969 0.000000 0.000000 0.000000
# 4 0.000000 0.000000 0.000000 0.028810 0.000000 0.000000
# 5 0.000000 0.000000 0.000000 0.000000 0.257135 0.000000
# 6 0.000000 0.000000 0.000000 0.000000 0.000000 0.155138
#
#
# Mechanical properties :
#
#
# Convention : Reuss Voigt Hill
#
# Bulk Modulus (GPa) = 42.19025 47.24373 44.71699
# Shear Modulus (GPa) = 9.82833 21.79369 15.81101
#
# Velocity S-wave (km/s) = 2.32171 3.45728 2.94475
# Velocity P-wave (km/s) = 5.50694 6.46899 6.00725
#
# Compressibility (1/GPa) = 0.02370216
#
# Stress axis : x y z
#
# Youngs Moduli (GPa) = 53.24218 77.07691 100.30867
#
# Poissons Ratio (x) = 0.16351 0.40329
# Poissons Ratio (y) = 0.11295 0.28786
# Poissons Ratio (z) = 0.21406 0.22119
#
# Static dielectric constant tensor:
#      x y z
#    x 2.848890 0.000000 0.000000 
#    y 0.000000 3.447880 0.000000 
#    z 0.000000 0.000000 3.363150 
# 
# 
# High freq. dielectric constant tensor:
#      x y z
#    x 1.656060 0.000000 0.000000 
#    y 0.000000 1.707680 0.000000 
#    z 0.000000 0.000000 1.704510 
# 
# From -- ./inp_files/12249.got.cif
#   From: 2010.03.12/outbox.cif.g09.slc.cpg/sg38_7_cif.got.tgz:12249.got - 2010.04.14 02:38:36.
