data_PCOD8179251
_publ_section_title
;
Structure prediction by ZEFSAII (Michael W. Deem and Ramdas Pophale) SiO2 
 PCOD8179251
Probable space group: A M M 2
;
_chemical_formula_sum "Si O2"
_cell_formula_units_Z 48
_cell_length_a 8.895313
_cell_length_b 9.067978
_cell_length_c 30.915287
_cell_angle_alpha 90.000000
_cell_angle_beta 90.000000
_cell_angle_gamma 90.000000
_cell_volume 2493.704418
_symmetry_space_group_name_H-M "A M M 2"
_symmetry_group_IT_number 38
_symmetry_cell_setting 'orthorhombic'
loop_
_space_group_symop_operation_xyz
x,y,z
-x,-y,z
-x,y,z
x,-y,z
x,1/2+y,1/2+z
-x,1/2-y,1/2+z
-x,1/2+y,1/2+z
x,1/2-y,1/2+z
loop_
_atom_site_type_symbol
_atom_site_label
_atom_site_fract_x
_atom_site_fract_y
_atom_site_fract_z
Si Si1 0.173704 0.172601 0.870420
Si Si2 0.823919 0.669965 0.038463
Si Si3 0.323877 0.830727 0.449276
Si Si4 0.830700 0.824666 0.203677
Si Si5 0.327381 0.674609 0.790742
Si Si6 0.670393 0.175115 0.117744
O O1 0.269432 0.228943 0.910606
O O2 0.227879 0.251114 0.827212
O O3 0.000000 0.211500 0.878240
O O4 0.200654 0.000000 0.865149
O O5 0.783475 0.500000 0.047172
O O6 0.753312 0.767749 0.075638
O O7 0.000000 0.698302 0.037338
O O8 0.756750 0.722368 0.992891
O O9 0.500000 0.809659 0.455732
O O10 0.282731 0.000000 0.438509
O O11 0.734895 0.770003 0.244656
O O12 0.753515 0.762393 0.160299
O O13 0.000000 0.761947 0.206794
O O14 0.832907 0.000000 0.202374
O O15 0.500000 0.724449 0.795184
O O16 0.311676 0.500000 0.795511
O O17 0.500000 0.233356 0.118275
O O18 0.675551 0.000000 0.117169
#
# Coordination Sequence:
#
# PCOD8179251 Si02
#       6
#     8   8   8   8   8   8
#     4  11  24  39  55  79 111 144 178 219 268 320
#     4  10  21  37  57  81 109 142 180 222 268 318
#     4  10  21  38  60  83 106 137 179 223 267 319
#     4   9  17  31  53  80 109 142 180 222 266 313
#     4  10  20  35  57  83 109 140 180 223 267 318
#     4  10  20  34  54  81 112 145 181 222 268 317
#
# _framework density 19.248472
#
# number of rings (size 3 to 8) (size 9 to 14) (size 15 to 20)
#    0.000    2.000    0.000    3.500    0.000   10.000 
#    0.000    0.833    0.000    5.000    0.000    0.000 
#    0.000    0.000    0.000    0.000    0.000    0.000 
#
# Total GULP energy -297700.366527 kJ/mol
# GULP energy per Si atom -12404.181939 kJ/mol
# Density = 1.920466 g / cm^3
# Si number density = 19.248472 Si / 1000 Ang^3
#
#
#
# Elastic Constant Matrix: (Units=GPa)
#
#
# Indices 1 2 3 4 5 6 
#
# 1 89.3321 25.8999 30.9056 0.0000 0.0000 0.0000
# 2 25.8999 26.4076 28.3318 0.0000 0.0000 0.0000
# 3 30.9056 28.3318 114.2879 0.0000 0.0000 0.0000
# 4 0.0000 0.0000 0.0000 28.4393 0.0000 0.0000
# 5 0.0000 0.0000 0.0000 0.0000 29.7730 0.0000
# 6 0.0000 0.0000 0.0000 0.0000 0.0000 26.3442
#
#
#
# Elastic Compliance Matrix: (Units=1/GPa)
#
#
# Indices 1 2 3 4 5 6 
#
# 1 0.015671 -0.014744 -0.000583 0.000000 0.000000 0.000000
# 2 -0.014744 0.065461 -0.012241 0.000000 0.000000 0.000000
# 3 -0.000583 -0.012241 0.011942 0.000000 0.000000 0.000000
# 4 0.000000 0.000000 0.000000 0.035163 0.000000 0.000000
# 5 0.000000 0.000000 0.000000 0.000000 0.033588 0.000000
# 6 0.000000 0.000000 0.000000 0.000000 0.000000 0.037959
#
#
# Mechanical properties :
#
#
# Convention : Reuss Voigt Hill
#
# Bulk Modulus (GPa) = 26.35827 44.47804 35.41816
# Shear Modulus (GPa) = 18.68711 26.57064 22.62887
#
# Velocity S-wave (km/s) = 3.11920 3.71941 3.43245
# Velocity P-wave (km/s) = 5.16682 6.45002 5.84375
#
# Compressibility (1/GPa) = 0.03793875
#
# Stress axis : x y z
#
# Youngs Moduli (GPa) = 63.81413 15.27617 83.73944
#
# Poissons Ratio (x) = 0.22524 0.04878
# Poissons Ratio (y) = 0.94090 1.02503
# Poissons Ratio (z) = 0.03717 0.18699
#
# Static dielectric constant tensor:
#      x y z
#    x 6.198920 0.000000 0.000000 
#    y 0.000000 3.265650 0.000000 
#    z 0.000000 0.000000 3.763250 
# 
# 
# High freq. dielectric constant tensor:
#      x y z
#    x 1.769880 0.000000 0.000000 
#    y 0.000000 1.719080 0.000000 
#    z 0.000000 0.000000 1.766490 
# 
# From -- ./inp_files/24280.got.cif
#   From: 2010.03.12/outbox.cif.g09.slc.cpg/sg38_13_cif.got.tgz:24280.got - 2010.04.14 02:38:36.
