data_PCOD8179847
_publ_section_title
;
Structure prediction by ZEFSAII (Michael W. Deem and Ramdas Pophale) SiO2 
 PCOD8179847
Probable space group: A M M 2
;
_chemical_formula_sum "Si O2"
_cell_formula_units_Z 56
_cell_length_a 15.451094
_cell_length_b 8.995923
_cell_length_c 20.019197
_cell_angle_alpha 90.000000
_cell_angle_beta 90.000000
_cell_angle_gamma 90.000000
_cell_volume 2782.605360
_symmetry_space_group_name_H-M "A M M 2"
_symmetry_group_IT_number 38
_symmetry_cell_setting 'orthorhombic'
loop_
_space_group_symop_operation_xyz
x,y,z
-x,-y,z
-x,y,z
x,-y,z
x,1/2+y,1/2+z
-x,1/2-y,1/2+z
-x,1/2+y,1/2+z
x,1/2-y,1/2+z
loop_
_atom_site_type_symbol
_atom_site_label
_atom_site_fract_x
_atom_site_fract_y
_atom_site_fract_z
Si Si1 0.405288 0.329888 0.579150
Si Si2 0.633300 0.166219 0.227467
Si Si3 0.178506 0.169197 0.175798
Si Si4 0.098103 0.827630 0.309540
Si Si5 0.406064 0.674812 0.358281
Si Si6 0.775662 0.323407 0.411793
Si Si7 0.767884 0.324883 0.046159
O O1 0.500000 0.296382 0.547216
O O2 0.376897 0.500000 0.563335
O O3 0.415444 0.306749 0.658083
O O4 0.332798 0.222102 0.549834
O O5 0.734318 0.194046 0.217182
O O6 0.596867 0.279530 0.281129
O O7 0.615959 0.000000 0.254062
O O8 0.104755 0.209602 0.229948
O O9 0.176652 0.273032 0.110467
O O10 0.170912 0.000000 0.149937
O O11 0.161666 0.725038 0.352117
O O12 0.000000 0.795326 0.331894
O O13 0.123216 0.000000 0.321030
O O14 0.500000 0.726896 0.388179
O O15 0.400135 0.500000 0.360665
O O16 0.322746 0.736678 0.398397
O O17 0.779097 0.500000 0.418397
O O18 0.808977 0.248938 0.480212
O O19 0.774910 0.500000 0.040435
#
# Coordination Sequence:
#
# PCOD8179847 Si02
#       7
#     8   8   8   8   8   8   8
#     4   9  18  33  52  76 110 153 199 246 300 359
#     4   9  16  29  51  78 109 147 190 236 288 345
#     4   9  18  36  60  86 117 151 189 234 294 360
#     4  10  21  40  68  97 122 150 189 241 299 359
#     4  10  21  34  50  77 113 154 199 245 291 338
#     4  11  23  40  60  84 121 164 204 245 296 356
#     4  11  23  37  57  83 115 156 203 250 299 348
#
# _framework density 20.125025000000001
#
# number of rings (size 3 to 8) (size 9 to 14) (size 15 to 20)
#    0.000    2.143    1.429    3.000    0.000    5.429 
#    0.000    2.143    0.000    2.571    0.000    0.000 
#    0.000    0.000    0.000    0.000    0.000    0.000 
#
# Total GULP energy -347078.458284 kJ/mol
# GULP energy per Si atom -12395.659224 kJ/mol
# Density = 2.007922 g / cm^3
# Si number density = 20.125025 Si / 1000 Ang^3
#
#
#
# Elastic Constant Matrix: (Units=GPa)
#
#
# Indices 1 2 3 4 5 6 
#
# 1 78.5444 37.1958 34.4840 0.0000 0.0000 0.0000
# 2 37.1958 82.8448 52.0710 0.0000 0.0000 0.0000
# 3 34.4840 52.0710 104.3646 0.0000 0.0000 0.0000
# 4 0.0000 0.0000 0.0000 33.1123 0.0000 0.0000
# 5 0.0000 0.0000 0.0000 0.0000 5.4845 0.0000
# 6 0.0000 0.0000 0.0000 0.0000 0.0000 21.8391
#
#
#
# Elastic Compliance Matrix: (Units=1/GPa)
#
#
# Indices 1 2 3 4 5 6 
#
# 1 0.016633 -0.005847 -0.002578 0.000000 0.000000 0.000000
# 2 -0.005847 0.019641 -0.007868 0.000000 0.000000 0.000000
# 3 -0.002578 -0.007868 0.014359 0.000000 0.000000 0.000000
# 4 0.000000 0.000000 0.000000 0.030200 0.000000 0.000000
# 5 0.000000 0.000000 0.000000 0.000000 0.182332 0.000000
# 6 0.000000 0.000000 0.000000 0.000000 0.000000 0.045789
#
#
# Mechanical properties :
#
#
# Convention : Reuss Voigt Hill
#
# Bulk Modulus (GPa) = 55.41201 57.02838 56.22020
# Shear Modulus (GPa) = 14.38617 21.55406 17.97011
#
# Velocity S-wave (km/s) = 2.67655 3.27618 2.99142
# Velocity P-wave (km/s) = 6.09471 6.53526 6.31883
#
# Compressibility (1/GPa) = 0.01804663
#
# Stress axis : x y z
#
# Youngs Moduli (GPa) = 60.12263 50.91362 69.64194
#
# Poissons Ratio (x) = 0.29770 0.17957
# Poissons Ratio (y) = 0.35155 0.54792
# Poissons Ratio (z) = 0.15502 0.40057
#
# Static dielectric constant tensor:
#      x y z
#    x 3.434530 0.000000 0.000000 
#    y 0.000000 3.446530 0.000000 
#    z 0.000000 0.000000 3.608610 
# 
# 
# High freq. dielectric constant tensor:
#      x y z
#    x 1.773750 0.000000 0.000000 
#    y 0.000000 1.767700 0.000000 
#    z 0.000000 0.000000 1.785190 
# 
# From -- ./inp_files/21101.got.cif
#   From: 2010.03.12/outbox.cif.g09.slc.cpg/sg38_11_cif.got.tgz:21101.got - 2010.04.14 02:38:36.
