data_PCOD8179893
_publ_section_title
;
Structure prediction by ZEFSAII (Michael W. Deem and Ramdas Pophale) SiO2 
 PCOD8179893
Probable space group: A M M 2
;
_chemical_formula_sum "Si O2"
_cell_formula_units_Z 64
_cell_length_a 14.878512
_cell_length_b 9.152800
_cell_length_c 24.568117
_cell_angle_alpha 90.000000
_cell_angle_beta 90.000000
_cell_angle_gamma 90.000000
_cell_volume 3345.687270
_symmetry_space_group_name_H-M "A M M 2"
_symmetry_group_IT_number 38
_symmetry_cell_setting 'orthorhombic'
loop_
_space_group_symop_operation_xyz
x,y,z
-x,-y,z
-x,y,z
x,-y,z
x,1/2+y,1/2+z
-x,1/2-y,1/2+z
-x,1/2+y,1/2+z
x,1/2-y,1/2+z
loop_
_atom_site_type_symbol
_atom_site_label
_atom_site_fract_x
_atom_site_fract_y
_atom_site_fract_z
Si Si1 0.102674 0.330608 0.243410
Si Si2 0.393950 0.659075 0.642796
Si Si3 0.764644 0.327771 0.453288
Si Si4 0.252333 0.169692 0.828626
Si Si5 0.397833 0.674077 0.759882
Si Si6 0.399785 0.325686 0.525794
Si Si7 0.894194 0.330521 0.030999
Si Si8 0.893374 0.664903 0.637430
O O1 0.108964 0.500000 0.227436
O O2 0.161404 0.292402 0.296167
O O3 0.142060 0.239554 0.192609
O O4 0.000000 0.286451 0.256884
O O5 0.500000 0.637298 0.644577
O O6 0.346989 0.500000 0.642187
O O7 0.366699 0.737258 0.699943
O O8 0.369830 0.739646 0.585525
O O9 0.779612 0.500000 0.461316
O O10 0.762547 0.282712 0.390523
O O11 0.671261 0.274406 0.480657
O O12 0.847878 0.242763 0.479175
O O13 0.336151 0.258963 0.806200
O O14 0.276570 0.000000 0.824159
O O15 0.500000 0.721232 0.772673
O O16 0.388949 0.500000 0.759780
O O17 0.500000 0.269143 0.509762
O O18 0.402075 0.500000 0.530580
O O19 0.869203 0.500000 0.034351
O O20 0.856641 0.253006 0.085478
O O21 0.000000 0.305950 0.024375
O O22 0.856814 0.500000 0.634435
O O23 0.000000 0.670204 0.637484
#
# Coordination Sequence:
#
# PCOD8179893 Si02
#       8
#     8   8   8   8   8   8   8   8
#     4   9  18  34  53  72 101 141 178 214 264 324
#     4   7  11  23  45  72  98 123 157 203 254 307
#     4  10  21  35  52  77 106 138 182 227 260 301
#     4  10  22  36  50  74 106 140 180 224 269 313
#     4   9  18  33  53  76 102 134 172 216 268 323
#     4   8  14  27  49  76 104 132 164 208 261 311
#     4  10  21  37  56  78 107 142 174 209 260 317
#     4   9  17  31  54  83 108 130 165 214 264 315
#
# _framework density 19.129104000000002
#
# number of rings (size 3 to 8) (size 9 to 14) (size 15 to 20)
#    0.000    3.000    0.000    2.250    0.000    5.500 
#    0.000    3.750    0.000    1.875    0.000    1.750 
#    0.000    0.000    0.000    0.000    0.000    0.000 
#
# Total GULP energy -396593.830636 kJ/mol
# GULP energy per Si atom -12393.557207 kJ/mol
# Density = 1.908557 g / cm^3
# Si number density = 19.129104 Si / 1000 Ang^3
#
#
#
# Elastic Constant Matrix: (Units=GPa)
#
#
# Indices 1 2 3 4 5 6 
#
# 1 83.2599 39.7773 69.0571 0.0000 0.0000 0.0000
# 2 39.7773 63.2929 62.6869 0.0000 0.0000 0.0000
# 3 69.0571 62.6869 185.6993 0.0000 0.0000 0.0000
# 4 0.0000 0.0000 0.0000 20.5940 0.0000 0.0000
# 5 0.0000 0.0000 0.0000 0.0000 31.5429 0.0000
# 6 0.0000 0.0000 0.0000 0.0000 0.0000 21.4602
#
#
#
# Elastic Compliance Matrix: (Units=1/GPa)
#
#
# Indices 1 2 3 4 5 6 
#
# 1 0.019553 -0.007641 -0.004692 0.000000 0.000000 0.000000
# 2 -0.007641 0.026722 -0.006179 0.000000 0.000000 0.000000
# 3 -0.004692 -0.006179 0.009216 0.000000 0.000000 0.000000
# 4 0.000000 0.000000 0.000000 0.048558 0.000000 0.000000
# 5 0.000000 0.000000 0.000000 0.000000 0.031703 0.000000
# 6 0.000000 0.000000 0.000000 0.000000 0.000000 0.046598
#
#
# Mechanical properties :
#
#
# Convention : Reuss Voigt Hill
#
# Bulk Modulus (GPa) = 54.15344 75.03272 64.59308
# Shear Modulus (GPa) = 22.17031 25.43482 23.80256
#
# Velocity S-wave (km/s) = 3.40808 3.65038 3.53131
# Velocity P-wave (km/s) = 6.62250 7.55490 7.10402
#
# Compressibility (1/GPa) = 0.01846605
#
# Stress axis : x y z
#
# Youngs Moduli (GPa) = 51.14434 37.42303 108.51246
#
# Poissons Ratio (x) = 0.28596 0.50910
# Poissons Ratio (y) = 0.39081 0.67048
# Poissons Ratio (z) = 0.23995 0.23123
#
# Static dielectric constant tensor:
#      x y z
#    x 3.406540 0.000000 0.000000 
#    y 0.000000 3.189650 0.000000 
#    z 0.000000 0.000000 3.724360 
# 
# 
# High freq. dielectric constant tensor:
#      x y z
#    x 1.740300 0.000000 0.000000 
#    y 0.000000 1.706540 0.000000 
#    z 0.000000 0.000000 1.750850 
# 
# From -- ./inp_files/22959.got.cif
#   From: 2010.03.12/outbox.cif.g09.slc.cpg/sg38_12_cif.got.tgz:22959.got - 2010.04.14 02:38:36.
