data_PCOD8179704
_publ_section_title
;
Structure prediction by ZEFSAII (Michael W. Deem and Ramdas Pophale) SiO2 
 PCOD8179704
Probable space group: A M M 2
;
_chemical_formula_sum "Si O2"
_cell_formula_units_Z 64
_cell_length_a 23.582342
_cell_length_b 9.287229
_cell_length_c 15.434594
_cell_angle_alpha 90.000000
_cell_angle_beta 90.000000
_cell_angle_gamma 90.000000
_cell_volume 3380.401593
_symmetry_space_group_name_H-M "A M M 2"
_symmetry_group_IT_number 38
_symmetry_cell_setting 'orthorhombic'
loop_
_space_group_symop_operation_xyz
x,y,z
-x,-y,z
-x,y,z
x,-y,z
x,1/2+y,1/2+z
-x,1/2-y,1/2+z
-x,1/2+y,1/2+z
x,1/2-y,1/2+z
loop_
_atom_site_type_symbol
_atom_site_label
_atom_site_fract_x
_atom_site_fract_y
_atom_site_fract_z
Si Si1 0.064833 0.332624 0.230670
Si Si2 0.563445 0.832626 0.801223
Si Si3 0.935187 0.832128 0.062125
Si Si4 0.680967 0.832838 0.058547
Si Si5 0.667820 0.165621 0.250048
Si Si6 0.255189 0.671600 0.909781
Si Si7 0.561071 0.170331 0.997236
Si Si8 0.861849 0.830980 0.896652
O O1 0.070251 0.500000 0.210085
O O2 0.088050 0.248963 0.146840
O O3 0.101684 0.288676 0.313104
O O4 0.000000 0.289247 0.250717
O O5 0.500000 0.801923 0.766230
O O6 0.608541 0.748730 0.743371
O O7 0.578087 0.000000 0.795879
O O8 0.569341 0.775016 0.899210
O O9 0.000000 0.787860 0.042095
O O10 0.930050 0.000000 0.081002
O O11 0.897576 0.786379 0.980722
O O12 0.700146 0.812076 0.158290
O O13 0.615391 0.779011 0.052163
O O14 0.686711 0.000000 0.029840
O O15 0.720338 0.735470 0.998621
O O16 0.706716 0.222481 0.328401
O O17 0.652692 0.000000 0.264357
O O18 0.251983 0.500000 0.917038
O O19 0.193660 0.735098 0.893826
O O20 0.500000 0.230517 0.033068
O O21 0.557305 0.000000 0.996526
O O22 0.846469 0.000000 0.897889
#
# Coordination Sequence:
#
# PCOD8179704 Si02
#       8
#     8   8   8   8   8   8   8   8
#     4   9  18  34  57  86 118 148 180 219 263 317
#     4   9  17  31  54  82 109 138 173 215 265 324
#     4   9  18  34  57  85 115 144 176 219 269 317
#     4  10  20  37  60  80 102 141 185 221 264 328
#     4  10  22  37  55  80 108 138 177 226 278 323
#     4  11  24  40  54  76 111 143 179 233 282 316
#     4   8  14  27  51  80 104 130 169 214 257 312
#     4  10  21  37  58  80 106 147 191 223 260 319
#
# _framework density 18.932661
#
# number of rings (size 3 to 8) (size 9 to 14) (size 15 to 20)
#    0.000    2.500    1.250    1.500    0.000    5.250 
#    0.000    5.000    0.000    4.125    0.000    0.000 
#    0.000    0.000    0.000    0.000    0.000    0.000 
#
# Total GULP energy -396739.920009 kJ/mol
# GULP energy per Si atom -12398.122500 kJ/mol
# Density = 1.888957 g / cm^3
# Si number density = 18.932661 Si / 1000 Ang^3
#
#
#
# Elastic Constant Matrix: (Units=GPa)
#
#
# Indices 1 2 3 4 5 6 
#
# 1 111.2655 51.9362 64.8315 0.0000 0.0000 0.0000
# 2 51.9362 56.9987 51.6491 0.0000 0.0000 0.0000
# 3 64.8315 51.6491 129.5039 0.0000 0.0000 0.0000
# 4 0.0000 0.0000 0.0000 28.9039 0.0000 0.0000
# 5 0.0000 0.0000 0.0000 0.0000 -87.8108 0.0000
# 6 0.0000 0.0000 0.0000 0.0000 0.0000 30.8016
#
#
#
# Elastic Compliance Matrix: (Units=1/GPa)
#
#
# Indices 1 2 3 4 5 6 
#
# 1 0.016632 -0.011917 -0.003574 0.000000 0.000000 0.000000
# 2 -0.011917 0.036011 -0.008396 0.000000 0.000000 0.000000
# 3 -0.003574 -0.008396 0.012859 0.000000 0.000000 0.000000
# 4 0.000000 0.000000 0.000000 0.034597 0.000000 0.000000
# 5 0.000000 0.000000 0.000000 0.000000 -0.011388 0.000000
# 6 0.000000 0.000000 0.000000 0.000000 0.000000 0.032466
#
#
# Mechanical properties :
#
#
# Convention : Reuss Voigt Hill
#
# Bulk Modulus (GPa) = 56.40426 70.51130 63.45778
# Shear Modulus (GPa) = 28.59418 3.00234 15.79826
#
# Velocity S-wave (km/s) = 3.89049 1.26065 2.89181
# Velocity P-wave (km/s) = 7.07375 6.28037 6.68883
#
# Compressibility (1/GPa) = 0.01772916
#
# Stress axis : x y z
#
# Youngs Moduli (GPa) = 60.12399 27.76946 77.76400
#
# Poissons Ratio (x) = 0.33092 0.27790
# Poissons Ratio (y) = 0.71648 0.65292
# Poissons Ratio (z) = 0.21486 0.23316
#
# Static dielectric constant tensor:
#      x y z
#    x 5.576970 0.000000 0.000000 
#    y 0.000000 3.226510 0.000000 
#    z 0.000000 0.000000 3.519240 
# 
# 
# High freq. dielectric constant tensor:
#      x y z
#    x 1.735290 0.000000 0.000000 
#    y 0.000000 1.714570 0.000000 
#    z 0.000000 0.000000 1.739340 
# 
# From -- ./inp_files/15757.got.cif
#   From: 2010.03.12/outbox.cif.g09.slc.cpg/sg38_8_cif.got.tgz:15757.got - 2010.04.14 02:38:36.
