data_PCOD8179770
_publ_section_title
;
Structure prediction by ZEFSAII (Michael W. Deem and Ramdas Pophale) SiO2 
 PCOD8179770
Probable space group: A M M 2
;
_chemical_formula_sum "Si O2"
_cell_formula_units_Z 48
_cell_length_a 18.868670
_cell_length_b 9.255151
_cell_length_c 14.636977
_cell_angle_alpha 90.000000
_cell_angle_beta 90.000000
_cell_angle_gamma 90.000000
_cell_volume 2556.090276
_symmetry_space_group_name_H-M "A M M 2"
_symmetry_group_IT_number 38
_symmetry_cell_setting 'orthorhombic'
loop_
_space_group_symop_operation_xyz
x,y,z
-x,-y,z
-x,y,z
x,-y,z
x,1/2+y,1/2+z
-x,1/2-y,1/2+z
-x,1/2+y,1/2+z
x,1/2-y,1/2+z
loop_
_atom_site_type_symbol
_atom_site_label
_atom_site_fract_x
_atom_site_fract_y
_atom_site_fract_z
Si Si1 0.000000 0.668251 0.660050
Si Si2 0.000000 0.167688 0.467264
Si Si3 0.652447 0.335515 0.657159
Si Si4 0.500000 0.664012 0.921315
Si Si5 0.500000 0.836292 0.206332
Si Si6 0.363011 0.662151 0.453978
Si Si7 0.742686 0.328696 0.297591
Si Si8 0.888490 0.331195 0.813434
O O1 0.000000 0.749136 0.563271
O O2 0.931685 0.708357 0.721409
O O3 0.000000 0.500000 0.636922
O O4 0.068197 0.206370 0.405500
O O5 0.000000 0.000000 0.492182
O O6 0.653646 0.500000 0.696803
O O7 0.573150 0.266409 0.669147
O O8 0.675174 0.335558 0.551807
O O9 0.710424 0.237200 0.705766
O O10 0.500000 0.500000 0.954430
O O11 0.500000 0.679246 0.813745
O O12 0.568945 0.738147 0.961598
O O13 0.500000 0.000000 0.170773
O O14 0.387246 0.500000 0.427894
O O15 0.307531 0.721466 0.380478
O O16 0.747808 0.500000 0.288518
O O17 0.819664 0.266597 0.315948
O O18 0.868490 0.500000 0.812117
#
# Coordination Sequence:
#
# PCOD8179770 Si02
#       8
#     4   4   8   4   4   8   8   8
#     4   9  19  37  62  88 112 143 185 223 264 322
#     4   9  19  37  62  90 116 145 183 223 268 320
#     4  10  20  38  59  77 105 148 189 224 276 344
#     4  11  20  33  57  84 105 135 186 238 279 328
#     4   9  17  31  55  80  99 133 186 230 269 328
#     4  10  22  38  56  78 108 146 185 229 282 334
#     4  11  23  37  54  83 116 144 183 234 278 316
#     4   9  20  39  59  81 114 154 185 214 265 334
#
# _framework density 18.778680000000001
#
# number of rings (size 3 to 8) (size 9 to 14) (size 15 to 20)
#    0.000    2.167    1.667    2.250    0.000    5.333 
#    0.000    7.083    0.000    0.000    0.000    0.000 
#    0.000    0.000    0.000    0.000    0.000    0.000 
#
# Total GULP energy -297577.293509 kJ/mol
# GULP energy per Si atom -12399.053896 kJ/mol
# Density = 1.873594 g / cm^3
# Si number density = 18.778680 Si / 1000 Ang^3
#
#
#
# Elastic Constant Matrix: (Units=GPa)
#
#
# Indices 1 2 3 4 5 6 
#
# 1 126.0657 64.3013 50.2654 0.0000 0.0000 0.0000
# 2 64.3013 86.3185 53.1558 0.0000 0.0000 0.0000
# 3 50.2654 53.1558 118.0766 0.0000 0.0000 0.0000
# 4 0.0000 0.0000 0.0000 32.5457 0.0000 0.0000
# 5 0.0000 0.0000 0.0000 0.0000 1.0341 0.0000
# 6 0.0000 0.0000 0.0000 0.0000 0.0000 33.4767
#
#
#
# Elastic Compliance Matrix: (Units=1/GPa)
#
#
# Indices 1 2 3 4 5 6 
#
# 1 0.013015 -0.008694 -0.001627 0.000000 0.000000 0.000000
# 2 -0.008694 0.021835 -0.006129 0.000000 0.000000 0.000000
# 3 -0.001627 -0.006129 0.011921 0.000000 0.000000 0.000000
# 4 0.000000 0.000000 0.000000 0.030726 0.000000 0.000000
# 5 0.000000 0.000000 0.000000 0.000000 0.967024 0.000000
# 6 0.000000 0.000000 0.000000 0.000000 0.000000 0.029872
#
#
# Mechanical properties :
#
#
# Convention : Reuss Voigt Hill
#
# Bulk Modulus (GPa) = 72.08529 73.98954 73.03741
# Shear Modulus (GPa) = 4.49674 24.26051 14.37863
#
# Velocity S-wave (km/s) = 1.54913 3.59823 2.77011
# Velocity P-wave (km/s) = 6.45522 7.53321 7.01495
#
# Compressibility (1/GPa) = 0.01387246
#
# Stress axis : x y z
#
# Youngs Moduli (GPa) = 76.83215 45.79699 83.88680
#
# Poissons Ratio (x) = 0.39814 0.13648
# Poissons Ratio (y) = 0.66795 0.51414
# Poissons Ratio (z) = 0.12500 0.28069
#
# Static dielectric constant tensor:
#      x y z
#    x 3.403120 0.000000 0.000000 
#    y 0.000000 3.348700 0.000000 
#    z 0.000000 0.000000 3.471460 
# 
# 
# High freq. dielectric constant tensor:
#      x y z
#    x 1.726910 0.000000 0.000000 
#    y 0.000000 1.717950 0.000000 
#    z 0.000000 0.000000 1.737820 
# 
# From -- ./inp_files/15097.got.cif
#   From: 2010.03.12/outbox.cif.g09.slc.cpg/sg38_8_cif.got.tgz:15097.got - 2010.04.14 02:38:36.
