data_PCOD8179107
_publ_section_title
;
Structure prediction by ZEFSAII (Michael W. Deem and Ramdas Pophale) SiO2 
 PCOD8179107
Probable space group: A M M 2
;
_chemical_formula_sum "Si O2"
_cell_formula_units_Z 56
_cell_length_a 21.595500
_cell_length_b 8.722908
_cell_length_c 15.434291
_cell_angle_alpha 90.000000
_cell_angle_beta 90.000000
_cell_angle_gamma 90.000000
_cell_volume 2907.443206
_symmetry_space_group_name_H-M "A M M 2"
_symmetry_group_IT_number 38
_symmetry_cell_setting 'orthorhombic'
loop_
_space_group_symop_operation_xyz
x,y,z
-x,-y,z
-x,y,z
x,-y,z
x,1/2+y,1/2+z
-x,1/2-y,1/2+z
-x,1/2+y,1/2+z
x,1/2-y,1/2+z
loop_
_atom_site_type_symbol
_atom_site_label
_atom_site_fract_x
_atom_site_fract_y
_atom_site_fract_z
Si Si1 0.628723 0.679518 0.433240
Si Si2 0.500000 0.179625 0.681444
Si Si3 0.068738 0.817799 0.419417
Si Si4 0.500000 0.180225 0.479599
Si Si5 0.289120 0.682278 0.082288
Si Si6 0.849714 0.318733 0.075326
Si Si7 0.630120 0.179984 0.739320
Si Si8 0.928102 0.321781 0.725110
O O1 0.628279 0.500000 0.453921
O O2 0.559606 0.743282 0.437137
O O3 0.673867 0.764970 0.498278
O O4 0.653633 0.714266 0.336218
O O5 0.500000 0.217306 0.580556
O O6 0.561866 0.253289 0.723479
O O7 0.500000 0.000000 0.699733
O O8 0.116010 0.749494 0.490461
O O9 0.089355 0.769394 0.322748
O O10 0.000000 0.752873 0.439453
O O11 0.066456 0.000000 0.424421
O O12 0.500000 0.000000 0.461082
O O13 0.288297 0.500000 0.082816
O O14 0.219604 0.749290 0.078715
O O15 0.321455 0.748098 0.169402
O O16 0.847243 0.500000 0.068145
O O17 0.886213 0.276447 0.161611
O O18 0.624689 0.000000 0.722094
O O19 0.913652 0.500000 0.711132
O O20 0.000000 0.287008 0.706631
#
# Coordination Sequence:
#
# PCOD8179107 Si02
#       8
#     8   4   8   4   8   8   8   8
#     4  11  22  36  57  82 106 136 179 224 263 309
#     4   9  15  29  57  78  95 135 174 200 251 322
#     4   8  15  30  51  75 105 140 173 210 267 327
#     4  11  20  35  61  84 107 139 172 214 271 324
#     4  10  21  38  55  75 107 147 184 215 260 321
#     4  10  20  33  54  80 105 139 183 224 259 307
#     4   9  18  34  55  76 102 141 179 210 263 331
#     4   9  18  33  53  76 104 139 175 213 266 327
#
# _framework density 19.260909000000002
#
# number of rings (size 3 to 8) (size 9 to 14) (size 15 to 20)
#    0.000    2.429    1.429    2.357    0.000    3.714 
#    0.000    2.143    0.000    0.857    0.000    0.000 
#    0.000    0.000    0.000    0.000    0.000    0.000 
#
# Total GULP energy -347139.516055 kJ/mol
# GULP energy per Si atom -12397.839859 kJ/mol
# Density = 1.921707 g / cm^3
# Si number density = 19.260909 Si / 1000 Ang^3
#
#
#
# Elastic Constant Matrix: (Units=GPa)
#
#
# Indices 1 2 3 4 5 6 
#
# 1 135.1349 5.4710 75.6602 0.0000 0.0000 0.0000
# 2 5.4710 6.9343 4.6463 0.0000 0.0000 0.0000
# 3 75.6602 4.6463 120.2454 0.0000 0.0000 0.0000
# 4 0.0000 0.0000 0.0000 25.6910 0.0000 0.0000
# 5 0.0000 0.0000 0.0000 0.0000 14.7471 0.0000
# 6 0.0000 0.0000 0.0000 0.0000 0.0000 18.6284
#
#
#
# Elastic Compliance Matrix: (Units=1/GPa)
#
#
# Indices 1 2 3 4 5 6 
#
# 1 0.011552 -0.004357 -0.007100 0.000000 0.000000 0.000000
# 2 -0.004357 0.149688 -0.003043 0.000000 0.000000 0.000000
# 3 -0.007100 -0.003043 0.012901 0.000000 0.000000 0.000000
# 4 0.000000 0.000000 0.000000 0.038924 0.000000 0.000000
# 5 0.000000 0.000000 0.000000 0.000000 0.067810 0.000000
# 6 0.000000 0.000000 0.000000 0.000000 0.000000 0.053681
#
#
# Mechanical properties :
#
#
# Convention : Reuss Voigt Hill
#
# Bulk Modulus (GPa) = 6.88981 48.20773 27.54877
# Shear Modulus (GPa) = 12.13781 23.58243 17.86012
#
# Velocity S-wave (km/s) = 2.51306 3.50289 3.04842
# Velocity P-wave (km/s) = 3.46489 6.43766 5.16957
#
# Compressibility (1/GPa) = 0.14514183
#
# Stress axis : x y z
#
# Youngs Moduli (GPa) = 86.56765 6.68058 77.51091
#
# Poissons Ratio (x) = 0.02910 0.55034
# Poissons Ratio (y) = 0.37714 0.23585
# Poissons Ratio (z) = 0.61464 0.02033
#
# Static dielectric constant tensor:
#      x y z
#    x 3.838140 0.000000 0.000000 
#    y 0.000000 3.078800 0.000000 
#    z 0.000000 0.000000 3.702700 
# 
# 
# High freq. dielectric constant tensor:
#      x y z
#    x 1.751700 0.000000 0.000000 
#    y 0.000000 1.706370 0.000000 
#    z 0.000000 0.000000 1.765010 
# 
# From -- ./inp_files/15579.got.cif
#   From: 2010.03.12/outbox.cif.g09.slc.cpg/sg38_8_cif.got.tgz:15579.got - 2010.04.14 02:38:36.
