data_PCOD8179090
_publ_section_title
;
Structure prediction by ZEFSAII (Michael W. Deem and Ramdas Pophale) SiO2 
 PCOD8179090
Probable space group: A M M 2
;
_chemical_formula_sum "Si O2"
_cell_formula_units_Z 48
_cell_length_a 7.777018
_cell_length_b 9.480400
_cell_length_c 34.134531
_cell_angle_alpha 90.000000
_cell_angle_beta 90.000000
_cell_angle_gamma 90.000000
_cell_volume 2516.713078
_symmetry_space_group_name_H-M "A M M 2"
_symmetry_group_IT_number 38
_symmetry_cell_setting 'orthorhombic'
loop_
_space_group_symop_operation_xyz
x,y,z
-x,-y,z
-x,y,z
x,-y,z
x,1/2+y,1/2+z
-x,1/2-y,1/2+z
-x,1/2+y,1/2+z
x,1/2-y,1/2+z
loop_
_atom_site_type_symbol
_atom_site_label
_atom_site_fract_x
_atom_site_fract_y
_atom_site_fract_z
Si Si1 0.698824 0.344400 0.290090
Si Si2 0.000000 0.332186 0.572875
Si Si3 0.796426 0.656456 0.861167
Si Si4 0.699408 0.334827 0.716915
Si Si5 0.197723 0.336214 0.948927
Si Si6 0.000000 0.333330 0.660100
Si Si7 0.690864 0.661765 0.519649
O O1 0.500000 0.363778 0.282514
O O2 0.786972 0.500000 0.289661
O O3 0.725634 0.272516 0.331866
O O4 0.770040 0.246763 0.255192
O O5 0.170195 0.277301 0.550402
O O6 0.000000 0.500000 0.575522
O O7 0.000000 0.266607 0.616572
O O8 0.726919 0.500000 0.849914
O O9 0.735167 0.695858 0.904997
O O10 0.000000 0.654236 0.859955
O O11 0.500000 0.299685 0.706358
O O12 0.720864 0.500000 0.725848
O O13 0.824516 0.285119 0.681821
O O14 0.221977 0.500000 0.958742
O O15 0.000000 0.290998 0.953214
O O16 0.308212 0.246179 0.979117
O O17 0.000000 0.500000 0.657008
O O18 0.500000 0.676094 0.538156
O O19 0.734952 0.500000 0.509968
#
# Coordination Sequence:
#
# PCOD8179090 Si02
#       7
#     8   4   8   8   8   4   8
#     4  10  21  35  50  72 105 141 174 213 260 310
#     4   9  18  34  53  78 111 136 165 218 269 309
#     4   9  19  34  52  75 102 135 177 221 260 302
#     4   9  18  33  53  77 104 135 174 219 262 306
#     4   9  18  34  54  75 103 140 180 222 265 308
#     4   9  18  32  55  82 103 132 173 214 261 315
#     4  10  20  33  53  80 108 142 178 211 258 317
#
# _framework density 19.072495
#
# number of rings (size 3 to 8) (size 9 to 14) (size 15 to 20)
#    0.000    2.667    0.833    1.500    1.167    3.667 
#    0.000    8.333    0.000    2.000    0.000    2.333 
#    0.000    0.000    0.000    0.000    0.000    0.000 
#
# Total GULP energy -297515.898168 kJ/mol
# GULP energy per Si atom -12396.495757 kJ/mol
# Density = 1.902908 g / cm^3
# Si number density = 19.072495 Si / 1000 Ang^3
#
#
#
# Elastic Constant Matrix: (Units=GPa)
#
#
# Indices 1 2 3 4 5 6 
#
# 1 88.4769 29.9596 54.6211 0.0000 0.0000 0.0000
# 2 29.9596 72.5652 59.1006 0.0000 0.0000 0.0000
# 3 54.6211 59.1006 149.7663 0.0000 0.0000 0.0000
# 4 0.0000 0.0000 0.0000 22.2093 0.0000 0.0000
# 5 0.0000 0.0000 0.0000 0.0000 20.2530 0.0000
# 6 0.0000 0.0000 0.0000 0.0000 0.0000 17.5358
#
#
#
# Elastic Compliance Matrix: (Units=1/GPa)
#
#
# Indices 1 2 3 4 5 6 
#
# 1 0.014898 -0.002543 -0.004430 0.000000 0.000000 0.000000
# 2 -0.002543 0.020742 -0.007258 0.000000 0.000000 0.000000
# 3 -0.004430 -0.007258 0.011157 0.000000 0.000000 0.000000
# 4 0.000000 0.000000 0.000000 0.045026 0.000000 0.000000
# 5 0.000000 0.000000 0.000000 0.000000 0.049375 0.000000
# 6 0.000000 0.000000 0.000000 0.000000 0.000000 0.057026
#
#
# Mechanical properties :
#
#
# Convention : Reuss Voigt Hill
#
# Bulk Modulus (GPa) = 54.53914 66.46344 60.50129
# Shear Modulus (GPa) = 21.47792 23.14144 22.30968
#
# Velocity S-wave (km/s) = 3.35941 3.48708 3.42384
# Velocity P-wave (km/s) = 6.61100 7.15098 6.88628
#
# Compressibility (1/GPa) = 0.01833546
#
# Stress axis : x y z
#
# Youngs Moduli (GPa) = 67.12144 48.21250 89.63205
#
# Poissons Ratio (x) = 0.12260 0.39708
# Poissons Ratio (y) = 0.17069 0.65051
# Poissons Ratio (z) = 0.29735 0.34990
#
# Static dielectric constant tensor:
#      x y z
#    x 3.490600 0.000000 0.000000 
#    y 0.000000 3.271810 0.000000 
#    z 0.000000 0.000000 3.697580 
# 
# 
# High freq. dielectric constant tensor:
#      x y z
#    x 1.742470 0.000000 0.000000 
#    y 0.000000 1.716770 0.000000 
#    z 0.000000 0.000000 1.736030 
# 
# From -- ./inp_files/24349.got.cif
#   From: 2010.03.12/outbox.cif.g09.slc.cpg/sg38_13_cif.got.tgz:24349.got - 2010.04.14 02:38:36.
