data_PCOD8179231
_publ_section_title
;
Structure prediction by ZEFSAII (Michael W. Deem and Ramdas Pophale) SiO2 
 PCOD8179231
Probable space group: A M M 2
;
_chemical_formula_sum "Si O2"
_cell_formula_units_Z 56
_cell_length_a 14.186100
_cell_length_b 8.611078
_cell_length_c 25.395862
_cell_angle_alpha 90.000000
_cell_angle_beta 90.000000
_cell_angle_gamma 90.000000
_cell_volume 3102.297898
_symmetry_space_group_name_H-M "A M M 2"
_symmetry_group_IT_number 38
_symmetry_cell_setting 'orthorhombic'
loop_
_space_group_symop_operation_xyz
x,y,z
-x,-y,z
-x,y,z
x,-y,z
x,1/2+y,1/2+z
-x,1/2-y,1/2+z
-x,1/2+y,1/2+z
x,1/2-y,1/2+z
loop_
_atom_site_type_symbol
_atom_site_label
_atom_site_fract_x
_atom_site_fract_y
_atom_site_fract_z
Si Si1 0.210810 0.679354 0.226220
Si Si2 0.109604 0.179078 0.130160
Si Si3 0.892616 0.821032 0.520868
Si Si4 0.605020 0.177688 0.870913
Si Si5 0.393693 0.819530 0.260222
Si Si6 0.109361 0.820172 0.324645
Si Si7 0.207038 0.821504 0.924076
O O1 0.196254 0.500000 0.240158
O O2 0.168943 0.714282 0.169154
O O3 0.321720 0.721088 0.224767
O O4 0.159498 0.783562 0.269723
O O5 0.139485 0.219187 0.070639
O O6 0.000000 0.217350 0.138707
O O7 0.132113 0.000000 0.141462
O O8 0.826463 0.785046 0.471664
O O9 0.000000 0.781222 0.504767
O O10 0.882046 0.000000 0.536440
O O11 0.500000 0.208805 0.893739
O O12 0.626232 0.288412 0.821712
O O13 0.681573 0.212262 0.916085
O O14 0.615117 0.000000 0.851229
O O15 0.500000 0.767750 0.245642
O O16 0.378045 0.000000 0.248957
O O17 0.151469 0.716111 0.370848
O O18 0.000000 0.779827 0.318234
O O19 0.125111 0.000000 0.338651
O O20 0.188139 0.000000 0.938611
#
# Coordination Sequence:
#
# PCOD8179231 Si02
#       7
#     8   8   8   8   8   8   8
#     4  12  23  35  54  80 110 144 178 219 270 325
#     4  10  21  38  59  81 106 139 181 228 272 319
#     4  10  21  37  56  78 106 142 182 224 269 320
#     4   9  18  33  52  76 107 141 178 220 268 321
#     4  10  20  34  54  79 107 141 181 223 267 319
#     4  11  23  36  50  73 108 146 180 219 268 321
#     4  11  21  33  53  80 108 142 179 221 271 323
#
# _framework density 18.051134999999999
#
# number of rings (size 3 to 8) (size 9 to 14) (size 15 to 20)
#    0.000    1.571    1.429    4.286    0.000    7.714 
#    0.000    0.000    0.000    0.857    0.000    2.000 
#    0.000    0.000    0.000    0.000    0.000    0.000 
#
# Total GULP energy -347330.222548 kJ/mol
# GULP energy per Si atom -12404.650805 kJ/mol
# Density = 1.801005 g / cm^3
# Si number density = 18.051135 Si / 1000 Ang^3
#
#
#
# Elastic Constant Matrix: (Units=GPa)
#
#
# Indices 1 2 3 4 5 6 
#
# 1 106.7016 31.1618 46.5522 0.0000 0.0000 0.0000
# 2 31.1618 56.6484 14.2303 0.0000 0.0000 0.0000
# 3 46.5522 14.2303 82.2124 0.0000 0.0000 0.0000
# 4 0.0000 0.0000 0.0000 32.3488 0.0000 0.0000
# 5 0.0000 0.0000 0.0000 0.0000 19.4348 0.0000
# 6 0.0000 0.0000 0.0000 0.0000 0.0000 26.4307
#
#
#
# Elastic Compliance Matrix: (Units=1/GPa)
#
#
# Indices 1 2 3 4 5 6 
#
# 1 0.014186 -0.006049 -0.006986 0.000000 0.000000 0.000000
# 2 -0.006049 0.021034 -0.000216 0.000000 0.000000 0.000000
# 3 -0.006986 -0.000216 0.016157 0.000000 0.000000 0.000000
# 4 0.000000 0.000000 0.000000 0.030913 0.000000 0.000000
# 5 0.000000 0.000000 0.000000 0.000000 0.051454 0.000000
# 6 0.000000 0.000000 0.000000 0.000000 0.000000 0.037835
#
#
# Mechanical properties :
#
#
# Convention : Reuss Voigt Hill
#
# Bulk Modulus (GPa) = 40.19887 47.71678 43.95782
# Shear Modulus (GPa) = 24.22806 25.88408 25.05607
#
# Velocity S-wave (km/s) = 3.66757 3.79084 3.72971
# Velocity P-wave (km/s) = 6.34449 6.75664 6.55380
#
# Compressibility (1/GPa) = 0.02487632
#
# Stress axis : x y z
#
# Youngs Moduli (GPa) = 70.49053 47.54125 61.89393
#
# Poissons Ratio (x) = 0.28757 0.43238
# Poissons Ratio (y) = 0.42639 0.01335
# Poissons Ratio (z) = 0.49244 0.01026
#
# Static dielectric constant tensor:
#      x y z
#    x 3.564610 0.000000 0.000000 
#    y 0.000000 3.388220 0.000000 
#    z 0.000000 0.000000 3.104580 
# 
# 
# High freq. dielectric constant tensor:
#      x y z
#    x 1.702460 0.000000 0.000000 
#    y 0.000000 1.711610 0.000000 
#    z 0.000000 0.000000 1.674570 
# 
# From -- ./inp_files/21042.got.cif
#   From: 2010.03.12/outbox.cif.g09.slc.cpg/sg38_11_cif.got.tgz:21042.got - 2010.04.14 02:38:36.
