data_PCOD8179008
_publ_section_title
;
Structure prediction by ZEFSAII (Michael W. Deem and Ramdas Pophale) SiO2 
 PCOD8179008
Probable space group: A M M 2
;
_chemical_formula_sum "Si O2"
_cell_formula_units_Z 48
_cell_length_a 13.588511
_cell_length_b 13.688036
_cell_length_c 13.559896
_cell_angle_alpha 90.000000
_cell_angle_beta 90.000000
_cell_angle_gamma 90.000000
_cell_volume 2522.141032
_symmetry_space_group_name_H-M "A M M 2"
_symmetry_group_IT_number 38
_symmetry_cell_setting 'orthorhombic'
loop_
_space_group_symop_operation_xyz
x,y,z
-x,-y,z
-x,y,z
x,-y,z
x,1/2+y,1/2+z
-x,1/2-y,1/2+z
-x,1/2+y,1/2+z
x,1/2-y,1/2+z
loop_
_atom_site_type_symbol
_atom_site_label
_atom_site_fract_x
_atom_site_fract_y
_atom_site_fract_z
Si Si1 0.889457 0.802844 0.523510
Si Si2 0.746757 0.243299 0.175498
Si Si3 0.386673 0.613238 0.536178
Si Si4 0.693380 0.110132 0.824168
Si Si5 0.885641 0.113522 0.312409
Si Si6 0.892719 0.393190 0.421567
O O1 0.812072 0.820157 0.611230
O O2 0.858389 0.860908 0.425429
O O3 0.881839 0.685926 0.507207
O O4 0.000000 0.833378 0.555152
O O5 0.678826 0.176007 0.108823
O O6 0.671676 0.310687 0.239368
O O7 0.817219 0.176418 0.241687
O O8 0.500000 0.636134 0.557386
O O9 0.361383 0.500000 0.553499
O O10 0.362450 0.641509 0.423472
O O11 0.811331 0.118030 0.837648
O O12 0.662058 0.000000 0.793039
O O13 0.000000 0.139815 0.292611
O O14 0.864584 0.000000 0.294147
O O15 0.881988 0.500000 0.472440
O O16 0.000000 0.381125 0.370340
#
# Coordination Sequence:
#
# PCOD8179008 Si02
#       6
#     8   8   8   8   8   8
#     4  10  20  33  50  76 113 148 178 215 261 311
#     4  12  20  34  57  86 104 138 181 230 260 318
#     4  10  22  40  59  79 105 136 173 223 280 330
#     4  10  21  37  56  81 112 142 176 220 273 323
#     4  10  21  35  50  74 112 152 183 215 260 312
#     4   9  16  29  50  75 106 143 179 214 252 300
#
# _framework density 19.031448999999999
#
# number of rings (size 3 to 8) (size 9 to 14) (size 15 to 20)
#    0.000    1.833    3.333    1.000    0.000    2.667 
#    0.000    1.667    0.000    0.000    0.000    0.000 
#    0.000    0.000    0.000    0.000    0.000    0.000 
#
# Total GULP energy -297501.115781 kJ/mol
# GULP energy per Si atom -12395.879824 kJ/mol
# Density = 1.898813 g / cm^3
# Si number density = 19.031449 Si / 1000 Ang^3
#
#
#
# Elastic Constant Matrix: (Units=GPa)
#
#
# Indices 1 2 3 4 5 6 
#
# 1 77.1424 23.8412 47.0814 0.0000 0.0000 0.0000
# 2 23.8412 80.8078 49.7251 0.0000 0.0000 0.0000
# 3 47.0814 49.7251 110.8765 0.0000 0.0000 0.0000
# 4 0.0000 0.0000 0.0000 26.8518 0.0000 0.0000
# 5 0.0000 0.0000 0.0000 0.0000 11.2445 0.0000
# 6 0.0000 0.0000 0.0000 0.0000 0.0000 18.7280
#
#
#
# Elastic Compliance Matrix: (Units=1/GPa)
#
#
# Indices 1 2 3 4 5 6 
#
# 1 0.017537 -0.000817 -0.007080 0.000000 0.000000 0.000000
# 2 -0.000817 0.017130 -0.007335 0.000000 0.000000 0.000000
# 3 -0.007080 -0.007335 0.015315 0.000000 0.000000 0.000000
# 4 0.000000 0.000000 0.000000 0.037242 0.000000 0.000000
# 5 0.000000 0.000000 0.000000 0.000000 0.088932 0.000000
# 6 0.000000 0.000000 0.000000 0.000000 0.000000 0.053396
#
#
# Mechanical properties :
#
#
# Convention : Reuss Voigt Hill
#
# Bulk Modulus (GPa) = 51.23853 56.68023 53.95938
# Shear Modulus (GPa) = 18.76017 21.24347 20.00182
#
# Velocity S-wave (km/s) = 3.14306 3.34463 3.24541
# Velocity P-wave (km/s) = 6.33667 6.69047 6.51597
#
# Compressibility (1/GPa) = 0.01951656
#
# Stress axis : x y z
#
# Youngs Moduli (GPa) = 57.02326 58.37739 65.29488
#
# Poissons Ratio (x) = 0.04771 0.46229
# Poissons Ratio (y) = 0.04660 0.47896
# Poissons Ratio (z) = 0.40373 0.42822
#
# Static dielectric constant tensor:
#      x y z
#    x 3.479530 0.000000 0.000000 
#    y 0.000000 3.595690 0.000000 
#    z 0.000000 0.000000 3.404450 
# 
# 
# High freq. dielectric constant tensor:
#      x y z
#    x 1.726320 0.000000 0.000000 
#    y 0.000000 1.740270 0.000000 
#    z 0.000000 0.000000 1.725430 
# 
# From -- ./inp_files/10000.got.cif
#   From: 2010.03.12/outbox.cif.g09.slc.cpg/sg38_5_cif.got.tgz:10000.got - 2010.04.14 02:38:36.
