data_PCOD8179178
_publ_section_title
;
Structure prediction by ZEFSAII (Michael W. Deem and Ramdas Pophale) SiO2 
 PCOD8179178
Probable space group: A M M 2
;
_chemical_formula_sum "Si O2"
_cell_formula_units_Z 56
_cell_length_a 21.387386
_cell_length_b 9.219401
_cell_length_c 15.325311
_cell_angle_alpha 90.000000
_cell_angle_beta 90.000000
_cell_angle_gamma 90.000000
_cell_volume 3021.827779
_symmetry_space_group_name_H-M "A M M 2"
_symmetry_group_IT_number 38
_symmetry_cell_setting 'orthorhombic'
loop_
_space_group_symop_operation_xyz
x,y,z
-x,-y,z
-x,y,z
x,-y,z
x,1/2+y,1/2+z
-x,1/2-y,1/2+z
-x,1/2+y,1/2+z
x,1/2-y,1/2+z
loop_
_atom_site_type_symbol
_atom_site_label
_atom_site_fract_x
_atom_site_fract_y
_atom_site_fract_z
Si Si1 0.792001 0.329033 0.681650
Si Si2 0.000000 0.171253 0.768044
Si Si3 0.878448 0.833057 0.022223
Si Si4 0.427197 0.168118 0.813652
Si Si5 0.350135 0.172103 0.168746
Si Si6 0.133432 0.667428 0.326859
Si Si7 0.000000 0.671817 0.069277
Si Si8 0.569149 0.827830 0.009289
O O1 0.795560 0.500000 0.694874
O O2 0.830465 0.280045 0.596232
O O3 0.721318 0.275629 0.668311
O O4 0.818556 0.255725 0.768211
O O5 0.937165 0.229878 0.814450
O O6 0.000000 0.225827 0.668837
O O7 0.000000 0.000000 0.774086
O O8 0.939347 0.734016 0.022301
O O9 0.898290 0.000000 0.037003
O O10 0.846230 0.814440 0.927580
O O11 0.500000 0.195749 0.793639
O O12 0.385088 0.264388 0.751634
O O13 0.410366 0.000000 0.799992
O O14 0.410855 0.219409 0.912028
O O15 0.381877 0.232669 0.080078
O O16 0.355291 0.000000 0.173502
O O17 0.136175 0.500000 0.297293
O O18 0.000000 0.500000 0.061170
O O19 0.500000 0.766124 0.031395
O O20 0.566487 0.000000 0.012240
#
# Coordination Sequence:
#
# PCOD8179178 Si02
#       8
#     8   4   8   8   8   8   4   8
#     4  10  22  37  51  76 110 140 175 221 261 302
#     4   9  17  31  53  80 105 127 162 212 259 308
#     4  10  21  37  57  79 105 139 179 220 263 311
#     4   9  18  33  54  81 108 133 171 222 265 306
#     4  10  20  34  53  76 106 142 178 213 257 313
#     4  10  20  37  59  79 102 136 176 217 262 316
#     4  11  20  33  57  84 109 135 168 216 271 320
#     4   8  15  30  53  78 103 134 171 210 255 308
#
# _framework density 18.531831
#
# number of rings (size 3 to 8) (size 9 to 14) (size 15 to 20)
#    0.000    2.429    1.429    1.929    0.000    4.286 
#    0.000    3.929    0.000    0.857    0.000    0.000 
#    0.000    0.000    0.000    0.000    0.000    0.000 
#
# Total GULP energy -347193.688470 kJ/mol
# GULP energy per Si atom -12399.774588 kJ/mol
# Density = 1.848965 g / cm^3
# Si number density = 18.531831 Si / 1000 Ang^3
#
#
#
# Elastic Constant Matrix: (Units=GPa)
#
#
# Indices 1 2 3 4 5 6 
#
# 1 129.8059 33.3957 71.6411 0.0000 0.0000 0.0000
# 2 33.3957 29.0511 31.5225 0.0000 0.0000 0.0000
# 3 71.6411 31.5225 131.4857 0.0000 0.0000 0.0000
# 4 0.0000 0.0000 0.0000 30.5443 0.0000 0.0000
# 5 0.0000 0.0000 0.0000 0.0000 12.6740 0.0000
# 6 0.0000 0.0000 0.0000 0.0000 0.0000 25.6027
#
#
#
# Elastic Compliance Matrix: (Units=1/GPa)
#
#
# Indices 1 2 3 4 5 6 
#
# 1 0.012734 -0.009610 -0.004634 0.000000 0.000000 0.000000
# 2 -0.009610 0.053777 -0.007657 0.000000 0.000000 0.000000
# 3 -0.004634 -0.007657 0.011966 0.000000 0.000000 0.000000
# 4 0.000000 0.000000 0.000000 0.032739 0.000000 0.000000
# 5 0.000000 0.000000 0.000000 0.000000 0.078902 0.000000
# 6 0.000000 0.000000 0.000000 0.000000 0.000000 0.039058
#
#
# Mechanical properties :
#
#
# Convention : Reuss Voigt Hill
#
# Bulk Modulus (GPa) = 28.83878 62.60681 45.72279
# Shear Modulus (GPa) = 17.57247 24.01641 20.79444
#
# Velocity S-wave (km/s) = 3.08268 3.60384 3.35340
# Velocity P-wave (km/s) = 5.31658 7.15358 6.30237
#
# Compressibility (1/GPa) = 0.03467553
#
# Stress axis : x y z
#
# Youngs Moduli (GPa) = 78.53091 18.59541 83.56993
#
# Poissons Ratio (x) = 0.17869 0.38729
# Poissons Ratio (y) = 0.75465 0.63986
# Poissons Ratio (z) = 0.36394 0.14238
#
# Static dielectric constant tensor:
#      x y z
#    x 3.624550 0.000000 0.000000 
#    y 0.000000 3.091280 0.000000 
#    z 0.000000 0.000000 3.577190 
# 
# 
# High freq. dielectric constant tensor:
#      x y z
#    x 1.717230 0.000000 0.000000 
#    y 0.000000 1.688340 0.000000 
#    z 0.000000 0.000000 1.732730 
# 
# From -- ./inp_files/15538.got.cif
#   From: 2010.03.12/outbox.cif.g09.slc.cpg/sg38_8_cif.got.tgz:15538.got - 2010.04.14 02:38:36.
