data_PCOD8179385
_publ_section_title
;
Structure prediction by ZEFSAII (Michael W. Deem and Ramdas Pophale) SiO2 
 PCOD8179385
Probable space group: A M M 2
;
_chemical_formula_sum "Si O2"
_cell_formula_units_Z 56
_cell_length_a 21.591095
_cell_length_b 9.149533
_cell_length_c 15.143242
_cell_angle_alpha 90.000000
_cell_angle_beta 90.000000
_cell_angle_gamma 90.000000
_cell_volume 2991.523776
_symmetry_space_group_name_H-M "A M M 2"
_symmetry_group_IT_number 38
_symmetry_cell_setting 'orthorhombic'
loop_
_space_group_symop_operation_xyz
x,y,z
-x,-y,z
-x,y,z
x,-y,z
x,1/2+y,1/2+z
-x,1/2-y,1/2+z
-x,1/2+y,1/2+z
x,1/2-y,1/2+z
loop_
_atom_site_type_symbol
_atom_site_label
_atom_site_fract_x
_atom_site_fract_y
_atom_site_fract_z
Si Si1 0.791672 0.328852 0.887740
Si Si2 0.570784 0.328701 0.056726
Si Si3 0.000000 0.665453 0.751353
Si Si4 0.876364 0.327024 0.250088
Si Si5 0.120092 0.331411 0.046842
Si Si6 0.570765 0.671159 0.734191
Si Si7 0.650692 0.826621 0.395700
Si Si8 0.000000 0.337012 0.541878
O O1 0.796309 0.500000 0.863794
O O2 0.821091 0.236563 0.808532
O O3 0.721362 0.273907 0.895890
O O4 0.822698 0.296363 0.982620
O O5 0.500000 0.291601 0.031352
O O6 0.579960 0.500000 0.070332
O O7 0.591446 0.250590 0.145685
O O8 0.615383 0.264806 0.981195
O O9 0.060524 0.751545 0.784454
O O10 0.000000 0.500000 0.789591
O O11 0.000000 0.662783 0.646714
O O12 0.881886 0.500000 0.263605
O O13 0.862822 0.286790 0.147415
O O14 0.101073 0.500000 0.044372
O O15 0.061482 0.243748 0.008408
O O16 0.500000 0.707994 0.759809
O O17 0.579889 0.500000 0.719928
O O18 0.615426 0.733861 0.809894
O O19 0.646195 0.000000 0.396973
O O20 0.000000 0.500000 0.502858
#
# Coordination Sequence:
#
# PCOD8179385 Si02
#       8
#     8   8   4   8   8   8   8   4
#     4  10  21  36  52  72  99 137 179 209 243 301
#     4   9  17  31  53  79 103 130 168 212 255 301
#     4   9  17  32  55  80 102 130 168 208 253 305
#     4  10  20  35  54  77 104 132 165 211 261 303
#     4   9  19  35  53  72  99 132 164 202 251 302
#     4   9  17  31  52  77 103 131 165 208 258 306
#     4   9  18  33  52  72  99 137 176 208 244 300
#     4   9  17  30  53  80 100 122 160 208 253 295
#
# _framework density 18.719556999999998
#
# number of rings (size 3 to 8) (size 9 to 14) (size 15 to 20)
#    0.000    2.714    0.000    1.286    0.000    6.286 
#    0.000    4.286    0.000    3.429    0.000    0.000 
#    0.000    0.000    0.000    0.000    0.000    0.000 
#
# Total GULP energy -347218.217359 kJ/mol
# GULP energy per Si atom -12400.650620 kJ/mol
# Density = 1.867695 g / cm^3
# Si number density = 18.719557 Si / 1000 Ang^3
#
#
#
# Elastic Constant Matrix: (Units=GPa)
#
#
# Indices 1 2 3 4 5 6 
#
# 1 159.8745 52.5688 94.8865 0.0000 0.0000 0.0000
# 2 52.5688 63.0041 49.0922 0.0000 0.0000 0.0000
# 3 94.8865 49.0922 130.1556 0.0000 0.0000 0.0000
# 4 0.0000 0.0000 0.0000 28.1281 0.0000 0.0000
# 5 0.0000 0.0000 0.0000 0.0000 20.3617 0.0000
# 6 0.0000 0.0000 0.0000 0.0000 0.0000 22.0159
#
#
#
# Elastic Compliance Matrix: (Units=1/GPa)
#
#
# Indices 1 2 3 4 5 6 
#
# 1 0.011852 -0.004470 -0.006955 0.000000 0.000000 0.000000
# 2 -0.004470 0.024164 -0.005855 0.000000 0.000000 0.000000
# 3 -0.006955 -0.005855 0.014962 0.000000 0.000000 0.000000
# 4 0.000000 0.000000 0.000000 0.035552 0.000000 0.000000
# 5 0.000000 0.000000 0.000000 0.000000 0.049112 0.000000
# 6 0.000000 0.000000 0.000000 0.000000 0.000000 0.045422
#
#
# Mechanical properties :
#
#
# Convention : Reuss Voigt Hill
#
# Bulk Modulus (GPa) = 60.90904 82.90323 71.90613
# Shear Modulus (GPa) = 22.61455 24.53359 23.57407
#
# Velocity S-wave (km/s) = 3.47950 3.62413 3.55255
# Velocity P-wave (km/s) = 6.98218 7.86737 7.43796
#
# Compressibility (1/GPa) = 0.01641792
#
# Stress axis : x y z
#
# Youngs Moduli (GPa) = 84.37127 41.38330 66.83774
#
# Poissons Ratio (x) = 0.18500 0.46482
# Poissons Ratio (y) = 0.37717 0.39135
# Poissons Ratio (z) = 0.58676 0.24231
#
# Static dielectric constant tensor:
#      x y z
#    x 3.507800 0.000000 0.000000 
#    y 0.000000 3.302480 0.000000 
#    z 0.000000 0.000000 3.483040 
# 
# 
# High freq. dielectric constant tensor:
#      x y z
#    x 1.724920 0.000000 0.000000 
#    y 0.000000 1.709030 0.000000 
#    z 0.000000 0.000000 1.729620 
# 
# From -- ./inp_files/15536.got.cif
#   From: 2010.03.12/outbox.cif.g09.slc.cpg/sg38_8_cif.got.tgz:15536.got - 2010.04.14 02:38:36.
