data_PCOD8179088
_publ_section_title
;
Structure prediction by ZEFSAII (Michael W. Deem and Ramdas Pophale) SiO2 
 PCOD8179088
Probable space group: A M M 2
;
_chemical_formula_sum "Si O2"
_cell_formula_units_Z 64
_cell_length_a 13.968922
_cell_length_b 9.124647
_cell_length_c 26.242005
_cell_angle_alpha 90.000000
_cell_angle_beta 90.000000
_cell_angle_gamma 90.000000
_cell_volume 3344.844854
_symmetry_space_group_name_H-M "A M M 2"
_symmetry_group_IT_number 38
_symmetry_cell_setting 'orthorhombic'
loop_
_space_group_symop_operation_xyz
x,y,z
-x,-y,z
-x,y,z
x,-y,z
x,1/2+y,1/2+z
-x,1/2-y,1/2+z
-x,1/2+y,1/2+z
x,1/2-y,1/2+z
loop_
_atom_site_type_symbol
_atom_site_label
_atom_site_fract_x
_atom_site_fract_y
_atom_site_fract_z
Si Si1 0.611046 0.671958 0.591110
Si Si2 0.794635 0.828781 0.343290
Si Si3 0.774094 0.173156 0.542505
Si Si4 0.607100 0.670307 0.792959
Si Si5 0.112796 0.831339 0.240861
Si Si6 0.108859 0.671753 0.141612
Si Si7 0.613577 0.835243 0.692690
Si Si8 0.891298 0.174745 0.444686
O O1 0.500000 0.706708 0.580424
O O2 0.629762 0.500000 0.595064
O O3 0.672370 0.742790 0.545111
O O4 0.648074 0.746883 0.643223
O O5 0.679818 0.799604 0.339902
O O6 0.843927 0.762850 0.292683
O O7 0.839160 0.758912 0.394431
O O8 0.817839 0.000000 0.345015
O O9 0.835057 0.220556 0.591515
O O10 0.831689 0.229853 0.493300
O O11 0.755292 0.000000 0.540062
O O12 0.500000 0.721918 0.808766
O O13 0.606658 0.500000 0.777972
O O14 0.648432 0.755615 0.744009
O O15 0.154938 0.746519 0.191738
O O16 0.000000 0.809705 0.243990
O O17 0.142869 0.000000 0.235093
O O18 0.114374 0.500000 0.150047
O O19 0.000000 0.724990 0.134178
O O20 0.500000 0.838673 0.693753
O O21 0.655937 0.000000 0.689997
O O22 0.000000 0.234603 0.447312
O O23 0.892414 0.000000 0.444012
#
# Coordination Sequence:
#
# PCOD8179088 Si02
#       8
#     8   8   8   8   8   8   8   8
#     4  10  21  36  53  74 104 142 179 214 259 314
#     4   9  17  29  48  74 101 133 175 219 263 310
#     4  10  20  33  53  80 105 134 176 220 265 313
#     4   9  17  29  45  69 104 141 175 213 260 314
#     4   9  17  29  46  70  98 127 164 211 259 308
#     4   9  18  32  48  70 103 137 167 205 259 320
#     4   9  17  30  49  73 102 136 174 216 258 303
#     4   9  17  32  55  80 105 135 175 224 273 319
#
# _framework density 19.133921000000001
#
# number of rings (size 3 to 8) (size 9 to 14) (size 15 to 20)
#    0.000    2.750    0.000    1.500    1.750    5.750 
#    0.000    0.625    0.000    4.875    0.000    1.750 
#    0.000    0.000    0.000    0.000    0.000    0.000 
#
# Total GULP energy -396734.578888 kJ/mol
# GULP energy per Si atom -12397.955590 kJ/mol
# Density = 1.909037 g / cm^3
# Si number density = 19.133921 Si / 1000 Ang^3
#
#
#
# Elastic Constant Matrix: (Units=GPa)
#
#
# Indices 1 2 3 4 5 6 
#
# 1 100.0678 33.0940 79.0965 0.0000 0.0000 0.0000
# 2 33.0940 47.9859 39.0878 0.0000 0.0000 0.0000
# 3 79.0965 39.0878 160.5758 0.0000 0.0000 0.0000
# 4 0.0000 0.0000 0.0000 20.9848 0.0000 0.0000
# 5 0.0000 0.0000 0.0000 0.0000 36.2110 0.0000
# 6 0.0000 0.0000 0.0000 0.0000 0.0000 19.4043
#
#
#
# Elastic Compliance Matrix: (Units=1/GPa)
#
#
# Indices 1 2 3 4 5 6 
#
# 1 0.017817 -0.006410 -0.007216 0.000000 0.000000 0.000000
# 2 -0.006410 0.028299 -0.003731 0.000000 0.000000 0.000000
# 3 -0.007216 -0.003731 0.010690 0.000000 0.000000 0.000000
# 4 0.000000 0.000000 0.000000 0.047654 0.000000 0.000000
# 5 0.000000 0.000000 0.000000 0.000000 0.027616 0.000000
# 6 0.000000 0.000000 0.000000 0.000000 0.000000 0.051535
#
#
# Mechanical properties :
#
#
# Convention : Reuss Voigt Hill
#
# Bulk Modulus (GPa) = 45.26432 67.90957 56.58694
# Shear Modulus (GPa) = 22.15438 25.81009 23.98224
#
# Velocity S-wave (km/s) = 3.40642 3.67675 3.54416
# Velocity P-wave (km/s) = 6.25936 7.32075 6.81076
#
# Compressibility (1/GPa) = 0.02209246
#
# Stress axis : x y z
#
# Youngs Moduli (GPa) = 56.12741 35.33639 93.54267
#
# Poissons Ratio (x) = 0.22649 0.67499
# Poissons Ratio (y) = 0.35975 0.34905
# Poissons Ratio (z) = 0.40501 0.13186
#
# Static dielectric constant tensor:
#      x y z
#    x 3.662240 0.000000 0.000000 
#    y 0.000000 3.220650 0.000000 
#    z 0.000000 0.000000 3.567200 
# 
# 
# High freq. dielectric constant tensor:
#      x y z
#    x 1.758800 0.000000 0.000000 
#    y 0.000000 1.706060 0.000000 
#    z 0.000000 0.000000 1.729930 
# 
# From -- ./inp_files/22877.got.cif
#   From: 2010.03.12/outbox.cif.g09.slc.cpg/sg38_12_cif.got.tgz:22877.got - 2010.04.14 02:38:36.
