data_PCOD8179058
_publ_section_title
;
Structure prediction by ZEFSAII (Michael W. Deem and Ramdas Pophale) SiO2 
 PCOD8179058
Probable space group: A M M 2
;
_chemical_formula_sum "Si O2"
_cell_formula_units_Z 56
_cell_length_a 23.532367
_cell_length_b 8.923059
_cell_length_c 14.489977
_cell_angle_alpha 90.000000
_cell_angle_beta 90.000000
_cell_angle_gamma 90.000000
_cell_volume 3042.615501
_symmetry_space_group_name_H-M "A M M 2"
_symmetry_group_IT_number 38
_symmetry_cell_setting 'orthorhombic'
loop_
_space_group_symop_operation_xyz
x,y,z
-x,-y,z
-x,y,z
x,-y,z
x,1/2+y,1/2+z
-x,1/2-y,1/2+z
-x,1/2+y,1/2+z
x,1/2-y,1/2+z
loop_
_atom_site_type_symbol
_atom_site_label
_atom_site_fract_x
_atom_site_fract_y
_atom_site_fract_z
Si Si1 0.854039 0.323299 0.633870
Si Si2 0.064250 0.827700 0.294551
Si Si3 0.641221 0.676521 0.287206
Si Si4 0.265723 0.171420 0.637535
Si Si5 0.062579 0.822836 0.983172
Si Si6 0.567088 0.827309 0.137487
Si Si7 0.358639 0.176576 0.487820
O O1 0.852632 0.500000 0.627049
O O2 0.889960 0.271035 0.721554
O O3 0.790025 0.269904 0.638330
O O4 0.887878 0.254246 0.546862
O O5 0.076888 0.722971 0.380262
O O6 0.000000 0.806028 0.256340
O O7 0.074030 0.000000 0.322426
O O8 0.630052 0.500000 0.297659
O O9 0.698424 0.708762 0.229413
O O10 0.589187 0.747908 0.230552
O O11 0.646798 0.749996 0.387500
O O12 0.301377 0.209090 0.545464
O O13 0.246947 0.000000 0.637397
O O14 0.000000 0.760666 0.011662
O O15 0.062103 0.000000 0.991945
O O16 0.500000 0.812552 0.137317
O O17 0.589334 0.747754 0.044577
O O18 0.586953 0.000000 0.137484
O O19 0.369711 0.000000 0.477482
#
# Coordination Sequence:
#
# PCOD8179058 Si02
#       7
#     8   8   8   8   8   8   8
#     4  10  20  33  52  75  99 133 171 209 259 314
#     4   9  18  33  51  72  99 130 166 208 255 310
#     4  10  21  38  59  81 108 145 184 222 267 315
#     4   9  21  38  53  75 106 137 174 221 265 309
#     4   9  18  33  51  72  99 130 166 208 255 310
#     4  10  21  37  58  86 117 146 179 220 264 312
#     4  10  21  38  59  81 108 145 184 222 267 315
#
# _framework density 18.405218000000001
#
# number of rings (size 3 to 8) (size 9 to 14) (size 15 to 20)
#    0.000    2.429    0.000    2.571    0.000    9.143 
#    0.000    5.714    0.000    4.286    0.000    0.000 
#    0.000    0.000    0.000    0.000    0.000    0.000 
#
# Total GULP energy -347155.537228 kJ/mol
# GULP energy per Si atom -12398.412044 kJ/mol
# Density = 1.836333 g / cm^3
# Si number density = 18.405218 Si / 1000 Ang^3
#
#
#
# Elastic Constant Matrix: (Units=GPa)
#
#
# Indices 1 2 3 4 5 6 
#
# 1 115.1742 51.4720 70.2929 0.0000 0.0000 0.0000
# 2 51.4720 80.4026 60.1161 0.0000 0.0000 0.0000
# 3 70.2929 60.1161 148.2144 0.0000 0.0000 0.0000
# 4 0.0000 0.0000 0.0000 34.6081 0.0000 0.0000
# 5 0.0000 0.0000 0.0000 0.0000 22.5572 0.0000
# 6 0.0000 0.0000 0.0000 0.0000 0.0000 32.2443
#
#
#
# Elastic Compliance Matrix: (Units=1/GPa)
#
#
# Indices 1 2 3 4 5 6 
#
# 1 0.013807 -0.005659 -0.004253 0.000000 0.000000 0.000000
# 2 -0.005659 0.020171 -0.005497 0.000000 0.000000 0.000000
# 3 -0.004253 -0.005497 0.010994 0.000000 0.000000 0.000000
# 4 0.000000 0.000000 0.000000 0.028895 0.000000 0.000000
# 5 0.000000 0.000000 0.000000 0.000000 0.044332 0.000000
# 6 0.000000 0.000000 0.000000 0.000000 0.000000 0.031013
#
#
# Mechanical properties :
#
#
# Convention : Reuss Voigt Hill
#
# Bulk Modulus (GPa) = 70.65783 78.61703 74.63743
# Shear Modulus (GPa) = 27.06392 28.67594 27.86993
#
# Velocity S-wave (km/s) = 3.83880 3.95147 3.89555
# Velocity P-wave (km/s) = 7.62378 7.97660 7.80218
#
# Compressibility (1/GPa) = 0.01415271
#
# Stress axis : x y z
#
# Youngs Moduli (GPa) = 72.42555 49.57718 90.96145
#
# Poissons Ratio (x) = 0.28057 0.38685
# Poissons Ratio (y) = 0.40988 0.50004
# Poissons Ratio (z) = 0.30802 0.27254
#
# Static dielectric constant tensor:
#      x y z
#    x 3.400850 0.000000 0.000000 
#    y 0.000000 3.399730 0.000000 
#    z 0.000000 0.000000 3.500680 
# 
# 
# High freq. dielectric constant tensor:
#      x y z
#    x 1.714770 0.000000 0.000000 
#    y 0.000000 1.714590 0.000000 
#    z 0.000000 0.000000 1.720260 
# 
# From -- ./inp_files/15480.got.cif
#   From: 2010.03.12/outbox.cif.g09.slc.cpg/sg38_8_cif.got.tgz:15480.got - 2010.04.14 02:38:36.
