data_PCOD8179902
_publ_section_title
;
Structure prediction by ZEFSAII (Michael W. Deem and Ramdas Pophale) SiO2 
 PCOD8179902
Probable space group: A M M 2
;
_chemical_formula_sum "Si O2"
_cell_formula_units_Z 40
_cell_length_a 8.948854
_cell_length_b 7.566851
_cell_length_c 29.512209
_cell_angle_alpha 90.000000
_cell_angle_beta 90.000000
_cell_angle_gamma 90.000000
_cell_volume 1998.408751
_symmetry_space_group_name_H-M "A M M 2"
_symmetry_group_IT_number 38
_symmetry_cell_setting 'orthorhombic'
loop_
_space_group_symop_operation_xyz
x,y,z
-x,-y,z
-x,y,z
x,-y,z
x,1/2+y,1/2+z
-x,1/2-y,1/2+z
-x,1/2+y,1/2+z
x,1/2-y,1/2+z
loop_
_atom_site_type_symbol
_atom_site_label
_atom_site_fract_x
_atom_site_fract_y
_atom_site_fract_z
Si Si1 0.332583 0.708574 0.248120
Si Si2 0.176714 0.500000 0.906749
Si Si3 0.163795 0.202619 0.157848
Si Si4 0.674711 0.292169 0.568805
Si Si5 0.824010 0.298393 0.339560
Si Si6 0.821590 0.500000 0.009156
O O1 0.500000 0.786001 0.246574
O O2 0.333910 0.500000 0.245853
O O3 0.242051 0.779949 0.205827
O O4 0.254221 0.772439 0.294090
O O5 0.232421 0.323826 0.880786
O O6 0.000000 0.500000 0.908061
O O7 0.238463 0.500000 0.957591
O O8 0.266117 0.278701 0.117462
O O9 0.000000 0.296211 0.158501
O O10 0.139698 0.000000 0.146885
O O11 0.500000 0.250713 0.566795
O O12 0.706678 0.500000 0.560584
O O13 0.759291 0.179581 0.530885
O O14 0.777972 0.500000 0.350786
O O15 0.000000 0.281294 0.331632
O O16 0.000000 0.500000 0.012605
#
# Coordination Sequence:
#
# PCOD8179902 Si02
#       6
#     8   4   8   8   8   4
#     4  10  21  35  52  79 115 153 190 231 285 348
#     4   9  20  37  59  87 113 145 195 245 296 351
#     4  10  21  36  56  83 113 149 193 239 288 346
#     4  10  22  41  62  85 119 159 198 246 301 357
#     4   9  18  35  57  80 111 149 190 240 290 339
#     4  11  23  39  63  93 121 155 199 251 306 363
#
# _framework density 20.015924999999999
#
# number of rings (size 3 to 8) (size 9 to 14) (size 15 to 20)
#    0.000    2.200    0.000    2.100    2.800    4.400 
#    0.000    4.000    0.000    2.400    0.000    0.000 
#    0.000    0.000    0.000    0.000    0.000    0.000 
#
# Total GULP energy -247976.972697 kJ/mol
# GULP energy per Si atom -12398.848635 kJ/mol
# Density = 1.997037 g / cm^3
# Si number density = 20.015925 Si / 1000 Ang^3
#
#
#
# Elastic Constant Matrix: (Units=GPa)
#
#
# Indices 1 2 3 4 5 6 
#
# 1 122.1820 40.6835 69.9555 0.0000 0.0000 0.0000
# 2 40.6835 81.1814 63.8224 0.0000 0.0000 0.0000
# 3 69.9555 63.8224 184.8393 0.0000 0.0000 0.0000
# 4 0.0000 0.0000 0.0000 31.3575 0.0000 0.0000
# 5 0.0000 0.0000 0.0000 0.0000 110.7956 0.0000
# 6 0.0000 0.0000 0.0000 0.0000 0.0000 23.3577
#
#
#
# Elastic Compliance Matrix: (Units=1/GPa)
#
#
# Indices 1 2 3 4 5 6 
#
# 1 0.010979 -0.003068 -0.003096 0.000000 0.000000 0.000000
# 2 -0.003068 0.017765 -0.004973 0.000000 0.000000 0.000000
# 3 -0.003096 -0.004973 0.008299 0.000000 0.000000 0.000000
# 4 0.000000 0.000000 0.000000 0.031890 0.000000 0.000000
# 5 0.000000 0.000000 0.000000 0.000000 0.009026 0.000000
# 6 0.000000 0.000000 0.000000 0.000000 0.000000 0.042813
#
#
# Mechanical properties :
#
#
# Convention : Reuss Voigt Hill
#
# Bulk Modulus (GPa) = 67.70843 81.90284 74.80563
# Shear Modulus (GPa) = 33.79124 47.35157 40.57141
#
# Velocity S-wave (km/s) = 4.11325 4.86912 4.50706
# Velocity P-wave (km/s) = 7.51393 8.52166 8.03361
#
# Compressibility (1/GPa) = 0.01476921
#
# Stress axis : x y z
#
# Youngs Moduli (GPa) = 91.08687 56.28977 120.49984
#
# Poissons Ratio (x) = 0.17270 0.37302
# Poissons Ratio (y) = 0.27947 0.59923
# Poissons Ratio (z) = 0.28197 0.27992
#
# Static dielectric constant tensor:
#      x y z
#    x 3.376140 0.000000 0.000000 
#    y 0.000000 3.855290 0.000000 
#    z 0.000000 0.000000 3.833960 
# 
# 
# High freq. dielectric constant tensor:
#      x y z
#    x 1.780610 0.000000 0.000000 
#    y 0.000000 1.782680 0.000000 
#    z 0.000000 0.000000 1.780270 
# 
# From -- ./inp_files/23225.got.cif
#   From: 2010.03.12/outbox.cif.g09.slc.cpg/sg38_12_cif.got.tgz:23225.got - 2010.04.14 02:38:36.
