data_PCOD8179136
_publ_section_title
;
Structure prediction by ZEFSAII (Michael W. Deem and Ramdas Pophale) SiO2 
 PCOD8179136
Probable space group: A M M 2
;
_chemical_formula_sum "Si O2"
_cell_formula_units_Z 40
_cell_length_a 9.613437
_cell_length_b 7.767007
_cell_length_c 29.277039
_cell_angle_alpha 90.000000
_cell_angle_beta 90.000000
_cell_angle_gamma 90.000000
_cell_volume 2186.047188
_symmetry_space_group_name_H-M "A M M 2"
_symmetry_group_IT_number 38
_symmetry_cell_setting 'orthorhombic'
loop_
_space_group_symop_operation_xyz
x,y,z
-x,-y,z
-x,y,z
x,-y,z
x,1/2+y,1/2+z
-x,1/2-y,1/2+z
-x,1/2+y,1/2+z
x,1/2-y,1/2+z
loop_
_atom_site_type_symbol
_atom_site_label
_atom_site_fract_x
_atom_site_fract_y
_atom_site_fract_z
Si Si1 0.160917 0.302571 0.699200
Si Si2 0.161174 0.000000 0.630294
Si Si3 0.344956 0.295130 0.783301
Si Si4 0.333747 0.500000 0.038962
Si Si5 0.665673 0.191448 0.381969
Si Si6 0.335290 0.812538 0.977585
O O1 0.202470 0.500000 0.685993
O O2 0.243761 0.233625 0.743223
O O3 0.000000 0.291968 0.712292
O O4 0.196177 0.174091 0.657995
O O5 0.262144 0.000000 0.587606
O O6 0.000000 0.000000 0.615191
O O7 0.500000 0.224547 0.772767
O O8 0.348542 0.500000 0.786471
O O9 0.290134 0.226066 0.832862
O O10 0.500000 0.500000 0.045327
O O11 0.278359 0.666579 0.011421
O O12 0.500000 0.184683 0.382423
O O13 0.722862 0.296062 0.425710
O O14 0.727014 0.000000 0.386987
O O15 0.500000 0.793578 0.975591
O O16 0.290152 0.000000 0.996452
#
# Coordination Sequence:
#
# PCOD8179136 Si02
#       6
#     8   4   8   4   8   8
#     4   9  18  34  53  70  93 127 164 198 237 290
#     4  10  22  38  54  72  94 126 166 204 247 296
#     4   8  14  25  45  73 102 130 159 195 238 277
#     4  10  20  34  52  74  98 124 160 208 249 282
#     4   8  12  22  41  65  97 133 161 189 229 280
#     4   9  16  27  45  70 100 130 159 193 238 290
#
# _framework density 18.297867
#
# number of rings (size 3 to 8) (size 9 to 14) (size 15 to 20)
#    0.000    3.200    1.000    1.200    0.000    1.600 
#    1.800    0.000    0.000    1.200    0.000    0.000 
#    0.000    0.000    0.000    0.000    0.000    0.000 
#
# Total GULP energy -247801.226461 kJ/mol
# GULP energy per Si atom -12390.061323 kJ/mol
# Density = 1.825622 g / cm^3
# Si number density = 18.297867 Si / 1000 Ang^3
#
#
#
# Elastic Constant Matrix: (Units=GPa)
#
#
# Indices 1 2 3 4 5 6 
#
# 1 37.5289 25.6368 52.5159 0.0000 0.0000 0.0000
# 2 25.6368 109.4287 68.7784 0.0000 0.0000 0.0000
# 3 52.5159 68.7784 160.9142 0.0000 0.0000 0.0000
# 4 0.0000 0.0000 0.0000 10.5242 0.0000 0.0000
# 5 0.0000 0.0000 0.0000 0.0000 0.4417 0.0000
# 6 0.0000 0.0000 0.0000 0.0000 0.0000 9.4835
#
#
#
# Elastic Compliance Matrix: (Units=1/GPa)
#
#
# Indices 1 2 3 4 5 6 
#
# 1 0.049352 -0.001967 -0.015266 0.000000 0.000000 0.000000
# 2 -0.001967 0.012574 -0.004732 0.000000 0.000000 0.000000
# 3 -0.015266 -0.004732 0.013219 0.000000 0.000000 0.000000
# 4 0.000000 0.000000 0.000000 0.095019 0.000000 0.000000
# 5 0.000000 0.000000 0.000000 0.000000 2.264006 0.000000
# 6 0.000000 0.000000 0.000000 0.000000 0.000000 0.105446
#
#
# Mechanical properties :
#
#
# Convention : Reuss Voigt Hill
#
# Bulk Modulus (GPa) = 32.03640 66.85934 49.44787
# Shear Modulus (GPa) = 1.92756 14.81927 8.37342
#
# Velocity S-wave (km/s) = 1.02748 2.84895 2.14152
# Velocity P-wave (km/s) = 4.35361 6.88772 5.76171
#
# Compressibility (1/GPa) = 0.03121449
#
# Stress axis : x y z
#
# Youngs Moduli (GPa) = 20.26262 79.53211 75.64749
#
# Poissons Ratio (x) = 0.15647 1.15481
# Poissons Ratio (y) = 0.03986 0.35798
# Poissons Ratio (z) = 0.30932 0.37636
#
# Static dielectric constant tensor:
#      x y z
#    x 2.945070 0.000000 0.000000 
#    y 0.000000 3.492270 0.000000 
#    z 0.000000 0.000000 3.523350 
# 
# 
# High freq. dielectric constant tensor:
#      x y z
#    x 1.650000 0.000000 0.000000 
#    y 0.000000 1.707580 0.000000 
#    z 0.000000 0.000000 1.713530 
# 
# From -- ./inp_files/23198.got.cif
#   From: 2010.03.12/outbox.cif.g09.slc.cpg/sg38_12_cif.got.tgz:23198.got - 2010.04.14 02:38:36.
