data_PCOD8179094
_publ_section_title
;
Structure prediction by ZEFSAII (Michael W. Deem and Ramdas Pophale) SiO2 
 PCOD8179094
Probable space group: A M M 2
;
_chemical_formula_sum "Si O2"
_cell_formula_units_Z 64
_cell_length_a 16.020748
_cell_length_b 9.200172
_cell_length_c 22.999384
_cell_angle_alpha 90.000000
_cell_angle_beta 90.000000
_cell_angle_gamma 90.000000
_cell_volume 3389.962860
_symmetry_space_group_name_H-M "A M M 2"
_symmetry_group_IT_number 38
_symmetry_cell_setting 'orthorhombic'
loop_
_space_group_symop_operation_xyz
x,y,z
-x,-y,z
-x,y,z
x,-y,z
x,1/2+y,1/2+z
-x,1/2-y,1/2+z
-x,1/2+y,1/2+z
x,1/2-y,1/2+z
loop_
_atom_site_type_symbol
_atom_site_label
_atom_site_fract_x
_atom_site_fract_y
_atom_site_fract_z
Si Si1 0.226858 0.831938 0.306040
Si Si2 0.596385 0.658203 0.107890
Si Si3 0.096466 0.671927 0.997944
Si Si4 0.907299 0.340598 0.246856
Si Si5 0.843925 0.166729 0.624645
Si Si6 0.404437 0.168220 0.996100
Si Si7 0.696904 0.668578 0.684720
Si Si8 0.241320 0.829111 0.924232
O O1 0.136647 0.787883 0.281821
O O2 0.290127 0.801270 0.252880
O O3 0.250106 0.731239 0.359456
O O4 0.226027 0.000000 0.324796
O O5 0.500000 0.634319 0.101919
O O6 0.640634 0.500000 0.110905
O O7 0.611932 0.751688 0.166358
O O8 0.628091 0.743105 0.051373
O O9 0.108041 0.500000 0.989209
O O10 0.113914 0.718945 0.064634
O O11 0.000000 0.715694 0.982730
O O12 0.163942 0.752402 0.957117
O O13 0.865863 0.500000 0.258995
O O14 0.908841 0.311933 0.177560
O O15 0.000000 0.340813 0.270926
O O16 0.764134 0.263043 0.640508
O O17 0.815900 0.000000 0.618523
O O18 0.500000 0.211356 0.976230
O O19 0.333979 0.203797 0.948507
O O20 0.403398 0.000000 0.013218
O O21 0.692953 0.500000 0.671234
O O22 0.221925 0.000000 0.923661
#
# Coordination Sequence:
#
# PCOD8179094 Si02
#       8
#     8   8   8   8   8   8   8   8
#     4  10  22  38  54  73 100 137 180 221 262 312
#     4  10  20  33  53  83 113 139 169 206 252 310
#     4  10  21  36  54  78 110 147 183 220 266 320
#     4   9  17  31  53  79 105 134 171 217 266 315
#     4   9  17  31  53  79 106 136 172 215 264 318
#     4   9  19  37  60  85 112 141 174 216 269 326
#     4  10  20  34  53  77 105 138 174 213 263 318
#     4  11  23  38  57  79 105 141 184 228 272 317
#
# _framework density 18.879263000000002
#
# number of rings (size 3 to 8) (size 9 to 14) (size 15 to 20)
#    0.000    2.250    0.000    2.625    0.000    8.250 
#    0.000    0.625    0.000    4.500    0.000    0.000 
#    0.000    0.000    0.000    0.000    0.000    0.000 
#
# Total GULP energy -396555.144943 kJ/mol
# GULP energy per Si atom -12392.348279 kJ/mol
# Density = 1.883629 g / cm^3
# Si number density = 18.879263 Si / 1000 Ang^3
#
#
#
# Elastic Constant Matrix: (Units=GPa)
#
#
# Indices 1 2 3 4 5 6 
#
# 1 72.1819 38.8200 54.1394 0.0000 0.0000 0.0000
# 2 38.8200 90.4050 66.8803 0.0000 0.0000 0.0000
# 3 54.1394 66.8803 118.1985 0.0000 0.0000 0.0000
# 4 0.0000 0.0000 0.0000 29.0992 0.0000 0.0000
# 5 0.0000 0.0000 0.0000 0.0000 12.3731 0.0000
# 6 0.0000 0.0000 0.0000 0.0000 0.0000 26.6175
#
#
#
# Elastic Compliance Matrix: (Units=1/GPa)
#
#
# Indices 1 2 3 4 5 6 
#
# 1 0.021688 -0.003378 -0.008023 0.000000 0.000000 0.000000
# 2 -0.003378 0.019551 -0.009516 0.000000 0.000000 0.000000
# 3 -0.008023 -0.009516 0.017519 0.000000 0.000000 0.000000
# 4 0.000000 0.000000 0.000000 0.034365 0.000000 0.000000
# 5 0.000000 0.000000 0.000000 0.000000 0.080821 0.000000
# 6 0.000000 0.000000 0.000000 0.000000 0.000000 0.037569
#
#
# Mechanical properties :
#
#
# Convention : Reuss Voigt Hill
#
# Bulk Modulus (GPa) = 59.07936 66.71831 62.89883
# Shear Modulus (GPa) = 19.30600 21.68102 20.49351
#
# Velocity S-wave (km/s) = 3.20129 3.39249 3.29827
# Velocity P-wave (km/s) = 6.71010 7.12471 6.92051
#
# Compressibility (1/GPa) = 0.01692639
#
# Stress axis : x y z
#
# Youngs Moduli (GPa) = 46.10909 51.14783 57.08046
#
# Poissons Ratio (x) = 0.17277 0.45793
# Poissons Ratio (y) = 0.15575 0.54315
# Poissons Ratio (z) = 0.36991 0.48670
#
# Static dielectric constant tensor:
#      x y z
#    x 3.549160 0.000000 0.000000 
#    y 0.000000 3.877650 0.000000 
#    z 0.000000 0.000000 3.460590 
# 
# 
# High freq. dielectric constant tensor:
#      x y z
#    x 1.729410 0.000000 0.000000 
#    y 0.000000 1.739340 0.000000 
#    z 0.000000 0.000000 1.726100 
# 
# From -- ./inp_files/21427.got.cif
#   From: 2010.03.12/outbox.cif.g09.slc.cpg/sg38_11_cif.got.tgz:21427.got - 2010.04.14 02:38:36.
