data_PCOD8179302
_publ_section_title
;
Structure prediction by ZEFSAII (Michael W. Deem and Ramdas Pophale) SiO2 
 PCOD8179302
Probable space group: A M M 2
;
_chemical_formula_sum "Si O2"
_cell_formula_units_Z 56
_cell_length_a 8.949410
_cell_length_b 14.176559
_cell_length_c 22.731047
_cell_angle_alpha 90.000000
_cell_angle_beta 90.000000
_cell_angle_gamma 90.000000
_cell_volume 2883.929733
_symmetry_space_group_name_H-M "A M M 2"
_symmetry_group_IT_number 38
_symmetry_cell_setting 'orthorhombic'
loop_
_space_group_symop_operation_xyz
x,y,z
-x,-y,z
-x,y,z
x,-y,z
x,1/2+y,1/2+z
-x,1/2-y,1/2+z
-x,1/2+y,1/2+z
x,1/2-y,1/2+z
loop_
_atom_site_type_symbol
_atom_site_label
_atom_site_fract_x
_atom_site_fract_y
_atom_site_fract_z
Si Si1 0.673091 0.609889 0.468040
Si Si2 0.827975 0.890730 0.741412
Si Si3 0.823201 0.777211 0.070696
Si Si4 0.823547 0.603515 0.679600
Si Si5 0.324481 0.392533 0.119228
Si Si6 0.175020 0.108273 0.312398
Si Si7 0.674343 0.785715 0.847603
O O1 0.500000 0.624264 0.484259
O O2 0.715498 0.500000 0.464847
O O3 0.774713 0.659889 0.516108
O O4 0.712051 0.656951 0.406080
O O5 0.741607 0.864002 0.682284
O O6 0.764212 0.832134 0.794933
O O7 0.000000 0.862863 0.731590
O O8 0.807697 0.000000 0.756914
O O9 0.761703 0.825475 0.130595
O O10 0.747935 0.673736 0.068972
O O11 0.000000 0.765884 0.069652
O O12 0.753809 0.500000 0.667771
O O13 0.782039 0.636677 0.745340
O O14 0.000000 0.595937 0.673881
O O15 0.500000 0.376964 0.120985
O O16 0.282630 0.500000 0.103223
O O17 0.269109 0.177553 0.354722
O O18 0.000000 0.122545 0.324006
O O19 0.220357 0.000000 0.325340
O O20 0.500000 0.788082 0.833275
#
# Coordination Sequence:
#
# PCOD8179302 Si02
#       7
#     8   8   8   8   8   8   8
#     4  10  23  42  59  77 107 147 189 231 275 329
#     4  10  20  34  55  84 116 148 184 229 279 330
#     4  11  21  34  57  85 111 142 183 230 278 328
#     4   8  15  29  50  78 110 140 169 207 262 325
#     4  10  21  37  57  82 114 150 186 225 272 329
#     4   9  18  34  56  81 111 145 179 220 273 332
#     4  11  22  36  56  80 109 148 191 233 279 332
#
# _framework density 19.417949
#
# number of rings (size 3 to 8) (size 9 to 14) (size 15 to 20)
#    0.000    2.143    0.000    4.286    0.000    5.714 
#    0.000    1.429    0.000    2.571    0.000    0.000 
#    0.000    0.000    0.000    0.000    0.000    0.000 
#
# Total GULP energy -347229.972513 kJ/mol
# GULP energy per Si atom -12401.070447 kJ/mol
# Density = 1.937375 g / cm^3
# Si number density = 19.417949 Si / 1000 Ang^3
#
#
#
# Elastic Constant Matrix: (Units=GPa)
#
#
# Indices 1 2 3 4 5 6 
#
# 1 70.0550 57.3927 39.5264 0.0000 0.0000 0.0000
# 2 57.3927 128.6191 69.4281 0.0000 0.0000 0.0000
# 3 39.5264 69.4281 68.1709 0.0000 0.0000 0.0000
# 4 0.0000 0.0000 0.0000 33.7601 0.0000 0.0000
# 5 0.0000 0.0000 0.0000 0.0000 30.6802 0.0000
# 6 0.0000 0.0000 0.0000 0.0000 0.0000 33.0147
#
#
#
# Elastic Compliance Matrix: (Units=1/GPa)
#
#
# Indices 1 2 3 4 5 6 
#
# 1 0.023772 -0.007035 -0.006619 0.000000 0.000000 0.000000
# 2 -0.007035 0.019350 -0.015628 0.000000 0.000000 0.000000
# 3 -0.006619 -0.015628 0.034423 0.000000 0.000000 0.000000
# 4 0.000000 0.000000 0.000000 0.029621 0.000000 0.000000
# 5 0.000000 0.000000 0.000000 0.000000 0.032594 0.000000
# 6 0.000000 0.000000 0.000000 0.000000 0.000000 0.030290
#
#
# Mechanical properties :
#
#
# Convention : Reuss Voigt Hill
#
# Bulk Modulus (GPa) = 52.68203 66.61547 59.64875
# Shear Modulus (GPa) = 21.28204 26.19084 23.73644
#
# Velocity S-wave (km/s) = 3.31418 3.67658 3.50007
# Velocity P-wave (km/s) = 6.46796 7.23903 6.86433
#
# Compressibility (1/GPa) = 0.01898181
#
# Stress axis : x y z
#
# Youngs Moduli (GPa) = 42.06562 51.68007 29.05060
#
# Poissons Ratio (x) = 0.36356 0.19228
# Poissons Ratio (y) = 0.29593 0.45400
# Poissons Ratio (z) = 0.27843 0.80764
#
# Static dielectric constant tensor:
#      x y z
#    x 3.388730 0.000000 0.000000 
#    y 0.000000 3.921870 0.000000 
#    z 0.000000 0.000000 3.407440 
# 
# 
# High freq. dielectric constant tensor:
#      x y z
#    x 1.746210 0.000000 0.000000 
#    y 0.000000 1.777370 0.000000 
#    z 0.000000 0.000000 1.735380 
# 
# From -- ./inp_files/19759.got.cif
#   From: 2010.03.12/outbox.cif.g09.slc.cpg/sg38_10_cif.got.tgz:19759.got - 2010.04.14 02:38:36.
