data_PCOD8179855
_publ_section_title
;
Structure prediction by ZEFSAII (Michael W. Deem and Ramdas Pophale) SiO2 
 PCOD8179855
Probable space group: A M M 2
;
_chemical_formula_sum "Si O2"
_cell_formula_units_Z 64
_cell_length_a 8.698068
_cell_length_b 14.335249
_cell_length_c 28.738574
_cell_angle_alpha 90.000000
_cell_angle_beta 90.000000
_cell_angle_gamma 90.000000
_cell_volume 3583.383209
_symmetry_space_group_name_H-M "A M M 2"
_symmetry_group_IT_number 38
_symmetry_cell_setting 'orthorhombic'
loop_
_space_group_symop_operation_xyz
x,y,z
-x,-y,z
-x,y,z
x,-y,z
x,1/2+y,1/2+z
-x,1/2-y,1/2+z
-x,1/2+y,1/2+z
x,1/2-y,1/2+z
loop_
_atom_site_type_symbol
_atom_site_label
_atom_site_fract_x
_atom_site_fract_y
_atom_site_fract_z
Si Si1 0.817305 0.750833 0.437550
Si Si2 0.681222 0.392584 0.113701
Si Si3 0.182815 0.244281 0.685528
Si Si4 0.818252 0.103607 0.113701
Si Si5 0.816891 0.396351 0.364242
Si Si6 0.182815 0.755720 0.541873
Si Si7 0.817304 0.250833 0.289851
Si Si8 0.816891 0.603649 0.863158
O O1 0.759052 0.658894 0.410078
O O2 0.749675 0.751728 0.489617
O O3 0.761156 0.842666 0.409666
O O4 0.000000 0.749245 0.439753
O O5 0.500000 0.380594 0.113703
O O6 0.731918 0.500000 0.113699
O O7 0.748394 0.345593 0.160076
O O8 0.748383 0.345590 0.067325
O O9 0.234791 0.339185 0.659389
O O10 0.250326 0.248272 0.737784
O O11 0.000000 0.234255 0.684767
O O12 0.765218 0.160812 0.068011
O O13 0.000000 0.093689 0.113703
O O14 0.743101 0.000000 0.113700
O O15 0.745235 0.500000 0.364495
O O16 0.761155 0.342666 0.317735
O O17 0.000000 0.400658 0.364601
O O18 0.000000 0.765753 0.542635
O O19 0.759053 0.158894 0.317322
O O20 0.000000 0.249246 0.287648
O O21 0.745235 0.500000 0.862906
O O22 0.000000 0.599342 0.862800
#
# Coordination Sequence:
#
# PCOD8179855 Si02
#       8
#     8   8   8   8   8   8   8   8
#     4   8  14  23  35  56  85 113 142 173 208 253
#     4  10  21  35  48  63  86 115 145 180 224 270
#     4   9  17  29  46  67  89 115 148 185 220 255
#     4   8  14  24  38  59  86 111 139 180 224 258
#     4   8  13  21  33  53  85 118 141 168 210 254
#     4   9  17  29  46  67  89 115 148 185 220 255
#     4   8  14  23  35  56  85 113 142 173 208 253
#     4   8  13  21  33  53  85 118 141 168 210 254
#
# _framework density 17.860218
#
# number of rings (size 3 to 8) (size 9 to 14) (size 15 to 20)
#    0.000    3.500    0.000    2.625    0.000    3.000 
#    0.000    7.500    0.000    6.000    0.000    3.500 
#    0.000    2.000    0.000    0.000    0.000    0.000 
#
# Total GULP energy -396575.285593 kJ/mol
# GULP energy per Si atom -12392.977675 kJ/mol
# Density = 1.781957 g / cm^3
# Si number density = 17.860218 Si / 1000 Ang^3
#
#
#
# Elastic Constant Matrix: (Units=GPa)
#
#
# Indices 1 2 3 4 5 6 
#
# 1 12.8978 16.9166 13.5151 0.0000 0.0000 0.0000
# 2 16.9166 192.9383 102.2769 0.0000 0.0000 0.0000
# 3 13.5151 102.2769 200.5835 0.0000 0.0000 0.0000
# 4 0.0000 0.0000 0.0000 14.6818 0.0000 0.0000
# 5 0.0000 0.0000 0.0000 0.0000 2.2722 0.0000
# 6 0.0000 0.0000 0.0000 0.0000 0.0000 7.3594
#
#
#
# Elastic Compliance Matrix: (Units=1/GPa)
#
#
# Indices 1 2 3 4 5 6 
#
# 1 0.088705 -0.006317 -0.002756 0.000000 0.000000 0.000000
# 2 -0.006317 0.007553 -0.003425 0.000000 0.000000 0.000000
# 3 -0.002756 -0.003425 0.006918 0.000000 0.000000 0.000000
# 4 0.000000 0.000000 0.000000 0.068111 0.000000 0.000000
# 5 0.000000 0.000000 0.000000 0.000000 0.440108 0.000000
# 6 0.000000 0.000000 0.000000 0.000000 0.000000 0.135880
#
#
# Mechanical properties :
#
#
# Convention : Reuss Voigt Hill
#
# Bulk Modulus (GPa) = 12.79105 74.64851 43.71978
# Shear Modulus (GPa) = 6.26306 23.11009 14.68658
#
# Velocity S-wave (km/s) = 1.87465 3.60104 2.87070
# Velocity P-wave (km/s) = 3.44428 7.69264 5.95986
#
# Compressibility (1/GPa) = 0.07817969
#
# Stress axis : x y z
#
# Youngs Moduli (GPa) = 11.27326 132.40322 144.55461
#
# Poissons Ratio (x) = 0.83633 0.39840
# Poissons Ratio (y) = 0.07121 0.49517
# Poissons Ratio (z) = 0.03107 0.45355
#
# Static dielectric constant tensor:
#      x y z
#    x 2.626990 0.000000 0.000000 
#    y 0.000000 3.638680 0.000000 
#    z 0.000000 0.000000 3.649400 
# 
# 
# High freq. dielectric constant tensor:
#      x y z
#    x 1.622640 0.000000 0.000000 
#    y 0.000000 1.697740 0.000000 
#    z 0.000000 0.000000 1.698420 
# 
# From -- ./inp_files/24785.got.cif
#   From: 2010.03.12/outbox.cif.g09.slc.cpg/sg38_13_cif.got.tgz:24785.got - 2010.04.14 02:38:36.
