data_PCOD8179607
_publ_section_title
;
Structure prediction by ZEFSAII (Michael W. Deem and Ramdas Pophale) SiO2 
 PCOD8179607
Probable space group: A M M 2
;
_chemical_formula_sum "Si O2"
_cell_formula_units_Z 64
_cell_length_a 8.695397
_cell_length_b 28.449264
_cell_length_c 12.543644
_cell_angle_alpha 90.000000
_cell_angle_beta 90.000000
_cell_angle_gamma 90.000000
_cell_volume 3103.017110
_symmetry_space_group_name_H-M "A M M 2"
_symmetry_group_IT_number 38
_symmetry_cell_setting 'orthorhombic'
loop_
_space_group_symop_operation_xyz
x,y,z
-x,-y,z
-x,y,z
x,-y,z
x,1/2+y,1/2+z
-x,1/2-y,1/2+z
-x,1/2+y,1/2+z
x,1/2-y,1/2+z
loop_
_atom_site_type_symbol
_atom_site_label
_atom_site_fract_x
_atom_site_fract_y
_atom_site_fract_z
Si Si1 0.325019 0.294731 0.405730
Si Si2 0.326654 0.170267 0.667733
Si Si3 0.672004 0.551622 0.324328
Si Si4 0.824660 0.423925 0.121860
Si Si5 0.179249 0.600021 0.889260
Si Si6 0.179739 0.385401 0.493000
Si Si7 0.319203 0.445732 0.683678
Si Si8 0.820699 0.297741 0.971016
O O1 0.500000 0.283909 0.439305
O O2 0.314046 0.310571 0.285041
O O3 0.260191 0.334532 0.485926
O O4 0.221827 0.248088 0.404138
O O5 0.500000 0.152308 0.644846
O O6 0.200885 0.129841 0.654097
O O7 0.277572 0.208587 0.579828
O O8 0.500000 0.573005 0.332709
O O9 0.675864 0.500000 0.377301
O O10 0.718018 0.545468 0.200048
O O11 0.787669 0.585888 0.384753
O O12 0.000000 0.438349 0.142359
O O13 0.784483 0.429895 0.996804
O O14 0.280286 0.577279 0.796953
O O15 0.225438 0.654720 0.906807
O O16 0.000000 0.596144 0.859015
O O17 0.239466 0.415258 0.592349
O O18 0.000000 0.377147 0.505841
O O19 0.500000 0.443507 0.664482
O O20 0.261701 0.500000 0.679902
O O21 0.000000 0.298990 0.997983
#
# Coordination Sequence:
#
# PCOD8179607 Si02
#       8
#     8   8   8   8   8   8   8   8
#     4  11  23  39  62  91 124 163 209 258 316 381
#     4  10  20  36  59  84 118 159 198 249 310 368
#     4  11  23  38  58  87 123 159 198 248 305 368
#     4  10  20  36  60  88 119 156 199 249 306 366
#     4   9  21  41  63  90 125 165 209 259 315 373
#     4  12  25  41  64  90 121 162 209 262 319 379
#     4  11  25  44  66  92 126 170 218 270 326 387
#     4  10  22  39  61  91 126 164 209 261 316 376
#
# _framework density 20.625088000000002
#
# number of rings (size 3 to 8) (size 9 to 14) (size 15 to 20)
#    0.000    1.500    1.250    4.500    0.000    9.500 
#    0.000    5.000    0.000    0.000    0.000    0.000 
#    0.000    0.000    0.000    0.000    0.000    0.000 
#
# Total GULP energy -396752.149752 kJ/mol
# GULP energy per Si atom -12398.504680 kJ/mol
# Density = 2.057814 g / cm^3
# Si number density = 20.625088 Si / 1000 Ang^3
#
#
#
# Elastic Constant Matrix: (Units=GPa)
#
#
# Indices 1 2 3 4 5 6 
#
# 1 82.5902 28.9905 37.0330 0.0000 0.0000 0.0000
# 2 28.9905 85.2096 30.9165 0.0000 0.0000 0.0000
# 3 37.0330 30.9165 99.1056 0.0000 0.0000 0.0000
# 4 0.0000 0.0000 0.0000 19.8016 0.0000 0.0000
# 5 0.0000 0.0000 0.0000 0.0000 36.8780 0.0000
# 6 0.0000 0.0000 0.0000 0.0000 0.0000 25.4245
#
#
#
# Elastic Compliance Matrix: (Units=1/GPa)
#
#
# Indices 1 2 3 4 5 6 
#
# 1 0.015449 -0.003565 -0.004661 0.000000 0.000000 0.000000
# 2 -0.003565 0.014056 -0.003053 0.000000 0.000000 0.000000
# 3 -0.004661 -0.003053 0.012784 0.000000 0.000000 0.000000
# 4 0.000000 0.000000 0.000000 0.050501 0.000000 0.000000
# 5 0.000000 0.000000 0.000000 0.000000 0.027116 0.000000
# 6 0.000000 0.000000 0.000000 0.000000 0.000000 0.039332
#
#
# Mechanical properties :
#
#
# Convention : Reuss Voigt Hill
#
# Bulk Modulus (GPa) = 50.67811 51.19839 50.93825
# Shear Modulus (GPa) = 26.54292 27.75185 27.14738
#
# Velocity S-wave (km/s) = 3.59126 3.67214 3.63193
# Velocity P-wave (km/s) = 6.46689 6.54650 6.50682
#
# Compressibility (1/GPa) = 0.01973238
#
# Stress axis : x y z
#
# Youngs Moduli (GPa) = 64.72799 71.14216 78.22177
#
# Poissons Ratio (x) = 0.25363 0.36457
# Poissons Ratio (y) = 0.23077 0.23879
# Poissons Ratio (z) = 0.30168 0.21718
#
# Static dielectric constant tensor:
#      x y z
#    x 3.847340 0.000000 0.000000 
#    y 0.000000 3.823130 0.000000 
#    z 0.000000 0.000000 3.899270 
# 
# 
# High freq. dielectric constant tensor:
#      x y z
#    x 1.813480 0.000000 0.000000 
#    y 0.000000 1.805760 0.000000 
#    z 0.000000 0.000000 1.809070 
# 
# From -- ./inp_files/8551.got.cif
#   From: 2010.03.12/outbox.cif.g09.slc.cpg/sg38_5_cif.got.tgz:8551.got - 2010.04.14 02:38:36.
