data_PCOD8179077
_publ_section_title
;
Structure prediction by ZEFSAII (Michael W. Deem and Ramdas Pophale) SiO2 
 PCOD8179077
Probable space group: A M M 2
;
_chemical_formula_sum "Si O2"
_cell_formula_units_Z 56
_cell_length_a 9.145301
_cell_length_b 23.164662
_cell_length_c 13.758711
_cell_angle_alpha 90.000000
_cell_angle_beta 90.000000
_cell_angle_gamma 90.000000
_cell_volume 2914.752746
_symmetry_space_group_name_H-M "A M M 2"
_symmetry_group_IT_number 38
_symmetry_cell_setting 'orthorhombic'
loop_
_space_group_symop_operation_xyz
x,y,z
-x,-y,z
-x,y,z
x,-y,z
x,1/2+y,1/2+z
-x,1/2-y,1/2+z
-x,1/2+y,1/2+z
x,1/2-y,1/2+z
loop_
_atom_site_type_symbol
_atom_site_label
_atom_site_fract_x
_atom_site_fract_y
_atom_site_fract_z
Si Si1 0.333717 0.266094 0.863030
Si Si2 0.169800 0.564775 0.371839
Si Si3 0.330674 0.433541 0.563307
Si Si4 0.831269 0.933635 0.444272
Si Si5 0.328291 0.164181 0.553041
Si Si6 0.170799 0.827085 0.749746
Si Si7 0.331166 0.614350 0.766127
O O1 0.500000 0.243312 0.857320
O O2 0.223117 0.215348 0.835335
O O3 0.310088 0.318371 0.787909
O O4 0.296888 0.287509 0.971621
O O5 0.224840 0.500000 0.344942
O O6 0.247526 0.588768 0.468274
O O7 0.204105 0.607174 0.282295
O O8 0.000000 0.564409 0.395986
O O9 0.500000 0.423749 0.542490
O O10 0.293530 0.500000 0.584743
O O11 0.278779 0.396702 0.656186
O O12 0.746240 0.896072 0.523987
O O13 0.765399 0.924553 0.337397
O O14 0.000000 0.914523 0.443434
O O15 0.814308 0.000000 0.474959
O O16 0.500000 0.153203 0.564724
O O17 0.261099 0.187123 0.653080
O O18 0.000000 0.817368 0.730220
O O19 0.500000 0.595654 0.780590
#
# Coordination Sequence:
#
# PCOD8179077 Si02
#       7
#     8   8   8   8   8   8   8
#     4   9  20  38  57  79 108 142 180 221 265 317
#     4   9  20  38  55  74 105 141 176 217 266 321
#     4   9  17  30  51  79 108 139 178 223 265 308
#     4  10  20  33  52  81 115 148 183 227 278 328
#     4  10  22  40  60  81 108 144 185 227 270 321
#     4  11  23  38  59  84 108 139 177 220 275 330
#     4   9  18  33  53  78 110 148 187 225 269 322
#
# _framework density 19.212609
#
# number of rings (size 3 to 8) (size 9 to 14) (size 15 to 20)
#    0.000    2.429    0.000    2.571    0.000    8.000 
#    0.000    7.143    0.000    0.000    0.000    0.000 
#    0.000    0.000    0.000    0.000    0.000    0.000 
#
# Total GULP energy -347271.772455 kJ/mol
# GULP energy per Si atom -12402.563302 kJ/mol
# Density = 1.916888 g / cm^3
# Si number density = 19.212609 Si / 1000 Ang^3
#
#
#
# Elastic Constant Matrix: (Units=GPa)
#
#
# Indices 1 2 3 4 5 6 
#
# 1 97.6491 48.8896 54.4594 0.0000 0.0000 0.0000
# 2 48.8896 77.9037 45.2041 0.0000 0.0000 0.0000
# 3 54.4594 45.2041 114.5968 0.0000 0.0000 0.0000
# 4 0.0000 0.0000 0.0000 22.8886 0.0000 0.0000
# 5 0.0000 0.0000 0.0000 0.0000 31.3988 0.0000
# 6 0.0000 0.0000 0.0000 0.0000 0.0000 30.1003
#
#
#
# Elastic Compliance Matrix: (Units=1/GPa)
#
#
# Indices 1 2 3 4 5 6 
#
# 1 0.016874 -0.007698 -0.004982 0.000000 0.000000 0.000000
# 2 -0.007698 0.020159 -0.004293 0.000000 0.000000 0.000000
# 3 -0.004982 -0.004293 0.012787 0.000000 0.000000 0.000000
# 4 0.000000 0.000000 0.000000 0.043690 0.000000 0.000000
# 5 0.000000 0.000000 0.000000 0.000000 0.031848 0.000000
# 6 0.000000 0.000000 0.000000 0.000000 0.000000 0.033222
#
#
# Mechanical properties :
#
#
# Convention : Reuss Voigt Hill
#
# Bulk Modulus (GPa) = 63.00337 65.25062 64.12700
# Shear Modulus (GPa) = 25.27562 26.31728 25.79645
#
# Velocity S-wave (km/s) = 3.63102 3.70509 3.66824
# Velocity P-wave (km/s) = 7.10232 7.23462 7.16877
#
# Compressibility (1/GPa) = 0.01587217
#
# Stress axis : x y z
#
# Youngs Moduli (GPa) = 59.26422 49.60589 78.20173
#
# Poissons Ratio (x) = 0.38189 0.38960
# Poissons Ratio (y) = 0.45624 0.33575
# Poissons Ratio (z) = 0.29526 0.21298
#
# Static dielectric constant tensor:
#      x y z
#    x 3.515800 0.000000 0.000000 
#    y 0.000000 3.460670 0.000000 
#    z 0.000000 0.000000 3.493300 
# 
# 
# High freq. dielectric constant tensor:
#      x y z
#    x 1.748280 0.000000 0.000000 
#    y 0.000000 1.741490 0.000000 
#    z 0.000000 0.000000 1.746260 
# 
# From -- ./inp_files/12360.got.cif
#   From: 2010.03.12/outbox.cif.g09.slc.cpg/sg38_7_cif.got.tgz:12360.got - 2010.04.14 02:38:36.
