data_PCOD8179925
_publ_section_title
;
Structure prediction by ZEFSAII (Michael W. Deem and Ramdas Pophale) SiO2 
 PCOD8179925
Probable space group: A M M 2
;
_chemical_formula_sum "Si O2"
_cell_formula_units_Z 64
_cell_length_a 20.368818
_cell_length_b 9.337073
_cell_length_c 18.467355
_cell_angle_alpha 90.000000
_cell_angle_beta 90.000000
_cell_angle_gamma 90.000000
_cell_volume 3512.216507
_symmetry_space_group_name_H-M "A M M 2"
_symmetry_group_IT_number 38
_symmetry_cell_setting 'orthorhombic'
loop_
_space_group_symop_operation_xyz
x,y,z
-x,-y,z
-x,y,z
x,-y,z
x,1/2+y,1/2+z
-x,1/2-y,1/2+z
-x,1/2+y,1/2+z
x,1/2-y,1/2+z
loop_
_atom_site_type_symbol
_atom_site_label
_atom_site_fract_x
_atom_site_fract_y
_atom_site_fract_z
Si Si1 0.193861 0.665965 0.212440
Si Si2 0.575467 0.663025 0.195548
Si Si3 0.323700 0.670124 0.957687
Si Si4 0.683067 0.334219 0.310732
Si Si5 0.071671 0.661407 0.715497
Si Si6 0.927925 0.838262 0.043371
Si Si7 0.195855 0.167269 0.547112
Si Si8 0.422937 0.666160 0.554216
O O1 0.177874 0.500000 0.214727
O O2 0.256929 0.706172 0.258832
O O3 0.130298 0.742753 0.247234
O O4 0.207408 0.715605 0.130048
O O5 0.500000 0.687518 0.216459
O O6 0.588674 0.500000 0.169288
O O7 0.616319 0.696742 0.267336
O O8 0.597711 0.767871 0.131389
O O9 0.335042 0.500000 0.957685
O O10 0.314157 0.726395 0.877021
O O11 0.259615 0.714970 0.002873
O O12 0.386738 0.748308 0.990954
O O13 0.686416 0.500000 0.336137
O O14 0.083302 0.500000 0.742167
O O15 0.072739 0.669677 0.629426
O O16 0.000000 0.715648 0.743068
O O17 0.868760 0.741673 0.012607
O O18 0.000000 0.785008 0.015804
O O19 0.915990 0.000000 0.016800
O O20 0.183432 0.000000 0.540783
O O21 0.500000 0.686274 0.540607
O O22 0.402500 0.500000 0.552855
#
# Coordination Sequence:
#
# PCOD8179925 Si02
#       8
#     8   8   8   8   8   8   8   8
#     4   9  17  30  49  71  97 130 166 207 253 302
#     4   9  18  35  59  82 105 135 168 205 252 303
#     4  11  23  37  53  75 105 140 177 216 257 304
#     4  10  21  36  52  74 106 140 174 213 256 302
#     4   8  14  25  42  67  98 126 155 199 252 302
#     4   8  14  25  43  70 101 129 160 202 252 303
#     4   9  18  32  50  73 100 131 168 209 254 304
#     4  10  21  37  58  83 108 134 168 210 254 304
#
# _framework density 18.222111000000002
#
# number of rings (size 3 to 8) (size 9 to 14) (size 15 to 20)
#    0.000    2.750    0.000    2.250    0.000    5.750 
#    0.000    6.250    0.000    0.750    0.000    0.000 
#    0.000    0.000    0.000    0.000    0.000    0.000 
#
# Total GULP energy -396746.912726 kJ/mol
# GULP energy per Si atom -12398.341023 kJ/mol
# Density = 1.818064 g / cm^3
# Si number density = 18.222111 Si / 1000 Ang^3
#
#
#
# Elastic Constant Matrix: (Units=GPa)
#
#
# Indices 1 2 3 4 5 6 
#
# 1 118.2855 61.7371 51.6484 0.0000 0.0000 0.0000
# 2 61.7371 83.5493 47.9093 0.0000 0.0000 0.0000
# 3 51.6484 47.9093 75.1291 0.0000 0.0000 0.0000
# 4 0.0000 0.0000 0.0000 28.3933 0.0000 0.0000
# 5 0.0000 0.0000 0.0000 0.0000 4.0551 0.0000
# 6 0.0000 0.0000 0.0000 0.0000 0.0000 33.3307
#
#
#
# Elastic Compliance Matrix: (Units=1/GPa)
#
#
# Indices 1 2 3 4 5 6 
#
# 1 0.014897 -0.008096 -0.005079 0.000000 0.000000 0.000000
# 2 -0.008096 0.023268 -0.009273 0.000000 0.000000 0.000000
# 3 -0.005079 -0.009273 0.022715 0.000000 0.000000 0.000000
# 4 0.000000 0.000000 0.000000 0.035220 0.000000 0.000000
# 5 0.000000 0.000000 0.000000 0.000000 0.246602 0.000000
# 6 0.000000 0.000000 0.000000 0.000000 0.000000 0.030002
#
#
# Mechanical properties :
#
#
# Convention : Reuss Voigt Hill
#
# Bulk Modulus (GPa) = 62.55288 66.61707 64.58497
# Shear Modulus (GPa) = 11.82239 20.86709 16.34474
#
# Velocity S-wave (km/s) = 2.54991 3.38768 2.99820
# Velocity P-wave (km/s) = 6.56292 7.20691 6.89244
#
# Compressibility (1/GPa) = 0.01598647
#
# Stress axis : x y z
#
# Youngs Moduli (GPa) = 67.12729 42.97699 44.02414
#
# Poissons Ratio (x) = 0.34793 0.22358
# Poissons Ratio (y) = 0.54344 0.40822
# Poissons Ratio (z) = 0.34091 0.39851
#
# Static dielectric constant tensor:
#      x y z
#    x 3.738430 0.000000 0.000000 
#    y 0.000000 3.406330 0.000000 
#    z 0.000000 0.000000 3.034670 
# 
# 
# High freq. dielectric constant tensor:
#      x y z
#    x 1.723060 0.000000 0.000000 
#    y 0.000000 1.703900 0.000000 
#    z 0.000000 0.000000 1.669140 
# 
# From -- ./inp_files/18966.got.cif
#   From: 2010.03.12/outbox.cif.g09.slc.cpg/sg38_10_cif.got.tgz:18966.got - 2010.04.14 02:38:36.
