data_PCOD8179912
_publ_section_title
;
Structure prediction by ZEFSAII (Michael W. Deem and Ramdas Pophale) SiO2 
 PCOD8179912
Probable space group: A M M 2
;
_chemical_formula_sum "Si O2"
_cell_formula_units_Z 48
_cell_length_a 8.728537
_cell_length_b 17.026636
_cell_length_c 16.909799
_cell_angle_alpha 90.000000
_cell_angle_beta 90.000000
_cell_angle_gamma 90.000000
_cell_volume 2513.094121
_symmetry_space_group_name_H-M "A M M 2"
_symmetry_group_IT_number 38
_symmetry_cell_setting 'orthorhombic'
loop_
_space_group_symop_operation_xyz
x,y,z
-x,-y,z
-x,y,z
x,-y,z
x,1/2+y,1/2+z
-x,1/2-y,1/2+z
-x,1/2+y,1/2+z
x,1/2-y,1/2+z
loop_
_atom_site_type_symbol
_atom_site_label
_atom_site_fract_x
_atom_site_fract_y
_atom_site_fract_z
Si Si1 0.822059 0.679593 0.065770
Si Si2 0.179030 0.647559 0.525810
Si Si3 0.820368 0.908184 0.718564
Si Si4 0.319930 0.683812 0.361372
Si Si5 0.817366 0.000000 0.301966
Si Si6 0.817395 0.846334 0.391533
Si Si7 0.182072 0.000000 0.124809
O O1 0.791188 0.772529 0.074585
O O2 0.750210 0.633668 0.140109
O O3 0.000000 0.659629 0.065132
O O4 0.753983 0.650256 0.981717
O O5 0.270163 0.646099 0.444239
O O6 0.241553 0.576962 0.579545
O O7 0.000000 0.638284 0.505379
O O8 0.731776 0.875320 0.793569
O O9 0.000000 0.890117 0.728764
O O10 0.787552 0.000000 0.710809
O O11 0.500000 0.694072 0.359606
O O12 0.244312 0.768971 0.347739
O O13 0.755542 0.077140 0.346442
O O14 0.750614 0.000000 0.213299
O O15 0.000000 0.000000 0.301911
O O16 0.000000 0.841086 0.390653
O O17 0.000000 0.000000 0.128818
#
# Coordination Sequence:
#
# PCOD8179912 Si02
#       7
#     8   8   8   8   4   8   4
#     4   8  16  31  54  82 109 139 174 220 270 321
#     4   9  18  35  57  81 109 140 179 225 275 327
#     4  10  21  35  56  83 111 142 181 227 276 324
#     4  11  23  38  55  77 109 148 190 227 271 323
#     4   9  18  30  57  94 117 136 172 225 273 321
#     4   9  18  35  60  87 114 142 177 221 274 326
#     4   9  18  30  53  88 113 134 172 223 277 327
#
# _framework density 19.099961
#
# number of rings (size 3 to 8) (size 9 to 14) (size 15 to 20)
#    0.000    2.667    0.000    2.500    4.667    0.333 
#    0.000    3.750    0.000    1.000    0.000    0.000 
#    0.000    0.000    0.000    0.000    0.000    0.000 
#
# Total GULP energy -297584.219010 kJ/mol
# GULP energy per Si atom -12399.342459 kJ/mol
# Density = 1.905649 g / cm^3
# Si number density = 19.099961 Si / 1000 Ang^3
#
#
#
# Elastic Constant Matrix: (Units=GPa)
#
#
# Indices 1 2 3 4 5 6 
#
# 1 40.6727 28.2324 27.4126 0.0000 0.0000 0.0000
# 2 28.2324 149.9869 86.2851 0.0000 0.0000 0.0000
# 3 27.4126 86.2851 126.2019 0.0000 0.0000 0.0000
# 4 0.0000 0.0000 0.0000 38.5435 0.0000 0.0000
# 5 0.0000 0.0000 0.0000 0.0000 1.4732 0.0000
# 6 0.0000 0.0000 0.0000 0.0000 0.0000 6.7399
#
#
#
# Elastic Compliance Matrix: (Units=1/GPa)
#
#
# Indices 1 2 3 4 5 6 
#
# 1 0.029649 -0.003092 -0.004326 0.000000 0.000000 0.000000
# 2 -0.003092 0.011312 -0.007063 0.000000 0.000000 0.000000
# 3 -0.004326 -0.007063 0.013692 0.000000 0.000000 0.000000
# 4 0.000000 0.000000 0.000000 0.025945 0.000000 0.000000
# 5 0.000000 0.000000 0.000000 0.000000 0.678789 0.000000
# 6 0.000000 0.000000 0.000000 0.000000 0.000000 0.148370
#
#
# Mechanical properties :
#
#
# Convention : Reuss Voigt Hill
#
# Bulk Modulus (GPa) = 38.92319 66.74687 52.83503
# Shear Modulus (GPa) = 5.28943 21.01340 13.15141
#
# Velocity S-wave (km/s) = 1.66594 3.32050 2.62688
# Velocity P-wave (km/s) = 4.91156 7.05144 6.07644
#
# Compressibility (1/GPa) = 0.02569162
#
# Stress axis : x y z
#
# Youngs Moduli (GPa) = 33.72850 88.39896 73.03407
#
# Poissons Ratio (x) = 0.27335 0.31593
# Poissons Ratio (y) = 0.10430 0.51582
# Poissons Ratio (z) = 0.14590 0.62433
#
# Static dielectric constant tensor:
#      x y z
#    x 2.994810 0.000000 0.000000 
#    y 0.000000 3.651030 0.000000 
#    z 0.000000 0.000000 3.753070 
# 
# 
# High freq. dielectric constant tensor:
#      x y z
#    x 1.691590 0.000000 0.000000 
#    y 0.000000 1.753780 0.000000 
#    z 0.000000 0.000000 1.752270 
# 
# From -- ./inp_files/12111.got.cif
#   From: 2010.03.12/outbox.cif.g09.slc.cpg/sg38_7_cif.got.tgz:12111.got - 2010.04.14 02:38:36.
