data_PCOD8179066
_publ_section_title
;
Structure prediction by ZEFSAII (Michael W. Deem and Ramdas Pophale) SiO2 
 PCOD8179066
Probable space group: A M M 2
;
_chemical_formula_sum "Si O2"
_cell_formula_units_Z 64
_cell_length_a 20.359978
_cell_length_b 8.972199
_cell_length_c 18.243119
_cell_angle_alpha 90.000000
_cell_angle_beta 90.000000
_cell_angle_gamma 90.000000
_cell_volume 3332.539402
_symmetry_space_group_name_H-M "A M M 2"
_symmetry_group_IT_number 38
_symmetry_cell_setting 'orthorhombic'
loop_
_space_group_symop_operation_xyz
x,y,z
-x,-y,z
-x,y,z
x,-y,z
x,1/2+y,1/2+z
-x,1/2-y,1/2+z
-x,1/2+y,1/2+z
x,1/2-y,1/2+z
loop_
_atom_site_type_symbol
_atom_site_label
_atom_site_fract_x
_atom_site_fract_y
_atom_site_fract_z
Si Si1 0.300467 0.331070 0.098690
Si Si2 0.300009 0.168979 0.772787
Si Si3 0.074672 0.328478 0.616334
Si Si4 0.572167 0.332496 0.773373
Si Si5 0.809911 0.826166 0.010481
Si Si6 0.184528 0.676176 0.856111
Si Si7 0.923623 0.173038 0.765272
Si Si8 0.572201 0.332559 0.599166
O O1 0.288787 0.500000 0.072044
O O2 0.296879 0.318976 0.185743
O O3 0.246144 0.221304 0.066885
O O4 0.371867 0.278388 0.069214
O O5 0.370584 0.224836 0.803328
O O6 0.243155 0.271969 0.804137
O O7 0.289818 0.000000 0.799602
O O8 0.082557 0.500000 0.640222
O O9 0.119616 0.290790 0.546773
O O10 0.097349 0.229562 0.685033
O O11 0.000000 0.291355 0.593471
O O12 0.500000 0.277399 0.800726
O O13 0.585376 0.500000 0.802039
O O14 0.573029 0.331797 0.686296
O O15 0.802670 0.000000 0.991956
O O16 0.802409 0.730745 0.937798
O O17 0.180529 0.500000 0.854785
O O18 0.115782 0.741761 0.828026
O O19 0.000000 0.204449 0.779680
O O20 0.905882 0.000000 0.769853
O O21 0.500000 0.279541 0.571498
O O22 0.586493 0.500000 0.570838
#
# Coordination Sequence:
#
# PCOD8179066 Si02
#       8
#     8   8   8   8   8   8   8   8
#     4  10  20  33  52  79 109 141 179 223 268 318
#     4  10  20  34  54  80 110 143 181 225 270 320
#     4   9  19  37  61  87 112 140 176 217 263 316
#     4   8  14  26  46  74 107 140 176 220 268 317
#     4  11  23  38  56  78 108 145 182 223 270 320
#     4  12  25  39  56  78 108 145 184 226 270 319
#     4  10  21  38  61  87 114 143 176 217 264 315
#     4   8  14  26  46  73 104 137 174 217 265 316
#
# _framework density 19.204574999999998
#
# number of rings (size 3 to 8) (size 9 to 14) (size 15 to 20)
#    0.000    2.250    0.000    4.125    0.000    6.250 
#    0.000    3.750    0.000    0.750    0.000    0.000 
#    0.000    0.000    0.000    0.000    0.000    0.000 
#
# Total GULP energy -396809.193713 kJ/mol
# GULP energy per Si atom -12400.287304 kJ/mol
# Density = 1.916086 g / cm^3
# Si number density = 19.204575 Si / 1000 Ang^3
#
#
#
# Elastic Constant Matrix: (Units=GPa)
#
#
# Indices 1 2 3 4 5 6 
#
# 1 113.7913 55.6104 30.7628 0.0000 0.0000 0.0000
# 2 55.6104 118.1091 34.4209 0.0000 0.0000 0.0000
# 3 30.7628 34.4209 39.4109 0.0000 0.0000 0.0000
# 4 0.0000 0.0000 0.0000 24.9517 0.0000 0.0000
# 5 0.0000 0.0000 0.0000 0.0000 2.5555 0.0000
# 6 0.0000 0.0000 0.0000 0.0000 0.0000 34.0345
#
#
#
# Elastic Compliance Matrix: (Units=1/GPa)
#
#
# Indices 1 2 3 4 5 6 
#
# 1 0.012438 -0.004061 -0.006163 0.000000 0.000000 0.000000
# 2 -0.004061 0.012683 -0.007908 0.000000 0.000000 0.000000
# 3 -0.006163 -0.007908 0.037091 0.000000 0.000000 0.000000
# 4 0.000000 0.000000 0.000000 0.040077 0.000000 0.000000
# 5 0.000000 0.000000 0.000000 0.000000 0.391315 0.000000
# 6 0.000000 0.000000 0.000000 0.000000 0.000000 0.029382
#
#
# Mechanical properties :
#
#
# Convention : Reuss Voigt Hill
#
# Bulk Modulus (GPa) = 38.53515 56.98881 47.76198
# Shear Modulus (GPa) = 8.80438 22.34281 15.57360
#
# Velocity S-wave (km/s) = 2.14347 3.41458 2.85078
# Velocity P-wave (km/s) = 5.12202 6.72940 5.97997
#
# Compressibility (1/GPa) = 0.02595034
#
# Stress axis : x y z
#
# Youngs Moduli (GPa) = 80.39590 78.84441 26.96099
#
# Poissons Ratio (x) = 0.32015 0.16615
# Poissons Ratio (y) = 0.32645 0.21320
# Poissons Ratio (z) = 0.49545 0.62349
#
# Static dielectric constant tensor:
#      x y z
#    x 3.883970 0.000000 0.000000 
#    y 0.000000 3.656020 0.000000 
#    z 0.000000 0.000000 3.112160 
# 
# 
# High freq. dielectric constant tensor:
#      x y z
#    x 1.764980 0.000000 0.000000 
#    y 0.000000 1.753310 0.000000 
#    z 0.000000 0.000000 1.707510 
# 
# From -- ./inp_files/21541.got.cif
#   From: 2010.03.12/outbox.cif.g09.slc.cpg/sg38_11_cif.got.tgz:21541.got - 2010.04.14 02:38:36.
