data_PCOD8179963
_publ_section_title
;
Structure prediction by ZEFSAII (Michael W. Deem and Ramdas Pophale) SiO2 
 PCOD8179963
Probable space group: A M M 2
;
_chemical_formula_sum "Si O2"
_cell_formula_units_Z 64
_cell_length_a 8.897633
_cell_length_b 19.441469
_cell_length_c 20.100684
_cell_angle_alpha 90.000000
_cell_angle_beta 90.000000
_cell_angle_gamma 90.000000
_cell_volume 3477.077749
_symmetry_space_group_name_H-M "A M M 2"
_symmetry_group_IT_number 38
_symmetry_cell_setting 'orthorhombic'
loop_
_space_group_symop_operation_xyz
x,y,z
-x,-y,z
-x,y,z
x,-y,z
x,1/2+y,1/2+z
-x,1/2-y,1/2+z
-x,1/2+y,1/2+z
x,1/2-y,1/2+z
loop_
_atom_site_type_symbol
_atom_site_label
_atom_site_fract_x
_atom_site_fract_y
_atom_site_fract_z
Si Si1 0.327529 0.419324 0.869280
Si Si2 0.174762 0.683526 0.620809
Si Si3 0.674892 0.921041 0.863624
Si Si4 0.827534 0.672073 0.469830
Si Si5 0.826447 0.580717 0.227276
Si Si6 0.173609 0.078718 0.234064
Si Si7 0.825411 0.829276 0.478691
Si Si8 0.322551 0.826208 0.618203
O O1 0.500000 0.397360 0.878077
O O2 0.303848 0.500000 0.880220
O O3 0.273942 0.397552 0.796022
O O4 0.225517 0.381092 0.922212
O O5 0.211848 0.657336 0.546759
O O6 0.221585 0.623353 0.670774
O O7 0.267812 0.750905 0.639969
O O8 0.000000 0.703372 0.625916
O O9 0.500000 0.911386 0.848524
O O10 0.719771 0.874890 0.926140
O O11 0.765743 0.895782 0.799116
O O12 0.714033 0.000000 0.880667
O O13 0.794225 0.751812 0.453975
O O14 0.000000 0.653215 0.454128
O O15 0.801120 0.500000 0.217319
O O16 0.734746 0.618117 0.170184
O O17 0.000000 0.601687 0.222585
O O18 0.000000 0.090150 0.253129
O O19 0.205704 0.000000 0.214918
O O20 0.736537 0.846545 0.545613
O O21 0.000000 0.839844 0.494354
O O22 0.500000 0.827641 0.617050
#
# Coordination Sequence:
#
# PCOD8179963 Si02
#       8
#     8   8   8   8   8   8   8   8
#     4  10  21  36  54  79 110 141 175 218 267 317
#     4   9  19  36  56  79 109 142 179 222 262 309
#     4  10  21  36  54  79 110 141 175 218 267 317
#     4   9  19  35  55  79 106 139 178 219 264 313
#     4  10  21  38  59  80 104 138 179 220 262 312
#     4   9  18  34  56  80 106 140 181 222 264 310
#     4  10  21  38  58  79 105 139 180 222 262 310
#     4  11  22  36  56  81 110 141 173 215 266 318
#
# _framework density 18.406261000000001
#
# number of rings (size 3 to 8) (size 9 to 14) (size 15 to 20)
#    0.000    2.250    0.000    3.375    0.000    7.250 
#    0.000    2.500    0.000    1.500    0.000    0.000 
#    0.000    0.000    0.000    0.000    0.000    0.000 
#
# Total GULP energy -396934.289692 kJ/mol
# GULP energy per Si atom -12404.196553 kJ/mol
# Density = 1.836437 g / cm^3
# Si number density = 18.406261 Si / 1000 Ang^3
#
#
#
# Elastic Constant Matrix: (Units=GPa)
#
#
# Indices 1 2 3 4 5 6 
#
# 1 107.9564 50.5737 58.2481 0.0000 0.0000 0.0000
# 2 50.5737 73.4993 70.1738 0.0000 0.0000 0.0000
# 3 58.2481 70.1738 115.9900 0.0000 0.0000 0.0000
# 4 0.0000 0.0000 0.0000 43.7920 0.0000 0.0000
# 5 0.0000 0.0000 0.0000 0.0000 8.9307 0.0000
# 6 0.0000 0.0000 0.0000 0.0000 0.0000 20.2877
#
#
#
# Elastic Compliance Matrix: (Units=1/GPa)
#
#
# Indices 1 2 3 4 5 6 
#
# 1 0.014058 -0.006944 -0.002859 0.000000 0.000000 0.000000
# 2 -0.006944 0.035642 -0.018076 0.000000 0.000000 0.000000
# 3 -0.002859 -0.018076 0.020993 0.000000 0.000000 0.000000
# 4 0.000000 0.000000 0.000000 0.022835 0.000000 0.000000
# 5 0.000000 0.000000 0.000000 0.000000 0.111973 0.000000
# 6 0.000000 0.000000 0.000000 0.000000 0.000000 0.049291
#
#
# Mechanical properties :
#
#
# Convention : Reuss Voigt Hill
#
# Bulk Modulus (GPa) = 66.95402 72.82632 69.89017
# Shear Modulus (GPa) = 15.84640 22.49877 19.17259
#
# Velocity S-wave (km/s) = 2.93734 3.50000 3.23094
# Velocity P-wave (km/s) = 6.92521 7.48233 7.20915
#
# Compressibility (1/GPa) = 0.01493562
#
# Stress axis : x y z
#
# Youngs Moduli (GPa) = 71.13150 28.05688 47.63452
#
# Poissons Ratio (x) = 0.19482 0.13618
# Poissons Ratio (y) = 0.49393 0.86105
# Poissons Ratio (z) = 0.20335 0.50716
#
# Static dielectric constant tensor:
#      x y z
#    x 3.450000 0.000000 0.000000 
#    y 0.000000 3.356270 0.000000 
#    z 0.000000 0.000000 3.444000 
# 
# 
# High freq. dielectric constant tensor:
#      x y z
#    x 1.720810 0.000000 0.000000 
#    y 0.000000 1.710910 0.000000 
#    z 0.000000 0.000000 1.719730 
# 
# From -- ./inp_files/17209.got.cif
#   From: 2010.03.12/outbox.cif.g09.slc.cpg/sg38_9_cif.got.tgz:17209.got - 2010.04.14 02:38:36.
