data_PCOD8179301
_publ_section_title
;
Structure prediction by ZEFSAII (Michael W. Deem and Ramdas Pophale) SiO2 
 PCOD8179301
Probable space group: A M M 2
;
_chemical_formula_sum "Si O2"
_cell_formula_units_Z 48
_cell_length_a 8.950952
_cell_length_b 27.796734
_cell_length_c 10.208767
_cell_angle_alpha 90.000000
_cell_angle_beta 90.000000
_cell_angle_gamma 90.000000
_cell_volume 2540.015057
_symmetry_space_group_name_H-M "A M M 2"
_symmetry_group_IT_number 38
_symmetry_cell_setting 'orthorhombic'
loop_
_space_group_symop_operation_xyz
x,y,z
-x,-y,z
-x,y,z
x,-y,z
x,1/2+y,1/2+z
-x,1/2-y,1/2+z
-x,1/2+y,1/2+z
x,1/2-y,1/2+z
loop_
_atom_site_type_symbol
_atom_site_label
_atom_site_fract_x
_atom_site_fract_y
_atom_site_fract_z
Si Si1 0.827773 0.804043 0.824400
Si Si2 0.672610 0.554621 0.193300
Si Si3 0.824653 0.445575 0.467862
Si Si4 0.172557 0.138386 0.564755
Si Si5 0.174048 0.306872 0.802554
Si Si6 0.675789 0.143961 0.060746
O O1 0.794740 0.823664 0.679652
O O2 0.785568 0.748264 0.828801
O O3 0.000000 0.812207 0.864774
O O4 0.723479 0.831541 0.925577
O O5 0.500000 0.564266 0.225759
O O6 0.698117 0.500000 0.145140
O O7 0.767585 0.565806 0.322424
O O8 0.729175 0.590220 0.080014
O O9 0.783957 0.500000 0.509272
O O10 0.746746 0.409503 0.569857
O O11 0.000000 0.436408 0.469307
O O12 0.220517 0.162952 0.429652
O O13 0.000000 0.123207 0.562709
O O14 0.270214 0.324548 0.681417
O O15 0.000000 0.312702 0.768302
O O16 0.500000 0.138913 0.065420
#
# Coordination Sequence:
#
# PCOD8179301 Si02
#       6
#     8   8   8   8   8   8
#     4  10  20  38  63  86 110 149 199 243 283 335
#     4  10  20  34  55  84 116 148 183 231 291 346
#     4  10  20  36  60  86 111 145 193 243 284 334
#     4  10  20  35  59  87 112 147 194 239 282 333
#     4  10  22  40  60  83 115 156 199 240 282 335
#     4  12  24  37  57  88 122 155 188 234 296 351
#
# _framework density 18.897527
#
# number of rings (size 3 to 8) (size 9 to 14) (size 15 to 20)
#    0.000    1.667    1.667    3.500    0.000    6.000 
#    0.000    2.500    0.000    1.000    0.000    0.000 
#    0.000    0.000    0.000    0.000    0.000    0.000 
#
# Total GULP energy -297718.666733 kJ/mol
# GULP energy per Si atom -12404.944447 kJ/mol
# Density = 1.885452 g / cm^3
# Si number density = 18.897527 Si / 1000 Ang^3
#
#
#
# Elastic Constant Matrix: (Units=GPa)
#
#
# Indices 1 2 3 4 5 6 
#
# 1 92.9876 47.5569 28.5948 0.0000 0.0000 0.0000
# 2 47.5569 113.6746 18.9259 0.0000 0.0000 0.0000
# 3 28.5948 18.9259 54.4969 0.0000 0.0000 0.0000
# 4 0.0000 0.0000 0.0000 10.9163 0.0000 0.0000
# 5 0.0000 0.0000 0.0000 0.0000 16.7541 0.0000
# 6 0.0000 0.0000 0.0000 0.0000 0.0000 23.6647
#
#
#
# Elastic Compliance Matrix: (Units=1/GPa)
#
#
# Indices 1 2 3 4 5 6 
#
# 1 0.015440 -0.005424 -0.006218 0.000000 0.000000 0.000000
# 2 -0.005424 0.011243 -0.001058 0.000000 0.000000 0.000000
# 3 -0.006218 -0.001058 0.021980 0.000000 0.000000 0.000000
# 4 0.000000 0.000000 0.000000 0.091606 0.000000 0.000000
# 5 0.000000 0.000000 0.000000 0.000000 0.059687 0.000000
# 6 0.000000 0.000000 0.000000 0.000000 0.000000 0.042257
#
#
# Mechanical properties :
#
#
# Convention : Reuss Voigt Hill
#
# Bulk Modulus (GPa) = 42.98887 50.14604 46.56746
# Shear Modulus (GPa) = 18.15753 21.33911 19.74832
#
# Velocity S-wave (km/s) = 3.10311 3.36400 3.23619
# Velocity P-wave (km/s) = 5.96966 6.45617 6.21767
#
# Compressibility (1/GPa) = 0.02326183
#
# Stress axis : x y z
#
# Youngs Moduli (GPa) = 64.76500 88.94755 45.49654
#
# Poissons Ratio (x) = 0.48249 0.28289
# Poissons Ratio (y) = 0.35131 0.04814
# Poissons Ratio (z) = 0.40270 0.09412
#
# Static dielectric constant tensor:
#      x y z
#    x 3.440830 0.000000 0.000000 
#    y 0.000000 3.739880 0.000000 
#    z 0.000000 0.000000 3.308660 
# 
# 
# High freq. dielectric constant tensor:
#      x y z
#    x 1.732910 0.000000 0.000000 
#    y 0.000000 1.752940 0.000000 
#    z 0.000000 0.000000 1.715290 
# 
# From -- ./inp_files/3727.got.cif
#   From: 2010.03.12/outbox.cif.g09.slc.cpg/sg38_2_cif.got.tgz:3727.got - 2010.04.14 02:38:36.
