data_PCOD8179084
_publ_section_title
;
Structure prediction by ZEFSAII (Michael W. Deem and Ramdas Pophale) SiO2 
 PCOD8179084
Probable space group: A M M 2
;
_chemical_formula_sum "Si O2"
_cell_formula_units_Z 64
_cell_length_a 23.897579
_cell_length_b 9.329472
_cell_length_c 15.611069
_cell_angle_alpha 90.000000
_cell_angle_beta 90.000000
_cell_angle_gamma 90.000000
_cell_volume 3480.515842
_symmetry_space_group_name_H-M "A M M 2"
_symmetry_group_IT_number 38
_symmetry_cell_setting 'orthorhombic'
loop_
_space_group_symop_operation_xyz
x,y,z
-x,-y,z
-x,y,z
x,-y,z
x,1/2+y,1/2+z
-x,1/2-y,1/2+z
-x,1/2+y,1/2+z
x,1/2-y,1/2+z
loop_
_atom_site_type_symbol
_atom_site_label
_atom_site_fract_x
_atom_site_fract_y
_atom_site_fract_z
Si Si1 0.241465 0.830286 0.951070
Si Si2 0.938517 0.161442 0.372558
Si Si3 0.630173 0.330230 0.448448
Si Si4 0.174995 0.329914 0.615249
Si Si5 0.437894 0.329891 0.285976
Si Si6 0.565772 0.665355 0.094589
Si Si7 0.938833 0.830718 0.043239
Si Si8 0.821183 0.665440 0.802783
O O1 0.305644 0.782033 0.949193
O O2 0.209749 0.761100 0.871798
O O3 0.234915 0.000000 0.942781
O O4 0.215147 0.771821 0.039944
O O5 0.929131 0.270332 0.449147
O O6 0.888605 0.185343 0.305119
O O7 0.000000 0.186660 0.329331
O O8 0.935348 0.000000 0.409479
O O9 0.623520 0.500000 0.456270
O O10 0.603727 0.272200 0.359366
O O11 0.599406 0.262150 0.528943
O O12 0.174449 0.500000 0.613082
O O13 0.111385 0.272738 0.602609
O O14 0.197294 0.280039 0.708203
O O15 0.500000 0.267897 0.304468
O O16 0.440694 0.500000 0.287928
O O17 0.417751 0.283344 0.190952
O O18 0.500000 0.687763 0.079856
O O19 0.582260 0.500000 0.080440
O O20 0.000000 0.783564 0.079539
O O21 0.935507 0.000000 0.034205
O O22 0.804616 0.500000 0.818084
#
# Coordination Sequence:
#
# PCOD8179084 Si02
#       8
#     8   8   8   8   8   8   8   8
#     4  10  21  37  52  71 103 136 170 215 256 290
#     4   9  17  29  47  72  99 122 152 204 259 301
#     4  10  20  33  53  77 101 136 176 210 248 294
#     4   9  18  33  51  71  99 131 164 209 259 302
#     4   8  15  30  51  74 102 134 165 199 244 299
#     4   9  18  33  53  77 105 134 163 202 251 297
#     4   9  16  28  50  74  95 127 166 199 244 311
#     4  10  20  34  53  73  95 131 172 207 253 308
#
# _framework density 18.388078
#
# number of rings (size 3 to 8) (size 9 to 14) (size 15 to 20)
#    0.000    2.750    1.250    1.125    0.000    2.750 
#    0.000    4.375    0.000    0.750    0.000    3.500 
#    0.000    0.000    0.000    0.000    0.000    0.000 
#
# Total GULP energy -396596.358371 kJ/mol
# GULP energy per Si atom -12393.636199 kJ/mol
# Density = 1.834623 g / cm^3
# Si number density = 18.388078 Si / 1000 Ang^3
#
#
#
# Elastic Constant Matrix: (Units=GPa)
#
#
# Indices 1 2 3 4 5 6 
#
# 1 117.3129 27.1365 78.2361 0.0000 0.0000 0.0000
# 2 27.1365 17.9217 23.9751 0.0000 0.0000 0.0000
# 3 78.2361 23.9751 148.3259 0.0000 0.0000 0.0000
# 4 0.0000 0.0000 0.0000 24.6032 0.0000 0.0000
# 5 0.0000 0.0000 0.0000 0.0000 11.4520 0.0000
# 6 0.0000 0.0000 0.0000 0.0000 0.0000 17.1168
#
#
#
# Elastic Compliance Matrix: (Units=1/GPa)
#
#
# Indices 1 2 3 4 5 6 
#
# 1 0.016367 -0.016885 -0.005904 0.000000 0.000000 0.000000
# 2 -0.016885 0.088611 -0.005417 0.000000 0.000000 0.000000
# 3 -0.005904 -0.005417 0.010732 0.000000 0.000000 0.000000
# 4 0.000000 0.000000 0.000000 0.040645 0.000000 0.000000
# 5 0.000000 0.000000 0.000000 0.000000 0.087321 0.000000
# 6 0.000000 0.000000 0.000000 0.000000 0.000000 0.058422
#
#
# Mechanical properties :
#
#
# Convention : Reuss Voigt Hill
#
# Bulk Modulus (GPa) = 16.86372 60.25066 38.55719
# Shear Modulus (GPa) = 13.21789 20.91526 17.06657
#
# Velocity S-wave (km/s) = 2.68401 3.37625 3.04983
# Velocity P-wave (km/s) = 4.33545 6.93080 5.78066
#
# Compressibility (1/GPa) = 0.05929888
#
# Stress axis : x y z
#
# Youngs Moduli (GPa) = 61.09762 11.28527 93.18341
#
# Poissons Ratio (x) = 0.19055 0.55014
# Poissons Ratio (y) = 1.03162 0.50476
# Poissons Ratio (z) = 0.36071 0.06113
#
# Static dielectric constant tensor:
#      x y z
#    x 3.777240 0.000000 0.000000 
#    y 0.000000 3.074620 0.000000 
#    z 0.000000 0.000000 3.513870 
# 
# 
# High freq. dielectric constant tensor:
#      x y z
#    x 1.718510 0.000000 0.000000 
#    y 0.000000 1.677940 0.000000 
#    z 0.000000 0.000000 1.713800 
# 
# From -- ./inp_files/15774.got.cif
#   From: 2010.03.12/outbox.cif.g09.slc.cpg/sg38_8_cif.got.tgz:15774.got - 2010.04.14 02:38:36.
