data_PCOD8179794
_publ_section_title
;
Structure prediction by ZEFSAII (Michael W. Deem and Ramdas Pophale) SiO2 
 PCOD8179794
Probable space group: A M M 2
;
_chemical_formula_sum "Si O2"
_cell_formula_units_Z 48
_cell_length_a 10.026451
_cell_length_b 8.908970
_cell_length_c 27.501058
_cell_angle_alpha 90.000000
_cell_angle_beta 90.000000
_cell_angle_gamma 90.000000
_cell_volume 2456.541663
_symmetry_space_group_name_H-M "A M M 2"
_symmetry_group_IT_number 38
_symmetry_cell_setting 'orthorhombic'
loop_
_space_group_symop_operation_xyz
x,y,z
-x,-y,z
-x,y,z
x,-y,z
x,1/2+y,1/2+z
-x,1/2-y,1/2+z
-x,1/2+y,1/2+z
x,1/2-y,1/2+z
loop_
_atom_site_type_symbol
_atom_site_label
_atom_site_fract_x
_atom_site_fract_y
_atom_site_fract_z
Si Si1 0.000000 0.323469 0.560410
Si Si2 0.761933 0.824701 0.734983
Si Si3 0.648316 0.821817 0.415485
Si Si4 0.500000 0.177220 0.195636
Si Si5 0.739090 0.176460 0.520473
Si Si6 0.500000 0.325985 0.091951
Si Si7 0.000000 0.326926 0.162926
Si Si8 0.847525 0.173494 0.332701
O O1 0.127475 0.262057 0.532811
O O2 0.000000 0.276620 0.616269
O O3 0.000000 0.500000 0.557449
O O4 0.628158 0.735669 0.724092
O O5 0.868628 0.788460 0.693359
O O6 0.823171 0.773249 0.785692
O O7 0.729546 0.000000 0.737287
O O8 0.500000 0.762315 0.402389
O O9 0.688701 0.762189 0.468609
O O10 0.752921 0.763573 0.375480
O O11 0.648583 0.000000 0.416880
O O12 0.500000 0.228344 0.140131
O O13 0.500000 0.000000 0.197525
O O14 0.629858 0.214710 0.561034
O O15 0.768089 0.000000 0.518722
O O16 0.500000 0.500000 0.107144
O O17 0.000000 0.500000 0.146429
O O18 0.000000 0.191920 0.350020
O O19 0.815132 0.000000 0.320704
#
# Coordination Sequence:
#
# PCOD8179794 Si02
#       8
#     4   8   8   4   8   4   4   8
#     4  12  26  38  55  88 125 159 198 249 301 356
#     4  11  23  42  64  88 120 159 203 250 298 358
#     4   9  18  35  61  92 120 151 198 247 289 344
#     4  12  26  40  59  90 123 161 200 247 303 360
#     4  10  20  38  64  89 119 159 203 247 292 350
#     4  10  20  38  63  92 119 153 200 251 299 352
#     4  10  22  42  65  86 113 157 206 249 295 354
#     4  10  21  36  59  92 125 156 194 244 300 355
#
# _framework density 19.539663999999998
#
# number of rings (size 3 to 8) (size 9 to 14) (size 15 to 20)
#    0.000    1.667    1.667    3.000    2.333    6.000 
#    0.000    0.833    0.000    1.000    0.000    0.000 
#    0.000    0.000    0.000    0.000    0.000    0.000 
#
# Total GULP energy -297697.003061 kJ/mol
# GULP energy per Si atom -12404.041794 kJ/mol
# Density = 1.949519 g / cm^3
# Si number density = 19.539664 Si / 1000 Ang^3
#
#
#
# Elastic Constant Matrix: (Units=GPa)
#
#
# Indices 1 2 3 4 5 6 
#
# 1 164.7646 51.4184 55.1946 0.0000 0.0000 0.0000
# 2 51.4184 65.8535 32.6682 0.0000 0.0000 0.0000
# 3 55.1946 32.6682 107.3109 0.0000 0.0000 0.0000
# 4 0.0000 0.0000 0.0000 24.8659 0.0000 0.0000
# 5 0.0000 0.0000 0.0000 0.0000 41.0832 0.0000
# 6 0.0000 0.0000 0.0000 0.0000 0.0000 184.0893
#
#
#
# Elastic Compliance Matrix: (Units=1/GPa)
#
#
# Indices 1 2 3 4 5 6 
#
# 1 0.008700 -0.005387 -0.002835 0.000000 0.000000 0.000000
# 2 -0.005387 0.021222 -0.003690 0.000000 0.000000 0.000000
# 3 -0.002835 -0.003690 0.011900 0.000000 0.000000 0.000000
# 4 0.000000 0.000000 0.000000 0.040216 0.000000 0.000000
# 5 0.000000 0.000000 0.000000 0.000000 0.024341 0.000000
# 6 0.000000 0.000000 0.000000 0.000000 0.000000 0.005432
#
#
# Mechanical properties :
#
#
# Convention : Reuss Voigt Hill
#
# Bulk Modulus (GPa) = 55.55900 68.49904 62.02902
# Shear Modulus (GPa) = 35.30262 63.25087 49.27674
#
# Velocity S-wave (km/s) = 4.25516 5.69568 5.02728
# Velocity P-wave (km/s) = 7.25517 8.85364 8.09396
#
# Compressibility (1/GPa) = 0.01799888
#
# Stress axis : x y z
#
# Youngs Moduli (GPa) = 114.94330 47.12201 84.03270
#
# Poissons Ratio (x) = 0.25383 0.23823
# Poissons Ratio (y) = 0.61915 0.31007
# Poissons Ratio (z) = 0.32586 0.17387
#
# Static dielectric constant tensor:
#      x y z
#    x 3.783980 0.000000 0.000000 
#    y 0.000000 3.329930 0.000000 
#    z 0.000000 0.000000 3.671880 
# 
# 
# High freq. dielectric constant tensor:
#      x y z
#    x 1.782710 0.000000 0.000000 
#    y 0.000000 1.735890 0.000000 
#    z 0.000000 0.000000 1.771830 
# 
# From -- ./inp_files/24462.got.cif
#   From: 2010.03.12/outbox.cif.g09.slc.cpg/sg38_13_cif.got.tgz:24462.got - 2010.04.14 02:38:36.
