data_PCOD8179267
_publ_section_title
;
Structure prediction by ZEFSAII (Michael W. Deem and Ramdas Pophale) SiO2 
 PCOD8179267
Probable space group: A M M 2
;
_chemical_formula_sum "Si O2"
_cell_formula_units_Z 40
_cell_length_a 7.704952
_cell_length_b 9.362914
_cell_length_c 28.491735
_cell_angle_alpha 90.000000
_cell_angle_beta 90.000000
_cell_angle_gamma 90.000000
_cell_volume 2055.416640
_symmetry_space_group_name_H-M "A M M 2"
_symmetry_group_IT_number 38
_symmetry_cell_setting 'orthorhombic'
loop_
_space_group_symop_operation_xyz
x,y,z
-x,-y,z
-x,y,z
x,-y,z
x,1/2+y,1/2+z
-x,1/2-y,1/2+z
-x,1/2+y,1/2+z
x,1/2-y,1/2+z
loop_
_atom_site_type_symbol
_atom_site_label
_atom_site_fract_x
_atom_site_fract_y
_atom_site_fract_z
Si Si1 0.694611 0.167108 0.244270
Si Si2 0.000000 0.164286 0.695987
Si Si3 0.804140 0.343200 0.843382
Si Si4 0.701747 0.659733 0.428485
Si Si5 0.000000 0.835675 0.585065
Si Si6 0.299911 0.831824 0.034592
O O1 0.500000 0.192811 0.224887
O O2 0.697260 0.217154 0.298950
O O3 0.826338 0.259940 0.214014
O O4 0.746367 0.000000 0.240908
O O5 0.000000 0.175156 0.640491
O O6 0.000000 0.000000 0.712936
O O7 0.733523 0.500000 0.856887
O O8 0.800171 0.250976 0.890138
O O9 0.000000 0.350084 0.825134
O O10 0.500000 0.665398 0.417002
O O11 0.773577 0.500000 0.424300
O O12 0.737842 0.715865 0.481010
O O13 0.826218 0.758479 0.567328
O O14 0.000000 0.000000 0.568124
O O15 0.500000 0.798286 0.047781
O O16 0.263191 0.000000 0.040906
#
# Coordination Sequence:
#
# PCOD8179267 Si02
#       6
#     8   4   8   8   4   8
#     4  10  21  40  65  88 114 152 197 242 286 338
#     4  11  25  43  60  85 120 151 186 239 298 357
#     4  10  20  34  54  83 119 154 190 232 278 334
#     4   9  19  35  54  80 115 152 191 233 277 330
#     4  11  25  41  60  87 118 151 188 237 300 357
#     4   9  20  40  63  87 116 153 198 242 284 337
#
# _framework density 19.460775000000002
#
# number of rings (size 3 to 8) (size 9 to 14) (size 15 to 20)
#    0.000    2.200    1.000    2.400    1.400    6.400 
#    0.000    6.000    0.000    0.000    0.000    0.000 
#    0.000    0.000    0.000    0.000    0.000    0.000 
#
# Total GULP energy -247959.531701 kJ/mol
# GULP energy per Si atom -12397.976585 kJ/mol
# Density = 1.941648 g / cm^3
# Si number density = 19.460775 Si / 1000 Ang^3
#
#
#
# Elastic Constant Matrix: (Units=GPa)
#
#
# Indices 1 2 3 4 5 6 
#
# 1 117.9306 61.9883 51.7764 0.0000 0.0000 0.0000
# 2 61.9883 97.3509 58.8308 0.0000 0.0000 0.0000
# 3 51.7764 58.8308 93.4060 0.0000 0.0000 0.0000
# 4 0.0000 0.0000 0.0000 36.7493 0.0000 0.0000
# 5 0.0000 0.0000 0.0000 0.0000 19.8592 0.0000
# 6 0.0000 0.0000 0.0000 0.0000 0.0000 25.6975
#
#
#
# Elastic Compliance Matrix: (Units=1/GPa)
#
#
# Indices 1 2 3 4 5 6 
#
# 1 0.013348 -0.006503 -0.003303 0.000000 0.000000 0.000000
# 2 -0.006503 0.019753 -0.008836 0.000000 0.000000 0.000000
# 3 -0.003303 -0.008836 0.018102 0.000000 0.000000 0.000000
# 4 0.000000 0.000000 0.000000 0.027211 0.000000 0.000000
# 5 0.000000 0.000000 0.000000 0.000000 0.050354 0.000000
# 6 0.000000 0.000000 0.000000 0.000000 0.000000 0.038914
#
#
# Mechanical properties :
#
#
# Convention : Reuss Voigt Hill
#
# Bulk Modulus (GPa) = 71.84887 72.65319 72.25103
# Shear Modulus (GPa) = 23.85399 25.53400 24.69399
#
# Velocity S-wave (km/s) = 3.50487 3.62619 3.56604
# Velocity P-wave (km/s) = 7.30608 7.41259 7.35953
#
# Compressibility (1/GPa) = 0.01391810
#
# Stress axis : x y z
#
# Youngs Moduli (GPa) = 74.91698 50.62493 55.24151
#
# Poissons Ratio (x) = 0.32923 0.18246
# Poissons Ratio (y) = 0.48721 0.48813
# Poissons Ratio (z) = 0.24745 0.44734
#
# Static dielectric constant tensor:
#      x y z
#    x 3.568780 0.000000 0.000000 
#    y 0.000000 3.561860 0.000000 
#    z 0.000000 0.000000 3.440600 
# 
# 
# High freq. dielectric constant tensor:
#      x y z
#    x 1.768650 0.000000 0.000000 
#    y 0.000000 1.747370 0.000000 
#    z 0.000000 0.000000 1.754820 
# 
# From -- ./inp_files/23238.got.cif
#   From: 2010.03.12/outbox.cif.g09.slc.cpg/sg38_12_cif.got.tgz:23238.got - 2010.04.14 02:38:36.
