data_PCOD8179209
_publ_section_title
;
Structure prediction by ZEFSAII (Michael W. Deem and Ramdas Pophale) SiO2 
 PCOD8179209
Probable space group: A M M 2
;
_chemical_formula_sum "Si O2"
_cell_formula_units_Z 64
_cell_length_a 23.791933
_cell_length_b 9.457005
_cell_length_c 15.406754
_cell_angle_alpha 90.000000
_cell_angle_beta 90.000000
_cell_angle_gamma 90.000000
_cell_volume 3466.526265
_symmetry_space_group_name_H-M "A M M 2"
_symmetry_group_IT_number 38
_symmetry_cell_setting 'orthorhombic'
loop_
_space_group_symop_operation_xyz
x,y,z
-x,-y,z
-x,y,z
x,-y,z
x,1/2+y,1/2+z
-x,1/2-y,1/2+z
-x,1/2+y,1/2+z
x,1/2-y,1/2+z
loop_
_atom_site_type_symbol
_atom_site_label
_atom_site_fract_x
_atom_site_fract_y
_atom_site_fract_z
Si Si1 0.868233 0.833330 0.033790
Si Si2 0.321049 0.836150 0.370800
Si Si3 0.335132 0.337026 0.679262
Si Si4 0.934247 0.836368 0.676981
Si Si5 0.062139 0.167686 0.871098
Si Si6 0.560500 0.167263 0.432516
Si Si7 0.563131 0.336257 0.129901
Si Si8 0.739119 0.666257 0.517409
O O1 0.897982 0.758553 0.113559
O O2 0.803168 0.792322 0.034981
O O3 0.877679 0.000000 0.043966
O O4 0.894443 0.776468 0.943278
O O5 0.302534 0.815948 0.270690
O O6 0.385624 0.779931 0.378589
O O7 0.280472 0.745555 0.431094
O O8 0.317052 0.000000 0.399474
O O9 0.350632 0.500000 0.665456
O O10 0.393258 0.252625 0.686340
O O11 0.296141 0.281590 0.600973
O O12 0.918958 0.785406 0.774703
O O13 0.000000 0.812140 0.658827
O O14 0.918320 0.000000 0.663154
O O15 0.000000 0.228768 0.892283
O O16 0.059119 0.000000 0.872210
O O17 0.500000 0.227699 0.397442
O O18 0.568614 0.217349 0.531288
O O19 0.556840 0.000000 0.430007
O O20 0.500000 0.309023 0.164561
O O21 0.579203 0.500000 0.137693
O O22 0.732121 0.500000 0.501554
#
# Coordination Sequence:
#
# PCOD8179209 Si02
#       8
#     8   8   8   8   8   8   8   8
#     4  10  20  34  54  76 102 141 182 213 250 306
#     4  10  20  35  56  76  96 134 180 213 252 313
#     4  10  21  35  52  76 106 136 169 215 269 315
#     4   9  18  33  53  79 109 134 162 210 263 303
#     4   8  15  30  52  76 102 133 169 207 248 300
#     4   8  14  27  49  74  96 120 158 208 252 297
#     4   9  17  31  53  78 102 129 165 211 259 311
#     4  10  22  38  51  72 108 140 171 220 267 298
#
# _framework density 18.462287
#
# number of rings (size 3 to 8) (size 9 to 14) (size 15 to 20)
#    0.000    2.750    1.250    1.875    0.000    3.500 
#    0.000    1.875    0.000    1.125    0.000    0.000 
#    0.000    0.000    0.000    0.000    0.000    0.000 
#
# Total GULP energy -396670.512995 kJ/mol
# GULP energy per Si atom -12395.953531 kJ/mol
# Density = 1.842027 g / cm^3
# Si number density = 18.462287 Si / 1000 Ang^3
#
#
#
# Elastic Constant Matrix: (Units=GPa)
#
#
# Indices 1 2 3 4 5 6 
#
# 1 115.7286 44.4870 67.2805 0.0000 0.0000 0.0000
# 2 44.4870 40.1758 40.6117 0.0000 0.0000 0.0000
# 3 67.2805 40.6117 118.2776 0.0000 0.0000 0.0000
# 4 0.0000 0.0000 0.0000 25.5992 0.0000 0.0000
# 5 0.0000 0.0000 0.0000 0.0000 12.8130 0.0000
# 6 0.0000 0.0000 0.0000 0.0000 0.0000 24.4718
#
#
#
# Elastic Compliance Matrix: (Units=1/GPa)
#
#
# Indices 1 2 3 4 5 6 
#
# 1 0.016661 -0.013583 -0.004813 0.000000 0.000000 0.000000
# 2 -0.013583 0.049196 -0.009165 0.000000 0.000000 0.000000
# 3 -0.004813 -0.009165 0.014340 0.000000 0.000000 0.000000
# 4 0.000000 0.000000 0.000000 0.039064 0.000000 0.000000
# 5 0.000000 0.000000 0.000000 0.000000 0.078045 0.000000
# 6 0.000000 0.000000 0.000000 0.000000 0.000000 0.040863
#
#
# Mechanical properties :
#
#
# Convention : Reuss Voigt Hill
#
# Bulk Modulus (GPa) = 39.88369 64.32670 52.10519
# Shear Modulus (GPa) = 16.57555 20.69700 18.63628
#
# Velocity S-wave (km/s) = 2.99959 3.35183 3.18059
# Velocity P-wave (km/s) = 5.80055 7.06382 6.46312
#
# Compressibility (1/GPa) = 0.02507291
#
# Stress axis : x y z
#
# Youngs Moduli (GPa) = 60.02215 20.32698 69.73637
#
# Poissons Ratio (x) = 0.27610 0.33567
# Poissons Ratio (y) = 0.81527 0.63916
# Poissons Ratio (z) = 0.28891 0.18631
#
# Static dielectric constant tensor:
#      x y z
#    x 5.250890 0.000000 0.000000 
#    y 0.000000 3.036630 0.000000 
#    z 0.000000 0.000000 3.464920 
# 
# 
# High freq. dielectric constant tensor:
#      x y z
#    x 1.715430 0.000000 0.000000 
#    y 0.000000 1.682280 0.000000 
#    z 0.000000 0.000000 1.720590 
# 
# From -- ./inp_files/15759.got.cif
#   From: 2010.03.12/outbox.cif.g09.slc.cpg/sg38_8_cif.got.tgz:15759.got - 2010.04.14 02:38:36.
