data_PCOD8179478
_publ_section_title
;
Structure prediction by ZEFSAII (Michael W. Deem and Ramdas Pophale) SiO2 
 PCOD8179478
Probable space group: A M M 2
;
_chemical_formula_sum "Si O2"
_cell_formula_units_Z 64
_cell_length_a 8.826357
_cell_length_b 28.294432
_cell_length_c 12.628765
_cell_angle_alpha 90.000000
_cell_angle_beta 90.000000
_cell_angle_gamma 90.000000
_cell_volume 3153.866828
_symmetry_space_group_name_H-M "A M M 2"
_symmetry_group_IT_number 38
_symmetry_cell_setting 'orthorhombic'
loop_
_space_group_symop_operation_xyz
x,y,z
-x,-y,z
-x,y,z
x,-y,z
x,1/2+y,1/2+z
-x,1/2-y,1/2+z
-x,1/2+y,1/2+z
x,1/2-y,1/2+z
loop_
_atom_site_type_symbol
_atom_site_label
_atom_site_fract_x
_atom_site_fract_y
_atom_site_fract_z
Si Si1 0.679073 0.945051 0.471570
Si Si2 0.820820 0.102369 0.676487
Si Si3 0.821425 0.110549 0.278656
Si Si4 0.677330 0.200319 0.736521
Si Si5 0.667243 0.680955 0.464782
Si Si6 0.167829 0.948390 0.084442
Si Si7 0.667467 0.575634 0.383250
Si Si8 0.825397 0.294391 0.671727
O O1 0.500000 0.940759 0.482712
O O2 0.755294 0.924938 0.576318
O O3 0.731650 0.911251 0.376246
O O4 0.726822 0.000000 0.453186
O O5 0.762808 0.156304 0.682808
O O6 0.770972 0.072465 0.779147
O O7 0.000000 0.103404 0.667759
O O8 0.758876 0.086126 0.171406
O O9 0.789241 0.166642 0.262985
O O10 0.000000 0.100570 0.293539
O O11 0.500000 0.189867 0.723494
O O12 0.719721 0.209425 0.859945
O O13 0.721832 0.248464 0.679243
O O14 0.500000 0.697592 0.504229
O O15 0.657453 0.628118 0.425150
O O16 0.791869 0.684539 0.555820
O O17 0.000000 0.929603 0.054915
O O18 0.159785 0.000000 0.137625
O O19 0.263348 0.954645 0.977819
O O20 0.500000 0.556427 0.354922
O O21 0.000000 0.279560 0.677702
#
# Coordination Sequence:
#
# PCOD8179478 Si02
#       8
#     8   8   8   8   8   8   8   8
#     4  11  25  44  66  92 125 168 216 267 323 383
#     4  11  23  41  66  91 121 160 206 258 314 375
#     4  10  22  40  61  88 124 165 209 258 312 370
#     4  10  22  40  61  89 124 162 205 255 314 374
#     4   9  19  36  57  80 112 155 194 241 303 363
#     4  10  20  35  57  86 120 158 199 245 300 359
#     4  10  20  36  59  86 118 154 194 244 304 364
#     4  11  22  36  60  91 122 161 208 256 309 371
#
# _framework density 20.292549999999999
#
# number of rings (size 3 to 8) (size 9 to 14) (size 15 to 20)
#    0.000    1.750    1.250    3.750    0.000    7.250 
#    0.000    2.500    0.000    0.000    0.000    0.000 
#    0.000    0.000    0.000    0.000    0.000    0.000 
#
# Total GULP energy -396718.620464 kJ/mol
# GULP energy per Si atom -12397.456889 kJ/mol
# Density = 2.024636 g / cm^3
# Si number density = 20.292550 Si / 1000 Ang^3
#
#
#
# Elastic Constant Matrix: (Units=GPa)
#
#
# Indices 1 2 3 4 5 6 
#
# 1 95.8882 39.9773 46.6887 0.0000 0.0000 0.0000
# 2 39.9773 69.1206 36.2357 0.0000 0.0000 0.0000
# 3 46.6887 36.2357 111.8069 0.0000 0.0000 0.0000
# 4 0.0000 0.0000 0.0000 22.5470 0.0000 0.0000
# 5 0.0000 0.0000 0.0000 0.0000 36.6448 0.0000
# 6 0.0000 0.0000 0.0000 0.0000 0.0000 21.7765
#
#
#
# Elastic Compliance Matrix: (Units=1/GPa)
#
#
# Indices 1 2 3 4 5 6 
#
# 1 0.015236 -0.006598 -0.004224 0.000000 0.000000 0.000000
# 2 -0.006598 0.020286 -0.003819 0.000000 0.000000 0.000000
# 3 -0.004224 -0.003819 0.011946 0.000000 0.000000 0.000000
# 4 0.000000 0.000000 0.000000 0.044352 0.000000 0.000000
# 5 0.000000 0.000000 0.000000 0.000000 0.027289 0.000000
# 6 0.000000 0.000000 0.000000 0.000000 0.000000 0.045921
#
#
# Mechanical properties :
#
#
# Convention : Reuss Voigt Hill
#
# Bulk Modulus (GPa) = 54.98957 58.06878 56.52917
# Shear Modulus (GPa) = 24.95338 26.45460 25.70399
#
# Velocity S-wave (km/s) = 3.51049 3.61454 3.56289
# Velocity P-wave (km/s) = 6.60217 6.78954 6.69651
#
# Compressibility (1/GPa) = 0.01818527
#
# Stress axis : x y z
#
# Youngs Moduli (GPa) = 65.63281 49.29599 83.71188
#
# Poissons Ratio (x) = 0.32524 0.35361
# Poissons Ratio (y) = 0.43303 0.31972
# Poissons Ratio (z) = 0.27724 0.18828
#
# Static dielectric constant tensor:
#      x y z
#    x 3.860870 0.000000 0.000000 
#    y 0.000000 3.716660 0.000000 
#    z 0.000000 0.000000 3.944910 
# 
# 
# High freq. dielectric constant tensor:
#      x y z
#    x 1.794680 0.000000 0.000000 
#    y 0.000000 1.794870 0.000000 
#    z 0.000000 0.000000 1.792050 
# 
# From -- ./inp_files/8651.got.cif
#   From: 2010.03.12/outbox.cif.g09.slc.cpg/sg38_5_cif.got.tgz:8651.got - 2010.04.14 02:38:36.
