data_PCOD8179596
_publ_section_title
;
Structure prediction by ZEFSAII (Michael W. Deem and Ramdas Pophale) SiO2 
 PCOD8179596
Probable space group: A M M 2
;
_chemical_formula_sum "Si O2"
_cell_formula_units_Z 64
_cell_length_a 8.973192
_cell_length_b 18.127233
_cell_length_c 20.695204
_cell_angle_alpha 90.000000
_cell_angle_beta 90.000000
_cell_angle_gamma 90.000000
_cell_volume 3366.264129
_symmetry_space_group_name_H-M "A M M 2"
_symmetry_group_IT_number 38
_symmetry_cell_setting 'orthorhombic'
loop_
_space_group_symop_operation_xyz
x,y,z
-x,-y,z
-x,y,z
x,-y,z
x,1/2+y,1/2+z
-x,1/2-y,1/2+z
-x,1/2+y,1/2+z
x,1/2-y,1/2+z
loop_
_atom_site_type_symbol
_atom_site_label
_atom_site_fract_x
_atom_site_fract_y
_atom_site_fract_z
Si Si1 0.171182 0.587385 0.989680
Si Si2 0.332205 0.912274 0.361330
Si Si3 0.174360 0.678775 0.608899
Si Si4 0.171182 0.587385 0.228118
Si Si5 0.826503 0.915418 0.984434
Si Si6 0.323611 0.835147 0.608899
Si Si7 0.826502 0.084582 0.233364
Si Si8 0.332205 0.087726 0.856468
O O1 0.187723 0.500000 0.996126
O O2 0.235843 0.616528 0.921709
O O3 0.000000 0.612235 0.994739
O O4 0.263881 0.624261 0.046036
O O5 0.500000 0.881964 0.367691
O O6 0.261526 0.882682 0.294803
O O7 0.329038 0.000000 0.360570
O O8 0.218618 0.631594 0.546467
O O9 0.272328 0.751279 0.608899
O O10 0.218618 0.631594 0.671331
O O11 0.000000 0.699025 0.608899
O O12 0.187721 0.500000 0.221673
O O13 0.263881 0.624261 0.171762
O O14 0.235843 0.616528 0.296089
O O15 0.000000 0.612236 0.223059
O O16 0.738474 0.882683 0.922995
O O17 0.000000 0.909016 0.968361
O O18 0.782183 0.000000 0.998510
O O19 0.500000 0.839393 0.608899
O O20 0.000000 0.090984 0.249437
O O21 0.782182 0.000000 0.219289
O O22 0.500000 0.118036 0.850107
O O23 0.329037 0.000000 0.857228
#
# Coordination Sequence:
#
# PCOD8179596 Si02
#       8
#     8   8   8   8   8   8   8   8
#     4  10  20  36  59  83 106 136 176 219 262 313
#     4   9  17  30  51  81 113 140 169 212 265 316
#     4  10  21  37  55  76 107 145 183 222 262 310
#     4  10  20  36  59  83 106 136 176 219 262 313
#     4   9  17  32  56  83 108 138 178 221 264 311
#     4  12  25  38  53  76 109 144 177 218 266 316
#     4   9  17  32  56  83 108 138 178 221 264 311
#     4   9  17  30  51  81 113 140 169 212 265 316
#
# _framework density 19.012174000000002
#
# number of rings (size 3 to 8) (size 9 to 14) (size 15 to 20)
#    0.000    2.250    0.000    3.375    0.000    8.500 
#    0.000    1.250    0.000   11.250    0.000    0.000 
#    0.000    0.000    0.000    0.000    0.000    0.000 
#
# Total GULP energy -396871.891640 kJ/mol
# GULP energy per Si atom -12402.246614 kJ/mol
# Density = 1.896890 g / cm^3
# Si number density = 19.012174 Si / 1000 Ang^3
#
#
#
# Elastic Constant Matrix: (Units=GPa)
#
#
# Indices 1 2 3 4 5 6 
#
# 1 145.7635 49.0825 96.3475 0.0000 0.0000 0.0000
# 2 49.0825 47.9616 51.6476 0.0000 0.0000 0.0000
# 3 96.3475 51.6476 192.2260 0.0000 0.0000 0.0000
# 4 0.0000 0.0000 0.0000 -6.0284 0.0000 0.0000
# 5 0.0000 0.0000 0.0000 0.0000 11.6439 0.0000
# 6 0.0000 0.0000 0.0000 0.0000 0.0000 23.0085
#
#
#
# Elastic Compliance Matrix: (Units=1/GPa)
#
#
# Indices 1 2 3 4 5 6 
#
# 1 0.012242 -0.008331 -0.003897 0.000000 0.000000 0.000000
# 2 -0.008331 0.035008 -0.005230 0.000000 0.000000 0.000000
# 3 -0.003897 -0.005230 0.008561 0.000000 0.000000 0.000000
# 4 0.000000 0.000000 0.000000 -0.165882 0.000000 0.000000
# 5 0.000000 0.000000 0.000000 0.000000 0.085882 0.000000
# 6 0.000000 0.000000 0.000000 0.000000 0.000000 0.043462
#
#
# Mechanical properties :
#
#
# Convention : Reuss Voigt Hill
#
# Bulk Modulus (GPa) = 47.86233 86.67846 67.27040
# Shear Modulus (GPa) = 81.76025 18.31638 50.03831
#
# Velocity S-wave (km/s) = 6.56487 3.10724 5.13578
# Velocity P-wave (km/s) = 9.09355 7.65266 8.40404
#
# Compressibility (1/GPa) = 0.02089326
#
# Stress axis : x y z
#
# Youngs Moduli (GPa) = 81.68697 28.56494 116.80855
#
# Poissons Ratio (x) = 0.23797 0.45526
# Poissons Ratio (y) = 0.68053 0.61095
# Poissons Ratio (z) = 0.31837 0.14941
#
# Static dielectric constant tensor:
#      x y z
#    x 3.585270 0.000000 0.000000 
#    y 0.000000 3.225510 0.000000 
#    z 0.000000 0.000000 3.736970 
# 
# 
# High freq. dielectric constant tensor:
#      x y z
#    x 1.744870 0.000000 0.000000 
#    y 0.000000 1.704720 0.000000 
#    z 0.000000 0.000000 1.759130 
# 
# From -- ./inp_files/20017.got.cif
#   From: 2010.03.12/outbox.cif.g09.slc.cpg/sg38_11_cif.got.tgz:20017.got - 2010.04.14 02:38:36.
