data_PCOD8179745
_publ_section_title
;
Structure prediction by ZEFSAII (Michael W. Deem and Ramdas Pophale) SiO2 
 PCOD8179745
Probable space group: A M M 2
;
_chemical_formula_sum "Si O2"
_cell_formula_units_Z 48
_cell_length_a 8.721400
_cell_length_b 15.388799
_cell_length_c 18.536516
_cell_angle_alpha 90.000000
_cell_angle_beta 90.000000
_cell_angle_gamma 90.000000
_cell_volume 2487.820505
_symmetry_space_group_name_H-M "A M M 2"
_symmetry_group_IT_number 38
_symmetry_cell_setting 'orthorhombic'
loop_
_space_group_symop_operation_xyz
x,y,z
-x,-y,z
-x,y,z
x,-y,z
x,1/2+y,1/2+z
-x,1/2-y,1/2+z
-x,1/2+y,1/2+z
x,1/2-y,1/2+z
loop_
_atom_site_type_symbol
_atom_site_label
_atom_site_fract_x
_atom_site_fract_y
_atom_site_fract_z
Si Si1 0.680627 0.500000 0.613230
Si Si2 0.820721 0.665408 0.865267
Si Si3 0.818482 0.000000 0.615977
Si Si4 0.820413 0.500000 0.456421
Si Si5 0.679326 0.340943 0.200087
Si Si6 0.178574 0.841449 0.198510
Si Si7 0.678344 0.846832 0.867284
Si Si8 0.181663 0.500000 0.951979
O O1 0.500000 0.500000 0.618010
O O2 0.729992 0.500000 0.530704
O O3 0.741992 0.585209 0.651981
O O4 0.788639 0.640940 0.782447
O O5 0.726769 0.749925 0.889823
O O6 0.755847 0.586129 0.912661
O O7 0.000000 0.683612 0.878296
O O8 0.754013 0.915006 0.652907
O O9 0.761204 0.000000 0.533749
O O10 0.000000 0.000000 0.621626
O O11 0.777888 0.414638 0.411699
O O12 0.000000 0.500000 0.472468
O O13 0.500000 0.336798 0.185211
O O14 0.753261 0.250817 0.175081
O O15 0.715103 0.361452 0.283287
O O16 0.000000 0.842181 0.180756
O O17 0.500000 0.861317 0.884372
O O18 0.000000 0.500000 0.945500
#
# Coordination Sequence:
#
# PCOD8179745 Si02
#       8
#     4   8   4   4   8   8   8   4
#     4  12  25  40  58  83 118 154 187 230 288 348
#     4   9  18  36  61  85 111 147 190 233 278 331
#     4  11  22  35  54  81 114 151 192 237 282 334
#     4  12  25  40  59  83 113 150 191 234 284 344
#     4  10  21  38  59  83 114 151 190 235 287 341
#     4  10  20  37  62  88 112 144 190 238 282 336
#     4  10  21  38  59  84 113 145 185 235 287 337
#     4   9  19  35  55  81 113 147 182 225 274 322
#
# _framework density 19.293997000000001
#
# number of rings (size 3 to 8) (size 9 to 14) (size 15 to 20)
#    0.000    1.833    0.000    4.250    0.000    7.333 
#    0.000    7.083    0.000    0.000    0.000    0.000 
#    0.000    0.000    0.000    0.000    0.000    0.000 
#
# Total GULP energy -297715.932330 kJ/mol
# GULP energy per Si atom -12404.830514 kJ/mol
# Density = 1.925008 g / cm^3
# Si number density = 19.293997 Si / 1000 Ang^3
#
#
#
# Elastic Constant Matrix: (Units=GPa)
#
#
# Indices 1 2 3 4 5 6 
#
# 1 65.1938 52.5700 36.3441 0.0000 0.0000 0.0000
# 2 52.5700 172.0922 89.1314 0.0000 0.0000 0.0000
# 3 36.3441 89.1314 98.8064 0.0000 0.0000 0.0000
# 4 0.0000 0.0000 0.0000 -117.3669 0.0000 0.0000
# 5 0.0000 0.0000 0.0000 0.0000 27.0625 0.0000
# 6 0.0000 0.0000 0.0000 0.0000 0.0000 29.5183
#
#
#
# Elastic Compliance Matrix: (Units=1/GPa)
#
#
# Indices 1 2 3 4 5 6 
#
# 1 0.021028 -0.004537 -0.003642 0.000000 0.000000 0.000000
# 2 -0.004537 0.011886 -0.009053 0.000000 0.000000 0.000000
# 3 -0.003642 -0.009053 0.019627 0.000000 0.000000 0.000000
# 4 0.000000 0.000000 0.000000 -0.008520 0.000000 0.000000
# 5 0.000000 0.000000 0.000000 0.000000 0.036951 0.000000
# 6 0.000000 0.000000 0.000000 0.000000 0.000000 0.033877
#
#
# Mechanical properties :
#
#
# Convention : Reuss Voigt Hill
#
# Bulk Modulus (GPa) = 55.32044 76.90927 66.11485
# Shear Modulus (GPa) = 32.18798 -1.62075 15.28362
#
# Velocity S-wave (km/s) = 4.08890 -0.91752 2.81756
# Velocity P-wave (km/s) = 7.14330 6.23104 6.70271
#
# Compressibility (1/GPa) = 0.01807650
#
# Stress axis : x y z
#
# Youngs Moduli (GPa) = 47.55615 84.13541 50.95113
#
# Poissons Ratio (x) = 0.38176 0.18554
# Poissons Ratio (y) = 0.21578 0.46125
# Poissons Ratio (z) = 0.17318 0.76166
#
# Static dielectric constant tensor:
#      x y z
#    x 3.558430 0.000000 0.000000 
#    y 0.000000 4.039200 0.000000 
#    z 0.000000 0.000000 3.585100 
# 
# 
# High freq. dielectric constant tensor:
#      x y z
#    x 1.754510 0.000000 0.000000 
#    y 0.000000 1.768800 0.000000 
#    z 0.000000 0.000000 1.748360 
# 
# From -- ./inp_files/16733.got.cif
#   From: 2010.03.12/outbox.cif.g09.slc.cpg/sg38_9_cif.got.tgz:16733.got - 2010.04.14 02:38:36.
