data_PCOD8179243
_publ_section_title
;
Structure prediction by ZEFSAII (Michael W. Deem and Ramdas Pophale) SiO2 
 PCOD8179243
Probable space group: A M M 2
;
_chemical_formula_sum "Si O2"
_cell_formula_units_Z 56
_cell_length_a 9.398455
_cell_length_b 18.141646
_cell_length_c 17.072720
_cell_angle_alpha 90.000000
_cell_angle_beta 90.000000
_cell_angle_gamma 90.000000
_cell_volume 2910.957551
_symmetry_space_group_name_H-M "A M M 2"
_symmetry_group_IT_number 38
_symmetry_cell_setting 'orthorhombic'
loop_
_space_group_symop_operation_xyz
x,y,z
-x,-y,z
-x,y,z
x,-y,z
x,1/2+y,1/2+z
-x,1/2-y,1/2+z
-x,1/2+y,1/2+z
x,1/2-y,1/2+z
loop_
_atom_site_type_symbol
_atom_site_label
_atom_site_fract_x
_atom_site_fract_y
_atom_site_fract_z
Si Si1 0.664506 0.916741 0.307850
Si Si2 0.836029 0.664103 0.678499
Si Si3 0.159527 0.414097 0.520504
Si Si4 0.337958 0.823142 0.453666
Si Si5 0.164985 0.681524 0.110455
Si Si6 0.834637 0.415062 0.256684
Si Si7 0.333337 0.834933 0.891731
O O1 0.500000 0.911334 0.283981
O O2 0.749467 0.860853 0.253603
O O3 0.686228 0.893320 0.397972
O O4 0.721710 0.000000 0.298405
O O5 0.811767 0.604118 0.610802
O O6 0.777870 0.743230 0.649708
O O7 0.000000 0.670302 0.703466
O O8 0.175074 0.500000 0.506869
O O9 0.277693 0.375264 0.468826
O O10 0.000000 0.387477 0.496975
O O11 0.500000 0.817238 0.482734
O O12 0.242562 0.834179 0.529510
O O13 0.298419 0.751070 0.402709
O O14 0.192857 0.613390 0.168732
O O15 0.000000 0.691052 0.090230
O O16 0.785537 0.500000 0.262030
O O17 0.745217 0.365053 0.315393
O O18 0.000000 0.407104 0.279314
O O19 0.500000 0.850500 0.882249
#
# Coordination Sequence:
#
# PCOD8179243 Si02
#       7
#     8   8   8   8   8   8   8
#     4  10  22  39  58  82 114 151 188 228 279 335
#     4  10  20  36  58  84 112 144 187 233 277 331
#     4  10  20  34  54  80 113 150 184 226 280 332
#     4  10  22  39  58  83 115 149 186 232 281 329
#     4  10  21  38  61  86 111 146 191 233 276 333
#     4  10  22  39  58  83 116 150 185 231 284 331
#     4  11  22  36  56  83 113 147 189 231 274 332
#
# _framework density 19.237656999999999
#
# number of rings (size 3 to 8) (size 9 to 14) (size 15 to 20)
#    0.000    1.857    1.429    2.143    0.000    6.571 
#    0.000    0.000    0.000    0.000    0.000    0.000 
#    0.000    0.000    0.000    0.000    0.000    0.000 
#
# Total GULP energy -347297.010709 kJ/mol
# GULP energy per Si atom -12403.464668 kJ/mol
# Density = 1.919387 g / cm^3
# Si number density = 19.237657 Si / 1000 Ang^3
#
#
#
# Elastic Constant Matrix: (Units=GPa)
#
#
# Indices 1 2 3 4 5 6 
#
# 1 62.8142 23.2200 49.0083 0.0000 0.0000 0.0000
# 2 23.2200 54.9437 28.1635 0.0000 0.0000 0.0000
# 3 49.0083 28.1635 96.3995 0.0000 0.0000 0.0000
# 4 0.0000 0.0000 0.0000 28.4146 0.0000 0.0000
# 5 0.0000 0.0000 0.0000 0.0000 98.1706 0.0000
# 6 0.0000 0.0000 0.0000 0.0000 0.0000 23.2036
#
#
#
# Elastic Compliance Matrix: (Units=1/GPa)
#
#
# Indices 1 2 3 4 5 6 
#
# 1 0.027622 -0.005264 -0.012505 0.000000 0.000000 0.000000
# 2 -0.005264 0.022409 -0.003871 0.000000 0.000000 0.000000
# 3 -0.012505 -0.003871 0.017862 0.000000 0.000000 0.000000
# 4 0.000000 0.000000 0.000000 0.035193 0.000000 0.000000
# 5 0.000000 0.000000 0.000000 0.000000 0.010186 0.000000
# 6 0.000000 0.000000 0.000000 0.000000 0.000000 0.043097
#
#
# Mechanical properties :
#
#
# Convention : Reuss Voigt Hill
#
# Bulk Modulus (GPa) = 40.62728 46.10455 43.36592
# Shear Modulus (GPa) = 24.05543 37.54215 30.79879
#
# Velocity S-wave (km/s) = 3.53998 4.42236 4.00555
# Velocity P-wave (km/s) = 6.15411 7.07773 6.63202
#
# Compressibility (1/GPa) = 0.02461400
#
# Stress axis : x y z
#
# Youngs Moduli (GPa) = 36.20267 44.62466 55.98529
#
# Poissons Ratio (x) = 0.23489 0.70010
# Poissons Ratio (y) = 0.19056 0.21672
# Poissons Ratio (z) = 0.45272 0.17274
#
# Static dielectric constant tensor:
#      x y z
#    x 3.448530 0.000000 0.000000 
#    y 0.000000 3.694720 0.000000 
#    z 0.000000 0.000000 3.388910 
# 
# 
# High freq. dielectric constant tensor:
#      x y z
#    x 1.741770 0.000000 0.000000 
#    y 0.000000 1.757560 0.000000 
#    z 0.000000 0.000000 1.751360 
# 
# From -- ./inp_files/12386.got.cif
#   From: 2010.03.12/outbox.cif.g09.slc.cpg/sg38_7_cif.got.tgz:12386.got - 2010.04.14 02:38:36.
