data_PCOD8179198
_publ_section_title
;
Structure prediction by ZEFSAII (Michael W. Deem and Ramdas Pophale) SiO2 
 PCOD8179198
Probable space group: A M M 2
;
_chemical_formula_sum "Si O2"
_cell_formula_units_Z 64
_cell_length_a 19.246049
_cell_length_b 9.008682
_cell_length_c 20.524074
_cell_angle_alpha 90.000000
_cell_angle_beta 90.000000
_cell_angle_gamma 90.000000
_cell_volume 3558.495459
_symmetry_space_group_name_H-M "A M M 2"
_symmetry_group_IT_number 38
_symmetry_cell_setting 'orthorhombic'
loop_
_space_group_symop_operation_xyz
x,y,z
-x,-y,z
-x,y,z
x,-y,z
x,1/2+y,1/2+z
-x,1/2-y,1/2+z
-x,1/2+y,1/2+z
x,1/2-y,1/2+z
loop_
_atom_site_type_symbol
_atom_site_label
_atom_site_fract_x
_atom_site_fract_y
_atom_site_fract_z
Si Si1 0.424583 0.324147 0.941410
Si Si2 0.076333 0.174321 0.175364
Si Si3 0.784349 0.670542 0.373255
Si Si4 0.719020 0.324910 0.993986
Si Si5 0.922817 0.670161 0.309140
Si Si6 0.781092 0.175363 0.119978
Si Si7 0.705538 0.172956 0.739601
Si Si8 0.579410 0.171435 0.294619
O O1 0.500000 0.264966 0.967043
O O2 0.427342 0.500000 0.936911
O O3 0.411326 0.265878 0.868126
O O4 0.361989 0.273895 0.988576
O O5 0.095779 0.236203 0.245816
O O6 0.137083 0.219561 0.125011
O O7 0.000000 0.233285 0.151978
O O8 0.073953 0.000000 0.183364
O O9 0.770327 0.500000 0.394033
O O10 0.757448 0.782255 0.427579
O O11 0.866798 0.702010 0.365574
O O12 0.747721 0.707597 0.305112
O O13 0.725516 0.500000 0.004884
O O14 0.753155 0.239977 0.053151
O O15 0.917547 0.500000 0.286881
O O16 0.000000 0.708368 0.336002
O O17 0.739741 0.241421 0.180193
O O18 0.770670 0.000000 0.119776
O O19 0.626908 0.230662 0.747194
O O20 0.704696 0.000000 0.722607
O O21 0.500000 0.190273 0.271700
O O22 0.602560 0.000000 0.290376
#
# Coordination Sequence:
#
# PCOD8179198 Si02
#       8
#     8   8   8   8   8   8   8   8
#     4   8  15  30  53  79 104 133 173 219 266 318
#     4   9  18  33  54  79 104 136 180 226 272 325
#     4  10  20  34  53  80 112 141 175 221 270 324
#     4  11  22  36  57  81 108 143 184 226 273 328
#     4   9  17  31  53  80 109 141 177 222 273 321
#     4  11  23  38  56  78 111 148 183 226 277 330
#     4  11  21  34  55  83 113 142 180 226 270 324
#     4   9  17  32  55  82 111 143 182 226 274 326
#
# _framework density 17.985128
#
# number of rings (size 3 to 8) (size 9 to 14) (size 15 to 20)
#    0.000    2.250    2.500    1.875    0.000    1.750 
#    0.000    1.250    0.000    7.500    0.000    0.000 
#    0.000    0.000    0.000    0.000    0.000    0.000 
#
# Total GULP energy -396694.759736 kJ/mol
# GULP energy per Si atom -12396.711242 kJ/mol
# Density = 1.794419 g / cm^3
# Si number density = 17.985128 Si / 1000 Ang^3
#
#
#
# Elastic Constant Matrix: (Units=GPa)
#
#
# Indices 1 2 3 4 5 6 
#
# 1 136.5889 38.5162 48.6101 0.0000 0.0000 0.0000
# 2 38.5162 30.2220 21.2565 0.0000 0.0000 0.0000
# 3 48.6101 21.2565 69.6396 0.0000 0.0000 0.0000
# 4 0.0000 0.0000 0.0000 30.9691 0.0000 0.0000
# 5 0.0000 0.0000 0.0000 0.0000 25.3233 0.0000
# 6 0.0000 0.0000 0.0000 0.0000 0.0000 24.5594
#
#
#
# Elastic Compliance Matrix: (Units=1/GPa)
#
#
# Indices 1 2 3 4 5 6 
#
# 1 0.012653 -0.012623 -0.004979 0.000000 0.000000 0.000000
# 2 -0.012623 0.054728 -0.007894 0.000000 0.000000 0.000000
# 3 -0.004979 -0.007894 0.020244 0.000000 0.000000 0.000000
# 4 0.000000 0.000000 0.000000 0.032290 0.000000 0.000000
# 5 0.000000 0.000000 0.000000 0.000000 0.039489 0.000000
# 6 0.000000 0.000000 0.000000 0.000000 0.000000 0.040718
#
#
# Mechanical properties :
#
#
# Convention : Reuss Voigt Hill
#
# Bulk Modulus (GPa) = 27.29721 50.35737 38.82729
# Shear Modulus (GPa) = 18.98790 24.70820 21.84805
#
# Velocity S-wave (km/s) = 3.25276 3.71052 3.48916
# Velocity P-wave (km/s) = 5.41460 6.81304 6.15367
#
# Compressibility (1/GPa) = 0.03663379
#
# Stress axis : x y z
#
# Youngs Moduli (GPa) = 79.03414 18.27207 49.39641
#
# Poissons Ratio (x) = 0.23066 0.24594
# Poissons Ratio (y) = 0.99768 0.38992
# Poissons Ratio (z) = 0.39350 0.14423
#
# Static dielectric constant tensor:
#      x y z
#    x 3.987320 0.000000 0.000000 
#    y 0.000000 3.238100 0.000000 
#    z 0.000000 0.000000 3.191240 
# 
# 
# High freq. dielectric constant tensor:
#      x y z
#    x 1.718290 0.000000 0.000000 
#    y 0.000000 1.688160 0.000000 
#    z 0.000000 0.000000 1.663340 
# 
# From -- ./inp_files/18914.got.cif
#   From: 2010.03.12/outbox.cif.g09.slc.cpg/sg38_10_cif.got.tgz:18914.got - 2010.04.14 02:38:36.
