data_PCOD8179852
_publ_section_title
;
Structure prediction by ZEFSAII (Michael W. Deem and Ramdas Pophale) SiO2 
 PCOD8179852
Probable space group: A M M 2
;
_chemical_formula_sum "Si O2"
_cell_formula_units_Z 64
_cell_length_a 15.103759
_cell_length_b 16.977071
_cell_length_c 12.332119
_cell_angle_alpha 90.000000
_cell_angle_beta 90.000000
_cell_angle_gamma 90.000000
_cell_volume 3162.172220
_symmetry_space_group_name_H-M "A M M 2"
_symmetry_group_IT_number 38
_symmetry_cell_setting 'orthorhombic'
loop_
_space_group_symop_operation_xyz
x,y,z
-x,-y,z
-x,y,z
x,-y,z
x,1/2+y,1/2+z
-x,1/2-y,1/2+z
-x,1/2+y,1/2+z
x,1/2-y,1/2+z
loop_
_atom_site_type_symbol
_atom_site_label
_atom_site_fract_x
_atom_site_fract_y
_atom_site_fract_z
Si Si1 0.255429 0.407545 0.606630
Si Si2 0.900828 0.594537 0.459500
Si Si3 0.603194 0.159389 0.953540
Si Si4 0.395248 0.089174 0.726808
Si Si5 0.895863 0.914632 0.726808
Si Si6 0.255425 0.092453 0.346982
Si Si7 0.603194 0.159380 0.500070
Si Si8 0.900828 0.905463 0.494116
O O1 0.243053 0.500000 0.615670
O O2 0.169227 0.371640 0.546018
O O3 0.345411 0.390856 0.542654
O O4 0.260980 0.370060 0.726807
O O5 0.899145 0.500000 0.453762
O O6 0.871528 0.628873 0.340287
O O7 0.000000 0.623123 0.491430
O O8 0.500000 0.139103 0.966818
O O9 0.637851 0.135611 0.833622
O O10 0.623006 0.250005 0.976801
O O11 0.500000 0.086939 0.726808
O O12 0.362150 0.135608 0.619990
O O13 0.357300 0.000000 0.726811
O O14 0.871528 0.871127 0.613329
O O15 0.000000 0.928155 0.726807
O O16 0.848144 0.000000 0.726808
O O17 0.345409 0.109132 0.410961
O O18 0.169227 0.128362 0.407599
O O19 0.243036 0.000000 0.337935
O O20 0.500000 0.139094 0.486792
O O21 0.000000 0.876877 0.462186
O O22 0.899143 0.000000 0.499852
#
# Coordination Sequence:
#
# PCOD8179852 Si02
#       8
#     8   8   8   8   8   8   8   8
#     4  10  21  34  51  80 113 145 184 226 272 330
#     4   8  14  26  45  72 107 143 179 222 270 320
#     4  10  22  38  58  80 108 145 183 228 285 342
#     4   9  18  35  59  85 109 138 185 236 279 333
#     4   7  10  19  39  67  98 133 172 214 262 313
#     4  10  21  34  51  80 113 145 184 226 272 330
#     4  10  22  38  58  80 108 145 183 228 285 342
#     4   8  14  26  45  72 107 143 179 222 270 320
#
# _framework density 20.239252
#
# number of rings (size 3 to 8) (size 9 to 14) (size 15 to 20)
#    0.000    3.000    0.000    2.250    1.750    3.500 
#    0.000    6.250    0.000    0.750    0.000    0.000 
#    0.000    0.000    0.000    0.000    0.000    0.000 
#
# Total GULP energy -396511.391641 kJ/mol
# GULP energy per Si atom -12390.980989 kJ/mol
# Density = 2.019319 g / cm^3
# Si number density = 20.239252 Si / 1000 Ang^3
#
#
#
# Elastic Constant Matrix: (Units=GPa)
#
#
# Indices 1 2 3 4 5 6 
#
# 1 87.7081 15.0836 72.4977 0.0000 0.0000 0.0000
# 2 15.0836 43.9548 40.0527 0.0000 0.0000 0.0000
# 3 72.4977 40.0527 218.0103 0.0000 0.0000 0.0000
# 4 0.0000 0.0000 0.0000 22.7538 0.0000 0.0000
# 5 0.0000 0.0000 0.0000 0.0000 29.2480 0.0000
# 6 0.0000 0.0000 0.0000 0.0000 0.0000 -7.1690
#
#
#
# Elastic Compliance Matrix: (Units=1/GPa)
#
#
# Indices 1 2 3 4 5 6 
#
# 1 0.015744 -0.000759 -0.005096 0.000000 0.000000 0.000000
# 2 -0.000759 0.027362 -0.004774 0.000000 0.000000 0.000000
# 3 -0.005096 -0.004774 0.007159 0.000000 0.000000 0.000000
# 4 0.000000 0.000000 0.000000 0.043949 0.000000 0.000000
# 5 0.000000 0.000000 0.000000 0.000000 0.034190 0.000000
# 6 0.000000 0.000000 0.000000 0.000000 0.000000 -0.139489
#
#
# Mechanical properties :
#
#
# Convention : Reuss Voigt Hill
#
# Bulk Modulus (GPa) = 34.47624 67.21568 50.84596
# Shear Modulus (GPa) = 251.97694 23.76917 137.87306
#
# Velocity S-wave (km/s) = 11.17002 3.43068 8.26254
# Velocity P-wave (km/s) = 13.54365 6.99825 10.77975
#
# Compressibility (1/GPa) = 0.02900549
#
# Stress axis : x y z
#
# Youngs Moduli (GPa) = 63.51442 36.54737 139.68787
#
# Poissons Ratio (x) = 0.02774 0.71188
# Poissons Ratio (y) = 0.04821 0.66693
# Poissons Ratio (z) = 0.32369 0.17449
#
# Static dielectric constant tensor:
#      x y z
#    x 3.574220 0.000000 0.000000 
#    y 0.000000 3.375920 0.000000 
#    z 0.000000 0.000000 4.301850 
# 
# 
# High freq. dielectric constant tensor:
#      x y z
#    x 1.785680 0.000000 0.000000 
#    y 0.000000 1.732400 0.000000 
#    z 0.000000 0.000000 1.807410 
# 
# From -- ./inp_files/10255.got.cif
#   From: 2010.03.12/outbox.cif.g09.slc.cpg/sg38_6_cif.got.tgz:10255.got - 2010.04.14 02:38:36.
