data_PCOD8179487
_publ_section_title
;
Structure prediction by ZEFSAII (Michael W. Deem and Ramdas Pophale) SiO2 
 PCOD8179487
Probable space group: A M M 2
;
_chemical_formula_sum "Si O2"
_cell_formula_units_Z 64
_cell_length_a 13.806735
_cell_length_b 8.941471
_cell_length_c 26.207006
_cell_angle_alpha 90.000000
_cell_angle_beta 90.000000
_cell_angle_gamma 90.000000
_cell_volume 3235.320948
_symmetry_space_group_name_H-M "A M M 2"
_symmetry_group_IT_number 38
_symmetry_cell_setting 'orthorhombic'
loop_
_space_group_symop_operation_xyz
x,y,z
-x,-y,z
-x,y,z
x,-y,z
x,1/2+y,1/2+z
-x,1/2-y,1/2+z
-x,1/2+y,1/2+z
x,1/2-y,1/2+z
loop_
_atom_site_type_symbol
_atom_site_label
_atom_site_fract_x
_atom_site_fract_y
_atom_site_fract_z
Si Si1 0.391541 0.171937 0.302590
Si Si2 0.385023 0.168268 0.903143
Si Si3 0.798584 0.326796 0.750892
Si Si4 0.389433 0.823720 0.505289
Si Si5 0.787718 0.177720 0.045212
Si Si6 0.109116 0.322195 0.647236
Si Si7 0.115222 0.829285 0.449230
Si Si8 0.885225 0.331414 0.347883
O O1 0.500000 0.224696 0.286583
O O2 0.347020 0.266434 0.349598
O O3 0.317970 0.195601 0.255477
O O4 0.394316 0.000000 0.320169
O O5 0.500000 0.172895 0.900732
O O6 0.346210 0.000000 0.910977
O O7 0.350065 0.270739 0.949997
O O8 0.827151 0.500000 0.755568
O O9 0.832214 0.261882 0.696407
O O10 0.853907 0.242872 0.795411
O O11 0.500000 0.772172 0.514662
O O12 0.321392 0.743649 0.546780
O O13 0.378971 0.000000 0.509233
O O14 0.839566 0.237274 0.096254
O O15 0.783409 0.000000 0.043026
O O16 0.846889 0.237381 0.997211
O O17 0.108322 0.500000 0.646803
O O18 0.000000 0.258837 0.649267
O O19 0.157140 0.756688 0.397037
O O20 0.000000 0.820720 0.449530
O O21 0.151753 0.000000 0.452606
O O22 0.845154 0.500000 0.350196
O O23 0.000000 0.328561 0.350076
#
# Coordination Sequence:
#
# PCOD8179487 Si02
#       8
#     8   8   8   8   8   8   8   8
#     4   9  18  32  50  76 112 150 187 228 275 328
#     4   9  17  30  50  76 107 145 187 229 274 326
#     4  10  20  35  58  83 109 147 193 235 279 338
#     4  10  21  37  56  79 112 152 192 234 282 339
#     4  11  22  36  58  85 113 147 190 240 292 344
#     4   9  19  37  60  85 112 144 186 236 290 345
#     4  10  21  37  57  82 113 149 188 231 284 350
#     4  10  21  36  54  80 114 147 180 227 289 348
#
# _framework density 19.781655000000001
#
# number of rings (size 3 to 8) (size 9 to 14) (size 15 to 20)
#    0.000    2.250    0.000    2.625    1.750    5.250 
#    0.000    1.875    0.000    5.250    0.000    1.750 
#    0.000    0.000    0.000    0.000    0.000    0.000 
#
# Total GULP energy -396825.613350 kJ/mol
# GULP energy per Si atom -12400.800417 kJ/mol
# Density = 1.973663 g / cm^3
# Si number density = 19.781655 Si / 1000 Ang^3
#
#
#
# Elastic Constant Matrix: (Units=GPa)
#
#
# Indices 1 2 3 4 5 6 
#
# 1 79.1423 31.6253 70.6438 0.0000 0.0000 0.0000
# 2 31.6253 86.9372 48.1756 0.0000 0.0000 0.0000
# 3 70.6438 48.1756 159.3647 0.0000 0.0000 0.0000
# 4 0.0000 0.0000 0.0000 24.9339 0.0000 0.0000
# 5 0.0000 0.0000 0.0000 0.0000 36.1496 0.0000
# 6 0.0000 0.0000 0.0000 0.0000 0.0000 26.2823
#
#
#
# Elastic Compliance Matrix: (Units=1/GPa)
#
#
# Indices 1 2 3 4 5 6 
#
# 1 0.021566 -0.003060 -0.008635 0.000000 0.000000 0.000000
# 2 -0.003060 0.014251 -0.002952 0.000000 0.000000 0.000000
# 3 -0.008635 -0.002952 0.010995 0.000000 0.000000 0.000000
# 4 0.000000 0.000000 0.000000 0.040106 0.000000 0.000000
# 5 0.000000 0.000000 0.000000 0.000000 0.027663 0.000000
# 6 0.000000 0.000000 0.000000 0.000000 0.000000 0.038048
#
#
# Mechanical properties :
#
#
# Convention : Reuss Voigt Hill
#
# Bulk Modulus (GPa) = 57.08095 69.59263 63.33679
# Shear Modulus (GPa) = 26.62948 29.13980 27.88464
#
# Velocity S-wave (km/s) = 3.67300 3.84223 3.75857
# Velocity P-wave (km/s) = 6.84880 7.41218 7.13605
#
# Compressibility (1/GPa) = 0.01751898
#
# Stress axis : x y z
#
# Youngs Moduli (GPa) = 46.36979 70.16857 90.95215
#
# Poissons Ratio (x) = 0.21473 0.78534
# Poissons Ratio (y) = 0.14190 0.26846
# Poissons Ratio (z) = 0.40039 0.20711
#
# Static dielectric constant tensor:
#      x y z
#    x 3.832300 0.000000 0.000000 
#    y 0.000000 3.577510 0.000000 
#    z 0.000000 0.000000 3.587690 
# 
# 
# High freq. dielectric constant tensor:
#      x y z
#    x 1.788360 0.000000 0.000000 
#    y 0.000000 1.762070 0.000000 
#    z 0.000000 0.000000 1.753040 
# 
# From -- ./inp_files/22962.got.cif
#   From: 2010.03.12/outbox.cif.g09.slc.cpg/sg38_12_cif.got.tgz:22962.got - 2010.04.14 02:38:36.
