data_PCOD8179210
_publ_section_title
;
Structure prediction by ZEFSAII (Michael W. Deem and Ramdas Pophale) SiO2 
 PCOD8179210
Probable space group: A M M 2
;
_chemical_formula_sum "Si O2"
_cell_formula_units_Z 64
_cell_length_a 23.779781
_cell_length_b 9.468450
_cell_length_c 15.402331
_cell_angle_alpha 90.000000
_cell_angle_beta 90.000000
_cell_angle_gamma 90.000000
_cell_volume 3467.952921
_symmetry_space_group_name_H-M "A M M 2"
_symmetry_group_IT_number 38
_symmetry_cell_setting 'orthorhombic'
loop_
_space_group_symop_operation_xyz
x,y,z
-x,-y,z
-x,y,z
x,-y,z
x,1/2+y,1/2+z
-x,1/2-y,1/2+z
-x,1/2+y,1/2+z
x,1/2-y,1/2+z
loop_
_atom_site_type_symbol
_atom_site_label
_atom_site_fract_x
_atom_site_fract_y
_atom_site_fract_z
Si Si1 0.063168 0.663474 0.699690
Si Si2 0.437816 0.167514 0.633749
Si Si3 0.761144 0.834306 0.812689
Si Si4 0.631646 0.666137 0.296499
Si Si5 0.164791 0.662796 0.150683
Si Si6 0.060542 0.832939 0.397233
Si Si7 0.565757 0.336475 0.939558
Si Si8 0.179030 0.336354 0.959097
O O1 0.079367 0.500000 0.691753
O O2 0.106677 0.752747 0.643301
O O3 0.068604 0.716748 0.798385
O O4 0.000000 0.690443 0.665027
O O5 0.500000 0.228268 0.654970
O O6 0.394497 0.223396 0.706090
O O7 0.418994 0.214441 0.537300
O O8 0.440651 0.000000 0.634706
O O9 0.696939 0.795442 0.794300
O O10 0.796336 0.781669 0.729094
O O11 0.780035 0.753503 0.898886
O O12 0.769418 0.000000 0.828435
O O13 0.621277 0.500000 0.307208
O O14 0.602453 0.742246 0.376368
O O15 0.149234 0.500000 0.164384
O O16 0.197535 0.683459 0.059266
O O17 0.114490 0.779869 0.451002
O O18 0.000000 0.772555 0.432270
O O19 0.056963 0.000000 0.400140
O O20 0.500000 0.312053 0.921068
O O21 0.581663 0.500000 0.925949
O O22 0.183032 0.500000 0.930420
#
# Coordination Sequence:
#
# PCOD8179210 Si02
#       8
#     8   8   8   8   8   8   8   8
#     4   9  17  31  53  78 104 135 168 205 257 321
#     4   8  15  30  53  79 106 137 169 201 248 310
#     4  10  22  38  51  72 108 140 171 220 267 298
#     4  10  20  34  54  76 102 141 182 213 250 306
#     4  10  21  35  53  78 105 133 172 222 268 306
#     4   8  14  27  49  75 100 126 160 203 249 304
#     4   9  18  33  54  82 112 137 167 213 262 303
#     4  10  20  35  57  79  98 132 177 214 257 315
#
# _framework density 18.454689999999999
#
# number of rings (size 3 to 8) (size 9 to 14) (size 15 to 20)
#    0.000    2.750    1.250    1.875    0.000    3.500 
#    0.000    4.375    0.000    1.125    0.000    0.000 
#    0.000    0.000    0.000    0.000    0.000    0.000 
#
# Total GULP energy -396668.761271 kJ/mol
# GULP energy per Si atom -12395.898790 kJ/mol
# Density = 1.841269 g / cm^3
# Si number density = 18.454690 Si / 1000 Ang^3
#
#
#
# Elastic Constant Matrix: (Units=GPa)
#
#
# Indices 1 2 3 4 5 6 
#
# 1 114.4093 45.3419 66.0238 0.0000 0.0000 0.0000
# 2 45.3419 41.4226 41.3479 0.0000 0.0000 0.0000
# 3 66.0238 41.3479 117.6303 0.0000 0.0000 0.0000
# 4 0.0000 0.0000 0.0000 27.7235 0.0000 0.0000
# 5 0.0000 0.0000 0.0000 0.0000 10.6171 0.0000
# 6 0.0000 0.0000 0.0000 0.0000 0.0000 28.0419
#
#
#
# Elastic Compliance Matrix: (Units=1/GPa)
#
#
# Indices 1 2 3 4 5 6 
#
# 1 0.016912 -0.013921 -0.004599 0.000000 0.000000 0.000000
# 2 -0.013921 0.048650 -0.009287 0.000000 0.000000 0.000000
# 3 -0.004599 -0.009287 0.014347 0.000000 0.000000 0.000000
# 4 0.000000 0.000000 0.000000 0.036071 0.000000 0.000000
# 5 0.000000 0.000000 0.000000 0.000000 0.094187 0.000000
# 6 0.000000 0.000000 0.000000 0.000000 0.000000 0.035661
#
#
# Mechanical properties :
#
#
# Convention : Reuss Voigt Hill
#
# Bulk Modulus (GPa) = 41.16167 64.32103 52.74135
# Shear Modulus (GPa) = 16.15298 21.32641 18.73970
#
# Velocity S-wave (km/s) = 2.96172 3.40311 3.19006
# Velocity P-wave (km/s) = 5.83509 7.09723 6.49688
#
# Compressibility (1/GPa) = 0.02429445
#
# Stress axis : x y z
#
# Youngs Moduli (GPa) = 59.13093 20.55483 69.70144
#
# Poissons Ratio (x) = 0.28615 0.32054
# Poissons Ratio (y) = 0.82318 0.64733
# Poissons Ratio (z) = 0.27193 0.19090
#
# Static dielectric constant tensor:
#      x y z
#    x 6.657390 0.000000 0.000000 
#    y 0.000000 3.040360 0.000000 
#    z 0.000000 0.000000 3.490230 
# 
# 
# High freq. dielectric constant tensor:
#      x y z
#    x 1.716020 0.000000 0.000000 
#    y 0.000000 1.681200 0.000000 
#    z 0.000000 0.000000 1.720090 
# 
# From -- ./inp_files/15861.got.cif
#   From: 2010.03.12/outbox.cif.g09.slc.cpg/sg38_8_cif.got.tgz:15861.got - 2010.04.14 02:38:36.
