data_PCOD8179860
_publ_section_title
;
Structure prediction by ZEFSAII (Michael W. Deem and Ramdas Pophale) SiO2 
 PCOD8179860
Probable space group: A M M 2
;
_chemical_formula_sum "Si O2"
_cell_formula_units_Z 48
_cell_length_a 9.179065
_cell_length_b 9.367466
_cell_length_c 31.498727
_cell_angle_alpha 90.000000
_cell_angle_beta 90.000000
_cell_angle_gamma 90.000000
_cell_volume 2708.404790
_symmetry_space_group_name_H-M "A M M 2"
_symmetry_group_IT_number 38
_symmetry_cell_setting 'orthorhombic'
loop_
_space_group_symop_operation_xyz
x,y,z
-x,-y,z
-x,y,z
x,-y,z
x,1/2+y,1/2+z
-x,1/2-y,1/2+z
-x,1/2+y,1/2+z
x,1/2-y,1/2+z
loop_
_atom_site_type_symbol
_atom_site_label
_atom_site_fract_x
_atom_site_fract_y
_atom_site_fract_z
Si Si1 0.329316 0.164155 0.986100
Si Si2 0.172476 0.657499 0.149710
Si Si3 0.173155 0.837391 0.741133
Si Si4 0.830564 0.665073 0.401159
Si Si5 0.833237 0.170467 0.558097
Si Si6 0.826323 0.839082 0.319973
O O1 0.500000 0.187042 0.981453
O O2 0.255534 0.216040 0.942625
O O3 0.288625 0.000000 0.995344
O O4 0.272262 0.260067 0.024184
O O5 0.241238 0.500000 0.150741
O O6 0.219746 0.729720 0.194735
O O7 0.218153 0.730479 0.104900
O O8 0.000000 0.644066 0.148491
O O9 0.239246 0.739214 0.778342
O O10 0.000000 0.838270 0.744873
O O11 0.230374 0.000000 0.746178
O O12 0.800584 0.500000 0.390576
O O13 0.771382 0.756787 0.361721
O O14 0.000000 0.693903 0.409669
O O15 0.000000 0.215242 0.548541
O O16 0.817753 0.000000 0.556827
O O17 0.000000 0.837402 0.318491
O O18 0.765915 0.000000 0.321033
#
# Coordination Sequence:
#
# PCOD8179860 Si02
#       6
#     8   8   8   8   8   8
#     4  10  21  35  49  67  92 121 154 193 236 280
#     4   7  11  21  38  61  88 117 148 180 214 256
#     4   8  12  20  36  57  84 118 149 175 210 259
#     4   9  17  30  47  64  84 115 153 187 222 269
#     4   9  17  30  49  72  96 122 154 192 232 273
#     4   9  16  24  36  59  90 117 142 178 222 264
#
# _framework density 17.722608000000001
#
# number of rings (size 3 to 8) (size 9 to 14) (size 15 to 20)
#    0.000    3.333    0.000    3.000    0.000    4.000 
#    0.000    2.500    0.000    3.000    0.000    1.167 
#    0.000    4.000    0.000    0.000    0.000    0.000 
#
# Total GULP energy -297321.254988 kJ/mol
# GULP energy per Si atom -12388.385624 kJ/mol
# Density = 1.768227 g / cm^3
# Si number density = 17.722608 Si / 1000 Ang^3
#
#
#
# Elastic Constant Matrix: (Units=GPa)
#
#
# Indices 1 2 3 4 5 6 
#
# 1 30.0024 18.9234 38.7749 0.0000 0.0000 0.0000
# 2 18.9234 71.0384 72.8648 0.0000 0.0000 0.0000
# 3 38.7749 72.8648 200.3040 0.0000 0.0000 0.0000
# 4 0.0000 0.0000 0.0000 28.3197 0.0000 0.0000
# 5 0.0000 0.0000 0.0000 0.0000 -0.6779 0.0000
# 6 0.0000 0.0000 0.0000 0.0000 0.0000 13.5186
#
#
#
# Elastic Compliance Matrix: (Units=1/GPa)
#
#
# Indices 1 2 3 4 5 6 
#
# 1 0.045506 -0.004924 -0.007018 0.000000 0.000000 0.000000
# 2 -0.004924 0.022988 -0.007409 0.000000 0.000000 0.000000
# 3 -0.007018 -0.007409 0.009046 0.000000 0.000000 0.000000
# 4 0.000000 0.000000 0.000000 0.035311 0.000000 0.000000
# 5 0.000000 0.000000 0.000000 0.000000 -1.475162 0.000000
# 6 0.000000 0.000000 0.000000 0.000000 0.000000 0.073972
#
#
# Mechanical properties :
#
#
# Convention : Reuss Voigt Hill
#
# Bulk Modulus (GPa) = 25.74745 62.49677 44.12211
# Shear Modulus (GPa) = -4.04305 19.61752 7.78724
#
# Velocity S-wave (km/s) = -1.51203 3.33065 2.09845
# Velocity P-wave (km/s) = 3.39282 7.08035 5.55169
#
# Compressibility (1/GPa) = 0.03883880
#
# Stress axis : x y z
#
# Youngs Moduli (GPa) = 21.97503 43.50041 110.54264
#
# Poissons Ratio (x) = 0.21418 0.77579
# Poissons Ratio (y) = 0.10820 0.81905
# Poissons Ratio (z) = 0.15422 0.32231
#
# Static dielectric constant tensor:
#      x y z
#    x 2.717520 0.000000 0.000000 
#    y 0.000000 3.148950 0.000000 
#    z 0.000000 0.000000 3.806090 
# 
# 
# High freq. dielectric constant tensor:
#      x y z
#    x 1.622480 0.000000 0.000000 
#    y 0.000000 1.659140 0.000000 
#    z 0.000000 0.000000 1.713200 
# 
# From -- ./inp_files/24289.got.cif
#   From: 2010.03.12/outbox.cif.g09.slc.cpg/sg38_13_cif.got.tgz:24289.got - 2010.04.14 02:38:36.
