data_PCOD8179977
_publ_section_title
;
Structure prediction by ZEFSAII (Michael W. Deem and Ramdas Pophale) SiO2 
 PCOD8179977
Probable space group: A M M 2
;
_chemical_formula_sum "Si O2"
_cell_formula_units_Z 64
_cell_length_a 18.047718
_cell_length_b 14.911936
_cell_length_c 11.930664
_cell_angle_alpha 90.000000
_cell_angle_beta 90.000000
_cell_angle_gamma 90.000000
_cell_volume 3210.856840
_symmetry_space_group_name_H-M "A M M 2"
_symmetry_group_IT_number 38
_symmetry_cell_setting 'orthorhombic'
loop_
_space_group_symop_operation_xyz
x,y,z
-x,-y,z
-x,y,z
x,-y,z
x,1/2+y,1/2+z
-x,1/2-y,1/2+z
-x,1/2+y,1/2+z
x,1/2-y,1/2+z
loop_
_atom_site_type_symbol
_atom_site_label
_atom_site_fract_x
_atom_site_fract_y
_atom_site_fract_z
Si Si1 0.347813 0.639267 0.346500
Si Si2 0.416698 0.102220 0.617919
Si Si3 0.290598 0.897335 0.231366
Si Si4 0.186021 0.264714 0.606737
Si Si5 0.419279 0.100093 0.078416
Si Si6 0.816406 0.600156 0.266783
Si Si7 0.693648 0.812413 0.449640
Si Si8 0.913553 0.602001 0.482887
O O1 0.405389 0.613663 0.250099
O O2 0.375965 0.596031 0.461193
O O3 0.266615 0.604413 0.314478
O O4 0.347372 0.745650 0.364096
O O5 0.500000 0.131108 0.587002
O O6 0.359176 0.164141 0.552617
O O7 0.402602 0.000000 0.582570
O O8 0.226674 0.831765 0.190611
O O9 0.366317 0.858705 0.174637
O O10 0.290362 0.896313 0.367774
O O11 0.275984 0.000000 0.192961
O O12 0.166009 0.172886 0.670727
O O13 0.233920 0.236684 0.498096
O O14 0.114449 0.320921 0.567725
O O15 0.500000 0.150431 0.071995
O O16 0.435908 0.000000 0.116353
O O17 0.827102 0.500000 0.215559
O O18 0.874435 0.617215 0.364664
O O19 0.897304 0.500000 0.526696
O O20 0.000000 0.617202 0.465486
#
# Coordination Sequence:
#
# PCOD8179977 Si02
#       8
#     8   8   8   8   8   8   8   8
#     4  12  21  38  60  86 118 155 211 263 316 372
#     4  11  25  42  59  83 119 166 218 272 331 385
#     4  11  22  38  60  85 118 159 205 258 311 375
#     4  12  21  41  62  94 123 162 209 252 306 370
#     4  10  21  36  55  80 111 152 203 260 321 379
#     4  11  22  38  65  93 126 163 204 257 308 368
#     4  12  23  39  57  88 121 159 207 264 320 377
#     4  10  22  41  66  98 132 164 200 250 313 374
#
# _framework density 19.932373999999999
#
# number of rings (size 3 to 8) (size 9 to 14) (size 15 to 20)
#    0.000    0.875    5.000    2.250    0.000    5.500 
#    0.000    1.250    0.000    0.000    0.000    0.000 
#    0.000    0.000    0.000    0.000    0.000    0.000 
#
# Total GULP energy -396683.373183 kJ/mol
# GULP energy per Si atom -12396.355412 kJ/mol
# Density = 1.988701 g / cm^3
# Si number density = 19.932374 Si / 1000 Ang^3
#
#
#
# Elastic Constant Matrix: (Units=GPa)
#
#
# Indices 1 2 3 4 5 6 
#
# 1 91.9519 39.8702 32.1461 0.0000 0.0000 0.0000
# 2 39.8702 114.4861 38.5659 0.0000 0.0000 0.0000
# 3 32.1461 38.5659 98.1076 0.0000 0.0000 0.0000
# 4 0.0000 0.0000 0.0000 23.6102 0.0000 0.0000
# 5 0.0000 0.0000 0.0000 0.0000 18.4846 0.0000
# 6 0.0000 0.0000 0.0000 0.0000 0.0000 28.8316
#
#
#
# Elastic Compliance Matrix: (Units=1/GPa)
#
#
# Indices 1 2 3 4 5 6 
#
# 1 0.013522 -0.003708 -0.002973 0.000000 0.000000 0.000000
# 2 -0.003708 0.011084 -0.003142 0.000000 0.000000 0.000000
# 3 -0.002973 -0.003142 0.012402 0.000000 0.000000 0.000000
# 4 0.000000 0.000000 0.000000 0.042355 0.000000 0.000000
# 5 0.000000 0.000000 0.000000 0.000000 0.054099 0.000000
# 6 0.000000 0.000000 0.000000 0.000000 0.000000 0.034684
#
#
# Mechanical properties :
#
#
# Convention : Reuss Voigt Hill
#
# Bulk Modulus (GPa) = 57.59538 58.41221 58.00380
# Shear Modulus (GPa) = 25.82896 27.11617 26.47256
#
# Velocity S-wave (km/s) = 3.60367 3.69237 3.64829
# Velocity P-wave (km/s) = 6.80245 6.89543 6.84910
#
# Compressibility (1/GPa) = 0.01736250
#
# Stress axis : x y z
#
# Youngs Moduli (GPa) = 73.95179 90.21660 80.62956
#
# Poissons Ratio (x) = 0.33449 0.23974
# Poissons Ratio (y) = 0.27418 0.25337
# Poissons Ratio (z) = 0.21988 0.28350
#
# Static dielectric constant tensor:
#      x y z
#    x 3.638870 0.000000 0.000000 
#    y 0.000000 3.932110 0.000000 
#    z 0.000000 0.000000 3.599290 
# 
# 
# High freq. dielectric constant tensor:
#      x y z
#    x 1.757840 0.000000 0.000000 
#    y 0.000000 1.792300 0.000000 
#    z 0.000000 0.000000 1.774900 
# 
# From -- ./inp_files/10590.got.cif
#   From: 2010.03.12/outbox.cif.g09.slc.cpg/sg38_6_cif.got.tgz:10590.got - 2010.04.14 02:38:36.
