data_PCOD8179595
_publ_section_title
;
Structure prediction by ZEFSAII (Michael W. Deem and Ramdas Pophale) SiO2 
 PCOD8179595
Probable space group: A M M 2
;
_chemical_formula_sum "Si O2"
_cell_formula_units_Z 40
_cell_length_a 8.846376
_cell_length_b 18.609452
_cell_length_c 13.261542
_cell_angle_alpha 90.000000
_cell_angle_beta 90.000000
_cell_angle_gamma 90.000000
_cell_volume 2183.197392
_symmetry_space_group_name_H-M "A M M 2"
_symmetry_group_IT_number 38
_symmetry_cell_setting 'orthorhombic'
loop_
_space_group_symop_operation_xyz
x,y,z
-x,-y,z
-x,y,z
x,-y,z
x,1/2+y,1/2+z
-x,1/2-y,1/2+z
-x,1/2+y,1/2+z
x,1/2-y,1/2+z
loop_
_atom_site_type_symbol
_atom_site_label
_atom_site_fract_x
_atom_site_fract_y
_atom_site_fract_z
Si Si1 0.178311 0.500000 0.033540
Si Si2 0.675378 0.145023 0.861340
Si Si3 0.324140 0.358575 0.950395
Si Si4 0.676775 0.000000 0.750416
Si Si5 0.176633 0.280063 0.539080
Si Si6 0.672620 0.213805 0.242475
O O1 0.230778 0.500000 0.148278
O O2 0.000000 0.500000 0.030874
O O3 0.237287 0.430779 0.975214
O O4 0.500000 0.147727 0.892784
O O5 0.722797 0.069007 0.815505
O O6 0.710618 0.205667 0.778630
O O7 0.773764 0.158176 0.961147
O O8 0.500000 0.368330 0.975437
O O9 0.296599 0.341585 0.833030
O O10 0.264301 0.293894 0.019076
O O11 0.500000 0.000000 0.723439
O O12 0.217529 0.307007 0.651049
O O13 0.000000 0.265928 0.529177
O O14 0.500000 0.208479 0.205667
#
# Coordination Sequence:
#
# PCOD8179595 Si02
#       6
#     4   8   8   4   8   8
#     4  12  24  36  55  84 115 140 167 216 276 324
#     4   9  19  35  55  79 106 140 182 223 261 312
#     4  10  21  38  58  78 105 143 185 222 257 312
#     4  10  20  36  59  82 107 144 185 220 258 312
#     4  11  21  33  54  82 111 141 174 222 277 320
#     4   9  18  34  56  78 103 140 183 223 262 312
#
# _framework density 18.321752
#
# number of rings (size 3 to 8) (size 9 to 14) (size 15 to 20)
#    0.000    2.000    0.000    5.700    0.000    6.400 
#    0.000    1.000    0.000    2.400    0.000    0.000 
#    0.000    0.000    0.000    0.000    0.000    0.000 
#
# Total GULP energy -248091.304213 kJ/mol
# GULP energy per Si atom -12404.565211 kJ/mol
# Density = 1.828005 g / cm^3
# Si number density = 18.321752 Si / 1000 Ang^3
#
#
#
# Elastic Constant Matrix: (Units=GPa)
#
#
# Indices 1 2 3 4 5 6 
#
# 1 115.2344 56.5372 68.0447 0.0000 0.0000 0.0000
# 2 56.5372 135.5722 61.4992 0.0000 0.0000 0.0000
# 3 68.0447 61.4992 124.2975 0.0000 0.0000 0.0000
# 4 0.0000 0.0000 0.0000 15.8199 0.0000 0.0000
# 5 0.0000 0.0000 0.0000 0.0000 14.5338 0.0000
# 6 0.0000 0.0000 0.0000 0.0000 0.0000 22.6246
#
#
#
# Elastic Compliance Matrix: (Units=1/GPa)
#
#
# Indices 1 2 3 4 5 6 
#
# 1 0.013697 -0.002979 -0.006024 0.000000 0.000000 0.000000
# 2 -0.002979 0.010159 -0.003395 0.000000 0.000000 0.000000
# 3 -0.006024 -0.003395 0.013023 0.000000 0.000000 0.000000
# 4 0.000000 0.000000 0.000000 0.063212 0.000000 0.000000
# 5 0.000000 0.000000 0.000000 0.000000 0.068805 0.000000
# 6 0.000000 0.000000 0.000000 0.000000 0.000000 0.044200
#
#
# Mechanical properties :
#
#
# Convention : Reuss Voigt Hill
#
# Bulk Modulus (GPa) = 82.77328 83.02961 82.90144
# Shear Modulus (GPa) = 20.66804 23.19718 21.93261
#
# Velocity S-wave (km/s) = 3.36230 3.56209 3.46364
# Velocity P-wave (km/s) = 7.76847 7.89518 7.83208
#
# Compressibility (1/GPa) = 0.01208119
#
# Stress axis : x y z
#
# Youngs Moduli (GPa) = 73.00969 98.43671 76.78765
#
# Poissons Ratio (x) = 0.29327 0.46257
# Poissons Ratio (y) = 0.21752 0.26072
# Poissons Ratio (z) = 0.43981 0.33423
#
# Static dielectric constant tensor:
#      x y z
#    x 3.328980 0.000000 0.000000 
#    y 0.000000 3.387400 0.000000 
#    z 0.000000 0.000000 3.363570 
# 
# 
# High freq. dielectric constant tensor:
#      x y z
#    x 1.710360 0.000000 0.000000 
#    y 0.000000 1.701340 0.000000 
#    z 0.000000 0.000000 1.716380 
# 
# From -- ./inp_files/7975.got.cif
#   From: 2010.03.12/outbox.cif.g09.slc.cpg/sg38_4_cif.got.tgz:7975.got - 2010.04.14 02:38:36.
