data_PCOD8179897
_publ_section_title
;
Structure prediction by ZEFSAII (Michael W. Deem and Ramdas Pophale) SiO2 
 PCOD8179897
Probable space group: A M M 2
;
_chemical_formula_sum "Si O2"
_cell_formula_units_Z 48
_cell_length_a 18.750375
_cell_length_b 8.685596
_cell_length_c 15.079830
_cell_angle_alpha 90.000000
_cell_angle_beta 90.000000
_cell_angle_gamma 90.000000
_cell_volume 2455.873700
_symmetry_space_group_name_H-M "A M M 2"
_symmetry_group_IT_number 38
_symmetry_cell_setting 'orthorhombic'
loop_
_space_group_symop_operation_xyz
x,y,z
-x,-y,z
-x,y,z
x,-y,z
x,1/2+y,1/2+z
-x,1/2-y,1/2+z
-x,1/2+y,1/2+z
x,1/2-y,1/2+z
loop_
_atom_site_type_symbol
_atom_site_label
_atom_site_fract_x
_atom_site_fract_y
_atom_site_fract_z
Si Si1 0.420727 0.181092 0.369840
Si Si2 0.685571 0.820215 0.519270
Si Si3 0.162318 0.680446 0.535620
Si Si4 0.083489 0.322877 0.877363
Si Si5 0.828822 0.320259 0.221965
Si Si6 0.666858 0.323632 0.220115
O O1 0.500000 0.253324 0.377818
O O2 0.370937 0.246101 0.448558
O O3 0.387889 0.220282 0.274564
O O4 0.425763 0.000000 0.379604
O O5 0.758150 0.726587 0.506758
O O6 0.652662 0.793260 0.616414
O O7 0.703014 0.000000 0.504396
O O8 0.152126 0.500000 0.522783
O O9 0.105628 0.768414 0.474789
O O10 0.145108 0.725727 0.636611
O O11 0.105305 0.500000 0.863676
O O12 0.122553 0.218773 0.804998
O O13 0.000000 0.297930 0.865659
O O14 0.833517 0.500000 0.198267
O O15 0.747483 0.275536 0.244898
O O16 0.652627 0.500000 0.245211
#
# Coordination Sequence:
#
# PCOD8179897 Si02
#       6
#     8   8   8   8   8   8
#     4  10  21  35  52  77 109 145 182 222 273 330
#     4   9  19  37  58  78 106 144 185 228 274 327
#     4  11  22  37  60  87 114 146 187 232 279 333
#     4  11  24  40  58  83 116 152 188 228 277 331
#     4  10  21  39  62  86 112 144 187 235 282 333
#     4   9  19  35  56  81 105 136 179 225 273 324
#
# _framework density 19.544978
#
# number of rings (size 3 to 8) (size 9 to 14) (size 15 to 20)
#    0.000    2.000    0.000    4.500    0.000    9.667 
#    0.000    1.667    0.000    0.000    0.000    0.000 
#    0.000    0.000    0.000    0.000    0.000    0.000 
#
# Total GULP energy -297702.837949 kJ/mol
# GULP energy per Si atom -12404.284915 kJ/mol
# Density = 1.950049 g / cm^3
# Si number density = 19.544978 Si / 1000 Ang^3
#
#
#
# Elastic Constant Matrix: (Units=GPa)
#
#
# Indices 1 2 3 4 5 6 
#
# 1 67.4714 25.1570 35.0141 0.0000 0.0000 0.0000
# 2 25.1570 38.7994 13.0092 0.0000 0.0000 0.0000
# 3 35.0141 13.0092 83.8087 0.0000 0.0000 0.0000
# 4 0.0000 0.0000 0.0000 33.5635 0.0000 0.0000
# 5 0.0000 0.0000 0.0000 0.0000 15.8824 0.0000
# 6 0.0000 0.0000 0.0000 0.0000 0.0000 26.8686
#
#
#
# Elastic Compliance Matrix: (Units=1/GPa)
#
#
# Indices 1 2 3 4 5 6 
#
# 1 0.023659 -0.012686 -0.007915 0.000000 0.000000 0.000000
# 2 -0.012686 0.033991 0.000024 0.000000 0.000000 0.000000
# 3 -0.007915 0.000024 0.015235 0.000000 0.000000 0.000000
# 4 0.000000 0.000000 0.000000 0.029794 0.000000 0.000000
# 5 0.000000 0.000000 0.000000 0.000000 0.062963 0.000000
# 6 0.000000 0.000000 0.000000 0.000000 0.000000 0.037218
#
#
# Mechanical properties :
#
#
# Convention : Reuss Voigt Hill
#
# Bulk Modulus (GPa) = 31.51580 37.38224 34.44902
# Shear Modulus (GPa) = 19.63931 23.05618 21.34775
#
# Velocity S-wave (km/s) = 3.17334 3.43833 3.30849
# Velocity P-wave (km/s) = 5.43935 5.91021 5.67966
#
# Compressibility (1/GPa) = 0.03173012
#
# Stress axis : x y z
#
# Youngs Moduli (GPa) = 42.26784 29.41951 65.63815
#
# Poissons Ratio (x) = 0.37322 0.51953
# Poissons Ratio (y) = 0.53621 -0.00156
# Poissons Ratio (z) = 0.33455 -0.00070
#
# Static dielectric constant tensor:
#      x y z
#    x 3.623080 0.000000 0.000000 
#    y 0.000000 3.463970 0.000000 
#    z 0.000000 0.000000 3.610770 
# 
# 
# High freq. dielectric constant tensor:
#      x y z
#    x 1.756300 0.000000 0.000000 
#    y 0.000000 1.756970 0.000000 
#    z 0.000000 0.000000 1.771980 
# 
# From -- ./inp_files/14968.got.cif
#   From: 2010.03.12/outbox.cif.g09.slc.cpg/sg38_8_cif.got.tgz:14968.got - 2010.04.14 02:38:36.
