data_PCOD8179137
_publ_section_title
;
Structure prediction by ZEFSAII (Michael W. Deem and Ramdas Pophale) SiO2 
 PCOD8179137
Probable space group: A M M 2
;
_chemical_formula_sum "Si O2"
_cell_formula_units_Z 64
_cell_length_a 19.892676
_cell_length_b 8.870658
_cell_length_c 20.003374
_cell_angle_alpha 90.000000
_cell_angle_beta 90.000000
_cell_angle_gamma 90.000000
_cell_volume 3529.817890
_symmetry_space_group_name_H-M "A M M 2"
_symmetry_group_IT_number 38
_symmetry_cell_setting 'orthorhombic'
loop_
_space_group_symop_operation_xyz
x,y,z
-x,-y,z
-x,y,z
x,-y,z
x,1/2+y,1/2+z
-x,1/2-y,1/2+z
-x,1/2+y,1/2+z
x,1/2-y,1/2+z
loop_
_atom_site_type_symbol
_atom_site_label
_atom_site_fract_x
_atom_site_fract_y
_atom_site_fract_z
Si Si1 0.320047 0.822592 0.821940
Si Si2 0.922083 0.826127 0.573330
Si Si3 0.682399 0.822801 0.672014
Si Si4 0.421959 0.673982 0.576604
Si Si5 0.176555 0.322557 0.674482
Si Si6 0.921890 0.171798 0.419876
Si Si7 0.574244 0.320620 0.425754
Si Si8 0.829893 0.177014 0.814357
O O1 0.338866 0.773052 0.746803
O O2 0.371952 0.747576 0.874470
O O3 0.244200 0.770224 0.838184
O O4 0.326042 0.000000 0.829813
O O5 0.878088 0.717576 0.618847
O O6 0.904964 0.789038 0.496403
O O7 0.000000 0.792842 0.587901
O O8 0.905378 0.000000 0.589146
O O9 0.622227 0.777886 0.623883
O O10 0.751746 0.743208 0.651564
O O11 0.695332 0.000000 0.668257
O O12 0.500000 0.699780 0.593779
O O13 0.402189 0.500000 0.587271
O O14 0.406472 0.726230 0.500994
O O15 0.183023 0.500000 0.680582
O O16 0.151218 0.257773 0.745194
O O17 0.881708 0.283303 0.372178
O O18 0.000000 0.197161 0.405557
O O19 0.901517 0.000000 0.403986
O O20 0.500000 0.258421 0.407459
O O21 0.572993 0.500000 0.421414
O O22 0.831296 0.000000 0.800113
#
# Coordination Sequence:
#
# PCOD8179137 Si02
#       8
#     8   8   8   8   8   8   8   8
#     4   8  16  30  47  70  98 126 163 209 250 291
#     4   9  19  37  58  79 107 140 172 213 265 315
#     4  10  20  34  52  75 103 134 170 214 263 313
#     4   9  18  32  50  74 104 136 169 207 254 309
#     4  11  22  36  55  77 104 139 178 220 265 316
#     4   9  19  36  56  78 105 136 170 210 258 313
#     4   8  14  27  48  72  98 128 163 204 247 292
#     4  10  20  34  52  76 107 139 173 216 260 306
#
# _framework density 18.131246999999998
#
# number of rings (size 3 to 8) (size 9 to 14) (size 15 to 20)
#    0.000    2.750    0.000    4.125    0.000    3.250 
#    0.000    3.750    0.000    3.750    0.000    0.000 
#    0.000    0.000    0.000    0.000    0.000    0.000 
#
# Total GULP energy -396768.138915 kJ/mol
# GULP energy per Si atom -12399.004341 kJ/mol
# Density = 1.808998 g / cm^3
# Si number density = 18.131247 Si / 1000 Ang^3
#
#
#
# Elastic Constant Matrix: (Units=GPa)
#
#
# Indices 1 2 3 4 5 6 
#
# 1 99.4696 43.7984 81.5862 0.0000 0.0000 0.0000
# 2 43.7984 78.5636 44.0720 0.0000 0.0000 0.0000
# 3 81.5862 44.0720 114.3353 0.0000 0.0000 0.0000
# 4 0.0000 0.0000 0.0000 27.2402 0.0000 0.0000
# 5 0.0000 0.0000 0.0000 0.0000 40.7911 0.0000
# 6 0.0000 0.0000 0.0000 0.0000 0.0000 26.9227
#
#
#
# Elastic Compliance Matrix: (Units=1/GPa)
#
#
# Indices 1 2 3 4 5 6 
#
# 1 0.025790 -0.005173 -0.016409 0.000000 0.000000 0.000000
# 2 -0.005173 0.017278 -0.002969 0.000000 0.000000 0.000000
# 3 -0.016409 -0.002969 0.021600 0.000000 0.000000 0.000000
# 4 0.000000 0.000000 0.000000 0.036710 0.000000 0.000000
# 5 0.000000 0.000000 0.000000 0.000000 0.024515 0.000000
# 6 0.000000 0.000000 0.000000 0.000000 0.000000 0.037143
#
#
# Mechanical properties :
#
#
# Convention : Reuss Voigt Hill
#
# Bulk Modulus (GPa) = 64.24214 70.14242 67.19228
# Shear Modulus (GPa) = 23.00697 27.18491 25.09594
#
# Velocity S-wave (km/s) = 3.56604 3.87633 3.72442
# Velocity P-wave (km/s) = 7.24322 7.66841 7.45884
#
# Compressibility (1/GPa) = 0.01556611
#
# Stress axis : x y z
#
# Youngs Moduli (GPa) = 38.77517 57.87816 46.29726
#
# Poissons Ratio (x) = 0.29938 0.75969
# Poissons Ratio (y) = 0.20057 0.13745
# Poissons Ratio (z) = 0.63626 0.17184
#
# Static dielectric constant tensor:
#      x y z
#    x 3.618390 0.000000 0.000000 
#    y 0.000000 3.071590 0.000000 
#    z 0.000000 0.000000 3.458210 
# 
# 
# High freq. dielectric constant tensor:
#      x y z
#    x 1.705850 0.000000 0.000000 
#    y 0.000000 1.680200 0.000000 
#    z 0.000000 0.000000 1.706730 
# 
# From -- ./inp_files/21448.got.cif
#   From: 2010.03.12/outbox.cif.g09.slc.cpg/sg38_11_cif.got.tgz:21448.got - 2010.04.14 02:38:36.
