data_PCOD8179842
_publ_section_title
;
Structure prediction by ZEFSAII (Michael W. Deem and Ramdas Pophale) SiO2 
 PCOD8179842
Probable space group: A M M 2
;
_chemical_formula_sum "Si O2"
_cell_formula_units_Z 64
_cell_length_a 16.048764
_cell_length_b 9.325439
_cell_length_c 23.030911
_cell_angle_alpha 90.000000
_cell_angle_beta 90.000000
_cell_angle_gamma 90.000000
_cell_volume 3446.846898
_symmetry_space_group_name_H-M "A M M 2"
_symmetry_group_IT_number 38
_symmetry_cell_setting 'orthorhombic'
loop_
_space_group_symop_operation_xyz
x,y,z
-x,-y,z
-x,y,z
x,-y,z
x,1/2+y,1/2+z
-x,1/2-y,1/2+z
-x,1/2+y,1/2+z
x,1/2-y,1/2+z
loop_
_atom_site_type_symbol
_atom_site_label
_atom_site_fract_x
_atom_site_fract_y
_atom_site_fract_z
Si Si1 0.193881 0.835067 0.853000
Si Si2 0.644249 0.838947 0.776758
Si Si3 0.268207 0.829980 0.452895
Si Si4 0.259381 0.332574 0.572402
Si Si5 0.905353 0.165431 0.142182
Si Si6 0.404077 0.331270 0.663105
Si Si7 0.409691 0.659482 0.398416
Si Si8 0.903623 0.342834 0.249521
O O1 0.267233 0.805499 0.806657
O O2 0.198046 0.736051 0.910104
O O3 0.113022 0.789922 0.815498
O O4 0.191717 0.000000 0.873994
O O5 0.622678 0.734121 0.724466
O O6 0.579021 0.817090 0.829350
O O7 0.640530 0.000000 0.751653
O O8 0.262837 0.766122 0.516506
O O9 0.357030 0.785013 0.427103
O O10 0.258919 0.000000 0.455163
O O11 0.270250 0.500000 0.556728
O O12 0.165607 0.302394 0.595068
O O13 0.335419 0.284233 0.614855
O O14 0.869242 0.238588 0.200201
O O15 0.000000 0.217349 0.123567
O O16 0.909798 0.000000 0.157123
O O17 0.500000 0.285265 0.646416
O O18 0.399790 0.500000 0.671221
O O19 0.500000 0.665209 0.427907
O O20 0.369055 0.500000 0.408958
O O21 0.861237 0.500000 0.241730
O O22 0.000000 0.355221 0.239708
#
# Coordination Sequence:
#
# PCOD8179842 Si02
#       8
#     8   8   8   8   8   8   8   8
#     4   9  18  34  53  73 102 138 171 203 250 315
#     4   9  17  30  50  75 101 131 166 203 247 300
#     4  11  23  36  52  75 100 129 173 223 263 299
#     4  10  21  38  55  70  98 140 179 214 257 312
#     4   9  18  33  55  82 107 133 169 213 262 315
#     4  10  21  34  49  73 103 135 170 206 248 300
#     4   9  18  34  55  76 101 136 172 206 254 315
#     4   9  17  30  52  82 110 134 163 203 253 310
#
# _framework density 18.567693999999999
#
# number of rings (size 3 to 8) (size 9 to 14) (size 15 to 20)
#    0.000    2.500    0.000    3.000    0.000    5.000 
#    0.000    1.875    0.000    3.750    0.000    0.000 
#    0.000    0.000    0.000    0.000    0.000    0.000 
#
# Total GULP energy -396422.259219 kJ/mol
# GULP energy per Si atom -12388.195601 kJ/mol
# Density = 1.852543 g / cm^3
# Si number density = 18.567694 Si / 1000 Ang^3
#
#
#
# Elastic Constant Matrix: (Units=GPa)
#
#
# Indices 1 2 3 4 5 6 
#
# 1 59.0874 34.6194 43.4731 0.0000 0.0000 0.0000
# 2 34.6194 82.1491 71.9576 0.0000 0.0000 0.0000
# 3 43.4731 71.9576 128.7449 0.0000 0.0000 0.0000
# 4 0.0000 0.0000 0.0000 36.9106 0.0000 0.0000
# 5 0.0000 0.0000 0.0000 0.0000 9.5778 0.0000
# 6 0.0000 0.0000 0.0000 0.0000 0.0000 16.7908
#
#
#
# Elastic Compliance Matrix: (Units=1/GPa)
#
#
# Indices 1 2 3 4 5 6 
#
# 1 0.023885 -0.005879 -0.004779 0.000000 0.000000 0.000000
# 2 -0.005879 0.025296 -0.012153 0.000000 0.000000 0.000000
# 3 -0.004779 -0.012153 0.016174 0.000000 0.000000 0.000000
# 4 0.000000 0.000000 0.000000 0.027092 0.000000 0.000000
# 5 0.000000 0.000000 0.000000 0.000000 0.104408 0.000000
# 6 0.000000 0.000000 0.000000 0.000000 0.000000 0.059556
#
#
# Mechanical properties :
#
#
# Convention : Reuss Voigt Hill
#
# Bulk Modulus (GPa) = 50.68056 63.34240 57.01148
# Shear Modulus (GPa) = 16.20159 20.65127 18.42643
#
# Velocity S-wave (km/s) = 2.95713 3.33861 3.15364
# Velocity P-wave (km/s) = 6.24610 7.00358 6.63566
#
# Compressibility (1/GPa) = 0.01973143
#
# Stress axis : x y z
#
# Youngs Moduli (GPa) = 41.86722 39.53174 61.82910
#
# Poissons Ratio (x) = 0.23243 0.29549
# Poissons Ratio (y) = 0.24616 0.75142
# Poissons Ratio (z) = 0.20009 0.48043
#
# Static dielectric constant tensor:
#      x y z
#    x 3.819530 0.000000 0.000000 
#    y 0.000000 3.547620 0.000000 
#    z 0.000000 0.000000 3.359790 
# 
# 
# High freq. dielectric constant tensor:
#      x y z
#    x 1.724270 0.000000 0.000000 
#    y 0.000000 1.707760 0.000000 
#    z 0.000000 0.000000 1.710850 
# 
# From -- ./inp_files/21383.got.cif
#   From: 2010.03.12/outbox.cif.g09.slc.cpg/sg38_11_cif.got.tgz:21383.got - 2010.04.14 02:38:36.
