data_PCOD8179874
_publ_section_title
;
Structure prediction by ZEFSAII (Michael W. Deem and Ramdas Pophale) SiO2 
 PCOD8179874
Probable space group: A M M 2
;
_chemical_formula_sum "Si O2"
_cell_formula_units_Z 64
_cell_length_a 9.419778
_cell_length_b 19.652047
_cell_length_c 19.982987
_cell_angle_alpha 90.000000
_cell_angle_beta 90.000000
_cell_angle_gamma 90.000000
_cell_volume 3699.208989
_symmetry_space_group_name_H-M "A M M 2"
_symmetry_group_IT_number 38
_symmetry_cell_setting 'orthorhombic'
loop_
_space_group_symop_operation_xyz
x,y,z
-x,-y,z
-x,y,z
x,-y,z
x,1/2+y,1/2+z
-x,1/2-y,1/2+z
-x,1/2+y,1/2+z
x,1/2-y,1/2+z
loop_
_atom_site_type_symbol
_atom_site_label
_atom_site_fract_x
_atom_site_fract_y
_atom_site_fract_z
Si Si1 0.164287 0.673191 0.132340
Si Si2 0.835161 0.826607 0.286318
Si Si3 0.164943 0.921379 0.019913
Si Si4 0.838197 0.331362 0.287033
Si Si5 0.333744 0.077266 0.384027
Si Si6 0.661747 0.078597 0.536228
Si Si7 0.168567 0.324132 0.637433
Si Si8 0.665941 0.920853 0.887972
O O1 0.189199 0.653494 0.209321
O O2 0.243606 0.620645 0.086234
O O3 0.224312 0.749046 0.118013
O O4 0.000000 0.669358 0.113650
O O5 0.809597 0.747548 0.302933
O O6 0.749253 0.871087 0.338000
O O7 0.777758 0.844004 0.211669
O O8 0.000000 0.845213 0.292950
O O9 0.221928 0.878658 0.083254
O O10 0.000000 0.905824 0.004894
O O11 0.189017 0.000000 0.037718
O O12 0.256037 0.898978 0.956123
O O13 0.729103 0.377407 0.327692
O O14 0.000000 0.350449 0.306344
O O15 0.500000 0.089359 0.374624
O O16 0.288727 0.091804 0.460332
O O17 0.293863 0.000000 0.364466
O O18 0.500000 0.101743 0.545246
O O19 0.679635 0.000000 0.554744
O O20 0.000000 0.320952 0.641033
O O21 0.500000 0.904839 0.895604
O O22 0.693560 0.000000 0.872530
#
# Coordination Sequence:
#
# PCOD8179874 Si02
#       8
#     8   8   8   8   8   8   8   8
#     4   9  18  33  52  73  98 126 158 200 243 285
#     4   9  18  33  53  76 100 127 163 205 243 284
#     4   9  17  31  52  74  97 129 164 196 237 290
#     4   9  19  35  52  72 100 131 161 197 246 298
#     4   9  19  35  51  70 101 137 167 197 240 292
#     4   9  19  35  51  68  96 131 162 196 240 289
#     4   8  16  32  51  73 101 128 157 197 244 290
#     4  10  21  35  50  71  99 129 164 206 245 284
#
# _framework density 17.300996999999999
#
# number of rings (size 3 to 8) (size 9 to 14) (size 15 to 20)
#    0.000    3.000    0.000    2.625    0.000    4.750 
#    0.000   11.875    0.000    1.500    0.000    0.000 
#    0.000    0.000    0.000    0.000    0.000    0.000 
#
# Total GULP energy -396760.326585 kJ/mol
# GULP energy per Si atom -12398.760206 kJ/mol
# Density = 1.726162 g / cm^3
# Si number density = 17.300997 Si / 1000 Ang^3
#
#
#
# Elastic Constant Matrix: (Units=GPa)
#
#
# Indices 1 2 3 4 5 6 
#
# 1 69.2067 50.3171 62.1227 0.0000 0.0000 0.0000
# 2 50.3171 81.7024 76.2515 0.0000 0.0000 0.0000
# 3 62.1227 76.2515 115.3627 0.0000 0.0000 0.0000
# 4 0.0000 0.0000 0.0000 40.0046 0.0000 0.0000
# 5 0.0000 0.0000 0.0000 0.0000 1.0959 0.0000
# 6 0.0000 0.0000 0.0000 0.0000 0.0000 25.6806
#
#
#
# Elastic Compliance Matrix: (Units=1/GPa)
#
#
# Indices 1 2 3 4 5 6 
#
# 1 0.030288 -0.008956 -0.010390 0.000000 0.000000 0.000000
# 2 -0.008956 0.034595 -0.018044 0.000000 0.000000 0.000000
# 3 -0.010390 -0.018044 0.026190 0.000000 0.000000 0.000000
# 4 0.000000 0.000000 0.000000 0.024997 0.000000 0.000000
# 5 0.000000 0.000000 0.000000 0.000000 0.912520 0.000000
# 6 0.000000 0.000000 0.000000 0.000000 0.000000 0.038940
#
#
# Mechanical properties :
#
#
# Convention : Reuss Voigt Hill
#
# Bulk Modulus (GPa) = 61.37635 71.51713 66.44674
# Shear Modulus (GPa) = 4.35639 18.52825 11.44232
#
# Velocity S-wave (km/s) = 1.58854 3.27607 2.57450
# Velocity P-wave (km/s) = 6.23837 7.46571 6.87947
#
# Compressibility (1/GPa) = 0.01629292
#
# Stress axis : x y z
#
# Youngs Moduli (GPa) = 33.01692 28.90618 38.18286
#
# Poissons Ratio (x) = 0.25887 0.39673
# Poissons Ratio (y) = 0.29569 0.68895
# Poissons Ratio (z) = 0.34306 0.52157
#
# Static dielectric constant tensor:
#      x y z
#    x 3.045980 0.000000 0.000000 
#    y 0.000000 3.227930 0.000000 
#    z 0.000000 0.000000 3.274660 
# 
# 
# High freq. dielectric constant tensor:
#      x y z
#    x 1.652910 0.000000 0.000000 
#    y 0.000000 1.669960 0.000000 
#    z 0.000000 0.000000 1.673640 
# 
# From -- ./inp_files/17210.got.cif
#   From: 2010.03.12/outbox.cif.g09.slc.cpg/sg38_9_cif.got.tgz:17210.got - 2010.04.14 02:38:36.
