data_PCOD8179886
_publ_section_title
;
Structure prediction by ZEFSAII (Michael W. Deem and Ramdas Pophale) SiO2 
 PCOD8179886
Probable space group: A M M 2
;
_chemical_formula_sum "Si O2"
_cell_formula_units_Z 64
_cell_length_a 9.370957
_cell_length_b 14.930459
_cell_length_c 24.403322
_cell_angle_alpha 90.000000
_cell_angle_beta 90.000000
_cell_angle_gamma 90.000000
_cell_volume 3414.334408
_symmetry_space_group_name_H-M "A M M 2"
_symmetry_group_IT_number 38
_symmetry_cell_setting 'orthorhombic'
loop_
_space_group_symop_operation_xyz
x,y,z
-x,-y,z
-x,y,z
x,-y,z
x,1/2+y,1/2+z
-x,1/2-y,1/2+z
-x,1/2+y,1/2+z
x,1/2-y,1/2+z
loop_
_atom_site_type_symbol
_atom_site_label
_atom_site_fract_x
_atom_site_fract_y
_atom_site_fract_z
Si Si1 0.832418 0.396704 0.815730
Si Si2 0.666222 0.397132 0.087680
Si Si3 0.157270 0.606096 0.694141
Si Si4 0.332000 0.245194 0.005891
Si Si5 0.838962 0.393806 0.192851
Si Si6 0.334809 0.896988 0.797641
Si Si7 0.667947 0.602446 0.591322
Si Si8 0.667790 0.246929 0.383397
O O1 0.789828 0.500000 0.824703
O O2 0.790286 0.363770 0.754385
O O3 0.744116 0.338742 0.858261
O O4 0.000000 0.382915 0.825439
O O5 0.500000 0.385618 0.102465
O O6 0.703419 0.500000 0.073971
O O7 0.755866 0.359944 0.139138
O O8 0.709340 0.338916 0.034753
O O9 0.148465 0.500000 0.694286
O O10 0.264743 0.640218 0.647585
O O11 0.000000 0.645845 0.681985
O O12 0.500000 0.234585 0.002020
O O13 0.269099 0.241344 0.944687
O O14 0.272186 0.161748 0.041232
O O15 0.838210 0.500000 0.192859
O O16 0.758580 0.359705 0.247164
O O17 0.000000 0.355682 0.192595
O O18 0.500000 0.887733 0.780960
O O19 0.297102 0.837780 0.850589
O O20 0.297258 0.000000 0.811896
O O21 0.500000 0.612966 0.598398
O O22 0.712570 0.500000 0.579828
O O23 0.500000 0.226917 0.383871
#
# Coordination Sequence:
#
# PCOD8179886 Si02
#       8
#     8   8   8   8   8   8   8   8
#     4   9  19  36  55  75 103 137 166 199 252 308
#     4   9  17  31  51  71  95 129 161 193 241 297
#     4   8  15  30  51  73  98 127 158 193 239 298
#     4   9  19  34  49  70  99 128 164 205 242 286
#     4   9  17  30  50  76 102 126 158 203 251 298
#     4   9  18  33  52  74 102 135 168 204 250 302
#     4   9  17  30  50  74  99 127 158 197 244 289
#     4  10  21  35  52  75 100 131 175 217 247 286
#
# _framework density 18.744502000000001
#
# number of rings (size 3 to 8) (size 9 to 14) (size 15 to 20)
#    0.000    3.000    0.000    1.125    0.000    4.750 
#    0.000   10.625    0.000    1.500    0.000    3.500 
#    0.000    0.000    0.000    0.000    0.000    0.000 
#
# Total GULP energy -396717.886980 kJ/mol
# GULP energy per Si atom -12397.433968 kJ/mol
# Density = 1.870184 g / cm^3
# Si number density = 18.744502 Si / 1000 Ang^3
#
#
#
# Elastic Constant Matrix: (Units=GPa)
#
#
# Indices 1 2 3 4 5 6 
#
# 1 54.4595 29.0897 52.2709 0.0000 0.0000 0.0000
# 2 29.0897 82.4901 58.5858 0.0000 0.0000 0.0000
# 3 52.2709 58.5858 170.1009 0.0000 0.0000 0.0000
# 4 0.0000 0.0000 0.0000 29.0751 0.0000 0.0000
# 5 0.0000 0.0000 0.0000 0.0000 -11.2322 0.0000
# 6 0.0000 0.0000 0.0000 0.0000 0.0000 14.9731
#
#
#
# Elastic Compliance Matrix: (Units=1/GPa)
#
#
# Indices 1 2 3 4 5 6 
#
# 1 0.027454 -0.004885 -0.006754 0.000000 0.000000 0.000000
# 2 -0.004885 0.016917 -0.004326 0.000000 0.000000 0.000000
# 3 -0.006754 -0.004326 0.009444 0.000000 0.000000 0.000000
# 4 0.000000 0.000000 0.000000 0.034394 0.000000 0.000000
# 5 0.000000 0.000000 0.000000 0.000000 -0.089030 0.000000
# 6 0.000000 0.000000 0.000000 0.000000 0.000000 0.066786
#
#
# Mechanical properties :
#
#
# Convention : Reuss Voigt Hill
#
# Bulk Modulus (GPa) = 45.68954 65.21591 55.45273
# Shear Modulus (GPa) = 47.53298 17.70349 32.61823
#
# Velocity S-wave (km/s) = 5.04117 3.07655 4.17604
# Velocity P-wave (km/s) = 7.63625 6.89113 7.27324
#
# Compressibility (1/GPa) = 0.02188685
#
# Stress axis : x y z
#
# Youngs Moduli (GPa) = 36.42442 59.11096 105.88552
#
# Poissons Ratio (x) = 0.28874 0.71516
# Poissons Ratio (y) = 0.17792 0.45802
# Poissons Ratio (z) = 0.24601 0.25569
#
# Static dielectric constant tensor:
#      x y z
#    x 3.435090 0.000000 0.000000 
#    y 0.000000 3.385150 0.000000 
#    z 0.000000 0.000000 3.673880 
# 
# 
# High freq. dielectric constant tensor:
#      x y z
#    x 1.706180 0.000000 0.000000 
#    y 0.000000 1.726940 0.000000 
#    z 0.000000 0.000000 1.726340 
# 
# From -- ./inp_files/22157.got.cif
#   From: 2010.03.12/outbox.cif.g09.slc.cpg/sg38_12_cif.got.tgz:22157.got - 2010.04.14 02:38:36.
