data_PCOD8179116
_publ_section_title
;
Structure prediction by ZEFSAII (Michael W. Deem and Ramdas Pophale) SiO2 
 PCOD8179116
Probable space group: A M M 2
;
_chemical_formula_sum "Si O2"
_cell_formula_units_Z 34
_cell_length_a 7.830185
_cell_length_b 8.220707
_cell_length_c 26.890276
_cell_angle_alpha 90.000000
_cell_angle_beta 90.000000
_cell_angle_gamma 90.000000
_cell_volume 1730.917833
_symmetry_space_group_name_H-M "A M M 2"
_symmetry_group_IT_number 38
_symmetry_cell_setting 'orthorhombic'
loop_
_space_group_symop_operation_xyz
x,y,z
-x,-y,z
-x,y,z
x,-y,z
x,1/2+y,1/2+z
-x,1/2-y,1/2+z
-x,1/2+y,1/2+z
x,1/2-y,1/2+z
loop_
_atom_site_type_symbol
_atom_site_label
_atom_site_fract_x
_atom_site_fract_y
_atom_site_fract_z
Si Si1 0.000000 0.675931 0.849431
Si Si2 0.195484 0.814483 0.507010
Si Si3 0.693992 0.181026 0.615516
Si Si4 0.000000 0.500000 0.753528
Si Si5 0.293184 0.000000 0.174646
Si Si6 0.315477 0.186136 0.905201
O O1 0.000000 0.659903 0.789330
O O2 0.827399 0.760019 0.866595
O O3 0.000000 0.500000 0.875974
O O4 0.296449 0.774942 0.557367
O O5 0.262617 0.705394 0.462412
O O6 0.000000 0.773095 0.517868
O O7 0.222055 0.000000 0.490593
O O8 0.500000 0.163759 0.631604
O O9 0.768172 0.335296 0.645914
O O10 0.781363 0.000000 0.625462
O O11 0.821395 0.500000 0.724005
O O12 0.500000 0.000000 0.184612
O O13 0.500000 0.273503 0.895606
O O14 0.341456 0.000000 0.894542
#
# Coordination Sequence:
#
# PCOD8179116 Si02
#       6
#     4   8   8   2   4   8
#     4  10  23  43  63  85 116 152 206 267 312 373
#     4  10  20  33  54  88 127 168 207 242 295 366
#     4   9  19  36  58  87 127 169 205 246 302 372
#     4  10  26  44  68  92 112 152 216 260 328 378
#     4  10  22  42  66  94 126 158 208 266 313 374
#     4  11  23  38  60  90 126 166 207 252 313 376
#
# _framework density 19.642757
#
# number of rings (size 3 to 8) (size 9 to 14) (size 15 to 20)
#    0.353    1.647    1.176    1.765    3.294    3.765 
#    0.000    2.353    0.000    2.824    0.000    0.000 
#    0.000    0.000    0.000    0.000    0.000    0.000 
#
# Total GULP energy -210600.435490 kJ/mol
# GULP energy per Si atom -12388.260911 kJ/mol
# Density = 1.959805 g / cm^3
# Si number density = 19.642757 Si / 1000 Ang^3
#
#
#
# Elastic Constant Matrix: (Units=GPa)
#
#
# Indices 1 2 3 4 5 6 
#
# 1 86.7223 36.9119 40.2505 0.0000 0.0000 0.0000
# 2 36.9119 103.5156 53.3682 0.0000 0.0000 0.0000
# 3 40.2505 53.3682 121.3518 0.0000 0.0000 0.0000
# 4 0.0000 0.0000 0.0000 -49.0464 0.0000 0.0000
# 5 0.0000 0.0000 0.0000 0.0000 34.8210 0.0000
# 6 0.0000 0.0000 0.0000 0.0000 0.0000 26.4719
#
#
#
# Elastic Compliance Matrix: (Units=1/GPa)
#
#
# Indices 1 2 3 4 5 6 
#
# 1 0.014543 -0.003490 -0.003289 0.000000 0.000000 0.000000
# 2 -0.003490 0.013331 -0.004705 0.000000 0.000000 0.000000
# 3 -0.003289 -0.004705 0.011400 0.000000 0.000000 0.000000
# 4 0.000000 0.000000 0.000000 -0.020389 0.000000 0.000000
# 5 0.000000 0.000000 0.000000 0.000000 0.028718 0.000000
# 6 0.000000 0.000000 0.000000 0.000000 0.000000 0.037776
#
#
# Mechanical properties :
#
#
# Convention : Reuss Voigt Hill
#
# Bulk Modulus (GPa) = 61.32600 63.62789 62.47695
# Shear Modulus (GPa) = 43.94341 14.51989 29.23165
#
# Velocity S-wave (km/s) = 4.73496 2.72177 3.86186
# Velocity P-wave (km/s) = 7.82187 6.50694 7.19451
#
# Compressibility (1/GPa) = 0.01630630
#
# Stress axis : x y z
#
# Youngs Moduli (GPa) = 68.76141 75.01549 87.71595
#
# Poissons Ratio (x) = 0.26182 0.28847
# Poissons Ratio (y) = 0.24000 0.41269
# Poissons Ratio (z) = 0.22614 0.35294
#
# Static dielectric constant tensor:
#      x y z
#    x 3.443060 0.000000 0.000000 
#    y 0.000000 3.822430 0.000000 
#    z 0.000000 0.000000 3.279670 
# 
# 
# High freq. dielectric constant tensor:
#      x y z
#    x 1.774040 0.000000 0.000000 
#    y 0.000000 1.767740 0.000000 
#    z 0.000000 0.000000 1.738840 
# 
# From -- ./inp_files/23178.got.cif
#   From: 2010.03.12/outbox.cif.g09.slc.cpg/sg38_12_cif.got.tgz:23178.got - 2010.04.14 02:38:36.
