data_PCOD8179786
_publ_section_title
;
Structure prediction by ZEFSAII (Michael W. Deem and Ramdas Pophale) SiO2 
 PCOD8179786
Probable space group: A M M 2
;
_chemical_formula_sum "Si O2"
_cell_formula_units_Z 64
_cell_length_a 24.201114
_cell_length_b 8.500041
_cell_length_c 15.010339
_cell_angle_alpha 90.000000
_cell_angle_beta 90.000000
_cell_angle_gamma 90.000000
_cell_volume 3087.783759
_symmetry_space_group_name_H-M "A M M 2"
_symmetry_group_IT_number 38
_symmetry_cell_setting 'orthorhombic'
loop_
_space_group_symop_operation_xyz
x,y,z
-x,-y,z
-x,y,z
x,-y,z
x,1/2+y,1/2+z
-x,1/2-y,1/2+z
-x,1/2+y,1/2+z
x,1/2-y,1/2+z
loop_
_atom_site_type_symbol
_atom_site_label
_atom_site_fract_x
_atom_site_fract_y
_atom_site_fract_z
Si Si1 0.822917 0.686643 0.723410
Si Si2 0.941841 0.323648 0.730506
Si Si3 0.563732 0.817425 0.030777
Si Si4 0.827886 0.180773 0.530224
Si Si5 0.940051 0.676086 0.519215
Si Si6 0.245578 0.318096 0.378547
Si Si7 0.635202 0.682197 0.879197
Si Si8 0.564167 0.318558 0.221361
O O1 0.819890 0.500000 0.737044
O O2 0.883163 0.753624 0.758497
O O3 0.814157 0.720707 0.618931
O O4 0.776111 0.770458 0.780854
O O5 0.943470 0.500000 0.768239
O O6 0.941039 0.328272 0.624769
O O7 0.000000 0.238395 0.761715
O O8 0.500000 0.779675 0.009680
O O9 0.578099 0.773320 0.131434
O O10 0.576995 0.000000 0.013606
O O11 0.601273 0.709425 0.969108
O O12 0.888609 0.217275 0.488398
O O13 0.783038 0.216660 0.455263
O O14 0.824817 0.000000 0.556943
O O15 0.930925 0.500000 0.481954
O O16 0.000000 0.741082 0.484648
O O17 0.233507 0.500000 0.396454
O O18 0.310374 0.287357 0.380970
O O19 0.651319 0.500000 0.870865
O O20 0.598167 0.733539 0.797101
O O21 0.500000 0.304673 0.246356
O O22 0.581941 0.500000 0.212163
#
# Coordination Sequence:
#
# PCOD8179786 Si02
#       8
#     8   8   8   8   8   8   8   8
#     4  10  20  38  62  87 116 152 194 242 297 354
#     4   7  11  23  48  80 110 141 178 223 280 345
#     4  10  21  39  64  95 129 163 199 240 289 345
#     4  11  22  38  60  87 118 154 196 242 297 357
#     4   8  14  28  52  81 112 148 190 236 290 351
#     4  12  26  44  62  83 114 155 205 253 297 349
#     4  12  25  41  62  89 121 158 201 248 298 349
#     4  10  21  39  64  95 129 163 199 239 286 343
#
# _framework density 20.726839999999999
#
# number of rings (size 3 to 8) (size 9 to 14) (size 15 to 20)
#    0.000    2.000    0.000    6.375    0.000    4.250 
#    0.000    5.625    0.000    3.375    0.000    0.000 
#    0.000    0.000    0.000    0.000    0.000    0.000 
#
# Total GULP energy -396651.422458 kJ/mol
# GULP energy per Si atom -12395.356952 kJ/mol
# Density = 2.067967 g / cm^3
# Si number density = 20.726840 Si / 1000 Ang^3
#
#
#
# Elastic Constant Matrix: (Units=GPa)
#
#
# Indices 1 2 3 4 5 6 
#
# 1 95.1229 24.9534 53.7026 0.0000 0.0000 0.0000
# 2 24.9534 75.2589 8.2917 0.0000 0.0000 0.0000
# 3 53.7026 8.2917 73.0675 0.0000 0.0000 0.0000
# 4 0.0000 0.0000 0.0000 27.7581 0.0000 0.0000
# 5 0.0000 0.0000 0.0000 0.0000 541.9990 0.0000
# 6 0.0000 0.0000 0.0000 0.0000 0.0000 23.1535
#
#
#
# Elastic Compliance Matrix: (Units=1/GPa)
#
#
# Indices 1 2 3 4 5 6 
#
# 1 0.019659 -0.004989 -0.013883 0.000000 0.000000 0.000000
# 2 -0.004989 0.014722 0.001996 0.000000 0.000000 0.000000
# 3 -0.013883 0.001996 0.023663 0.000000 0.000000 0.000000
# 4 0.000000 0.000000 0.000000 0.036026 0.000000 0.000000
# 5 0.000000 0.000000 0.000000 0.000000 0.001845 0.000000
# 6 0.000000 0.000000 0.000000 0.000000 0.000000 0.043190
#
#
# Mechanical properties :
#
#
# Convention : Reuss Voigt Hill
#
# Bulk Modulus (GPa) = 41.16485 46.37165 43.76825
# Shear Modulus (GPa) = 27.63153 129.01557 78.32355
#
# Velocity S-wave (km/s) = 3.65516 7.89815 6.15390
# Velocity P-wave (km/s) = 6.14145 10.27598 8.46502
#
# Compressibility (1/GPa) = 0.02429257
#
# Stress axis : x y z
#
# Youngs Moduli (GPa) = 50.86714 67.92717 42.26025
#
# Poissons Ratio (x) = 0.33887 0.58669
# Poissons Ratio (y) = 0.25376 -0.08435
# Poissons Ratio (z) = 0.70618 -0.13558
#
# Static dielectric constant tensor:
#      x y z
#    x 3.643640 0.000000 0.000000 
#    y 0.000000 3.746370 0.000000 
#    z 0.000000 0.000000 3.541620 
# 
# 
# High freq. dielectric constant tensor:
#      x y z
#    x 1.820960 0.000000 0.000000 
#    y 0.000000 1.802140 0.000000 
#    z 0.000000 0.000000 1.800090 
# 
# From -- ./inp_files/15880.got.cif
#   From: 2010.03.12/outbox.cif.g09.slc.cpg/sg38_8_cif.got.tgz:15880.got - 2010.04.14 02:38:36.
