data_PCOD8179573
_publ_section_title
;
Structure prediction by ZEFSAII (Michael W. Deem and Ramdas Pophale) SiO2 
 PCOD8179573
Probable space group: A M M 2
;
_chemical_formula_sum "Si O2"
_cell_formula_units_Z 48
_cell_length_a 15.567954
_cell_length_b 8.778142
_cell_length_c 17.918530
_cell_angle_alpha 90.000000
_cell_angle_beta 90.000000
_cell_angle_gamma 90.000000
_cell_volume 2448.705292
_symmetry_space_group_name_H-M "A M M 2"
_symmetry_group_IT_number 38
_symmetry_cell_setting 'orthorhombic'
loop_
_space_group_symop_operation_xyz
x,y,z
-x,-y,z
-x,y,z
x,-y,z
x,1/2+y,1/2+z
-x,1/2-y,1/2+z
-x,1/2+y,1/2+z
x,1/2-y,1/2+z
loop_
_atom_site_type_symbol
_atom_site_label
_atom_site_fract_x
_atom_site_fract_y
_atom_site_fract_z
Si Si1 0.835735 0.679814 0.309480
Si Si2 0.327970 0.178151 0.383944
Si Si3 0.000000 0.681687 0.056812
Si Si4 0.167806 0.680822 0.139671
Si Si5 0.500000 0.319306 0.803610
Si Si6 0.000000 0.819445 0.387394
Si Si7 0.337910 0.177674 0.558341
Si Si8 0.500000 0.179593 0.135667
O O1 0.849497 0.500000 0.313070
O O2 0.749319 0.724588 0.351264
O O3 0.829931 0.738479 0.224522
O O4 0.915798 0.760178 0.347173
O O5 0.415335 0.239156 0.346240
O O6 0.333346 0.211353 0.471158
O O7 0.311998 0.000000 0.367732
O O8 0.916273 0.747420 0.098737
O O9 0.000000 0.500000 0.058934
O O10 0.000000 0.741204 0.972170
O O11 0.165681 0.500000 0.136101
O O12 0.251668 0.741328 0.096722
O O13 0.500000 0.500000 0.804524
O O14 0.500000 0.253264 0.719712
O O15 0.000000 0.000000 0.385450
O O16 0.416732 0.267046 0.592376
O O17 0.351330 0.000000 0.574605
O O18 0.500000 0.000000 0.139588
#
# Coordination Sequence:
#
# PCOD8179573 Si02
#       8
#     8   8   4   8   4   4   8   4
#     4  11  22  36  56  83 115 145 175 223 281 329
#     4  10  20  37  60  82 107 143 186 228 269 322
#     4   9  17  33  57  81 104 135 180 226 260 303
#     4   9  18  33  55  82 109 140 179 221 267 317
#     4   9  19  35  55  81 112 145 180 222 278 333
#     4  11  22  37  59  83 108 145 190 228 264 319
#     4  10  20  36  58  81 106 143 190 229 262 315
#     4  11  22  35  53  79 112 145 176 222 282 331
#
# _framework density 19.602194000000001
#
# number of rings (size 3 to 8) (size 9 to 14) (size 15 to 20)
#    0.000    2.000    0.000    4.000    0.000    6.000 
#    0.000    2.083    0.000    8.000    0.000    0.000 
#    0.000    0.000    0.000    0.000    0.000    0.000 
#
# Total GULP energy -297678.112100 kJ/mol
# GULP energy per Si atom -12403.254671 kJ/mol
# Density = 1.955758 g / cm^3
# Si number density = 19.602194 Si / 1000 Ang^3
#
#
#
# Elastic Constant Matrix: (Units=GPa)
#
#
# Indices 1 2 3 4 5 6 
#
# 1 188.3583 34.0538 83.7283 0.0000 0.0000 0.0000
# 2 34.0538 40.1392 40.5362 0.0000 0.0000 0.0000
# 3 83.7283 40.5362 159.4635 0.0000 0.0000 0.0000
# 4 0.0000 0.0000 0.0000 18.3264 0.0000 0.0000
# 5 0.0000 0.0000 0.0000 0.0000 38.5093 0.0000
# 6 0.0000 0.0000 0.0000 0.0000 0.0000 22.5347
#
#
#
# Elastic Compliance Matrix: (Units=1/GPa)
#
#
# Indices 1 2 3 4 5 6 
#
# 1 0.007198 -0.003081 -0.002996 0.000000 0.000000 0.000000
# 2 -0.003081 0.034837 -0.007238 0.000000 0.000000 0.000000
# 3 -0.002996 -0.007238 0.009684 0.000000 0.000000 0.000000
# 4 0.000000 0.000000 0.000000 0.054566 0.000000 0.000000
# 5 0.000000 0.000000 0.000000 0.000000 0.025968 0.000000
# 6 0.000000 0.000000 0.000000 0.000000 0.000000 0.044376
#
#
# Mechanical properties :
#
#
# Convention : Reuss Voigt Hill
#
# Bulk Modulus (GPa) = 39.85861 78.28864 59.07363
# Shear Modulus (GPa) = 23.62712 31.18360 27.40536
#
# Velocity S-wave (km/s) = 3.47555 3.99284 3.74314
# Velocity P-wave (km/s) = 6.04019 7.82831 6.99165
#
# Compressibility (1/GPa) = 0.02508868
#
# Stress axis : x y z
#
# Youngs Moduli (GPa) = 138.93003 28.70542 103.26170
#
# Poissons Ratio (x) = 0.08844 0.30939
# Poissons Ratio (y) = 0.42802 0.74741
# Poissons Ratio (z) = 0.41626 0.20777
#
# Static dielectric constant tensor:
#      x y z
#    x 3.563760 0.000000 0.000000 
#    y 0.000000 3.215130 0.000000 
#    z 0.000000 0.000000 3.868210 
# 
# 
# High freq. dielectric constant tensor:
#      x y z
#    x 1.785390 0.000000 0.000000 
#    y 0.000000 1.727220 0.000000 
#    z 0.000000 0.000000 1.784930 
# 
# From -- ./inp_files/18229.got.cif
#   From: 2010.03.12/outbox.cif.g09.slc.cpg/sg38_10_cif.got.tgz:18229.got - 2010.04.14 02:38:36.
