data_PCOD8179057
_publ_section_title
;
Structure prediction by ZEFSAII (Michael W. Deem and Ramdas Pophale) SiO2 
 PCOD8179057
Probable space group: A M M 2
;
_chemical_formula_sum "Si O2"
_cell_formula_units_Z 56
_cell_length_a 8.846287
_cell_length_b 19.931349
_cell_length_c 15.605335
_cell_angle_alpha 90.000000
_cell_angle_beta 90.000000
_cell_angle_gamma 90.000000
_cell_volume 2751.508222
_symmetry_space_group_name_H-M "A M M 2"
_symmetry_group_IT_number 38
_symmetry_cell_setting 'orthorhombic'
loop_
_space_group_symop_operation_xyz
x,y,z
-x,-y,z
-x,y,z
x,-y,z
x,1/2+y,1/2+z
-x,1/2-y,1/2+z
-x,1/2+y,1/2+z
x,1/2-y,1/2+z
loop_
_atom_site_type_symbol
_atom_site_label
_atom_site_fract_x
_atom_site_fract_y
_atom_site_fract_z
Si Si1 0.320957 0.204360 0.806820
Si Si2 0.331030 0.754972 0.616737
Si Si3 0.823472 0.699762 0.950598
Si Si4 0.179276 0.577312 0.376274
Si Si5 0.326401 0.578732 0.876310
Si Si6 0.836901 0.426663 0.713095
Si Si7 0.669701 0.394817 0.554318
O O1 0.500000 0.199831 0.819143
O O2 0.274652 0.233995 0.714184
O O3 0.259923 0.250422 0.884317
O O4 0.252298 0.128806 0.808470
O O5 0.500000 0.785221 0.604836
O O6 0.215963 0.786728 0.549371
O O7 0.333213 0.676835 0.598566
O O8 0.775002 0.622270 0.940241
O O9 0.000000 0.708899 0.935373
O O10 0.228347 0.500000 0.357791
O O11 0.238525 0.602830 0.467233
O O12 0.000000 0.583992 0.374227
O O13 0.500000 0.598466 0.888167
O O14 0.300891 0.500000 0.893831
O O15 0.278248 0.605344 0.781563
O O16 0.871697 0.500000 0.750042
O O17 0.759890 0.439327 0.621706
O O18 0.000000 0.387912 0.706990
O O19 0.500000 0.421939 0.538669
#
# Coordination Sequence:
#
# PCOD8179057 Si02
#       7
#     8   8   8   8   8   8   8
#     4  11  23  42  67  94 127 167 216 267 318 385
#     4  10  23  41  62  89 121 160 209 263 313 372
#     4  12  24  39  64  94 126 162 202 257 319 380
#     4  11  24  41  61  89 128 170 215 270 329 387
#     4  10  21  38  60  85 118 161 206 253 307 371
#     4  10  20  33  51  80 119 157 195 244 302 364
#     4  11  21  35  58  87 119 160 206 255 314 380
#
# _framework density 20.352474999999998
#
# number of rings (size 3 to 8) (size 9 to 14) (size 15 to 20)
#    0.000    1.286    1.429    4.714    0.000    7.429 
#    0.000    0.714    0.000    0.857    0.000    0.000 
#    0.000    0.000    0.000    0.000    0.000    0.000 
#
# Total GULP energy -347038.869466 kJ/mol
# GULP energy per Si atom -12394.245338 kJ/mol
# Density = 2.030615 g / cm^3
# Si number density = 20.352475 Si / 1000 Ang^3
#
#
#
# Elastic Constant Matrix: (Units=GPa)
#
#
# Indices 1 2 3 4 5 6 
#
# 1 123.6831 45.0995 44.5401 0.0000 0.0000 0.0000
# 2 45.0995 95.4676 38.7954 0.0000 0.0000 0.0000
# 3 44.5401 38.7954 99.7785 0.0000 0.0000 0.0000
# 4 0.0000 0.0000 0.0000 31.1283 0.0000 0.0000
# 5 0.0000 0.0000 0.0000 0.0000 17.9198 0.0000
# 6 0.0000 0.0000 0.0000 0.0000 0.0000 15.5015
#
#
#
# Elastic Compliance Matrix: (Units=1/GPa)
#
#
# Indices 1 2 3 4 5 6 
#
# 1 0.010616 -0.003669 -0.003312 0.000000 0.000000 0.000000
# 2 -0.003669 0.013708 -0.003692 0.000000 0.000000 0.000000
# 3 -0.003312 -0.003692 0.012936 0.000000 0.000000 0.000000
# 4 0.000000 0.000000 0.000000 0.032125 0.000000 0.000000
# 5 0.000000 0.000000 0.000000 0.000000 0.055804 0.000000
# 6 0.000000 0.000000 0.000000 0.000000 0.000000 0.064510
#
#
# Mechanical properties :
#
#
# Convention : Reuss Voigt Hill
#
# Bulk Modulus (GPa) = 62.83905 63.97766 63.40836
# Shear Modulus (GPa) = 23.11059 25.60955 24.36007
#
# Velocity S-wave (km/s) = 3.37340 3.55110 3.46339
# Velocity P-wave (km/s) = 6.79084 6.95103 6.87140
#
# Compressibility (1/GPa) = 0.01591367
#
# Stress axis : x y z
#
# Youngs Moduli (GPa) = 94.19915 72.94784 77.30157
#
# Poissons Ratio (x) = 0.26764 0.25604
# Poissons Ratio (y) = 0.34561 0.28542
# Poissons Ratio (z) = 0.31201 0.26934
#
# Static dielectric constant tensor:
#      x y z
#    x 4.003790 0.000000 0.000000 
#    y 0.000000 3.795440 0.000000 
#    z 0.000000 0.000000 3.642690 
# 
# 
# High freq. dielectric constant tensor:
#      x y z
#    x 1.809080 0.000000 0.000000 
#    y 0.000000 1.794540 0.000000 
#    z 0.000000 0.000000 1.781860 
# 
# From -- ./inp_files/12406.got.cif
#   From: 2010.03.12/outbox.cif.g09.slc.cpg/sg38_7_cif.got.tgz:12406.got - 2010.04.14 02:38:36.
