data_PCOD8179201
_publ_section_title
;
Structure prediction by ZEFSAII (Michael W. Deem and Ramdas Pophale) SiO2 
 PCOD8179201
Probable space group: A M M 2
;
_chemical_formula_sum "Si O2"
_cell_formula_units_Z 64
_cell_length_a 17.161592
_cell_length_b 33.793249
_cell_length_c 5.130996
_cell_angle_alpha 90.000000
_cell_angle_beta 90.000000
_cell_angle_gamma 90.000000
_cell_volume 2975.700358
_symmetry_space_group_name_H-M "A M M 2"
_symmetry_group_IT_number 38
_symmetry_cell_setting 'orthorhombic'
loop_
_space_group_symop_operation_xyz
x,y,z
-x,-y,z
-x,y,z
x,-y,z
x,1/2+y,1/2+z
-x,1/2-y,1/2+z
-x,1/2+y,1/2+z
x,1/2-y,1/2+z
loop_
_atom_site_type_symbol
_atom_site_label
_atom_site_fract_x
_atom_site_fract_y
_atom_site_fract_z
Si Si1 0.589465 0.955023 0.944660
Si Si2 0.592793 0.665960 0.662164
Si Si3 0.722259 0.775640 0.240978
Si Si4 0.735724 0.432074 0.725471
Si Si5 0.090134 0.377534 0.177530
Si Si6 0.825310 0.043944 0.721670
Si Si7 0.820660 0.353123 0.679318
Si Si8 0.409949 0.878948 0.662636
O O1 0.500000 0.948419 0.039936
O O2 0.609606 0.925339 0.705278
O O3 0.602632 0.000000 0.849596
O O4 0.644790 0.943197 0.185136
O O5 0.500000 0.672693 0.666121
O O6 0.634235 0.707766 0.711972
O O7 0.626327 0.647814 0.393610
O O8 0.621286 0.634944 0.884483
O O9 0.734816 0.758037 0.526772
O O10 0.785421 0.809833 0.206132
O O11 0.786683 0.453749 0.505373
O O12 0.751421 0.385093 0.708634
O O13 0.758429 0.447962 0.008994
O O14 0.104899 0.424778 0.188802
O O15 0.140114 0.355598 0.396920
O O16 0.000000 0.369128 0.225592
O O17 0.113871 0.360451 0.897436
O O18 0.860298 0.000000 0.685036
O O19 0.500000 0.870670 0.682500
#
# Coordination Sequence:
#
# PCOD8179201 Si02
#       8
#     8   8   8   8   8   8   8   8
#     4  10  20  34  53  80 115 158 213 270 305 329
#     4  10  21  39  61  85 116 155 199 245 296 358
#     4  12  25  40  63  92 122 154 190 240 298 351
#     4  10  21  37  57  79 113 163 207 240 293 358
#     4  10  21  39  66  93 118 156 197 234 280 342
#     4  10  20  35  57  88 123 155 192 243 299 350
#     4  10  22  41  63  88 120 155 191 232 285 359
#     4   9  19  35  54  76 107 150 198 248 303 354
#
# _framework density 21.507542999999998
#
# number of rings (size 3 to 8) (size 9 to 14) (size 15 to 20)
#    0.000    1.875    0.000    3.750    0.000    4.750 
#    0.000    3.750    0.000   21.000    0.000    0.000 
#    0.000    0.000    0.000    0.000    0.000    0.000 
#
# Total GULP energy -396825.495794 kJ/mol
# GULP energy per Si atom -12400.796744 kJ/mol
# Density = 2.145859 g / cm^3
# Si number density = 21.507543 Si / 1000 Ang^3
#
#
#
# Elastic Constant Matrix: (Units=GPa)
#
#
# Indices 1 2 3 4 5 6 
#
# 1 78.2604 38.3564 -0.5125 0.0000 0.0000 0.0000
# 2 38.3564 116.3139 14.1833 0.0000 0.0000 0.0000
# 3 -0.5125 14.1833 66.6581 0.0000 0.0000 0.0000
# 4 0.0000 0.0000 0.0000 21.8788 0.0000 0.0000
# 5 0.0000 0.0000 0.0000 0.0000 18.5847 0.0000
# 6 0.0000 0.0000 0.0000 0.0000 0.0000 19.1962
#
#
#
# Elastic Compliance Matrix: (Units=1/GPa)
#
#
# Indices 1 2 3 4 5 6 
#
# 1 0.015338 -0.005207 0.001226 0.000000 0.000000 0.000000
# 2 -0.005207 0.010594 -0.002294 0.000000 0.000000 0.000000
# 3 0.001226 -0.002294 0.015500 0.000000 0.000000 0.000000
# 4 0.000000 0.000000 0.000000 0.045706 0.000000 0.000000
# 5 0.000000 0.000000 0.000000 0.000000 0.053808 0.000000
# 6 0.000000 0.000000 0.000000 0.000000 0.000000 0.052094
#
#
# Mechanical properties :
#
#
# Convention : Reuss Voigt Hill
#
# Bulk Modulus (GPa) = 34.62547 40.58742 37.60644
# Shear Modulus (GPa) = 23.23225 25.87897 24.55561
#
# Velocity S-wave (km/s) = 3.29019 3.47255 3.38260
# Velocity P-wave (km/s) = 5.52883 5.91527 5.72531
#
# Compressibility (1/GPa) = 0.02888047
#
# Stress axis : x y z
#
# Youngs Moduli (GPa) = 65.19696 94.38905 64.51807
#
# Poissons Ratio (x) = 0.49153 -0.07910
# Poissons Ratio (y) = 0.33951 0.14802
# Poissons Ratio (z) = -0.07993 0.21656
#
# Static dielectric constant tensor:
#      x y z
#    x 3.598970 0.000000 0.000000 
#    y 0.000000 3.877110 0.000000 
#    z 0.000000 0.000000 4.235960 
# 
# 
# High freq. dielectric constant tensor:
#      x y z
#    x 1.825130 0.000000 0.000000 
#    y 0.000000 1.840310 0.000000 
#    z 0.000000 0.000000 1.858160 
# 
# From -- ./inp_files/1738.got.cif
#   From: 2010.03.12/outbox.cif.g09.slc.cpg/sg38_1_cif.got.tgz:1738.got - 2010.04.14 02:38:36.
