data_PCOD8179531
_publ_section_title
;
Structure prediction by ZEFSAII (Michael W. Deem and Ramdas Pophale) SiO2 
 PCOD8179531
Probable space group: A M M 2
;
_chemical_formula_sum "Si O2"
_cell_formula_units_Z 48
_cell_length_a 13.411982
_cell_length_b 20.692419
_cell_length_c 8.244577
_cell_angle_alpha 90.000000
_cell_angle_beta 90.000000
_cell_angle_gamma 90.000000
_cell_volume 2288.087372
_symmetry_space_group_name_H-M "A M M 2"
_symmetry_group_IT_number 38
_symmetry_cell_setting 'orthorhombic'
loop_
_space_group_symop_operation_xyz
x,y,z
-x,-y,z
-x,y,z
x,-y,z
x,1/2+y,1/2+z
-x,1/2-y,1/2+z
-x,1/2+y,1/2+z
x,1/2-y,1/2+z
loop_
_atom_site_type_symbol
_atom_site_label
_atom_site_fract_x
_atom_site_fract_y
_atom_site_fract_z
Si Si1 0.269128 0.072160 0.863420
Si Si2 0.614861 0.798926 0.311525
Si Si3 0.287415 0.186117 0.628020
Si Si4 0.384709 0.069409 0.165515
Si Si5 0.113675 0.712384 0.887607
Si Si6 0.887590 0.655766 0.536112
O O1 0.291498 0.116376 0.710039
O O2 0.242675 0.000000 0.802176
O O3 0.368657 0.072465 0.972213
O O4 0.181450 0.096490 0.983712
O O5 0.500000 0.785626 0.258575
O O6 0.620037 0.803883 0.505527
O O7 0.693482 0.743015 0.259582
O O8 0.660990 0.866402 0.245521
O O9 0.183931 0.185593 0.529627
O O10 0.500000 0.070370 0.205560
O O11 0.339885 0.000000 0.230222
O O12 0.143841 0.686996 0.709212
O O13 0.000000 0.692299 0.930677
O O14 0.122830 0.790592 0.893160
O O15 0.000000 0.629578 0.547332
#
# Coordination Sequence:
#
# PCOD8179531 Si02
#       6
#     8   8   8   8   8   8
#     4  11  24  39  56  80 112 153 198 242 293 352
#     4  11  23  38  60  89 119 152 194 242 293 352
#     4  12  23  37  58  85 118 155 194 245 299 345
#     4   9  19  37  59  82 111 148 188 233 288 349
#     4  10  20  35  60  92 119 148 190 242 298 354
#     4  10  20  36  59  86 116 148 186 235 292 352
#
# _framework density 20.978218999999999
#
# number of rings (size 3 to 8) (size 9 to 14) (size 15 to 20)
#    0.000    1.500    0.000    6.500    0.000    5.667 
#    0.000    0.833    0.000    1.000    0.000    0.000 
#    0.000    0.000    0.000    0.000    0.000    0.000 
#
# Total GULP energy -297430.852781 kJ/mol
# GULP energy per Si atom -12392.952199 kJ/mol
# Density = 2.093047 g / cm^3
# Si number density = 20.978219 Si / 1000 Ang^3
#
#
#
# Elastic Constant Matrix: (Units=GPa)
#
#
# Indices 1 2 3 4 5 6 
#
# 1 72.3991 34.8059 19.8489 0.0000 0.0000 0.0000
# 2 34.8059 165.1243 66.9612 0.0000 0.0000 0.0000
# 3 19.8489 66.9612 104.7246 0.0000 0.0000 0.0000
# 4 0.0000 0.0000 0.0000 38.4990 0.0000 0.0000
# 5 0.0000 0.0000 0.0000 0.0000 32.2332 0.0000
# 6 0.0000 0.0000 0.0000 0.0000 0.0000 20.2399
#
#
#
# Elastic Compliance Matrix: (Units=1/GPa)
#
#
# Indices 1 2 3 4 5 6 
#
# 1 0.015471 -0.002797 -0.001144 0.000000 0.000000 0.000000
# 2 -0.002797 0.008682 -0.005021 0.000000 0.000000 0.000000
# 3 -0.001144 -0.005021 0.012976 0.000000 0.000000 0.000000
# 4 0.000000 0.000000 0.000000 0.025975 0.000000 0.000000
# 5 0.000000 0.000000 0.000000 0.000000 0.031024 0.000000
# 6 0.000000 0.000000 0.000000 0.000000 0.000000 0.049407
#
#
# Mechanical properties :
#
#
# Convention : Reuss Voigt Hill
#
# Bulk Modulus (GPa) = 52.07054 65.05336 58.56195
# Shear Modulus (GPa) = 29.78677 32.90321 31.34499
#
# Velocity S-wave (km/s) = 3.77223 3.96466 3.86964
# Velocity P-wave (km/s) = 6.62179 7.21355 6.92399
#
# Compressibility (1/GPa) = 0.01920472
#
# Stress axis : x y z
#
# Youngs Moduli (GPa) = 64.63860 115.18397 77.06504
#
# Poissons Ratio (x) = 0.32219 0.08814
# Poissons Ratio (y) = 0.18081 0.38694
# Poissons Ratio (z) = 0.07393 0.57834
#
# Static dielectric constant tensor:
#      x y z
#    x 3.785920 0.000000 0.000000 
#    y 0.000000 3.981280 0.000000 
#    z 0.000000 0.000000 3.704340 
# 
# 
# High freq. dielectric constant tensor:
#      x y z
#    x 1.830880 0.000000 0.000000 
#    y 0.000000 1.810670 0.000000 
#    z 0.000000 0.000000 1.816470 
# 
# From -- ./inp_files/5461.got.cif
#   From: 2010.03.12/outbox.cif.g09.slc.cpg/sg38_3_cif.got.tgz:5461.got - 2010.04.14 02:38:36.
