data_PCOD8179587
_publ_section_title
;
Structure prediction by ZEFSAII (Michael W. Deem and Ramdas Pophale) SiO2 
 PCOD8179587
Probable space group: A M M 2
;
_chemical_formula_sum "Si O2"
_cell_formula_units_Z 56
_cell_length_a 20.000182
_cell_length_b 8.861645
_cell_length_c 15.588492
_cell_angle_alpha 90.000000
_cell_angle_beta 90.000000
_cell_angle_gamma 90.000000
_cell_volume 2762.818785
_symmetry_space_group_name_H-M "A M M 2"
_symmetry_group_IT_number 38
_symmetry_cell_setting 'orthorhombic'
loop_
_space_group_symop_operation_xyz
x,y,z
-x,-y,z
-x,y,z
x,-y,z
x,1/2+y,1/2+z
-x,1/2-y,1/2+z
-x,1/2+y,1/2+z
x,1/2-y,1/2+z
loop_
_atom_site_type_symbol
_atom_site_label
_atom_site_fract_x
_atom_site_fract_y
_atom_site_fract_z
Si Si1 0.149735 0.676295 0.738110
Si Si2 0.711072 0.321826 0.817563
Si Si3 0.292823 0.177983 0.001279
Si Si4 0.836317 0.678690 0.065926
Si Si5 0.573140 0.669731 0.003588
Si Si6 0.570153 0.169233 0.299496
Si Si7 0.075159 0.179467 0.407464
O O1 0.136552 0.500000 0.722597
O O2 0.227779 0.709874 0.754988
O O3 0.128137 0.768815 0.653972
O O4 0.106731 0.737149 0.818276
O O5 0.704888 0.500000 0.839291
O O6 0.722651 0.235770 0.906055
O O7 0.642078 0.262000 0.770567
O O8 0.287804 0.000000 0.004405
O O9 0.236823 0.247156 0.063218
O O10 0.366231 0.225765 0.036486
O O11 0.829459 0.500000 0.063253
O O12 0.881294 0.739539 0.987173
O O13 0.500000 0.729019 0.036095
O O14 0.584663 0.500000 0.037595
O O15 0.573472 0.670003 0.901600
O O16 0.500000 0.253027 0.270398
O O17 0.565292 0.000000 0.264205
O O18 0.000000 0.242997 0.415574
O O19 0.075619 0.000000 0.408431
#
# Coordination Sequence:
#
# PCOD8179587 Si02
#       7
#     8   8   8   8   8   8   8
#     4  10  20  36  58  85 114 147 187 235 285 339
#     4   9  16  30  51  74 105 146 187 228 284 346
#     4  11  20  30  50  79 112 148 192 244 290 335
#     4  11  22  38  59  84 115 154 195 234 283 345
#     4   8  14  26  45  70 103 145 191 236 287 346
#     4   7  10  18  37  66  96 129 174 221 263 319
#     4   9  19  38  63  87 114 150 188 229 285 350
#
# _framework density 20.269154
#
# number of rings (size 3 to 8) (size 9 to 14) (size 15 to 20)
#    0.000    2.714    1.429    3.429    0.000    1.429 
#    0.000    0.000    0.000    3.857    0.000    2.000 
#    0.000    0.000    0.000    0.000    0.000    0.143 
#
# Total GULP energy -346904.974372 kJ/mol
# GULP energy per Si atom -12389.463370 kJ/mol
# Density = 2.022302 g / cm^3
# Si number density = 20.269154 Si / 1000 Ang^3
#
#
#
# Elastic Constant Matrix: (Units=GPa)
#
#
# Indices 1 2 3 4 5 6 
#
# 1 155.8376 35.7095 53.3958 0.0000 0.0000 0.0000
# 2 35.7095 69.9149 32.8620 0.0000 0.0000 0.0000
# 3 53.3958 32.8620 99.5364 0.0000 0.0000 0.0000
# 4 0.0000 0.0000 0.0000 24.3949 0.0000 0.0000
# 5 0.0000 0.0000 0.0000 0.0000 7.0716 0.0000
# 6 0.0000 0.0000 0.0000 0.0000 0.0000 13.9307
#
#
#
# Elastic Compliance Matrix: (Units=1/GPa)
#
#
# Indices 1 2 3 4 5 6 
#
# 1 0.008220 -0.002516 -0.003579 0.000000 0.000000 0.000000
# 2 -0.002516 0.017701 -0.004494 0.000000 0.000000 0.000000
# 3 -0.003579 -0.004494 0.013450 0.000000 0.000000 0.000000
# 4 0.000000 0.000000 0.000000 0.040992 0.000000 0.000000
# 5 0.000000 0.000000 0.000000 0.000000 0.141412 0.000000
# 6 0.000000 0.000000 0.000000 0.000000 0.000000 0.071784
#
#
# Mechanical properties :
#
#
# Convention : Reuss Voigt Hill
#
# Bulk Modulus (GPa) = 54.96775 63.24704 59.10739
# Shear Modulus (GPa) = 15.58601 22.63419 19.11010
#
# Velocity S-wave (km/s) = 2.77601 3.34530 3.07386
# Velocity P-wave (km/s) = 6.11986 6.79652 6.46705
#
# Compressibility (1/GPa) = 0.01819249
#
# Stress axis : x y z
#
# Youngs Moduli (GPa) = 121.65889 56.49525 74.34907
#
# Poissons Ratio (x) = 0.14215 0.26607
# Poissons Ratio (y) = 0.30611 0.33413
# Poissons Ratio (z) = 0.43538 0.25389
#
# Static dielectric constant tensor:
#      x y z
#    x 4.354810 0.000000 0.000000 
#    y 0.000000 3.234940 0.000000 
#    z 0.000000 0.000000 3.357610 
# 
# 
# High freq. dielectric constant tensor:
#      x y z
#    x 1.812130 0.000000 0.000000 
#    y 0.000000 1.746390 0.000000 
#    z 0.000000 0.000000 1.763340 
# 
# From -- ./inp_files/15487.got.cif
#   From: 2010.03.12/outbox.cif.g09.slc.cpg/sg38_8_cif.got.tgz:15487.got - 2010.04.14 02:38:36.
