data_PCOD8179658
_publ_section_title
;
Structure prediction by ZEFSAII (Michael W. Deem and Ramdas Pophale) SiO2 
 PCOD8179658
Probable space group: A M M 2
;
_chemical_formula_sum "Si O2"
_cell_formula_units_Z 64
_cell_length_a 8.461935
_cell_length_b 24.033811
_cell_length_c 15.435979
_cell_angle_alpha 90.000000
_cell_angle_beta 90.000000
_cell_angle_gamma 90.000000
_cell_volume 3139.254357
_symmetry_space_group_name_H-M "A M M 2"
_symmetry_group_IT_number 38
_symmetry_cell_setting 'orthorhombic'
loop_
_space_group_symop_operation_xyz
x,y,z
-x,-y,z
-x,y,z
x,-y,z
x,1/2+y,1/2+z
-x,1/2-y,1/2+z
-x,1/2+y,1/2+z
x,1/2-y,1/2+z
loop_
_atom_site_type_symbol
_atom_site_label
_atom_site_fract_x
_atom_site_fract_y
_atom_site_fract_z
Si Si1 0.814948 0.635227 0.943300
Si Si2 0.188106 0.937798 0.287502
Si Si3 0.816371 0.254097 0.386239
Si Si4 0.184422 0.860551 0.635842
Si Si5 0.318259 0.249737 0.200808
Si Si6 0.184099 0.639792 0.631626
Si Si7 0.184679 0.935945 0.795739
Si Si8 0.682023 0.132508 0.951638
O O1 0.741493 0.592667 0.873137
O O2 0.749824 0.697749 0.929697
O O3 0.000000 0.638091 0.924806
O O4 0.777337 0.614500 0.040572
O O5 0.244189 0.904529 0.202520
O O6 0.000000 0.940607 0.291266
O O7 0.259026 0.000000 0.283766
O O8 0.795628 0.249310 0.283479
O O9 0.716417 0.304778 0.423066
O O10 0.000000 0.264853 0.407424
O O11 0.286037 0.805051 0.646102
O O12 0.234976 0.905985 0.706674
O O13 0.000000 0.845263 0.643621
O O14 0.500000 0.248358 0.230307
O O15 0.279838 0.197044 0.140984
O O16 0.217495 0.615570 0.536239
O O17 0.000000 0.652193 0.643900
O O18 0.278388 0.909855 0.875095
O O19 0.000000 0.927915 0.813651
O O20 0.232206 0.000000 0.786344
O O21 0.500000 0.126705 0.975501
#
# Coordination Sequence:
#
# PCOD8179658 Si02
#       8
#     8   8   8   8   8   8   8   8
#     4   9  18  33  57  90 119 150 191 236 292 349
#     4   9  18  34  58  88 118 149 194 250 296 339
#     4  11  20  36  61  88 121 160 197 239 296 366
#     4  10  20  36  61  89 121 158 197 245 297 358
#     4  12  23  36  58  89 123 158 197 247 302 359
#     4  11  22  39  62  88 120 160 201 245 298 365
#     4  10  22  40  61  86 118 161 211 255 297 354
#     4  12  25  40  60  90 122 156 198 251 312 366
#
# _framework density 20.387008000000002
#
# number of rings (size 3 to 8) (size 9 to 14) (size 15 to 20)
#    0.000    1.500    2.500    3.750    0.000    2.250 
#    0.000    4.375    0.000    1.125    0.000    0.000 
#    0.000    0.000    0.000    0.000    0.000    0.000 
#
# Total GULP energy -396916.255262 kJ/mol
# GULP energy per Si atom -12403.632977 kJ/mol
# Density = 2.034061 g / cm^3
# Si number density = 20.387008 Si / 1000 Ang^3
#
#
#
# Elastic Constant Matrix: (Units=GPa)
#
#
# Indices 1 2 3 4 5 6 
#
# 1 48.8182 28.5703 17.6298 0.0000 0.0000 0.0000
# 2 28.5703 153.9567 64.1474 0.0000 0.0000 0.0000
# 3 17.6298 64.1474 154.4384 0.0000 0.0000 0.0000
# 4 0.0000 0.0000 0.0000 10.7982 0.0000 0.0000
# 5 0.0000 0.0000 0.0000 0.0000 13.9411 0.0000
# 6 0.0000 0.0000 0.0000 0.0000 0.0000 7.2638
#
#
#
# Elastic Compliance Matrix: (Units=1/GPa)
#
#
# Indices 1 2 3 4 5 6 
#
# 1 0.023116 -0.003858 -0.001036 0.000000 0.000000 0.000000
# 2 -0.003858 0.008499 -0.003090 0.000000 0.000000 0.000000
# 3 -0.001036 -0.003090 0.007877 0.000000 0.000000 0.000000
# 4 0.000000 0.000000 0.000000 0.092608 0.000000 0.000000
# 5 0.000000 0.000000 0.000000 0.000000 0.071730 0.000000
# 6 0.000000 0.000000 0.000000 0.000000 0.000000 0.137669
#
#
# Mechanical properties :
#
#
# Convention : Reuss Voigt Hill
#
# Bulk Modulus (GPa) = 42.51034 64.21203 53.36118
# Shear Modulus (GPa) = 13.68712 22.85836 18.27274
#
# Velocity S-wave (km/s) = 2.59388 3.35210 2.99706
# Velocity P-wave (km/s) = 5.46515 6.82254 6.18122
#
# Compressibility (1/GPa) = 0.02352369
#
# Stress axis : x y z
#
# Youngs Moduli (GPa) = 43.25965 117.66711 126.95741
#
# Poissons Ratio (x) = 0.45395 0.13158
# Poissons Ratio (y) = 0.16689 0.39224
# Poissons Ratio (z) = 0.04483 0.36354
#
# Static dielectric constant tensor:
#      x y z
#    x 3.314680 0.000000 0.000000 
#    y 0.000000 3.789940 0.000000 
#    z 0.000000 0.000000 3.833780 
# 
# 
# High freq. dielectric constant tensor:
#      x y z
#    x 1.766070 0.000000 0.000000 
#    y 0.000000 1.792850 0.000000 
#    z 0.000000 0.000000 1.811850 
# 
# From -- ./inp_files/12817.got.cif
#   From: 2010.03.12/outbox.cif.g09.slc.cpg/sg38_7_cif.got.tgz:12817.got - 2010.04.14 02:38:36.
