data_PCOD8179917
_publ_section_title
;
Structure prediction by ZEFSAII (Michael W. Deem and Ramdas Pophale) SiO2 
 PCOD8179917
Probable space group: A M M 2
;
_chemical_formula_sum "Si O2"
_cell_formula_units_Z 56
_cell_length_a 23.605623
_cell_length_b 8.984321
_cell_length_c 14.434897
_cell_angle_alpha 90.000000
_cell_angle_beta 90.000000
_cell_angle_gamma 90.000000
_cell_volume 3061.360093
_symmetry_space_group_name_H-M "A M M 2"
_symmetry_group_IT_number 38
_symmetry_cell_setting 'orthorhombic'
loop_
_space_group_symop_operation_xyz
x,y,z
-x,-y,z
-x,y,z
x,-y,z
x,1/2+y,1/2+z
-x,1/2-y,1/2+z
-x,1/2+y,1/2+z
x,1/2-y,1/2+z
loop_
_atom_site_type_symbol
_atom_site_label
_atom_site_fract_x
_atom_site_fract_y
_atom_site_fract_z
Si Si1 0.065215 0.170848 0.240290
Si Si2 0.734902 0.674817 0.594114
Si Si3 0.655656 0.824456 0.453993
Si Si4 0.435888 0.174541 0.603362
Si Si5 0.641905 0.674424 0.743655
Si Si6 0.854498 0.324763 0.104533
Si Si7 0.061646 0.325898 0.952544
O O1 0.105664 0.287562 0.190703
O O2 0.076099 0.206100 0.347054
O O3 0.000000 0.200722 0.213405
O O4 0.081409 0.000000 0.217071
O O5 0.738172 0.500000 0.578348
O O6 0.709795 0.747114 0.500835
O O7 0.697311 0.715612 0.683927
O O8 0.796273 0.738522 0.614304
O O9 0.599727 0.779463 0.512199
O O10 0.649189 0.765956 0.348674
O O11 0.666479 0.000000 0.455389
O O12 0.500000 0.228298 0.586640
O O13 0.412472 0.250574 0.696357
O O14 0.432325 0.000000 0.619987
O O15 0.630392 0.500000 0.745009
O O16 0.842295 0.500000 0.099952
O O17 0.887728 0.260972 0.014703
O O18 0.057407 0.500000 0.971884
O O19 0.000000 0.254952 0.978077
#
# Coordination Sequence:
#
# PCOD8179917 Si02
#       7
#     8   8   8   8   8   8   8
#     4   9  18  34  54  74  98 129 163 201 249 302
#     4  10  21  36  51  72 102 132 168 212 256 300
#     4   9  18  35  56  75  98 132 173 210 248 293
#     4   9  18  32  51  78 109 134 160 202 251 295
#     4   9  19  35  55  75  98 135 175 209 247 297
#     4  11  21  33  52  76 101 131 168 208 251 299
#     4   8  16  32  52  72  96 128 163 198 242 300
#
# _framework density 18.292522000000002
#
# number of rings (size 3 to 8) (size 9 to 14) (size 15 to 20)
#    0.000    2.714    0.000    2.143    0.000    4.000 
#    0.000    8.571    0.000    1.714    0.000    0.000 
#    0.000    0.000    0.000    0.000    0.000    0.000 
#
# Total GULP energy -347161.934659 kJ/mol
# GULP energy per Si atom -12398.640524 kJ/mol
# Density = 1.825089 g / cm^3
# Si number density = 18.292522 Si / 1000 Ang^3
#
#
#
# Elastic Constant Matrix: (Units=GPa)
#
#
# Indices 1 2 3 4 5 6 
#
# 1 118.5786 30.1226 55.8554 0.0000 0.0000 0.0000
# 2 30.1226 32.4427 30.2252 0.0000 0.0000 0.0000
# 3 55.8554 30.2252 127.8540 0.0000 0.0000 0.0000
# 4 0.0000 0.0000 0.0000 28.4328 0.0000 0.0000
# 5 0.0000 0.0000 0.0000 0.0000 22.6332 0.0000
# 6 0.0000 0.0000 0.0000 0.0000 0.0000 29.6826
#
#
#
# Elastic Compliance Matrix: (Units=1/GPa)
#
#
# Indices 1 2 3 4 5 6 
#
# 1 0.012068 -0.008071 -0.003364 0.000000 0.000000 0.000000
# 2 -0.008071 0.044927 -0.007095 0.000000 0.000000 0.000000
# 3 -0.003364 -0.007095 0.010968 0.000000 0.000000 0.000000
# 4 0.000000 0.000000 0.000000 0.035171 0.000000 0.000000
# 5 0.000000 0.000000 0.000000 0.000000 0.044183 0.000000
# 6 0.000000 0.000000 0.000000 0.000000 0.000000 0.033690
#
#
# Mechanical properties :
#
#
# Convention : Reuss Voigt Hill
#
# Bulk Modulus (GPa) = 32.35863 56.80908 44.58386
# Shear Modulus (GPa) = 21.89441 26.99454 24.44447
#
# Velocity S-wave (km/s) = 3.46338 3.84567 3.65952
# Velocity P-wave (km/s) = 5.80701 7.13037 6.50244
#
# Compressibility (1/GPa) = 0.03090365
#
# Stress axis : x y z
#
# Youngs Moduli (GPa) = 82.86273 22.25813 91.17051
#
# Poissons Ratio (x) = 0.17964 0.30672
# Poissons Ratio (y) = 0.66877 0.64687
# Poissons Ratio (z) = 0.27877 0.15792
#
# Static dielectric constant tensor:
#      x y z
#    x 3.362170 0.000000 0.000000 
#    y 0.000000 3.185730 0.000000 
#    z 0.000000 0.000000 3.506010 
# 
# 
# High freq. dielectric constant tensor:
#      x y z
#    x 1.711900 0.000000 0.000000 
#    y 0.000000 1.692700 0.000000 
#    z 0.000000 0.000000 1.713640 
# 
# From -- ./inp_files/15463.got.cif
#   From: 2010.03.12/outbox.cif.g09.slc.cpg/sg38_8_cif.got.tgz:15463.got - 2010.04.14 02:38:36.
