data_PCOD8179576
_publ_section_title
;
Structure prediction by ZEFSAII (Michael W. Deem and Ramdas Pophale) SiO2 
 PCOD8179576
Probable space group: A M M 2
;
_chemical_formula_sum "Si O2"
_cell_formula_units_Z 64
_cell_length_a 8.535436
_cell_length_b 15.451051
_cell_length_c 24.090687
_cell_angle_alpha 90.000000
_cell_angle_beta 90.000000
_cell_angle_gamma 90.000000
_cell_volume 3177.114900
_symmetry_space_group_name_H-M "A M M 2"
_symmetry_group_IT_number 38
_symmetry_cell_setting 'orthorhombic'
loop_
_space_group_symop_operation_xyz
x,y,z
-x,-y,z
-x,y,z
x,-y,z
x,1/2+y,1/2+z
-x,1/2-y,1/2+z
-x,1/2+y,1/2+z
x,1/2-y,1/2+z
loop_
_atom_site_type_symbol
_atom_site_label
_atom_site_fract_x
_atom_site_fract_y
_atom_site_fract_z
Si Si1 0.182806 0.347251 0.708030
Si Si2 0.813469 0.748733 0.013740
Si Si3 0.181033 0.402272 0.093777
Si Si4 0.681067 0.661413 0.204886
Si Si5 0.818260 0.403574 0.313442
Si Si6 0.183760 0.249931 0.890113
Si Si7 0.813862 0.095898 0.088141
Si Si8 0.320148 0.402049 0.820837
O O1 0.210233 0.245175 0.709907
O O2 0.247792 0.384089 0.649927
O O3 0.275288 0.395138 0.756535
O O4 0.000000 0.366696 0.715822
O O5 0.758131 0.662602 0.046058
O O6 0.745976 0.833420 0.045279
O O7 0.000000 0.751863 0.011604
O O8 0.741506 0.747252 0.951757
O O9 0.203359 0.500000 0.071743
O O10 0.282624 0.390119 0.148843
O O11 0.000000 0.382881 0.108307
O O12 0.500000 0.688583 0.206058
O O13 0.720603 0.600301 0.256704
O O14 0.797356 0.500000 0.338671
O O15 0.749736 0.333166 0.356830
O O16 0.000000 0.384285 0.300374
O O17 0.217745 0.338542 0.858244
O O18 0.000000 0.238961 0.896073
O O19 0.000000 0.102123 0.088690
O O20 0.757813 0.000000 0.070005
O O21 0.500000 0.375497 0.828046
O O22 0.289645 0.500000 0.840980
#
# Coordination Sequence:
#
# PCOD8179576 Si02
#       8
#     8   8   8   8   8   8   8   8
#     4  11  20  35  60  87 116 149 187 231 282 340
#     4   9  18  34  55  83 114 145 189 238 282 327
#     4  10  20  36  58  82 112 150 188 233 285 335
#     4  12  23  35  56  85 116 150 187 231 288 347
#     4  10  21  37  57  84 117 152 190 234 286 341
#     4  10  21  37  60  85 112 152 197 241 283 333
#     4   9  17  30  54  87 117 142 174 224 282 335
#     4  11  24  40  58  84 119 155 188 232 290 344
#
# _framework density 20.144064
#
# number of rings (size 3 to 8) (size 9 to 14) (size 15 to 20)
#    0.000    1.750    2.500    2.625    0.000    4.500 
#    0.000    4.375    0.000    0.000    0.000    0.000 
#    0.000    0.000    0.000    0.000    0.000    0.000 
#
# Total GULP energy -396862.557970 kJ/mol
# GULP energy per Si atom -12401.954937 kJ/mol
# Density = 2.009821 g / cm^3
# Si number density = 20.144064 Si / 1000 Ang^3
#
#
#
# Elastic Constant Matrix: (Units=GPa)
#
#
# Indices 1 2 3 4 5 6 
#
# 1 21.3420 15.0351 15.3231 0.0000 0.0000 0.0000
# 2 15.0351 147.3636 68.4977 0.0000 0.0000 0.0000
# 3 15.3231 68.4977 161.8912 0.0000 0.0000 0.0000
# 4 0.0000 0.0000 0.0000 16.0626 0.0000 0.0000
# 5 0.0000 0.0000 0.0000 0.0000 2.9121 0.0000
# 6 0.0000 0.0000 0.0000 0.0000 0.0000 15.1838
#
#
#
# Elastic Compliance Matrix: (Units=1/GPa)
#
#
# Indices 1 2 3 4 5 6 
#
# 1 0.051884 -0.003748 -0.003325 0.000000 0.000000 0.000000
# 2 -0.003748 0.008718 -0.003334 0.000000 0.000000 0.000000
# 3 -0.003325 -0.003334 0.007902 0.000000 0.000000 0.000000
# 4 0.000000 0.000000 0.000000 0.062257 0.000000 0.000000
# 5 0.000000 0.000000 0.000000 0.000000 0.343389 0.000000
# 6 0.000000 0.000000 0.000000 0.000000 0.000000 0.065860
#
#
# Mechanical properties :
#
#
# Convention : Reuss Voigt Hill
#
# Bulk Modulus (GPa) = 20.96870 58.70095 39.83482
# Shear Modulus (GPa) = 8.66972 22.28109 15.47540
#
# Velocity S-wave (km/s) = 2.07682 3.32940 2.77471
# Velocity P-wave (km/s) = 4.02280 6.63202 5.48482
#
# Compressibility (1/GPa) = 0.04769014
#
# Stress axis : x y z
#
# Youngs Moduli (GPa) = 19.27388 114.70499 126.54524
#
# Poissons Ratio (x) = 0.42992 0.42076
# Poissons Ratio (y) = 0.07224 0.42189
# Poissons Ratio (z) = 0.06409 0.38242
#
# Static dielectric constant tensor:
#      x y z
#    x 3.246480 0.000000 0.000000 
#    y 0.000000 3.779100 0.000000 
#    z 0.000000 0.000000 3.829840 
# 
# 
# High freq. dielectric constant tensor:
#      x y z
#    x 1.748930 0.000000 0.000000 
#    y 0.000000 1.800740 0.000000 
#    z 0.000000 0.000000 1.782960 
# 
# From -- ./inp_files/22138.got.cif
#   From: 2010.03.12/outbox.cif.g09.slc.cpg/sg38_12_cif.got.tgz:22138.got - 2010.04.14 02:38:36.
