data_PCOD8179394
_publ_section_title
;
Structure prediction by ZEFSAII (Michael W. Deem and Ramdas Pophale) SiO2 
 PCOD8179394
Probable space group: A M M 2
;
_chemical_formula_sum "Si O2"
_cell_formula_units_Z 64
_cell_length_a 9.270344
_cell_length_b 24.461673
_cell_length_c 15.112583
_cell_angle_alpha 90.000000
_cell_angle_beta 90.000000
_cell_angle_gamma 90.000000
_cell_volume 3427.052089
_symmetry_space_group_name_H-M "A M M 2"
_symmetry_group_IT_number 38
_symmetry_cell_setting 'orthorhombic'
loop_
_space_group_symop_operation_xyz
x,y,z
-x,-y,z
-x,y,z
x,-y,z
x,1/2+y,1/2+z
-x,1/2-y,1/2+z
-x,1/2+y,1/2+z
x,1/2-y,1/2+z
loop_
_atom_site_type_symbol
_atom_site_label
_atom_site_fract_x
_atom_site_fract_y
_atom_site_fract_z
Si Si1 0.835738 0.761465 0.913000
Si Si2 0.170189 0.360097 0.880377
Si Si3 0.335347 0.220334 0.744468
Si Si4 0.832827 0.359857 0.530399
Si Si5 0.335679 0.436735 0.009607
Si Si6 0.832610 0.062839 0.871025
Si Si7 0.329275 0.159578 0.201911
Si Si8 0.333618 0.898035 0.699408
O O1 0.792637 0.698158 0.926415
O O2 0.748471 0.789498 0.834809
O O3 0.000000 0.765711 0.882521
O O4 0.808513 0.796715 0.001146
O O5 0.253849 0.365849 0.787938
O O6 0.000000 0.367498 0.864223
O O7 0.226923 0.406583 0.944733
O O8 0.500000 0.226052 0.772862
O O9 0.288304 0.275946 0.694945
O O10 0.307664 0.167029 0.684375
O O11 0.778665 0.400603 0.453392
O O12 0.735762 0.370636 0.616467
O O13 0.000000 0.370835 0.553723
O O14 0.500000 0.414847 0.998307
O O15 0.327134 0.500000 0.985780
O O16 0.282613 0.427596 0.110041
O O17 0.753371 0.078376 0.781227
O O18 0.000000 0.074288 0.854241
O O19 0.801751 0.000000 0.895180
O O20 0.500000 0.149115 0.206492
O O21 0.500000 0.910729 0.719098
#
# Coordination Sequence:
#
# PCOD8179394 Si02
#       8
#     8   8   8   8   8   8   8   8
#     4   9  18  33  53  79 110 145 182 223 276 330
#     4  10  21  38  59  83 110 145 189 236 286 337
#     4   9  18  32  51  80 113 144 181 221 268 326
#     4  10  20  35  54  80 114 149 186 231 280 331
#     4  10  22  39  58  81 112 150 190 234 283 333
#     4  10  21  37  57  81 112 150 189 229 274 326
#     4  10  21  36  56  83 114 148 186 232 281 335
#     4  10  20  35  56  83 114 149 184 223 275 332
#
# _framework density 18.674941
#
# number of rings (size 3 to 8) (size 9 to 14) (size 15 to 20)
#    0.000    2.250    1.250    1.125    1.750    3.500 
#    0.000    0.625    0.000    2.250    0.000    0.000 
#    0.000    0.000    0.000    0.000    0.000    0.000 
#
# Total GULP energy -396798.804715 kJ/mol
# GULP energy per Si atom -12399.962647 kJ/mol
# Density = 1.863244 g / cm^3
# Si number density = 18.674941 Si / 1000 Ang^3
#
#
#
# Elastic Constant Matrix: (Units=GPa)
#
#
# Indices 1 2 3 4 5 6 
#
# 1 74.2582 36.7438 61.2918 0.0000 0.0000 0.0000
# 2 36.7438 84.0745 54.1347 0.0000 0.0000 0.0000
# 3 61.2918 54.1347 126.0245 0.0000 0.0000 0.0000
# 4 0.0000 0.0000 0.0000 27.1521 0.0000 0.0000
# 5 0.0000 0.0000 0.0000 0.0000 36.0100 0.0000
# 6 0.0000 0.0000 0.0000 0.0000 0.0000 23.8899
#
#
#
# Elastic Compliance Matrix: (Units=1/GPa)
#
#
# Indices 1 2 3 4 5 6 
#
# 1 0.023438 -0.004014 -0.009675 0.000000 0.000000 0.000000
# 2 -0.004014 0.017129 -0.005406 0.000000 0.000000 0.000000
# 3 -0.009675 -0.005406 0.014962 0.000000 0.000000 0.000000
# 4 0.000000 0.000000 0.000000 0.036830 0.000000 0.000000
# 5 0.000000 0.000000 0.000000 0.000000 0.027770 0.000000
# 6 0.000000 0.000000 0.000000 0.000000 0.000000 0.041859
#
#
# Mechanical properties :
#
#
# Convention : Reuss Voigt Hill
#
# Bulk Modulus (GPa) = 57.66803 65.41086 61.53944
# Shear Modulus (GPa) = 24.27684 26.22285 25.24984
#
# Velocity S-wave (km/s) = 3.60942 3.75130 3.68104
# Velocity P-wave (km/s) = 6.95108 7.33928 7.14781
#
# Compressibility (1/GPa) = 0.01734063
#
# Stress axis : x y z
#
# Youngs Moduli (GPa) = 42.66543 58.37998 66.83378
#
# Poissons Ratio (x) = 0.23432 0.64662
# Poissons Ratio (y) = 0.17125 0.36129
# Poissons Ratio (z) = 0.41279 0.31559
#
# Static dielectric constant tensor:
#      x y z
#    x 3.946510 0.000000 0.000000 
#    y 0.000000 3.526440 0.000000 
#    z 0.000000 0.000000 3.279150 
# 
# 
# High freq. dielectric constant tensor:
#      x y z
#    x 1.724350 0.000000 0.000000 
#    y 0.000000 1.722790 0.000000 
#    z 0.000000 0.000000 1.715490 
# 
# From -- ./inp_files/12773.got.cif
#   From: 2010.03.12/outbox.cif.g09.slc.cpg/sg38_7_cif.got.tgz:12773.got - 2010.04.14 02:38:36.
