data_PCOD8179347
_publ_section_title
;
Structure prediction by ZEFSAII (Michael W. Deem and Ramdas Pophale) SiO2 
 PCOD8179347
Probable space group: A M M 2
;
_chemical_formula_sum "Si O2"
_cell_formula_units_Z 40
_cell_length_a 7.820170
_cell_length_b 9.334845
_cell_length_c 28.682560
_cell_angle_alpha 90.000000
_cell_angle_beta 90.000000
_cell_angle_gamma 90.000000
_cell_volume 2093.829026
_symmetry_space_group_name_H-M "A M M 2"
_symmetry_group_IT_number 38
_symmetry_cell_setting 'orthorhombic'
loop_
_space_group_symop_operation_xyz
x,y,z
-x,-y,z
-x,y,z
x,-y,z
x,1/2+y,1/2+z
-x,1/2-y,1/2+z
-x,1/2+y,1/2+z
x,1/2-y,1/2+z
loop_
_atom_site_type_symbol
_atom_site_label
_atom_site_fract_x
_atom_site_fract_y
_atom_site_fract_z
Si Si1 0.810818 0.829774 0.739980
Si Si2 0.199887 0.338053 0.344404
Si Si3 0.500000 0.331448 0.580243
Si Si4 0.809566 0.663488 0.514855
Si Si5 0.305622 0.161543 0.430023
Si Si6 0.500000 0.329041 0.176956
O O1 0.763648 0.779476 0.792272
O O2 0.668365 0.773342 0.704153
O O3 0.000000 0.771641 0.725614
O O4 0.815512 0.000000 0.740222
O O5 0.269746 0.500000 0.350066
O O6 0.297105 0.235313 0.379777
O O7 0.000000 0.334235 0.355446
O O8 0.500000 0.500000 0.591502
O O9 0.330334 0.284627 0.552154
O O10 0.500000 0.241576 0.626944
O O11 0.770228 0.500000 0.500610
O O12 0.806116 0.755560 0.467935
O O13 0.000000 0.678803 0.536718
O O14 0.500000 0.163283 0.447452
O O15 0.235665 0.000000 0.425796
O O16 0.500000 0.500000 0.172020
#
# Coordination Sequence:
#
# PCOD8179347 Si02
#       6
#     8   8   4   8   8   4
#     4   8  16  32  53  80 110 138 178 226 262 305
#     4   9  18  33  54  79 107 143 187 226 261 311
#     4  10  22  40  57  80 111 137 170 227 279 320
#     4  10  21  39  62  82 103 140 186 224 266 322
#     4  11  23  35  50  79 117 149 179 219 269 323
#     4  10  20  34  57  82 105 139 178 219 271 324
#
# _framework density 19.103756000000001
#
# number of rings (size 3 to 8) (size 9 to 14) (size 15 to 20)
#    0.000    2.400    1.000    2.400    1.400    6.000 
#    0.000    1.000    0.000    1.200    0.000    0.000 
#    0.000    0.000    0.000    0.000    0.000    0.000 
#
# Total GULP energy -247990.185160 kJ/mol
# GULP energy per Si atom -12399.509258 kJ/mol
# Density = 1.906028 g / cm^3
# Si number density = 19.103756 Si / 1000 Ang^3
#
#
#
# Elastic Constant Matrix: (Units=GPa)
#
#
# Indices 1 2 3 4 5 6 
#
# 1 123.5976 34.5026 71.2989 0.0000 0.0000 0.0000
# 2 34.5026 69.8736 51.8364 0.0000 0.0000 0.0000
# 3 71.2989 51.8364 138.2105 0.0000 0.0000 0.0000
# 4 0.0000 0.0000 0.0000 33.0514 0.0000 0.0000
# 5 0.0000 0.0000 0.0000 0.0000 25.6769 0.0000
# 6 0.0000 0.0000 0.0000 0.0000 0.0000 15.1858
#
#
#
# Elastic Compliance Matrix: (Units=1/GPa)
#
#
# Indices 1 2 3 4 5 6 
#
# 1 0.011679 -0.001797 -0.005351 0.000000 0.000000 0.000000
# 2 -0.001797 0.020105 -0.006613 0.000000 0.000000 0.000000
# 3 -0.005351 -0.006613 0.012476 0.000000 0.000000 0.000000
# 4 0.000000 0.000000 0.000000 0.030256 0.000000 0.000000
# 5 0.000000 0.000000 0.000000 0.000000 0.038946 0.000000
# 6 0.000000 0.000000 0.000000 0.000000 0.000000 0.065851
#
#
# Mechanical properties :
#
#
# Convention : Reuss Voigt Hill
#
# Bulk Modulus (GPa) = 59.74672 71.88415 65.81544
# Shear Modulus (GPa) = 23.53881 26.38575 24.96228
#
# Velocity S-wave (km/s) = 3.51402 3.72046 3.61871
# Velocity P-wave (km/s) = 6.91427 7.49438 7.21016
#
# Compressibility (1/GPa) = 0.01673732
#
# Stress axis : x y z
#
# Youngs Moduli (GPa) = 85.62198 49.73828 80.15371
#
# Poissons Ratio (x) = 0.08940 0.42889
# Poissons Ratio (y) = 0.15390 0.53008
# Poissons Ratio (z) = 0.45815 0.32893
#
# Static dielectric constant tensor:
#      x y z
#    x 3.762040 0.000000 0.000000 
#    y 0.000000 3.252560 0.000000 
#    z 0.000000 0.000000 3.370010 
# 
# 
# High freq. dielectric constant tensor:
#      x y z
#    x 1.755670 0.000000 0.000000 
#    y 0.000000 1.712760 0.000000 
#    z 0.000000 0.000000 1.734730 
# 
# From -- ./inp_files/23186.got.cif
#   From: 2010.03.12/outbox.cif.g09.slc.cpg/sg38_12_cif.got.tgz:23186.got - 2010.04.14 02:38:36.
