data_PCOD8179221
_publ_section_title
;
Structure prediction by ZEFSAII (Michael W. Deem and Ramdas Pophale) SiO2 
 PCOD8179221
Probable space group: A M M 2
;
_chemical_formula_sum "Si O2"
_cell_formula_units_Z 48
_cell_length_a 8.844830
_cell_length_b 16.380207
_cell_length_c 18.442384
_cell_angle_alpha 90.000000
_cell_angle_beta 90.000000
_cell_angle_gamma 90.000000
_cell_volume 2671.935292
_symmetry_space_group_name_H-M "A M M 2"
_symmetry_group_IT_number 38
_symmetry_cell_setting 'orthorhombic'
loop_
_space_group_symop_operation_xyz
x,y,z
-x,-y,z
-x,y,z
x,-y,z
x,1/2+y,1/2+z
-x,1/2-y,1/2+z
-x,1/2+y,1/2+z
x,1/2-y,1/2+z
loop_
_atom_site_type_symbol
_atom_site_label
_atom_site_fract_x
_atom_site_fract_y
_atom_site_fract_z
Si Si1 0.177169 0.500000 0.764480
Si Si2 0.176487 0.093120 0.744387
Si Si3 0.173816 0.200244 0.880122
Si Si4 0.323882 0.733363 0.159907
Si Si5 0.321246 0.000000 0.108122
Si Si6 0.176426 0.340414 0.544526
Si Si7 0.674853 0.660502 0.800270
O O1 0.265938 0.500000 0.689749
O O2 0.224985 0.420367 0.809657
O O3 0.000000 0.500000 0.749730
O O4 0.211959 0.126855 0.824792
O O5 0.265387 0.144567 0.683859
O O6 0.000000 0.099649 0.726683
O O7 0.233371 0.000000 0.740943
O O8 0.278518 0.277772 0.863685
O O9 0.000000 0.227233 0.871908
O O10 0.211217 0.170772 0.960234
O O11 0.500000 0.727303 0.142178
O O12 0.235649 0.761700 0.088216
O O13 0.290176 0.799209 0.222493
O O14 0.264690 0.920554 0.067296
O O15 0.500000 0.000000 0.109166
O O16 0.000000 0.352334 0.560278
O O17 0.500000 0.637803 0.808400
#
# Coordination Sequence:
#
# PCOD8179221 Si02
#       7
#     4   8   8   8   4   8   8
#     4  12  22  34  58  84 110 143 184 229 272 324
#     4   9  18  34  57  81 107 139 180 228 271 320
#     4   9  20  36  56  81 111 144 182 222 270 329
#     4  10  20  34  54  78 110 145 181 226 272 327
#     4  12  24  36  52  82 118 147 180 225 276 330
#     4  11  22  36  57  82 112 148 184 224 271 329
#     4  10  20  35  55  80 112 146 182 225 273 324
#
# _framework density 17.964507000000001
#
# number of rings (size 3 to 8) (size 9 to 14) (size 15 to 20)
#    0.000    1.833    1.667    3.000    1.167    3.000 
#    0.000    0.000    1.833    0.000    0.000    0.000 
#    0.000    0.000    0.000    0.000    0.000    0.000 
#
# Total GULP energy -297707.719706 kJ/mol
# GULP energy per Si atom -12404.488321 kJ/mol
# Density = 1.792362 g / cm^3
# Si number density = 17.964507 Si / 1000 Ang^3
#
#
#
# Elastic Constant Matrix: (Units=GPa)
#
#
# Indices 1 2 3 4 5 6 
#
# 1 106.8466 61.6901 45.5986 0.0000 0.0000 0.0000
# 2 61.6901 140.6089 48.6894 0.0000 0.0000 0.0000
# 3 45.5986 48.6894 74.3939 0.0000 0.0000 0.0000
# 4 0.0000 0.0000 0.0000 51.9156 0.0000 0.0000
# 5 0.0000 0.0000 0.0000 0.0000 21.5685 0.0000
# 6 0.0000 0.0000 0.0000 0.0000 0.0000 27.0852
#
#
#
# Elastic Compliance Matrix: (Units=1/GPa)
#
#
# Indices 1 2 3 4 5 6 
#
# 1 0.014374 -0.004210 -0.006055 0.000000 0.000000 0.000000
# 2 -0.004210 0.010429 -0.004245 0.000000 0.000000 0.000000
# 3 -0.006055 -0.004245 0.019932 0.000000 0.000000 0.000000
# 4 0.000000 0.000000 0.000000 0.019262 0.000000 0.000000
# 5 0.000000 0.000000 0.000000 0.000000 0.046364 0.000000
# 6 0.000000 0.000000 0.000000 0.000000 0.000000 0.036921
#
#
# Mechanical properties :
#
#
# Convention : Reuss Voigt Hill
#
# Bulk Modulus (GPa) = 63.63545 70.42285 67.02915
# Shear Modulus (GPa) = 27.54227 31.17194 29.35711
#
# Velocity S-wave (km/s) = 3.91979 4.17009 4.04688
# Velocity P-wave (km/s) = 7.48239 7.90395 7.69605
#
# Compressibility (1/GPa) = 0.01571451
#
# Stress axis : x y z
#
# Youngs Moduli (GPa) = 69.57092 95.88793 50.17097
#
# Poissons Ratio (x) = 0.40365 0.30379
# Poissons Ratio (y) = 0.29286 0.21299
# Poissons Ratio (z) = 0.42126 0.40707
#
# Static dielectric constant tensor:
#      x y z
#    x 3.380660 0.000000 0.000000 
#    y 0.000000 3.305290 0.000000 
#    z 0.000000 0.000000 3.213310 
# 
# 
# High freq. dielectric constant tensor:
#      x y z
#    x 1.705750 0.000000 0.000000 
#    y 0.000000 1.699120 0.000000 
#    z 0.000000 0.000000 1.677340 
# 
# From -- ./inp_files/16664.got.cif
#   From: 2010.03.12/outbox.cif.g09.slc.cpg/sg38_9_cif.got.tgz:16664.got - 2010.04.14 02:38:36.
