data_PCOD8179513
_publ_section_title
;
Structure prediction by ZEFSAII (Michael W. Deem and Ramdas Pophale) SiO2 
 PCOD8179513
Probable space group: A M M 2
;
_chemical_formula_sum "Si O2"
_cell_formula_units_Z 48
_cell_length_a 13.868175
_cell_length_b 9.168242
_cell_length_c 19.810028
_cell_angle_alpha 90.000000
_cell_angle_beta 90.000000
_cell_angle_gamma 90.000000
_cell_volume 2518.781361
_symmetry_space_group_name_H-M "A M M 2"
_symmetry_group_IT_number 38
_symmetry_cell_setting 'orthorhombic'
loop_
_space_group_symop_operation_xyz
x,y,z
-x,-y,z
-x,y,z
x,-y,z
x,1/2+y,1/2+z
-x,1/2-y,1/2+z
-x,1/2+y,1/2+z
x,1/2-y,1/2+z
loop_
_atom_site_type_symbol
_atom_site_label
_atom_site_fract_x
_atom_site_fract_y
_atom_site_fract_z
Si Si1 0.688154 0.669738 0.664130
Si Si2 0.500000 0.325766 0.196462
Si Si3 0.690727 0.665561 0.916899
Si Si4 0.796367 0.329738 0.529669
Si Si5 0.817506 0.665183 0.788675
Si Si6 0.500000 0.173072 0.340613
Si Si7 0.000000 0.671828 0.323235
Si Si8 0.000000 0.173464 0.977304
O O1 0.657657 0.500000 0.662424
O O2 0.593513 0.768963 0.655780
O O3 0.765624 0.705977 0.605953
O O4 0.736813 0.711745 0.735021
O O5 0.500000 0.500000 0.198980
O O6 0.500000 0.259751 0.271111
O O7 0.678436 0.500000 0.941191
O O8 0.775809 0.681029 0.863223
O O9 0.591987 0.721523 0.883898
O O10 0.716025 0.761213 0.981373
O O11 0.796141 0.500000 0.514424
O O12 0.904066 0.266728 0.515335
O O13 0.851218 0.500000 0.774016
O O14 0.907972 0.771245 0.782405
O O15 0.500000 0.000000 0.324097
O O16 0.000000 0.500000 0.321731
O O17 0.000000 0.730973 0.400227
O O18 0.000000 0.000000 0.978566
#
# Coordination Sequence:
#
# PCOD8179513 Si02
#       8
#     8   4   8   8   8   4   4   4
#     4  10  22  41  63  85 117 158 197 241 291 353
#     4  12  24  37  60  89 119 153 191 245 300 352
#     4  10  20  35  59  86 115 150 189 241 291 340
#     4  10  21  38  61  86 116 153 194 239 288 349
#     4  10  20  36  59  86 113 150 199 241 282 347
#     4  10  20  39  62  85 115 155 201 239 286 348
#     4  11  21  34  57  87 123 154 186 247 301 342
#     4   9  18  34  55  83 113 146 188 235 291 340
#
# _framework density 19.056836000000001
#
# number of rings (size 3 to 8) (size 9 to 14) (size 15 to 20)
#    0.000    1.833    3.333    1.000    0.000    3.333 
#    0.000    4.583    0.000    0.000    0.000    0.000 
#    0.000    0.000    0.000    0.000    0.000    0.000 
#
# Total GULP energy -297660.875955 kJ/mol
# GULP energy per Si atom -12402.536498 kJ/mol
# Density = 1.901346 g / cm^3
# Si number density = 19.056836 Si / 1000 Ang^3
#
#
#
# Elastic Constant Matrix: (Units=GPa)
#
#
# Indices 1 2 3 4 5 6 
#
# 1 123.1825 47.4469 21.9868 0.0000 0.0000 0.0000
# 2 47.4469 64.5507 30.4743 0.0000 0.0000 0.0000
# 3 21.9868 30.4743 70.2624 0.0000 0.0000 0.0000
# 4 0.0000 0.0000 0.0000 28.0017 0.0000 0.0000
# 5 0.0000 0.0000 0.0000 0.0000 29.8597 0.0000
# 6 0.0000 0.0000 0.0000 0.0000 0.0000 25.3960
#
#
#
# Elastic Compliance Matrix: (Units=1/GPa)
#
#
# Indices 1 2 3 4 5 6 
#
# 1 0.011324 -0.008363 0.000084 0.000000 0.000000 0.000000
# 2 -0.008363 0.025657 -0.008511 0.000000 0.000000 0.000000
# 3 0.000084 -0.008511 0.017898 0.000000 0.000000 0.000000
# 4 0.000000 0.000000 0.000000 0.035712 0.000000 0.000000
# 5 0.000000 0.000000 0.000000 0.000000 0.033490 0.000000
# 6 0.000000 0.000000 0.000000 0.000000 0.000000 0.039376
#
#
# Mechanical properties :
#
#
# Convention : Reuss Voigt Hill
#
# Bulk Modulus (GPa) = 46.95306 50.86793 48.91050
# Shear Modulus (GPa) = 24.49325 27.19065 25.84195
#
# Velocity S-wave (km/s) = 3.58896 3.78142 3.68645
# Velocity P-wave (km/s) = 6.47040 6.76877 6.62127
#
# Compressibility (1/GPa) = 0.02129787
#
# Stress axis : x y z
#
# Youngs Moduli (GPa) = 88.30434 38.97566 55.87358
#
# Poissons Ratio (x) = 0.32597 -0.00467
# Poissons Ratio (y) = 0.73852 0.47553
# Poissons Ratio (z) = -0.00739 0.33172
#
# Static dielectric constant tensor:
#      x y z
#    x 3.677440 0.000000 0.000000 
#    y 0.000000 3.286030 0.000000 
#    z 0.000000 0.000000 3.417130 
# 
# 
# High freq. dielectric constant tensor:
#      x y z
#    x 1.754340 0.000000 0.000000 
#    y 0.000000 1.719930 0.000000 
#    z 0.000000 0.000000 1.734540 
# 
# From -- ./inp_files/18245.got.cif
#   From: 2010.03.12/outbox.cif.g09.slc.cpg/sg38_10_cif.got.tgz:18245.got - 2010.04.14 02:38:36.
