data_PCOD8179953
_publ_section_title
;
Structure prediction by ZEFSAII (Michael W. Deem and Ramdas Pophale) SiO2 
 PCOD8179953
Probable space group: A M M 2
;
_chemical_formula_sum "Si O2"
_cell_formula_units_Z 48
_cell_length_a 9.260306
_cell_length_b 9.239448
_cell_length_c 30.804783
_cell_angle_alpha 90.000000
_cell_angle_beta 90.000000
_cell_angle_gamma 90.000000
_cell_volume 2635.660799
_symmetry_space_group_name_H-M "A M M 2"
_symmetry_group_IT_number 38
_symmetry_cell_setting 'orthorhombic'
loop_
_space_group_symop_operation_xyz
x,y,z
-x,-y,z
-x,y,z
x,-y,z
x,1/2+y,1/2+z
-x,1/2-y,1/2+z
-x,1/2+y,1/2+z
x,1/2-y,1/2+z
loop_
_atom_site_type_symbol
_atom_site_label
_atom_site_fract_x
_atom_site_fract_y
_atom_site_fract_z
Si Si1 0.667569 0.667136 0.452400
Si Si2 0.334015 0.831696 0.704967
Si Si3 0.333482 0.830034 0.365559
Si Si4 0.830300 0.332803 0.290868
Si Si5 0.163001 0.327777 0.536191
Si Si6 0.333261 0.669391 0.619475
O O1 0.500000 0.686878 0.463694
O O2 0.704679 0.500000 0.442696
O O3 0.714064 0.759809 0.410912
O O4 0.756884 0.728643 0.493149
O O5 0.500000 0.792664 0.715253
O O6 0.238809 0.781601 0.745635
O O7 0.277491 0.746572 0.662945
O O8 0.313844 0.000000 0.695232
O O9 0.500000 0.792691 0.355235
O O10 0.233821 0.765123 0.328501
O O11 0.306977 0.000000 0.368544
O O12 0.791517 0.500000 0.300246
O O13 0.000000 0.307354 0.288205
O O14 0.168516 0.500000 0.536650
O O15 0.243176 0.268234 0.578930
O O16 0.000000 0.268876 0.536034
O O17 0.500000 0.705876 0.610565
O O18 0.307580 0.500000 0.625712
#
# Coordination Sequence:
#
# PCOD8179953 Si02
#       6
#     8   8   8   8   8   8
#     4   9  17  31  52  74  96 127 167 207 246 291
#     4   9  18  33  52  73  98 129 165 205 248 294
#     4  10  21  36  54  77 104 133 167 209 256 304
#     4  10  21  36  54  76 102 134 171 209 251 302
#     4   9  17  29  47  72  99 127 162 203 244 289
#     4   9  17  30  49  72  97 126 162 203 245 290
#
# _framework density 18.211751
#
# number of rings (size 3 to 8) (size 9 to 14) (size 15 to 20)
#    0.000    2.667    0.000    1.500    0.000    6.000 
#    0.000    4.167    0.000    5.000    0.000    0.000 
#    0.000    0.000    0.000    0.000    0.000    0.000 
#
# Total GULP energy -297661.389588 kJ/mol
# GULP energy per Si atom -12402.557900 kJ/mol
# Density = 1.817030 g / cm^3
# Si number density = 18.211751 Si / 1000 Ang^3
#
#
#
# Elastic Constant Matrix: (Units=GPa)
#
#
# Indices 1 2 3 4 5 6 
#
# 1 96.7974 40.6621 91.5887 0.0000 0.0000 0.0000
# 2 40.6621 53.2478 63.8302 0.0000 0.0000 0.0000
# 3 91.5887 63.8302 189.1282 0.0000 0.0000 0.0000
# 4 0.0000 0.0000 0.0000 31.2514 0.0000 0.0000
# 5 0.0000 0.0000 0.0000 0.0000 9.2512 0.0000
# 6 0.0000 0.0000 0.0000 0.0000 0.0000 18.7960
#
#
#
# Elastic Compliance Matrix: (Units=1/GPa)
#
#
# Indices 1 2 3 4 5 6 
#
# 1 0.020225 -0.006220 -0.007695 0.000000 0.000000 0.000000
# 2 -0.006220 0.033454 -0.008278 0.000000 0.000000 0.000000
# 3 -0.007695 -0.008278 0.011808 0.000000 0.000000 0.000000
# 4 0.000000 0.000000 0.000000 0.031999 0.000000 0.000000
# 5 0.000000 0.000000 0.000000 0.000000 0.108094 0.000000
# 6 0.000000 0.000000 0.000000 0.000000 0.000000 0.053203
#
#
# Mechanical properties :
#
#
# Convention : Reuss Voigt Hill
#
# Bulk Modulus (GPa) = 47.39496 81.25948 64.32722
# Shear Modulus (GPa) = 16.11861 21.39922 18.75892
#
# Velocity S-wave (km/s) = 2.97823 3.43158 3.21291
# Velocity P-wave (km/s) = 6.15690 7.77284 7.01158
#
# Compressibility (1/GPa) = 0.02109929
#
# Stress axis : x y z
#
# Youngs Moduli (GPa) = 49.44491 29.89219 84.69083
#
# Poissons Ratio (x) = 0.18593 0.65168
# Poissons Ratio (y) = 0.30756 0.70109
# Poissons Ratio (z) = 0.38047 0.24746
#
# Static dielectric constant tensor:
#      x y z
#    x 3.371500 0.000000 0.000000 
#    y 0.000000 3.133420 0.000000 
#    z 0.000000 0.000000 3.534970 
# 
# 
# High freq. dielectric constant tensor:
#      x y z
#    x 1.702800 0.000000 0.000000 
#    y 0.000000 1.680510 0.000000 
#    z 0.000000 0.000000 1.718960 
# 
# From -- ./inp_files/23349.got.cif
#   From: 2010.03.12/outbox.cif.g09.slc.cpg/sg38_12_cif.got.tgz:23349.got - 2010.04.14 02:38:36.
