data_PCOD8179123
_publ_section_title
;
Structure prediction by ZEFSAII (Michael W. Deem and Ramdas Pophale) SiO2 
 PCOD8179123
Probable space group: A M M 2
;
_chemical_formula_sum "Si O2"
_cell_formula_units_Z 56
_cell_length_a 15.780004
_cell_length_b 9.159802
_cell_length_c 20.292138
_cell_angle_alpha 90.000000
_cell_angle_beta 90.000000
_cell_angle_gamma 90.000000
_cell_volume 2933.060371
_symmetry_space_group_name_H-M "A M M 2"
_symmetry_group_IT_number 38
_symmetry_cell_setting 'orthorhombic'
loop_
_space_group_symop_operation_xyz
x,y,z
-x,-y,z
-x,y,z
x,-y,z
x,1/2+y,1/2+z
-x,1/2-y,1/2+z
-x,1/2+y,1/2+z
x,1/2-y,1/2+z
loop_
_atom_site_type_symbol
_atom_site_label
_atom_site_fract_x
_atom_site_fract_y
_atom_site_fract_z
Si Si1 0.591116 0.834167 0.572890
Si Si2 0.804343 0.830804 0.663025
Si Si3 0.767613 0.668196 0.017849
Si Si4 0.230117 0.327910 0.388243
Si Si5 0.092710 0.170864 0.784726
Si Si6 0.406289 0.331495 0.327641
Si Si7 0.362109 0.826889 0.198663
O O1 0.500000 0.819874 0.536036
O O2 0.667895 0.792110 0.524879
O O3 0.587309 0.727567 0.635036
O O4 0.605931 0.000000 0.598048
O O5 0.817201 0.790489 0.585750
O O6 0.887312 0.800487 0.707159
O O7 0.733005 0.732304 0.696013
O O8 0.776112 0.000000 0.667939
O O9 0.781648 0.500000 0.000073
O O10 0.802160 0.762527 0.957429
O O11 0.223176 0.500000 0.393645
O O12 0.166433 0.265065 0.332047
O O13 0.327652 0.280013 0.373685
O O14 0.000000 0.240927 0.799660
O O15 0.088197 0.000000 0.798120
O O16 0.500000 0.313100 0.361641
O O17 0.391192 0.500000 0.307764
O O18 0.408412 0.233427 0.262840
O O19 0.362233 0.000000 0.200630
#
# Coordination Sequence:
#
# PCOD8179123 Si02
#       7
#     8   8   8   8   8   8   8
#     4   9  18  33  51  70  98 141 188 227 266 317
#     4   9  17  35  58  78 104 139 179 219 263 320
#     4   9  19  33  52  76 105 142 177 214 265 319
#     4  10  20  35  54  78 109 142 178 220 265 316
#     4   9  17  33  61  88 104 130 180 230 266 313
#     4  10  20  34  51  71 101 145 188 220 259 315
#     4  11  20  29  47  77 109 137 172 224 278 317
#
# _framework density 19.092686
#
# number of rings (size 3 to 8) (size 9 to 14) (size 15 to 20)
#    0.000    2.429    1.429    2.571    0.000    5.714 
#    0.000    0.714    0.000    2.571    0.000    0.000 
#    0.000    0.000    0.000    0.000    0.000    0.000 
#
# Total GULP energy -346964.625715 kJ/mol
# GULP energy per Si atom -12391.593776 kJ/mol
# Density = 1.904923 g / cm^3
# Si number density = 19.092686 Si / 1000 Ang^3
#
#
#
# Elastic Constant Matrix: (Units=GPa)
#
#
# Indices 1 2 3 4 5 6 
#
# 1 115.8373 18.4386 55.7204 0.0000 0.0000 0.0000
# 2 18.4386 53.0282 28.7564 0.0000 0.0000 0.0000
# 3 55.7204 28.7564 120.8821 0.0000 0.0000 0.0000
# 4 0.0000 0.0000 0.0000 27.1568 0.0000 0.0000
# 5 0.0000 0.0000 0.0000 0.0000 12.1454 0.0000
# 6 0.0000 0.0000 0.0000 0.0000 0.0000 9.0862
#
#
#
# Elastic Compliance Matrix: (Units=1/GPa)
#
#
# Indices 1 2 3 4 5 6 
#
# 1 0.011164 -0.001253 -0.004848 0.000000 0.000000 0.000000
# 2 -0.001253 0.021792 -0.004606 0.000000 0.000000 0.000000
# 3 -0.004848 -0.004606 0.011603 0.000000 0.000000 0.000000
# 4 0.000000 0.000000 0.000000 0.036823 0.000000 0.000000
# 5 0.000000 0.000000 0.000000 0.000000 0.082336 0.000000
# 6 0.000000 0.000000 0.000000 0.000000 0.000000 0.110056
#
#
# Mechanical properties :
#
#
# Convention : Reuss Voigt Hill
#
# Bulk Modulus (GPa) = 43.20774 55.06428 49.13601
# Shear Modulus (GPa) = 16.50690 22.13317 19.32003
#
# Velocity S-wave (km/s) = 2.94354 3.40847 3.18450
# Velocity P-wave (km/s) = 5.85083 6.66283 6.26999
#
# Compressibility (1/GPa) = 0.02314400
#
# Stress axis : x y z
#
# Youngs Moduli (GPa) = 89.57130 45.88938 86.18409
#
# Poissons Ratio (x) = 0.05750 0.41783
# Poissons Ratio (y) = 0.11223 0.39700
# Poissons Ratio (z) = 0.43425 0.21139
#
# Static dielectric constant tensor:
#      x y z
#    x 3.646400 0.000000 0.000000 
#    y 0.000000 3.178250 0.000000 
#    z 0.000000 0.000000 3.364090 
# 
# 
# High freq. dielectric constant tensor:
#      x y z
#    x 1.732560 0.000000 0.000000 
#    y 0.000000 1.713080 0.000000 
#    z 0.000000 0.000000 1.730470 
# 
# From -- ./inp_files/21294.got.cif
#   From: 2010.03.12/outbox.cif.g09.slc.cpg/sg38_11_cif.got.tgz:21294.got - 2010.04.14 02:38:36.
