data_PCOD8179961
_publ_section_title
;
Structure prediction by ZEFSAII (Michael W. Deem and Ramdas Pophale) SiO2 
 PCOD8179961
Probable space group: A M M 2
;
_chemical_formula_sum "Si O2"
_cell_formula_units_Z 64
_cell_length_a 9.561427
_cell_length_b 8.918113
_cell_length_c 40.694870
_cell_angle_alpha 90.000000
_cell_angle_beta 90.000000
_cell_angle_gamma 90.000000
_cell_volume 3470.046943
_symmetry_space_group_name_H-M "A M M 2"
_symmetry_group_IT_number 38
_symmetry_cell_setting 'orthorhombic'
loop_
_space_group_symop_operation_xyz
x,y,z
-x,-y,z
-x,y,z
x,-y,z
x,1/2+y,1/2+z
-x,1/2-y,1/2+z
-x,1/2+y,1/2+z
x,1/2-y,1/2+z
loop_
_atom_site_type_symbol
_atom_site_label
_atom_site_fract_x
_atom_site_fract_y
_atom_site_fract_z
Si Si1 0.163541 0.673011 0.458840
Si Si2 0.663364 0.826623 0.155165
Si Si3 0.838362 0.827302 0.525973
Si Si4 0.663047 0.825872 0.835408
Si Si5 0.839118 0.323997 0.778715
Si Si6 0.338348 0.827018 0.588102
Si Si7 0.839322 0.175612 0.711358
Si Si8 0.661250 0.674466 0.902912
O O1 0.205403 0.500000 0.454818
O O2 0.205838 0.726527 0.495138
O O3 0.246892 0.772612 0.433199
O O4 0.000000 0.699566 0.452631
O O5 0.500000 0.797236 0.161045
O O6 0.707867 0.771773 0.119097
O O7 0.747115 0.731378 0.181438
O O8 0.702806 0.000000 0.158788
O O9 0.749852 0.770896 0.557002
O O10 0.000000 0.805181 0.534910
O O11 0.804484 0.000000 0.517524
O O12 0.500000 0.795311 0.829358
O O13 0.747627 0.739446 0.807935
O O14 0.709705 0.764168 0.870741
O O15 0.700632 0.000000 0.833825
O O16 0.816816 0.500000 0.776507
O O17 0.786386 0.253667 0.744621
O O18 0.000000 0.280571 0.785258
O O19 0.500000 0.802451 0.579459
O O20 0.305776 0.000000 0.596318
O O21 0.000000 0.218068 0.704200
O O22 0.818338 0.000000 0.715783
O O23 0.500000 0.708204 0.911173
O O24 0.687448 0.500000 0.896356
#
# Coordination Sequence:
#
# PCOD8179961 Si02
#       8
#     8   8   8   8   8   8   8   8
#     4  10  21  36  54  78 108 141 177 217 262 313
#     4  10  21  36  54  78 108 141 177 217 262 313
#     4   9  18  33  52  74 102 136 174 216 260 308
#     4  10  21  37  57  81 109 141 177 217 262 312
#     4  10  21  37  57  81 109 141 177 217 262 312
#     4   9  18  33  52  74 102 136 174 216 260 308
#     4  10  21  37  57  80 106 138 177 220 265 313
#     4  10  21  37  57  80 106 138 177 220 265 313
#
# _framework density 18.443555
#
# number of rings (size 3 to 8) (size 9 to 14) (size 15 to 20)
#    0.000    2.250    0.000    2.250    0.000    7.000 
#    0.000    2.500    0.000    0.000    0.000    0.000 
#    0.000    0.000    0.000    0.000    0.000    0.000 
#
# Total GULP energy -396955.769840 kJ/mol
# GULP energy per Si atom -12404.867807 kJ/mol
# Density = 1.840158 g / cm^3
# Si number density = 18.443555 Si / 1000 Ang^3
#
#
#
# Elastic Constant Matrix: (Units=GPa)
#
#
# Indices 1 2 3 4 5 6 
#
# 1 53.7377 28.7893 56.4630 0.0000 0.0000 0.0000
# 2 28.7893 63.8704 34.9011 0.0000 0.0000 0.0000
# 3 56.4630 34.9011 120.0982 0.0000 0.0000 0.0000
# 4 0.0000 0.0000 0.0000 40.6931 0.0000 0.0000
# 5 0.0000 0.0000 0.0000 0.0000 39.3367 0.0000
# 6 0.0000 0.0000 0.0000 0.0000 0.0000 28.5627
#
#
#
# Elastic Compliance Matrix: (Units=1/GPa)
#
#
# Indices 1 2 3 4 5 6 
#
# 1 0.041086 -0.009468 -0.016565 0.000000 0.000000 0.000000
# 2 -0.009468 0.020794 -0.001592 0.000000 0.000000 0.000000
# 3 -0.016565 -0.001592 0.016577 0.000000 0.000000 0.000000
# 4 0.000000 0.000000 0.000000 0.024574 0.000000 0.000000
# 5 0.000000 0.000000 0.000000 0.000000 0.025422 0.000000
# 6 0.000000 0.000000 0.000000 0.000000 0.000000 0.035011
#
#
# Mechanical properties :
#
#
# Convention : Reuss Voigt Hill
#
# Bulk Modulus (GPa) = 43.08783 53.11256 48.10019
# Shear Modulus (GPa) = 22.08015 29.55537 25.81776
#
# Velocity S-wave (km/s) = 3.46377 4.00744 3.74548
# Velocity P-wave (km/s) = 6.27771 7.09032 6.69635
#
# Compressibility (1/GPa) = 0.02320841
#
# Stress axis : x y z
#
# Youngs Moduli (GPa) = 24.33921 48.09082 60.32513
#
# Poissons Ratio (x) = 0.45531 0.99927
# Poissons Ratio (y) = 0.23044 0.09602
# Poissons Ratio (z) = 0.40317 0.07654
#
# Static dielectric constant tensor:
#      x y z
#    x 3.354560 0.000000 0.000000 
#    y 0.000000 3.512770 0.000000 
#    z 0.000000 0.000000 3.486560 
# 
# 
# High freq. dielectric constant tensor:
#      x y z
#    x 1.709560 0.000000 0.000000 
#    y 0.000000 1.726610 0.000000 
#    z 0.000000 0.000000 1.724680 
# 
# From -- ./inp_files/24933.got.cif
#   From: 2010.03.12/outbox.cif.g09.slc.cpg/sg38_13_cif.got.tgz:24933.got - 2010.04.14 02:38:36.
