data_PCOD8179609
_publ_section_title
;
Structure prediction by ZEFSAII (Michael W. Deem and Ramdas Pophale) SiO2 
 PCOD8179609
Probable space group: A M M 2
;
_chemical_formula_sum "Si O2"
_cell_formula_units_Z 64
_cell_length_a 24.062923
_cell_length_b 8.754740
_cell_length_c 15.416079
_cell_angle_alpha 90.000000
_cell_angle_beta 90.000000
_cell_angle_gamma 90.000000
_cell_volume 3247.622648
_symmetry_space_group_name_H-M "A M M 2"
_symmetry_group_IT_number 38
_symmetry_cell_setting 'orthorhombic'
loop_
_space_group_symop_operation_xyz
x,y,z
-x,-y,z
-x,y,z
x,-y,z
x,1/2+y,1/2+z
-x,1/2-y,1/2+z
-x,1/2+y,1/2+z
x,1/2-y,1/2+z
loop_
_atom_site_type_symbol
_atom_site_label
_atom_site_fract_x
_atom_site_fract_y
_atom_site_fract_z
Si Si1 0.437732 0.180777 0.255240
Si Si2 0.640804 0.677459 0.601185
Si Si3 0.253829 0.820209 0.848542
Si Si4 0.752784 0.178818 0.648976
Si Si5 0.628240 0.323023 0.407296
Si Si6 0.132995 0.821657 0.100947
Si Si7 0.136823 0.180136 0.906973
Si Si8 0.062387 0.181236 0.751378
O O1 0.500000 0.245008 0.242568
O O2 0.399921 0.241881 0.175859
O O3 0.415408 0.235080 0.347894
O O4 0.438098 0.000000 0.253942
O O5 0.655531 0.500000 0.616662
O O6 0.697098 0.774473 0.599256
O O7 0.611390 0.699756 0.507778
O O8 0.254152 0.773865 0.748465
O O9 0.309768 0.754531 0.892223
O O10 0.198567 0.748847 0.892784
O O11 0.253111 0.000000 0.861862
O O12 0.803300 0.273786 0.609872
O O13 0.764830 0.000000 0.637820
O O14 0.626625 0.500000 0.380096
O O15 0.093025 0.729433 0.163940
O O16 0.127032 0.000000 0.120668
O O17 0.114344 0.781591 0.002690
O O18 0.094682 0.248378 0.835224
O O19 0.141050 0.000000 0.892445
O O20 0.000000 0.248074 0.751784
O O21 0.061169 0.000000 0.754776
#
# Coordination Sequence:
#
# PCOD8179609 Si02
#       8
#     8   8   8   8   8   8   8   8
#     4  10  22  39  56  79 114 150 185 234 290 333
#     4  10  21  37  59  85 114 146 185 233 284 335
#     4   9  16  30  55  82 108 139 180 226 269 321
#     4  11  20  34  59  86 116 150 185 226 277 339
#     4  10  20  36  59  85 110 145 191 233 274 334
#     4  11  22  36  59  88 116 146 186 235 283 331
#     4   9  18  35  58  82 110 147 187 226 272 334
#     4  10  21  39  61  82 109 150 195 234 278 334
#
# _framework density 19.706724000000001
#
# number of rings (size 3 to 8) (size 9 to 14) (size 15 to 20)
#    0.000    2.000    2.500    1.500    0.000    4.000 
#    0.000    3.750    0.000    0.000    0.000    0.000 
#    0.000    0.000    0.000    0.000    0.000    0.000 
#
# Total GULP energy -396815.404205 kJ/mol
# GULP energy per Si atom -12400.481381 kJ/mol
# Density = 1.966187 g / cm^3
# Si number density = 19.706724 Si / 1000 Ang^3
#
#
#
# Elastic Constant Matrix: (Units=GPa)
#
#
# Indices 1 2 3 4 5 6 
#
# 1 141.0173 9.8934 51.5632 0.0000 0.0000 0.0000
# 2 9.8934 11.6709 13.7009 0.0000 0.0000 0.0000
# 3 51.5632 13.7009 113.6428 0.0000 0.0000 0.0000
# 4 0.0000 0.0000 0.0000 25.7986 0.0000 0.0000
# 5 0.0000 0.0000 0.0000 0.0000 15.4160 0.0000
# 6 0.0000 0.0000 0.0000 0.0000 0.0000 24.8489
#
#
#
# Elastic Compliance Matrix: (Units=1/GPa)
#
#
# Indices 1 2 3 4 5 6 
#
# 1 0.008601 -0.003156 -0.003522 0.000000 0.000000 0.000000
# 2 -0.003156 0.100968 -0.010741 0.000000 0.000000 0.000000
# 3 -0.003522 -0.010741 0.011692 0.000000 0.000000 0.000000
# 4 0.000000 0.000000 0.000000 0.038762 0.000000 0.000000
# 5 0.000000 0.000000 0.000000 0.000000 0.064868 0.000000
# 6 0.000000 0.000000 0.000000 0.000000 0.000000 0.040243
#
#
# Mechanical properties :
#
#
# Convention : Reuss Voigt Hill
#
# Bulk Modulus (GPa) = 11.57099 46.29399 28.93249
# Shear Modulus (GPa) = 15.20782 25.95761 20.58272
#
# Velocity S-wave (km/s) = 2.78098 3.63326 3.23530
# Velocity P-wave (km/s) = 4.02444 6.41430 5.35441
#
# Compressibility (1/GPa) = 0.08642302
#
# Stress axis : x y z
#
# Youngs Moduli (GPa) = 116.27216 9.90418 85.52608
#
# Poissons Ratio (x) = 0.03126 0.30121
# Poissons Ratio (y) = 0.36699 0.91860
# Poissons Ratio (z) = 0.40949 0.10638
#
# Static dielectric constant tensor:
#      x y z
#    x 3.795960 0.000000 0.000000 
#    y 0.000000 3.232190 0.000000 
#    z 0.000000 0.000000 3.721410 
# 
# 
# High freq. dielectric constant tensor:
#      x y z
#    x 1.768730 0.000000 0.000000 
#    y 0.000000 1.732530 0.000000 
#    z 0.000000 0.000000 1.781790 
# 
# From -- ./inp_files/15745.got.cif
#   From: 2010.03.12/outbox.cif.g09.slc.cpg/sg38_8_cif.got.tgz:15745.got - 2010.04.14 02:38:36.
