data_PCOD8179937
_publ_section_title
;
Structure prediction by ZEFSAII (Michael W. Deem and Ramdas Pophale) SiO2 
 PCOD8179937
Probable space group: A M M 2
;
_chemical_formula_sum "Si O2"
_cell_formula_units_Z 64
_cell_length_a 9.687141
_cell_length_b 9.047073
_cell_length_c 40.759702
_cell_angle_alpha 90.000000
_cell_angle_beta 90.000000
_cell_angle_gamma 90.000000
_cell_volume 3572.191361
_symmetry_space_group_name_H-M "A M M 2"
_symmetry_group_IT_number 38
_symmetry_cell_setting 'orthorhombic'
loop_
_space_group_symop_operation_xyz
x,y,z
-x,-y,z
-x,y,z
x,-y,z
x,1/2+y,1/2+z
-x,1/2-y,1/2+z
-x,1/2+y,1/2+z
x,1/2-y,1/2+z
loop_
_atom_site_type_symbol
_atom_site_label
_atom_site_fract_x
_atom_site_fract_y
_atom_site_fract_z
Si Si1 0.158673 0.672809 0.435520
Si Si2 0.662088 0.670074 0.132827
Si Si3 0.157495 0.174458 0.501423
Si Si4 0.660327 0.672140 0.807893
Si Si5 0.840300 0.826977 0.753140
Si Si6 0.347450 0.824478 0.559291
Si Si7 0.841294 0.327626 0.686152
Si Si8 0.340877 0.829195 0.874756
O O1 0.178391 0.500000 0.441422
O O2 0.213720 0.754852 0.467901
O O3 0.249107 0.727833 0.404953
O O4 0.000000 0.714262 0.428288
O O5 0.500000 0.690744 0.139403
O O6 0.705089 0.500000 0.138735
O O7 0.699848 0.720975 0.095841
O O8 0.747301 0.775542 0.156382
O O9 0.243152 0.239382 0.532122
O O10 0.000000 0.221663 0.507410
O O11 0.174553 0.000000 0.498459
O O12 0.500000 0.703232 0.800555
O O13 0.695792 0.500000 0.806415
O O14 0.749628 0.757315 0.781483
O O15 0.701223 0.732315 0.843561
O O16 0.794084 0.757286 0.718743
O O17 0.000000 0.791736 0.760502
O O18 0.810998 0.000000 0.751499
O O19 0.500000 0.760733 0.551936
O O20 0.352011 0.000000 0.557591
O O21 0.817868 0.500000 0.692307
O O22 0.000000 0.291480 0.677640
O O23 0.500000 0.805653 0.884339
O O24 0.309504 0.000000 0.866545
#
# Coordination Sequence:
#
# PCOD8179937 Si02
#       8
#     8   8   8   8   8   8   8   8
#     4   9  18  32  48  67  94 127 161 199 244 292
#     4   9  18  33  53  76 101 131 169 210 251 299
#     4   9  17  29  46  69  95 123 158 199 242 289
#     4  10  21  36  54  78 107 136 166 203 250 301
#     4  10  21  37  57  79 102 132 171 210 248 294
#     4   8  15  29  48  70  96 125 159 200 243 288
#     4  10  21  36  53  75 104 135 167 206 252 299
#     4   9  18  33  51  70  95 128 165 204 244 289
#
# _framework density 17.916174000000002
#
# number of rings (size 3 to 8) (size 9 to 14) (size 15 to 20)
#    0.000    2.750    0.000    1.875    0.000    5.000 
#    0.000    3.125    0.000    2.250    0.000    0.000 
#    0.000    0.000    0.000    0.000    0.000    0.000 
#
# Total GULP energy -396837.717576 kJ/mol
# GULP energy per Si atom -12401.178674 kJ/mol
# Density = 1.787540 g / cm^3
# Si number density = 17.916174 Si / 1000 Ang^3
#
#
#
# Elastic Constant Matrix: (Units=GPa)
#
#
# Indices 1 2 3 4 5 6 
#
# 1 77.2049 40.9229 85.4876 0.0000 0.0000 0.0000
# 2 40.9229 65.5406 60.3527 0.0000 0.0000 0.0000
# 3 85.4876 60.3527 165.9913 0.0000 0.0000 0.0000
# 4 0.0000 0.0000 0.0000 32.3470 0.0000 0.0000
# 5 0.0000 0.0000 0.0000 0.0000 48.5178 0.0000
# 6 0.0000 0.0000 0.0000 0.0000 0.0000 24.7013
#
#
#
# Elastic Compliance Matrix: (Units=1/GPa)
#
#
# Indices 1 2 3 4 5 6 
#
# 1 0.032303 -0.007291 -0.013986 0.000000 0.000000 0.000000
# 2 -0.007291 0.024583 -0.005183 0.000000 0.000000 0.000000
# 3 -0.013986 -0.005183 0.015112 0.000000 0.000000 0.000000
# 4 0.000000 0.000000 0.000000 0.030915 0.000000 0.000000
# 5 0.000000 0.000000 0.000000 0.000000 0.020611 0.000000
# 6 0.000000 0.000000 0.000000 0.000000 0.000000 0.040484
#
#
# Mechanical properties :
#
#
# Convention : Reuss Voigt Hill
#
# Bulk Modulus (GPa) = 52.41577 75.80702 64.11139
# Shear Modulus (GPa) = 22.39274 29.24482 25.81878
#
# Velocity S-wave (km/s) = 3.53917 4.04457 3.80028
# Velocity P-wave (km/s) = 6.78385 8.01345 7.42415
#
# Compressibility (1/GPa) = 0.01907823
#
# Stress axis : x y z
#
# Youngs Moduli (GPa) = 30.95656 40.67837 66.17403
#
# Poissons Ratio (x) = 0.29660 0.92548
# Poissons Ratio (y) = 0.22571 0.34298
# Poissons Ratio (z) = 0.43295 0.21084
#
# Static dielectric constant tensor:
#      x y z
#    x 3.330320 0.000000 0.000000 
#    y 0.000000 3.192790 0.000000 
#    z 0.000000 0.000000 3.478890 
# 
# 
# High freq. dielectric constant tensor:
#      x y z
#    x 1.690440 0.000000 0.000000 
#    y 0.000000 1.681750 0.000000 
#    z 0.000000 0.000000 1.702550 
# 
# From -- ./inp_files/24935.got.cif
#   From: 2010.03.12/outbox.cif.g09.slc.cpg/sg38_13_cif.got.tgz:24935.got - 2010.04.14 02:38:36.
