data_PCOD8179799
_publ_section_title
;
Structure prediction by ZEFSAII (Michael W. Deem and Ramdas Pophale) SiO2 
 PCOD8179799
Probable space group: A M M 2
;
_chemical_formula_sum "Si O2"
_cell_formula_units_Z 64
_cell_length_a 8.618463
_cell_length_b 23.534349
_cell_length_c 15.273812
_cell_angle_alpha 90.000000
_cell_angle_beta 90.000000
_cell_angle_gamma 90.000000
_cell_volume 3097.986006
_symmetry_space_group_name_H-M "A M M 2"
_symmetry_group_IT_number 38
_symmetry_cell_setting 'orthorhombic'
loop_
_space_group_symop_operation_xyz
x,y,z
-x,-y,z
-x,y,z
x,-y,z
x,1/2+y,1/2+z
-x,1/2-y,1/2+z
-x,1/2+y,1/2+z
x,1/2-y,1/2+z
loop_
_atom_site_type_symbol
_atom_site_label
_atom_site_fract_x
_atom_site_fract_y
_atom_site_fract_z
Si Si1 0.321132 0.246880 0.587140
Si Si2 0.820510 0.566089 0.697457
Si Si3 0.319419 0.372944 0.535517
Si Si4 0.678708 0.257464 0.291636
Si Si5 0.679350 0.934317 0.692996
Si Si6 0.820487 0.128710 0.853804
Si Si7 0.179218 0.132773 0.535274
Si Si8 0.319706 0.366484 0.855115
O O1 0.500000 0.232212 0.567330
O O2 0.274518 0.306934 0.545718
O O3 0.287276 0.249349 0.689629
O O4 0.214815 0.199639 0.542143
O O5 0.780574 0.500000 0.700003
O O6 0.778579 0.589407 0.602140
O O7 0.718524 0.596658 0.770516
O O8 0.000000 0.578047 0.716762
O O9 0.500000 0.382952 0.554808
O O10 0.277496 0.392036 0.437457
O O11 0.500000 0.273879 0.308772
O O12 0.785720 0.306138 0.330880
O O13 0.723261 0.198972 0.338217
O O14 0.500000 0.923503 0.715241
O O15 0.780417 0.911591 0.772900
O O16 0.718899 0.901152 0.604821
O O17 0.717493 0.000000 0.677982
O O18 0.000000 0.122458 0.876527
O O19 0.222483 0.111296 0.438170
O O20 0.000000 0.120646 0.554021
O O21 0.500000 0.373231 0.876330
#
# Coordination Sequence:
#
# PCOD8179799 Si02
#       8
#     8   8   8   8   8   8   8   8
#     4  10  20  38  64  93 127 165 206 253 306 368
#     4  11  25  44  65  92 127 164 206 263 320 367
#     4  11  23  42  67  94 125 168 213 255 305 367
#     4  10  20  38  64  93 127 165 206 253 306 368
#     4  11  25  46  69  90 117 162 216 263 308 367
#     4  12  25  40  63  97 131 165 202 253 317 373
#     4  12  25  40  63  97 131 165 202 253 317 373
#     4  11  23  42  67  94 125 168 213 255 305 367
#
# _framework density 20.658583
#
# number of rings (size 3 to 8) (size 9 to 14) (size 15 to 20)
#    0.000    1.000    2.500    4.500    0.000    8.000 
#    0.000    0.000    0.000    0.000    0.000    0.000 
#    0.000    0.000    0.000    0.000    0.000    0.000 
#
# Total GULP energy -397052.973462 kJ/mol
# GULP energy per Si atom -12407.905421 kJ/mol
# Density = 2.061156 g / cm^3
# Si number density = 20.658583 Si / 1000 Ang^3
#
#
#
# Elastic Constant Matrix: (Units=GPa)
#
#
# Indices 1 2 3 4 5 6 
#
# 1 64.0448 40.8301 16.0388 0.0000 0.0000 0.0000
# 2 40.8301 66.6898 8.2220 0.0000 0.0000 0.0000
# 3 16.0388 8.2220 100.9231 0.0000 0.0000 0.0000
# 4 0.0000 0.0000 0.0000 -12.5941 0.0000 0.0000
# 5 0.0000 0.0000 0.0000 0.0000 36.2229 0.0000
# 6 0.0000 0.0000 0.0000 0.0000 0.0000 25.9585
#
#
#
# Elastic Compliance Matrix: (Units=1/GPa)
#
#
# Indices 1 2 3 4 5 6 
#
# 1 0.026431 -0.015823 -0.002911 0.000000 0.000000 0.000000
# 2 -0.015823 0.024619 0.000509 0.000000 0.000000 0.000000
# 3 -0.002911 0.000509 0.010330 0.000000 0.000000 0.000000
# 4 0.000000 0.000000 0.000000 -0.079402 0.000000 0.000000
# 5 0.000000 0.000000 0.000000 0.000000 0.027607 0.000000
# 6 0.000000 0.000000 0.000000 0.000000 0.000000 0.038523
#
#
# Mechanical properties :
#
#
# Convention : Reuss Voigt Hill
#
# Bulk Modulus (GPa) = 40.11370 40.20439 40.15904
# Shear Modulus (GPa) = 53.83981 21.02192 37.43087
#
# Velocity S-wave (km/s) = 5.11061 3.19343 4.26124
# Velocity P-wave (km/s) = 7.36777 5.75334 6.61003
#
# Compressibility (1/GPa) = 0.02492914
#
# Stress axis : x y z
#
# Youngs Moduli (GPa) = 37.83482 40.61828 96.80781
#
# Poissons Ratio (x) = 0.64270 0.28184
# Poissons Ratio (y) = 0.59866 -0.04927
# Poissons Ratio (z) = 0.11015 -0.02067
#
# Static dielectric constant tensor:
#      x y z
#    x 3.781230 0.000000 0.000000 
#    y 0.000000 3.747900 0.000000 
#    z 0.000000 0.000000 3.852320 
# 
# 
# High freq. dielectric constant tensor:
#      x y z
#    x 1.808430 0.000000 0.000000 
#    y 0.000000 1.804000 0.000000 
#    z 0.000000 0.000000 1.826090 
# 
# From -- ./inp_files/12788.got.cif
#   From: 2010.03.12/outbox.cif.g09.slc.cpg/sg38_7_cif.got.tgz:12788.got - 2010.04.14 02:38:36.
