data_PCOD8179463
_publ_section_title
;
Structure prediction by ZEFSAII (Michael W. Deem and Ramdas Pophale) SiO2 
 PCOD8179463
Probable space group: A M M 2
;
_chemical_formula_sum "Si O2"
_cell_formula_units_Z 64
_cell_length_a 17.679399
_cell_length_b 8.808784
_cell_length_c 20.556036
_cell_angle_alpha 90.000000
_cell_angle_beta 90.000000
_cell_angle_gamma 90.000000
_cell_volume 3201.273855
_symmetry_space_group_name_H-M "A M M 2"
_symmetry_group_IT_number 38
_symmetry_cell_setting 'orthorhombic'
loop_
_space_group_symop_operation_xyz
x,y,z
-x,-y,z
-x,y,z
x,-y,z
x,1/2+y,1/2+z
-x,1/2-y,1/2+z
-x,1/2+y,1/2+z
x,1/2-y,1/2+z
loop_
_atom_site_type_symbol
_atom_site_label
_atom_site_fract_x
_atom_site_fract_y
_atom_site_fract_z
Si Si1 0.332372 0.680003 0.083490
Si Si2 0.087476 0.324558 0.450453
Si Si3 0.411228 0.675821 0.952561
Si Si4 0.161373 0.320808 0.074763
Si Si5 0.326206 0.821097 0.836237
Si Si6 0.836354 0.320602 0.830194
Si Si7 0.087356 0.324370 0.697190
Si Si8 0.415153 0.680866 0.210192
O O1 0.336259 0.500000 0.086215
O O2 0.246321 0.736808 0.088015
O O3 0.378063 0.747790 0.144655
O O4 0.370883 0.737600 0.017436
O O5 0.109040 0.500000 0.444922
O O6 0.135543 0.252160 0.507802
O O7 0.105617 0.245833 0.382315
O O8 0.000000 0.300157 0.466910
O O9 0.500000 0.699135 0.961119
O O10 0.390950 0.500000 0.939267
O O11 0.382176 0.778936 0.894224
O O12 0.157443 0.500000 0.066562
O O13 0.108722 0.272511 0.134325
O O14 0.246913 0.738478 0.845324
O O15 0.364970 0.761965 0.770273
O O16 0.312236 0.000000 0.834977
O O17 0.838007 0.500000 0.836486
O O18 0.863142 0.268753 0.758543
O O19 0.102763 0.500000 0.681269
O O20 0.000000 0.295907 0.714181
O O21 0.500000 0.745951 0.216971
O O22 0.417339 0.500000 0.208724
#
# Coordination Sequence:
#
# PCOD8179463 Si02
#       8
#     8   8   8   8   8   8   8   8
#     4   9  18  33  53  79 110 143 184 234 282 328
#     4  11  24  41  61  86 117 152 191 239 295 351
#     4  10  20  35  57  83 111 147 191 238 288 342
#     4  11  22  36  58  87 119 156 196 237 284 343
#     4  11  22  36  56  83 116 151 187 232 289 349
#     4  11  23  40  62  86 114 151 196 243 294 351
#     4  10  22  40  60  83 114 151 190 238 296 350
#     4   9  17  31  53  80 109 143 185 232 280 330
#
# _framework density 19.992042000000001
#
# number of rings (size 3 to 8) (size 9 to 14) (size 15 to 20)
#    0.000    1.750    0.000    4.500    0.000    8.500 
#    0.000    0.625    0.000    1.500    0.000    0.000 
#    0.000    0.000    0.000    0.000    0.000    0.000 
#
# Total GULP energy -396960.449908 kJ/mol
# GULP energy per Si atom -12405.014060 kJ/mol
# Density = 1.994654 g / cm^3
# Si number density = 19.992042 Si / 1000 Ang^3
#
#
#
# Elastic Constant Matrix: (Units=GPa)
#
#
# Indices 1 2 3 4 5 6 
#
# 1 88.5996 27.4501 27.9322 0.0000 0.0000 0.0000
# 2 27.4501 58.7667 32.9765 0.0000 0.0000 0.0000
# 3 27.9322 32.9765 129.6478 0.0000 0.0000 0.0000
# 4 0.0000 0.0000 0.0000 32.9068 0.0000 0.0000
# 5 0.0000 0.0000 0.0000 0.0000 44.4666 0.0000
# 6 0.0000 0.0000 0.0000 0.0000 0.0000 25.7710
#
#
#
# Elastic Compliance Matrix: (Units=1/GPa)
#
#
# Indices 1 2 3 4 5 6 
#
# 1 0.013447 -0.005431 -0.001516 0.000000 0.000000 0.000000
# 2 -0.005431 0.022043 -0.004437 0.000000 0.000000 0.000000
# 3 -0.001516 -0.004437 0.009168 0.000000 0.000000 0.000000
# 4 0.000000 0.000000 0.000000 0.030389 0.000000 0.000000
# 5 0.000000 0.000000 0.000000 0.000000 0.022489 0.000000
# 6 0.000000 0.000000 0.000000 0.000000 0.000000 0.038803
#
#
# Mechanical properties :
#
#
# Convention : Reuss Voigt Hill
#
# Bulk Modulus (GPa) = 45.67899 50.41465 48.04682
# Shear Modulus (GPa) = 30.04761 33.20590 31.62675
#
# Velocity S-wave (km/s) = 3.88103 4.07990 3.98171
# Velocity P-wave (km/s) = 6.55602 6.88958 6.72487
#
# Compressibility (1/GPa) = 0.02189190
#
# Stress axis : x y z
#
# Youngs Moduli (GPa) = 74.36522 45.36648 109.07182
#
# Poissons Ratio (x) = 0.24637 0.16534
# Poissons Ratio (y) = 0.40385 0.48391
# Poissons Ratio (z) = 0.11273 0.20128
#
# Static dielectric constant tensor:
#      x y z
#    x 3.780250 0.000000 0.000000 
#    y 0.000000 3.412760 0.000000 
#    z 0.000000 0.000000 3.811780 
# 
# 
# High freq. dielectric constant tensor:
#      x y z
#    x 1.797160 0.000000 0.000000 
#    y 0.000000 1.756130 0.000000 
#    z 0.000000 0.000000 1.797620 
# 
# From -- ./inp_files/21436.got.cif
#   From: 2010.03.12/outbox.cif.g09.slc.cpg/sg38_11_cif.got.tgz:21436.got - 2010.04.14 02:38:36.
