data_PCOD8179898
_publ_section_title
;
Structure prediction by ZEFSAII (Michael W. Deem and Ramdas Pophale) SiO2 
 PCOD8179898
Probable space group: A M M 2
;
_chemical_formula_sum "Si O2"
_cell_formula_units_Z 56
_cell_length_a 14.350326
_cell_length_b 9.445530
_cell_length_c 20.943285
_cell_angle_alpha 90.000000
_cell_angle_beta 90.000000
_cell_angle_gamma 90.000000
_cell_volume 2838.787614
_symmetry_space_group_name_H-M "A M M 2"
_symmetry_group_IT_number 38
_symmetry_cell_setting 'orthorhombic'
loop_
_space_group_symop_operation_xyz
x,y,z
-x,-y,z
-x,y,z
x,-y,z
x,1/2+y,1/2+z
-x,1/2-y,1/2+z
-x,1/2+y,1/2+z
x,1/2-y,1/2+z
loop_
_atom_site_type_symbol
_atom_site_label
_atom_site_fract_x
_atom_site_fract_y
_atom_site_fract_z
Si Si1 0.265578 0.662489 0.872210
Si Si2 0.891619 0.165608 0.819113
Si Si3 0.391934 0.334597 0.131801
Si Si4 0.105813 0.165758 0.058215
Si Si5 0.109918 0.654773 0.700247
Si Si6 0.393060 0.165677 0.254739
Si Si7 0.269377 0.662240 0.013294
O O1 0.236387 0.500000 0.860961
O O2 0.171845 0.757352 0.871470
O O3 0.337807 0.713241 0.818100
O O4 0.312932 0.680435 0.942180
O O5 0.858864 0.227580 0.750691
O O6 0.000000 0.198247 0.833377
O O7 0.871524 0.000000 0.819165
O O8 0.500000 0.299121 0.121401
O O9 0.375686 0.500000 0.144846
O O10 0.352836 0.248306 0.192941
O O11 0.340905 0.282664 0.067107
O O12 0.142009 0.200418 0.129819
O O13 0.173405 0.250702 0.011902
O O14 0.000000 0.218026 0.047442
O O15 0.112877 0.000000 0.043434
O O16 0.152628 0.500000 0.718736
O O17 0.000000 0.638876 0.698271
O O18 0.500000 0.208354 0.266571
O O19 0.382258 0.000000 0.241189
O O20 0.244277 0.500000 0.027111
#
# Coordination Sequence:
#
# PCOD8179898 Si02
#       7
#     8   8   8   8   8   8   8
#     4  10  22  38  55  79 112 149 187 226 272 325
#     4  10  21  35  52  77 109 145 186 231 275 321
#     4   9  19  37  60  85 113 143 175 219 277 334
#     4   9  19  35  54  77 108 147 187 227 274 326
#     4   8  15  30  51  74 100 134 178 224 272 323
#     4   9  19  37  61  86 109 138 180 227 272 324
#     4  10  22  37  54  81 113 147 187 227 271 323
#
# _framework density 19.726731999999998
#
# number of rings (size 3 to 8) (size 9 to 14) (size 15 to 20)
#    0.000    2.714    0.000    1.286    2.000    4.571 
#    0.000    7.143    0.000    0.000    0.000    6.000 
#    0.000    0.000    0.000    0.000    0.000    0.000 
#
# Total GULP energy -347135.745464 kJ/mol
# GULP energy per Si atom -12397.705195 kJ/mol
# Density = 1.968183 g / cm^3
# Si number density = 19.726732 Si / 1000 Ang^3
#
#
#
# Elastic Constant Matrix: (Units=GPa)
#
#
# Indices 1 2 3 4 5 6 
#
# 1 77.1332 37.8100 60.8249 0.0000 0.0000 0.0000
# 2 37.8100 64.3594 51.3355 0.0000 0.0000 0.0000
# 3 60.8249 51.3355 147.2760 0.0000 0.0000 0.0000
# 4 0.0000 0.0000 0.0000 27.2768 0.0000 0.0000
# 5 0.0000 0.0000 0.0000 0.0000 27.1651 0.0000
# 6 0.0000 0.0000 0.0000 0.0000 0.0000 24.6441
#
#
#
# Elastic Compliance Matrix: (Units=1/GPa)
#
#
# Indices 1 2 3 4 5 6 
#
# 1 0.021703 -0.007758 -0.006259 0.000000 0.000000 0.000000
# 2 -0.007758 0.024294 -0.005264 0.000000 0.000000 0.000000
# 3 -0.006259 -0.005264 0.011210 0.000000 0.000000 0.000000
# 4 0.000000 0.000000 0.000000 0.036661 0.000000 0.000000
# 5 0.000000 0.000000 0.000000 0.000000 0.036812 0.000000
# 6 0.000000 0.000000 0.000000 0.000000 0.000000 0.040578
#
#
# Mechanical properties :
#
#
# Convention : Reuss Voigt Hill
#
# Bulk Modulus (GPa) = 53.63361 65.41215 59.52288
# Shear Modulus (GPa) = 23.14431 25.07039 24.10735
#
# Velocity S-wave (km/s) = 3.42898 3.56881 3.49960
# Velocity P-wave (km/s) = 6.55168 7.08612 6.82413
#
# Compressibility (1/GPa) = 0.01864503
#
# Stress axis : x y z
#
# Youngs Moduli (GPa) = 46.07611 41.16216 89.20552
#
# Poissons Ratio (x) = 0.31932 0.55837
# Poissons Ratio (y) = 0.35744 0.46960
# Poissons Ratio (z) = 0.28841 0.21669
#
# Static dielectric constant tensor:
#      x y z
#    x 3.487430 0.000000 0.000000 
#    y 0.000000 3.461460 0.000000 
#    z 0.000000 0.000000 3.733930 
# 
# 
# High freq. dielectric constant tensor:
#      x y z
#    x 1.759220 0.000000 0.000000 
#    y 0.000000 1.757470 0.000000 
#    z 0.000000 0.000000 1.772160 
# 
# From -- ./inp_files/21069.got.cif
#   From: 2010.03.12/outbox.cif.g09.slc.cpg/sg38_11_cif.got.tgz:21069.got - 2010.04.14 02:38:36.
