data_PCOD8179019
_publ_section_title
;
Structure prediction by ZEFSAII (Michael W. Deem and Ramdas Pophale) SiO2 
 PCOD8179019
Probable space group: A M M 2
;
_chemical_formula_sum "Si O2"
_cell_formula_units_Z 40
_cell_length_a 8.938511
_cell_length_b 9.199024
_cell_length_c 26.291938
_cell_angle_alpha 90.000000
_cell_angle_beta 90.000000
_cell_angle_gamma 90.000000
_cell_volume 2161.869778
_symmetry_space_group_name_H-M "A M M 2"
_symmetry_group_IT_number 38
_symmetry_cell_setting 'orthorhombic'
loop_
_space_group_symop_operation_xyz
x,y,z
-x,-y,z
-x,y,z
x,-y,z
x,1/2+y,1/2+z
-x,1/2-y,1/2+z
-x,1/2+y,1/2+z
x,1/2-y,1/2+z
loop_
_atom_site_type_symbol
_atom_site_label
_atom_site_fract_x
_atom_site_fract_y
_atom_site_fract_z
Si Si1 0.336646 0.672055 0.620020
Si Si2 0.175230 0.167968 0.820744
Si Si3 0.325101 0.169440 0.413106
Si Si4 0.321267 0.165494 0.230051
Si Si5 0.321357 0.163009 0.011413
O O1 0.500000 0.746418 0.621069
O O2 0.356787 0.500000 0.618139
O O3 0.256748 0.711127 0.673763
O O4 0.255318 0.717408 0.566666
O O5 0.234728 0.254833 0.868753
O O6 0.251997 0.224319 0.769783
O O7 0.000000 0.193497 0.815863
O O8 0.216778 0.000000 0.827898
O O9 0.500000 0.203103 0.405518
O O10 0.266007 0.230455 0.467021
O O11 0.290836 0.000000 0.411534
O O12 0.500000 0.177747 0.230684
O O13 0.273879 0.000000 0.243503
O O14 0.500000 0.164198 0.015576
O O15 0.264817 0.000000 0.998682
#
# Coordination Sequence:
#
# PCOD8179019 Si02
#       5
#     8   8   8   8   8
#     4   7  11  22  43  72 102 128 155 189 230 278
#     4  11  24  38  50  67  94 129 168 208 248 290
#     4  10  20  33  51  76 102 127 159 200 244 291
#     4   9  17  31  53  79 103 127 159 199 240 285
#     4   8  13  24  45  72 101 131 159 190 232 280
#
# _framework density 18.502502
#
# number of rings (size 3 to 8) (size 9 to 14) (size 15 to 20)
#    0.000    3.000    0.000    4.200    0.000    5.600 
#    0.000    1.000    0.000    4.800    0.000    2.800 
#    0.000    0.000    0.000    0.000    0.000    0.000 
#
# Total GULP energy -247768.130930 kJ/mol
# GULP energy per Si atom -12388.406546 kJ/mol
# Density = 1.846039 g / cm^3
# Si number density = 18.502502 Si / 1000 Ang^3
#
#
#
# Elastic Constant Matrix: (Units=GPa)
#
#
# Indices 1 2 3 4 5 6 
#
# 1 26.3680 24.4140 28.1958 0.0000 0.0000 0.0000
# 2 24.4140 72.8205 53.5742 0.0000 0.0000 0.0000
# 3 28.1958 53.5742 175.4724 0.0000 0.0000 0.0000
# 4 0.0000 0.0000 0.0000 34.8368 0.0000 0.0000
# 5 0.0000 0.0000 0.0000 0.0000 -9.2090 0.0000
# 6 0.0000 0.0000 0.0000 0.0000 0.0000 19.1207
#
#
#
# Elastic Compliance Matrix: (Units=1/GPa)
#
#
# Indices 1 2 3 4 5 6 
#
# 1 0.057428 -0.016075 -0.004320 0.000000 0.000000 0.000000
# 2 -0.016075 0.022210 -0.004198 0.000000 0.000000 0.000000
# 3 -0.004320 -0.004198 0.007675 0.000000 0.000000 0.000000
# 4 0.000000 0.000000 0.000000 0.028705 0.000000 0.000000
# 5 0.000000 0.000000 0.000000 0.000000 -0.108590 0.000000
# 6 0.000000 0.000000 0.000000 0.000000 0.000000 0.052299
#
#
# Mechanical properties :
#
#
# Convention : Reuss Voigt Hill
#
# Bulk Modulus (GPa) = 26.22835 54.11432 40.17134
# Shear Modulus (GPa) = 41.11044 20.18150 30.64597
#
# Velocity S-wave (km/s) = 4.71880 3.30623 4.07420
# Velocity P-wave (km/s) = 6.62539 6.62460 6.62500
#
# Compressibility (1/GPa) = 0.03812668
#
# Stress axis : x y z
#
# Youngs Moduli (GPa) = 17.41308 45.02388 130.29735
#
# Poissons Ratio (x) = 0.72378 0.56286
# Poissons Ratio (y) = 0.27992 0.54700
# Poissons Ratio (z) = 0.07522 0.18901
#
# Static dielectric constant tensor:
#      x y z
#    x 2.913930 0.000000 0.000000 
#    y 0.000000 3.268550 0.000000 
#    z 0.000000 0.000000 4.070160 
# 
# 
# High freq. dielectric constant tensor:
#      x y z
#    x 1.660760 0.000000 0.000000 
#    y 0.000000 1.695660 0.000000 
#    z 0.000000 0.000000 1.750470 
# 
# From -- ./inp_files/21668.got.cif
#   From: 2010.03.12/outbox.cif.g09.slc.cpg/sg38_11_cif.got.tgz:21668.got - 2010.04.14 02:38:36.
