data_PCOD8179345
_publ_section_title
;
Structure prediction by ZEFSAII (Michael W. Deem and Ramdas Pophale) SiO2 
 PCOD8179345
Probable space group: A M M 2
;
_chemical_formula_sum "Si O2"
_cell_formula_units_Z 48
_cell_length_a 9.076936
_cell_length_b 22.755035
_cell_length_c 11.672927
_cell_angle_alpha 90.000000
_cell_angle_beta 90.000000
_cell_angle_gamma 90.000000
_cell_volume 2410.996338
_symmetry_space_group_name_H-M "A M M 2"
_symmetry_group_IT_number 38
_symmetry_cell_setting 'orthorhombic'
loop_
_space_group_symop_operation_xyz
x,y,z
-x,-y,z
-x,y,z
x,-y,z
x,1/2+y,1/2+z
-x,1/2-y,1/2+z
-x,1/2+y,1/2+z
x,1/2-y,1/2+z
loop_
_atom_site_type_symbol
_atom_site_label
_atom_site_fract_x
_atom_site_fract_y
_atom_site_fract_z
Si Si1 0.828185 0.068240 0.739890
Si Si2 0.832373 0.147692 0.338782
Si Si3 0.166017 0.732450 0.627823
Si Si4 0.170860 0.378589 0.482817
Si Si5 0.325930 0.654136 0.074613
Si Si6 0.338045 0.932514 0.180723
O O1 0.791255 0.108256 0.850902
O O2 0.738824 0.095839 0.634418
O O3 0.000000 0.071989 0.710776
O O4 0.781412 0.000000 0.758368
O O5 0.821852 0.200653 0.249260
O O6 0.733845 0.161991 0.447248
O O7 0.769685 0.089924 0.279202
O O8 0.000000 0.136431 0.377012
O O9 0.207186 0.688335 0.522507
O O10 0.277430 0.786523 0.638788
O O11 0.000000 0.756249 0.608250
O O12 0.268797 0.422979 0.556016
O O13 0.000000 0.392057 0.509014
O O14 0.500000 0.648304 0.073918
O O15 0.500000 0.902009 0.186697
O O16 0.357872 0.000000 0.204180
#
# Coordination Sequence:
#
# PCOD8179345 Si02
#       6
#     8   8   8   8   8   8
#     4  10  22  41  64  90 122 164 214 257 297 357
#     4  10  22  41  63  85 112 153 203 250 294 351
#     4   9  20  39  63  90 118 152 198 250 303 361
#     4   9  19  37  63  92 119 155 202 252 299 352
#     4  12  26  40  59  88 124 161 197 247 308 370
#     4  10  20  34  56  88 124 157 190 239 301 357
#
# _framework density 19.90878
#
# number of rings (size 3 to 8) (size 9 to 14) (size 15 to 20)
#    0.000    2.000    0.000    4.000    2.333    7.000 
#    0.000    0.000    0.000    0.000    0.000    0.000 
#    0.000    0.000    0.000    0.000    0.000    0.000 
#
# Total GULP energy -297599.501682 kJ/mol
# GULP energy per Si atom -12399.979237 kJ/mol
# Density = 1.986347 g / cm^3
# Si number density = 19.908780 Si / 1000 Ang^3
#
#
#
# Elastic Constant Matrix: (Units=GPa)
#
#
# Indices 1 2 3 4 5 6 
#
# 1 114.5146 53.4990 46.9414 0.0000 0.0000 0.0000
# 2 53.4990 92.4456 38.2772 0.0000 0.0000 0.0000
# 3 46.9414 38.2772 92.7462 0.0000 0.0000 0.0000
# 4 0.0000 0.0000 0.0000 17.8682 0.0000 0.0000
# 5 0.0000 0.0000 0.0000 0.0000 8.9268 0.0000
# 6 0.0000 0.0000 0.0000 0.0000 0.0000 28.5256
#
#
#
# Elastic Compliance Matrix: (Units=1/GPa)
#
#
# Indices 1 2 3 4 5 6 
#
# 1 0.013234 -0.005892 -0.004266 0.000000 0.000000 0.000000
# 2 -0.005892 0.015670 -0.003485 0.000000 0.000000 0.000000
# 3 -0.004266 -0.003485 0.014380 0.000000 0.000000 0.000000
# 4 0.000000 0.000000 0.000000 0.055965 0.000000 0.000000
# 5 0.000000 0.000000 0.000000 0.000000 0.112022 0.000000
# 6 0.000000 0.000000 0.000000 0.000000 0.000000 0.035056
#
#
# Mechanical properties :
#
#
# Convention : Reuss Voigt Hill
#
# Bulk Modulus (GPa) = 62.51263 64.12683 63.31973
# Shear Modulus (GPa) = 17.92456 21.79671 19.86064
#
# Velocity S-wave (km/s) = 3.00381 3.31241 3.16188
# Velocity P-wave (km/s) = 6.59532 6.84906 6.72339
#
# Compressibility (1/GPa) = 0.01599677
#
# Stress axis : x y z
#
# Youngs Moduli (GPa) = 75.56262 63.81641 69.54242
#
# Poissons Ratio (x) = 0.37602 0.29669
# Poissons Ratio (y) = 0.44523 0.24235
# Poissons Ratio (z) = 0.32238 0.22240
#
# Static dielectric constant tensor:
#      x y z
#    x 3.888180 0.000000 0.000000 
#    y 0.000000 3.553230 0.000000 
#    z 0.000000 0.000000 3.651610 
# 
# 
# High freq. dielectric constant tensor:
#      x y z
#    x 1.776830 0.000000 0.000000 
#    y 0.000000 1.773590 0.000000 
#    z 0.000000 0.000000 1.777320 
# 
# From -- ./inp_files/8121.got.cif
#   From: 2010.03.12/outbox.cif.g09.slc.cpg/sg38_5_cif.got.tgz:8121.got - 2010.04.14 02:38:36.
