data_PCOD8179150
_publ_section_title
;
Structure prediction by ZEFSAII (Michael W. Deem and Ramdas Pophale) SiO2 
 PCOD8179150
Probable space group: A M M 2
;
_chemical_formula_sum "Si O2"
_cell_formula_units_Z 64
_cell_length_a 8.875216
_cell_length_b 19.449727
_cell_length_c 20.602368
_cell_angle_alpha 90.000000
_cell_angle_beta 90.000000
_cell_angle_gamma 90.000000
_cell_volume 3556.391648
_symmetry_space_group_name_H-M "A M M 2"
_symmetry_group_IT_number 38
_symmetry_cell_setting 'orthorhombic'
loop_
_space_group_symop_operation_xyz
x,y,z
-x,-y,z
-x,y,z
x,-y,z
x,1/2+y,1/2+z
-x,1/2-y,1/2+z
-x,1/2+y,1/2+z
x,1/2-y,1/2+z
loop_
_atom_site_type_symbol
_atom_site_label
_atom_site_fract_x
_atom_site_fract_y
_atom_site_fract_z
Si Si1 0.178363 0.573981 0.306570
Si Si2 0.323727 0.077777 0.049403
Si Si3 0.677423 0.289359 0.118838
Si Si4 0.825046 0.283418 0.357741
Si Si5 0.823963 0.422739 0.159747
Si Si6 0.174183 0.793143 0.003737
Si Si7 0.677789 0.296951 0.744203
Si Si8 0.825309 0.422077 0.686744
O O1 0.241401 0.500000 0.332777
O O2 0.232693 0.637600 0.350271
O O3 0.235811 0.585143 0.233194
O O4 0.000000 0.569716 0.305227
O O5 0.500000 0.093683 0.046747
O O6 0.235525 0.128765 0.001775
O O7 0.269244 0.091774 0.122142
O O8 0.286559 0.000000 0.027799
O O9 0.500000 0.290228 0.115506
O O10 0.737090 0.367317 0.116216
O O11 0.736291 0.251214 0.055450
O O12 0.732505 0.250950 0.184368
O O13 0.801822 0.261139 0.432233
O O14 0.724775 0.235449 0.312541
O O15 0.000000 0.277439 0.336992
O O16 0.789900 0.500000 0.134175
O O17 0.000000 0.406445 0.155130
O O18 0.000000 0.794185 0.023056
O O19 0.500000 0.308333 0.742926
O O20 0.761181 0.370463 0.740736
O O21 0.802158 0.500000 0.711731
O O22 0.000000 0.407002 0.672442
#
# Coordination Sequence:
#
# PCOD8179150 Si02
#       8
#     8   8   8   8   8   8   8   8
#     4   8  14  27  49  76 105 137 172 211 258 310
#     4  10  20  34  52  76 110 149 185 223 271 327
#     4  11  22  35  54  80 110 146 183 223 271 323
#     4  10  21  36  55  79 108 144 185 228 272 319
#     4   9  17  31  55  83 108 137 175 222 273 319
#     4  11  23  36  54  80 109 146 188 230 275 322
#     4  11  22  35  55  82 110 145 183 223 274 326
#     4  10  20  34  56  84 110 139 179 228 276 322
#
# _framework density 17.995768999999999
#
# number of rings (size 3 to 8) (size 9 to 14) (size 15 to 20)
#    0.000    2.000    2.500    2.625    0.000    4.250 
#    0.000    1.250    0.000    1.125    0.000    5.250 
#    0.000    0.000    0.000    0.000    0.000    0.000 
#
# Total GULP energy -396785.274481 kJ/mol
# GULP energy per Si atom -12399.539828 kJ/mol
# Density = 1.795481 g / cm^3
# Si number density = 17.995769 Si / 1000 Ang^3
#
#
#
# Elastic Constant Matrix: (Units=GPa)
#
#
# Indices 1 2 3 4 5 6 
#
# 1 52.1825 37.7326 22.2598 0.0000 0.0000 0.0000
# 2 37.7326 103.6085 41.2861 0.0000 0.0000 0.0000
# 3 22.2598 41.2861 70.8405 0.0000 0.0000 0.0000
# 4 0.0000 0.0000 0.0000 25.0938 0.0000 0.0000
# 5 0.0000 0.0000 0.0000 0.0000 22.0651 0.0000
# 6 0.0000 0.0000 0.0000 0.0000 0.0000 29.1426
#
#
#
# Elastic Compliance Matrix: (Units=1/GPa)
#
#
# Indices 1 2 3 4 5 6 
#
# 1 0.026680 -0.008304 -0.003544 0.000000 0.000000 0.000000
# 2 -0.008304 0.015156 -0.006224 0.000000 0.000000 0.000000
# 3 -0.003544 -0.006224 0.018857 0.000000 0.000000 0.000000
# 4 0.000000 0.000000 0.000000 0.039850 0.000000 0.000000
# 5 0.000000 0.000000 0.000000 0.000000 0.045320 0.000000
# 6 0.000000 0.000000 0.000000 0.000000 0.000000 0.034314
#
#
# Mechanical properties :
#
#
# Convention : Reuss Voigt Hill
#
# Bulk Modulus (GPa) = 40.73383 47.68763 44.21073
# Shear Modulus (GPa) = 22.27132 23.61718 22.94425
#
# Velocity S-wave (km/s) = 3.52175 3.62660 3.57456
# Velocity P-wave (km/s) = 6.26269 6.64027 6.45424
#
# Compressibility (1/GPa) = 0.02454962
#
# Stress axis : x y z
#
# Youngs Moduli (GPa) = 37.48137 65.98051 53.03121
#
# Poissons Ratio (x) = 0.54792 0.18793
# Poissons Ratio (y) = 0.31126 0.33004
# Poissons Ratio (z) = 0.13282 0.41063
#
# Static dielectric constant tensor:
#      x y z
#    x 3.216700 0.000000 0.000000 
#    y 0.000000 3.575640 0.000000 
#    z 0.000000 0.000000 3.048630 
# 
# 
# High freq. dielectric constant tensor:
#      x y z
#    x 1.692860 0.000000 0.000000 
#    y 0.000000 1.703070 0.000000 
#    z 0.000000 0.000000 1.666900 
# 
# From -- ./inp_files/17162.got.cif
#   From: 2010.03.12/outbox.cif.g09.slc.cpg/sg38_9_cif.got.tgz:17162.got - 2010.04.14 02:38:36.
