data_PCOD8179306
_publ_section_title
;
Structure prediction by ZEFSAII (Michael W. Deem and Ramdas Pophale) SiO2 
 PCOD8179306
Probable space group: A M M 2
;
_chemical_formula_sum "Si O2"
_cell_formula_units_Z 64
_cell_length_a 19.740591
_cell_length_b 8.885260
_cell_length_c 19.890124
_cell_angle_alpha 90.000000
_cell_angle_beta 90.000000
_cell_angle_gamma 90.000000
_cell_volume 3488.733390
_symmetry_space_group_name_H-M "A M M 2"
_symmetry_group_IT_number 38
_symmetry_cell_setting 'orthorhombic'
loop_
_space_group_symop_operation_xyz
x,y,z
-x,-y,z
-x,y,z
x,-y,z
x,1/2+y,1/2+z
-x,1/2-y,1/2+z
-x,1/2+y,1/2+z
x,1/2-y,1/2+z
loop_
_atom_site_type_symbol
_atom_site_label
_atom_site_fract_x
_atom_site_fract_y
_atom_site_fract_z
Si Si1 0.714348 0.328523 0.958710
Si Si2 0.677794 0.672115 0.103740
Si Si3 0.813998 0.324407 0.638483
Si Si4 0.317777 0.325327 0.811312
Si Si5 0.149090 0.824297 0.991044
Si Si6 0.922077 0.173667 0.377442
Si Si7 0.822974 0.677597 0.272530
Si Si8 0.576821 0.675452 0.217107
O O1 0.741759 0.500000 0.959314
O O2 0.671850 0.297573 0.891169
O O3 0.778504 0.218653 0.959489
O O4 0.666791 0.298994 0.023923
O O5 0.700870 0.500000 0.116709
O O6 0.735422 0.780605 0.132312
O O7 0.608951 0.708173 0.143655
O O8 0.818803 0.500000 0.653933
O O9 0.853396 0.282255 0.569919
O O10 0.848498 0.234593 0.699650
O O11 0.308409 0.500000 0.794419
O O12 0.251663 0.240315 0.785452
O O13 0.384403 0.263969 0.775342
O O14 0.090356 0.732113 0.953321
O O15 0.137376 0.000000 0.979434
O O16 0.875983 0.268533 0.327567
O O17 0.000000 0.198570 0.358317
O O18 0.901259 0.000000 0.372323
O O19 0.819844 0.500000 0.273724
O O20 0.500000 0.734113 0.214825
O O21 0.580374 0.500000 0.234615
#
# Coordination Sequence:
#
# PCOD8179306 Si02
#       8
#     8   8   8   8   8   8   8   8
#     4   9  18  32  53  80 110 142 181 231 282 327
#     4   9  17  32  53  78 107 143 185 229 278 334
#     4  10  20  34  55  85 116 145 183 234 283 329
#     4  11  21  34  55  83 114 148 186 236 288 339
#     4  10  20  34  56  85 114 146 184 228 280 336
#     4  11  24  41  60  83 115 154 192 234 286 342
#     4  12  23  36  58  86 115 151 192 238 287 339
#     4  10  21  36  54  78 111 151 193 238 290 346
#
# _framework density 18.344767000000001
#
# number of rings (size 3 to 8) (size 9 to 14) (size 15 to 20)
#    0.000    1.750    2.500    2.625    0.000    3.250 
#    0.000    1.250    0.000    3.000    0.000    0.000 
#    0.000    0.000    0.000    0.000    0.000    0.000 
#
# Total GULP energy -396838.366899 kJ/mol
# GULP energy per Si atom -12401.198966 kJ/mol
# Density = 1.830301 g / cm^3
# Si number density = 18.344767 Si / 1000 Ang^3
#
#
#
# Elastic Constant Matrix: (Units=GPa)
#
#
# Indices 1 2 3 4 5 6 
#
# 1 75.0942 41.1682 44.9885 0.0000 0.0000 0.0000
# 2 41.1682 99.8633 53.2065 0.0000 0.0000 0.0000
# 3 44.9885 53.2065 131.1201 0.0000 0.0000 0.0000
# 4 0.0000 0.0000 0.0000 32.1124 0.0000 0.0000
# 5 0.0000 0.0000 0.0000 0.0000 24.7206 0.0000
# 6 0.0000 0.0000 0.0000 0.0000 0.0000 25.4033
#
#
#
# Elastic Compliance Matrix: (Units=1/GPa)
#
#
# Indices 1 2 3 4 5 6 
#
# 1 0.018885 -0.005528 -0.004236 0.000000 0.000000 0.000000
# 2 -0.005528 0.014394 -0.003944 0.000000 0.000000 0.000000
# 3 -0.004236 -0.003944 0.010681 0.000000 0.000000 0.000000
# 4 0.000000 0.000000 0.000000 0.031141 0.000000 0.000000
# 5 0.000000 0.000000 0.000000 0.000000 0.040452 0.000000
# 6 0.000000 0.000000 0.000000 0.000000 0.000000 0.039365
#
#
# Mechanical properties :
#
#
# Convention : Reuss Voigt Hill
#
# Bulk Modulus (GPa) = 60.45063 64.97825 62.71444
# Shear Modulus (GPa) = 26.61707 27.56157 27.08932
#
# Velocity S-wave (km/s) = 3.81325 3.88031 3.84693
# Velocity P-wave (km/s) = 7.23960 7.45475 7.34796
#
# Compressibility (1/GPa) = 0.01654243
#
# Stress axis : x y z
#
# Youngs Moduli (GPa) = 52.95115 69.47302 93.62753
#
# Poissons Ratio (x) = 0.38406 0.39665
# Poissons Ratio (y) = 0.29273 0.36928
# Poissons Ratio (z) = 0.22433 0.27401
#
# Static dielectric constant tensor:
#      x y z
#    x 3.120190 0.000000 0.000000 
#    y 0.000000 3.453980 0.000000 
#    z 0.000000 0.000000 3.807930 
# 
# 
# High freq. dielectric constant tensor:
#      x y z
#    x 1.673020 0.000000 0.000000 
#    y 0.000000 1.719920 0.000000 
#    z 0.000000 0.000000 1.730860 
# 
# From -- ./inp_files/21404.got.cif
#   From: 2010.03.12/outbox.cif.g09.slc.cpg/sg38_11_cif.got.tgz:21404.got - 2010.04.14 02:38:36.
