data_PCOD8179569
_publ_section_title
;
Structure prediction by ZEFSAII (Michael W. Deem and Ramdas Pophale) SiO2 
 PCOD8179569
Probable space group: A M M 2
;
_chemical_formula_sum "Si O2"
_cell_formula_units_Z 36
_cell_length_a 9.339715
_cell_length_b 34.455638
_cell_length_c 5.097400
_cell_angle_alpha 90.000000
_cell_angle_beta 90.000000
_cell_angle_gamma 90.000000
_cell_volume 1640.373084
_symmetry_space_group_name_H-M "A M M 2"
_symmetry_group_IT_number 38
_symmetry_cell_setting 'orthorhombic'
loop_
_space_group_symop_operation_xyz
x,y,z
-x,-y,z
-x,y,z
x,-y,z
x,1/2+y,1/2+z
-x,1/2-y,1/2+z
-x,1/2+y,1/2+z
x,1/2-y,1/2+z
loop_
_atom_site_type_symbol
_atom_site_label
_atom_site_fract_x
_atom_site_fract_y
_atom_site_fract_z
Si Si1 0.834655 0.724966 0.677720
Si Si2 0.169562 0.590987 0.301028
Si Si3 0.500000 0.723979 0.072012
Si Si4 0.341806 0.166586 0.883436
Si Si5 0.169392 0.956766 0.298303
O O1 0.795452 0.757077 0.458193
O O2 0.742399 0.686269 0.626028
O O3 0.000000 0.712904 0.659396
O O4 0.250030 0.631493 0.268395
O O5 0.217618 0.563175 0.066191
O O6 0.000000 0.598916 0.300892
O O7 0.224860 0.569808 0.561995
O O8 0.500000 0.762405 0.266903
O O9 0.360846 0.697948 0.146221
O O10 0.500000 0.152940 0.983726
O O11 0.000000 0.960241 0.281473
O O12 0.236428 0.000000 0.282096
#
# Coordination Sequence:
#
# PCOD8179569 Si02
#       5
#     8   8   4   8   8
#     4  10  21  37  57  80 107 141 185 234 284 333
#     4  10  20  36  57  86 117 145 184 231 284 331
#     4  10  22  38  56  76 101 144 191 230 266 318
#     4  10  23  38  57  81 113 151 185 239 272 343
#     4   9  18  34  60  88 114 146 185 228 274 336
#
# _framework density 21.946228999999999
#
# number of rings (size 3 to 8) (size 9 to 14) (size 15 to 20)
#    0.667    1.556    0.000    2.667    0.000    6.222 
#    0.000    6.667    0.000    4.000    0.000    0.000 
#    0.000    0.000    0.000    0.000    0.000    0.000 
#
# Total GULP energy -223132.521754 kJ/mol
# GULP energy per Si atom -12396.251209 kJ/mol
# Density = 2.189628 g / cm^3
# Si number density = 21.946229 Si / 1000 Ang^3
#
#
#
# Elastic Constant Matrix: (Units=GPa)
#
#
# Indices 1 2 3 4 5 6 
#
# 1 67.5461 54.9687 27.9622 0.0000 0.0000 0.0000
# 2 54.9687 137.2811 34.3502 0.0000 0.0000 0.0000
# 3 27.9622 34.3502 107.6795 0.0000 0.0000 0.0000
# 4 0.0000 0.0000 0.0000 15.6509 0.0000 0.0000
# 5 0.0000 0.0000 0.0000 0.0000 2.7388 0.0000
# 6 0.0000 0.0000 0.0000 0.0000 0.0000 29.9850
#
#
#
# Elastic Compliance Matrix: (Units=1/GPa)
#
#
# Indices 1 2 3 4 5 6 
#
# 1 0.022989 -0.008380 -0.003296 0.000000 0.000000 0.000000
# 2 -0.008380 0.010971 -0.001324 0.000000 0.000000 0.000000
# 3 -0.003296 -0.001324 0.010565 0.000000 0.000000 0.000000
# 4 0.000000 0.000000 0.000000 0.063894 0.000000 0.000000
# 5 0.000000 0.000000 0.000000 0.000000 0.365128 0.000000
# 6 0.000000 0.000000 0.000000 0.000000 0.000000 0.033350
#
#
# Mechanical properties :
#
#
# Convention : Reuss Voigt Hill
#
# Bulk Modulus (GPa) = 53.98234 60.78544 57.38389
# Shear Modulus (GPa) = 9.27518 22.68998 15.98258
#
# Velocity S-wave (km/s) = 2.05803 3.21890 2.70156
# Velocity P-wave (km/s) = 5.50439 6.44769 5.99462
#
# Compressibility (1/GPa) = 0.01852458
#
# Stress axis : x y z
#
# Youngs Moduli (GPa) = 43.49878 91.14887 94.65139
#
# Poissons Ratio (x) = 0.76385 0.31202
# Poissons Ratio (y) = 0.36453 0.12528
# Poissons Ratio (z) = 0.14339 0.12065
#
# Static dielectric constant tensor:
#      x y z
#    x 4.073360 0.000000 0.000000 
#    y 0.000000 3.941510 0.000000 
#    z 0.000000 0.000000 3.899950 
# 
# 
# High freq. dielectric constant tensor:
#      x y z
#    x 1.848220 0.000000 0.000000 
#    y 0.000000 1.855660 0.000000 
#    z 0.000000 0.000000 1.867420 
# 
# From -- ./inp_files/953.got.cif
#   From: 2010.03.12/outbox.cif.g09.slc.cpg/sg38_1_cif.got.tgz:953.got - 2010.04.14 02:38:36.
