data_PCOD8179264
_publ_section_title
;
Structure prediction by ZEFSAII (Michael W. Deem and Ramdas Pophale) SiO2 
 PCOD8179264
Probable space group: A M M 2
;
_chemical_formula_sum "Si O2"
_cell_formula_units_Z 48
_cell_length_a 9.485898
_cell_length_b 18.142935
_cell_length_c 14.578599
_cell_angle_alpha 90.000000
_cell_angle_beta 90.000000
_cell_angle_gamma 90.000000
_cell_volume 2509.006495
_symmetry_space_group_name_H-M "A M M 2"
_symmetry_group_IT_number 38
_symmetry_cell_setting 'orthorhombic'
loop_
_space_group_symop_operation_xyz
x,y,z
-x,-y,z
-x,y,z
x,-y,z
x,1/2+y,1/2+z
-x,1/2-y,1/2+z
-x,1/2+y,1/2+z
x,1/2-y,1/2+z
loop_
_atom_site_type_symbol
_atom_site_label
_atom_site_fract_x
_atom_site_fract_y
_atom_site_fract_z
Si Si1 0.338953 0.500000 0.821010
Si Si2 0.164196 0.841954 0.580061
Si Si3 0.657112 0.892962 0.164627
Si Si4 0.662028 0.766367 0.730492
Si Si5 0.160974 0.580226 0.493991
Si Si6 0.837955 0.500000 0.001911
Si Si7 0.834084 0.733193 0.412086
O O1 0.500000 0.500000 0.853868
O O2 0.302191 0.572838 0.762735
O O3 0.244231 0.500000 0.908679
O O4 0.255318 0.827140 0.671268
O O5 0.205632 0.788182 0.495423
O O6 0.000000 0.830693 0.604119
O O7 0.199917 0.926644 0.558117
O O8 0.500000 0.918891 0.138389
O O9 0.666502 0.805565 0.167709
O O10 0.759471 0.924797 0.089216
O O11 0.500000 0.790772 0.749697
O O12 0.741132 0.746290 0.824543
O O13 0.179792 0.500000 0.443782
O O14 0.212854 0.648778 0.433219
O O15 0.000000 0.595066 0.519744
O O16 0.000000 0.500000 0.974182
O O17 0.000000 0.739369 0.388694
#
# Coordination Sequence:
#
# PCOD8179264 Si02
#       7
#     4   8   8   8   8   4   8
#     4  10  20  34  54  83 118 151 180 223 288 348
#     4  10  21  40  62  84 114 151 191 238 287 336
#     4  10  20  34  54  82 116 149 182 224 281 341
#     4  11  23  37  58  87 115 151 195 236 281 338
#     4  10  20  35  57  85 113 144 185 232 280 331
#     4  10  22  38  58  85 112 145 192 239 282 330
#     4  10  21  38  60  84 114 152 191 234 286 340
#
# _framework density 19.131077999999999
#
# number of rings (size 3 to 8) (size 9 to 14) (size 15 to 20)
#    0.000    1.833    2.500    1.500    0.000    3.333 
#    1.500    0.000    0.000    0.000    0.000    0.000 
#    0.000    0.000    0.000    0.000    0.000    0.000 
#
# Total GULP energy -297549.995534 kJ/mol
# GULP energy per Si atom -12397.916481 kJ/mol
# Density = 1.908754 g / cm^3
# Si number density = 19.131078 Si / 1000 Ang^3
#
#
#
# Elastic Constant Matrix: (Units=GPa)
#
#
# Indices 1 2 3 4 5 6 
#
# 1 63.1428 27.3793 38.1785 0.0000 0.0000 0.0000
# 2 27.3793 114.7739 18.5971 0.0000 0.0000 0.0000
# 3 38.1785 18.5971 65.5981 0.0000 0.0000 0.0000
# 4 0.0000 0.0000 0.0000 17.0213 0.0000 0.0000
# 5 0.0000 0.0000 0.0000 0.0000 61.1567 0.0000
# 6 0.0000 0.0000 0.0000 0.0000 0.0000 7.6486
#
#
#
# Elastic Compliance Matrix: (Units=1/GPa)
#
#
# Indices 1 2 3 4 5 6 
#
# 1 0.026028 -0.003935 -0.014033 0.000000 0.000000 0.000000
# 2 -0.003935 0.009727 -0.000467 0.000000 0.000000 0.000000
# 3 -0.014033 -0.000467 0.023544 0.000000 0.000000 0.000000
# 4 0.000000 0.000000 0.000000 0.058750 0.000000 0.000000
# 5 0.000000 0.000000 0.000000 0.000000 0.016351 0.000000
# 6 0.000000 0.000000 0.000000 0.000000 0.000000 0.130743
#
#
# Mechanical properties :
#
#
# Convention : Reuss Voigt Hill
#
# Bulk Modulus (GPa) = 44.58606 45.75828 45.17217
# Shear Modulus (GPa) = 16.15554 27.78932 21.97243
#
# Velocity S-wave (km/s) = 2.90912 3.81540 3.39266
# Velocity P-wave (km/s) = 5.88559 6.58634 6.24580
#
# Compressibility (1/GPa) = 0.02242854
#
# Stress axis : x y z
#
# Youngs Moduli (GPa) = 38.41953 102.80385 42.47335
#
# Poissons Ratio (x) = 0.40456 0.59603
# Poissons Ratio (y) = 0.15119 0.01985
# Poissons Ratio (z) = 0.53914 0.04804
#
# Static dielectric constant tensor:
#      x y z
#    x 3.496440 0.000000 0.000000 
#    y 0.000000 2.379900 0.000000 
#    z 0.000000 0.000000 3.192470 
# 
# 
# High freq. dielectric constant tensor:
#      x y z
#    x 1.742880 0.000000 0.000000 
#    y 0.000000 1.760080 0.000000 
#    z 0.000000 0.000000 1.724660 
# 
# From -- ./inp_files/12060.got.cif
#   From: 2010.03.12/outbox.cif.g09.slc.cpg/sg38_7_cif.got.tgz:12060.got - 2010.04.14 02:38:36.
