data_PCOD8179220
_publ_section_title
;
Structure prediction by ZEFSAII (Michael W. Deem and Ramdas Pophale) SiO2 
 PCOD8179220
Probable space group: A M M 2
;
_chemical_formula_sum "Si O2"
_cell_formula_units_Z 48
_cell_length_a 7.810852
_cell_length_b 9.255338
_cell_length_c 34.353473
_cell_angle_alpha 90.000000
_cell_angle_beta 90.000000
_cell_angle_gamma 90.000000
_cell_volume 2483.483858
_symmetry_space_group_name_H-M "A M M 2"
_symmetry_group_IT_number 38
_symmetry_cell_setting 'orthorhombic'
loop_
_space_group_symop_operation_xyz
x,y,z
-x,-y,z
-x,y,z
x,-y,z
x,1/2+y,1/2+z
-x,1/2-y,1/2+z
-x,1/2+y,1/2+z
x,1/2-y,1/2+z
loop_
_atom_site_type_symbol
_atom_site_label
_atom_site_fract_x
_atom_site_fract_y
_atom_site_fract_z
Si Si1 0.192503 0.166469 0.138260
Si Si2 0.303016 0.158856 0.286317
Si Si3 0.799307 0.338292 0.358473
Si Si4 0.810242 0.328060 0.445552
Si Si5 0.500000 0.671032 0.584507
Si Si6 0.702945 0.666145 0.213173
Si Si7 0.500000 0.827160 0.997301
O O1 0.328842 0.224672 0.106583
O O2 0.205543 0.259620 0.176987
O O3 0.000000 0.182085 0.121167
O O4 0.233553 0.000000 0.148673
O O5 0.500000 0.139360 0.276459
O O6 0.287208 0.231089 0.328304
O O7 0.223972 0.258700 0.252330
O O8 0.214685 0.000000 0.286487
O O9 0.724085 0.500000 0.352810
O O10 0.758772 0.280086 0.401865
O O11 0.000000 0.340783 0.351037
O O12 0.815875 0.500000 0.446486
O O13 0.669747 0.267500 0.475660
O O14 0.000000 0.268345 0.456598
O O15 0.500000 0.500000 0.581364
O O16 0.500000 0.736023 0.540998
O O17 0.500000 0.682756 0.208706
O O18 0.758679 0.500000 0.214898
O O19 0.500000 0.000000 0.996815
#
# Coordination Sequence:
#
# PCOD8179220 Si02
#       7
#     8   8   8   8   4   8   4
#     4  10  20  34  54  78 106 143 177 210 261 315
#     4  10  21  34  50  75 105 138 175 215 259 307
#     4   9  18  32  49  71 101 137 176 219 261 301
#     4   8  15  27  43  69 104 136 171 214 256 304
#     4   9  18  32  49  74 109 138 171 216 257 313
#     4  10  20  35  55  77 102 136 177 221 266 309
#     4   9  16  26  46  74 101 138 171 202 261 313
#
# _framework density 19.327687000000001
#
# number of rings (size 3 to 8) (size 9 to 14) (size 15 to 20)
#    0.000    2.667    0.833    2.000    1.167    3.667 
#    0.000    3.333    0.000    0.000    0.000    2.333 
#    0.000    2.667    0.000    0.000    0.000    0.000 
#
# Total GULP energy -297527.217222 kJ/mol
# GULP energy per Si atom -12396.967384 kJ/mol
# Density = 1.928370 g / cm^3
# Si number density = 19.327687 Si / 1000 Ang^3
#
#
#
# Elastic Constant Matrix: (Units=GPa)
#
#
# Indices 1 2 3 4 5 6 
#
# 1 96.6851 30.4328 67.8156 0.0000 0.0000 0.0000
# 2 30.4328 79.6783 48.9486 0.0000 0.0000 0.0000
# 3 67.8156 48.9486 162.0785 0.0000 0.0000 0.0000
# 4 0.0000 0.0000 0.0000 18.4693 0.0000 0.0000
# 5 0.0000 0.0000 0.0000 0.0000 14.5760 0.0000
# 6 0.0000 0.0000 0.0000 0.0000 0.0000 13.7966
#
#
#
# Elastic Compliance Matrix: (Units=1/GPa)
#
#
# Indices 1 2 3 4 5 6 
#
# 1 0.014974 -0.002296 -0.005572 0.000000 0.000000 0.000000
# 2 -0.002296 0.015762 -0.003799 0.000000 0.000000 0.000000
# 3 -0.005572 -0.003799 0.009648 0.000000 0.000000 0.000000
# 4 0.000000 0.000000 0.000000 0.054144 0.000000 0.000000
# 5 0.000000 0.000000 0.000000 0.000000 0.068606 0.000000
# 6 0.000000 0.000000 0.000000 0.000000 0.000000 0.072481
#
#
# Mechanical properties :
#
#
# Convention : Reuss Voigt Hill
#
# Bulk Modulus (GPa) = 58.65370 70.31509 64.48439
# Shear Modulus (GPa) = 18.89415 22.11807 20.50611
#
# Velocity S-wave (km/s) = 3.13000 3.38653 3.26079
# Velocity P-wave (km/s) = 6.59359 7.19381 6.90023
#
# Compressibility (1/GPa) = 0.01704922
#
# Stress axis : x y z
#
# Youngs Moduli (GPa) = 66.78399 63.44565 103.64311
#
# Poissons Ratio (x) = 0.14569 0.57746
# Poissons Ratio (y) = 0.15336 0.39377
# Poissons Ratio (z) = 0.37210 0.24105
#
# Static dielectric constant tensor:
#      x y z
#    x 3.595000 0.000000 0.000000 
#    y 0.000000 3.308550 0.000000 
#    z 0.000000 0.000000 3.638170 
# 
# 
# High freq. dielectric constant tensor:
#      x y z
#    x 1.752690 0.000000 0.000000 
#    y 0.000000 1.709420 0.000000 
#    z 0.000000 0.000000 1.750780 
# 
# From -- ./inp_files/24366.got.cif
#   From: 2010.03.12/outbox.cif.g09.slc.cpg/sg38_13_cif.got.tgz:24366.got - 2010.04.14 02:38:36.
