data_PCOD8179451
_publ_section_title
;
Structure prediction by ZEFSAII (Michael W. Deem and Ramdas Pophale) SiO2 
 PCOD8179451
Probable space group: A M M 2
;
_chemical_formula_sum "Si O2"
_cell_formula_units_Z 56
_cell_length_a 23.678875
_cell_length_b 8.571217
_cell_length_c 14.363340
_cell_angle_alpha 90.000000
_cell_angle_beta 90.000000
_cell_angle_gamma 90.000000
_cell_volume 2915.137178
_symmetry_space_group_name_H-M "A M M 2"
_symmetry_group_IT_number 38
_symmetry_cell_setting 'orthorhombic'
loop_
_space_group_symop_operation_xyz
x,y,z
-x,-y,z
-x,y,z
x,-y,z
x,1/2+y,1/2+z
-x,1/2-y,1/2+z
-x,1/2+y,1/2+z
x,1/2-y,1/2+z
loop_
_atom_site_type_symbol
_atom_site_label
_atom_site_fract_x
_atom_site_fract_y
_atom_site_fract_z
Si Si1 0.562543 0.184432 0.425490
Si Si2 0.732810 0.317635 0.430114
Si Si3 0.345728 0.183561 0.281281
Si Si4 0.063436 0.822914 0.264980
Si Si5 0.935546 0.320961 0.071953
Si Si6 0.862977 0.679393 0.420125
Si Si7 0.650719 0.183085 0.576868
O O1 0.500000 0.260945 0.424238
O O2 0.596757 0.237947 0.333476
O O3 0.595527 0.237530 0.518693
O O4 0.557368 0.000000 0.425727
O O5 0.723366 0.500000 0.447414
O O6 0.706580 0.269404 0.330700
O O7 0.798106 0.271752 0.428425
O O8 0.705517 0.223882 0.515854
O O9 0.348959 0.225792 0.173498
O O10 0.336562 0.000000 0.293196
O O11 0.075084 0.705692 0.180757
O O12 0.108023 0.789479 0.344911
O O13 0.000000 0.797522 0.304388
O O14 0.071179 0.000000 0.230126
O O15 0.922357 0.500000 0.047370
O O16 0.000000 0.278232 0.045898
O O17 0.893315 0.207556 0.018136
O O18 0.869327 0.500000 0.390551
O O19 0.650184 0.000000 0.597604
#
# Coordination Sequence:
#
# PCOD8179451 Si02
#       7
#     8   8   8   8   8   8   8
#     4   8  16  32  53  80 113 144 178 220 262 310
#     4  10  22  39  56  77 106 139 181 228 270 316
#     4  10  20  35  57  81 108 145 182 219 267 317
#     4  10  21  37  57  81 109 141 176 216 264 319
#     4  10  21  37  57  81 109 141 176 216 264 319
#     4  11  23  37  56  81 107 139 177 221 272 321
#     4  10  20  35  57  81 108 145 182 219 267 317
#
# _framework density 19.210073999999999
#
# number of rings (size 3 to 8) (size 9 to 14) (size 15 to 20)
#    0.000    2.143    0.000    3.857    0.000    7.429 
#    0.000    0.000    0.000   14.571    0.000    0.000 
#    0.000    0.000    0.000    0.000    0.000    0.000 
#
# Total GULP energy -347254.092636 kJ/mol
# GULP energy per Si atom -12401.931880 kJ/mol
# Density = 1.916635 g / cm^3
# Si number density = 19.210074 Si / 1000 Ang^3
#
#
#
# Elastic Constant Matrix: (Units=GPa)
#
#
# Indices 1 2 3 4 5 6 
#
# 1 147.0764 33.7702 59.2632 0.0000 0.0000 0.0000
# 2 33.7702 40.9463 9.8843 0.0000 0.0000 0.0000
# 3 59.2632 9.8843 110.5337 0.0000 0.0000 0.0000
# 4 0.0000 0.0000 0.0000 34.3474 0.0000 0.0000
# 5 0.0000 0.0000 0.0000 0.0000 26.9695 0.0000
# 6 0.0000 0.0000 0.0000 0.0000 0.0000 24.1233
#
#
#
# Elastic Compliance Matrix: (Units=1/GPa)
#
#
# Indices 1 2 3 4 5 6 
#
# 1 0.010519 -0.007475 -0.004971 0.000000 0.000000 0.000000
# 2 -0.007475 0.030273 0.001301 0.000000 0.000000 0.000000
# 3 -0.004971 0.001301 0.011596 0.000000 0.000000 0.000000
# 4 0.000000 0.000000 0.000000 0.029114 0.000000 0.000000
# 5 0.000000 0.000000 0.000000 0.000000 0.037079 0.000000
# 6 0.000000 0.000000 0.000000 0.000000 0.000000 0.041454
#
#
# Mechanical properties :
#
#
# Convention : Reuss Voigt Hill
#
# Bulk Modulus (GPa) = 33.22617 56.04354 44.63486
# Shear Modulus (GPa) = 25.99314 30.13062 28.06188
#
# Velocity S-wave (km/s) = 3.68244 3.96470 3.82617
# Velocity P-wave (km/s) = 5.95099 7.08490 6.54256
#
# Compressibility (1/GPa) = 0.03009676
#
# Stress axis : x y z
#
# Youngs Moduli (GPa) = 95.06919 33.03232 86.23646
#
# Poissons Ratio (x) = 0.24692 0.42870
# Poissons Ratio (y) = 0.71066 -0.11217
# Poissons Ratio (z) = 0.47261 -0.04297
#
# Static dielectric constant tensor:
#      x y z
#    x 3.681270 0.000000 0.000000 
#    y 0.000000 3.456900 0.000000 
#    z 0.000000 0.000000 3.432620 
# 
# 
# High freq. dielectric constant tensor:
#      x y z
#    x 1.747040 0.000000 0.000000 
#    y 0.000000 1.745800 0.000000 
#    z 0.000000 0.000000 1.749070 
# 
# From -- ./inp_files/15457.got.cif
#   From: 2010.03.12/outbox.cif.g09.slc.cpg/sg38_8_cif.got.tgz:15457.got - 2010.04.14 02:38:36.
