data_PCOD8179311
_publ_section_title
;
Structure prediction by ZEFSAII (Michael W. Deem and Ramdas Pophale) SiO2 
 PCOD8179311
Probable space group: A M M 2
;
_chemical_formula_sum "Si O2"
_cell_formula_units_Z 56
_cell_length_a 8.653056
_cell_length_b 14.130276
_cell_length_c 22.730195
_cell_angle_alpha 90.000000
_cell_angle_beta 90.000000
_cell_angle_gamma 90.000000
_cell_volume 2779.222523
_symmetry_space_group_name_H-M "A M M 2"
_symmetry_group_IT_number 38
_symmetry_cell_setting 'orthorhombic'
loop_
_space_group_symop_operation_xyz
x,y,z
-x,-y,z
-x,y,z
x,-y,z
x,1/2+y,1/2+z
-x,1/2-y,1/2+z
-x,1/2+y,1/2+z
x,1/2-y,1/2+z
loop_
_atom_site_type_symbol
_atom_site_label
_atom_site_fract_x
_atom_site_fract_y
_atom_site_fract_z
Si Si1 0.680656 0.107426 0.844640
Si Si2 0.819121 0.107497 0.152773
Si Si3 0.177276 0.391631 0.221611
Si Si4 0.179743 0.287107 0.883900
Si Si5 0.677882 0.391971 0.775758
Si Si6 0.679579 0.712791 0.113122
Si Si7 0.179619 0.389554 0.004005
O O1 0.500000 0.119438 0.855832
O O2 0.718121 0.135499 0.777360
O O3 0.774265 0.176263 0.888792
O O4 0.735199 0.000000 0.857261
O O5 0.780398 0.136998 0.219729
O O6 0.728409 0.176742 0.107990
O O7 0.000000 0.118274 0.141855
O O8 0.763568 0.000000 0.140623
O O9 0.203934 0.500000 0.203150
O O10 0.222344 0.329296 0.166302
O O11 0.000000 0.372067 0.238669
O O12 0.278494 0.328599 0.830829
O O13 0.000000 0.300018 0.870453
O O14 0.226548 0.340630 0.943110
O O15 0.500000 0.375095 0.758937
O O16 0.710641 0.500000 0.793557
O O17 0.500000 0.702422 0.126856
O O18 0.717098 0.658065 0.053640
O O19 0.219724 0.500000 0.999711
O O20 0.000000 0.373351 0.018839
#
# Coordination Sequence:
#
# PCOD8179311 Si02
#       7
#     8   8   8   8   8   8   8
#     4  10  21  37  57  83 116 150 186 231 281 333
#     4  10  21  38  60  84 112 148 190 233 276 328
#     4  10  20  35  57  84 115 151 190 232 278 331
#     4  11  22  37  59  84 112 148 190 234 279 330
#     4  10  20  34  55  85 120 153 185 227 280 335
#     4  12  24  37  57  84 115 149 185 230 284 338
#     4  10  23  43  63  83 110 146 189 233 274 324
#
# _framework density 20.149519999999999
#
# number of rings (size 3 to 8) (size 9 to 14) (size 15 to 20)
#    0.000    1.571    0.000    5.143    0.000    7.143 
#    0.000    0.714    0.000    0.857    0.000    0.000 
#    0.000    0.000    0.000    0.000    0.000    0.000 
#
# Total GULP energy -347348.097789 kJ/mol
# GULP energy per Si atom -12405.289207 kJ/mol
# Density = 2.010366 g / cm^3
# Si number density = 20.149520 Si / 1000 Ang^3
#
#
#
# Elastic Constant Matrix: (Units=GPa)
#
#
# Indices 1 2 3 4 5 6 
#
# 1 59.6195 28.8474 19.0822 0.0000 0.0000 0.0000
# 2 28.8474 118.0722 61.1777 0.0000 0.0000 0.0000
# 3 19.0822 61.1777 67.9005 0.0000 0.0000 0.0000
# 4 0.0000 0.0000 0.0000 35.8763 0.0000 0.0000
# 5 0.0000 0.0000 0.0000 0.0000 26.3817 0.0000
# 6 0.0000 0.0000 0.0000 0.0000 0.0000 33.1612
#
#
#
# Elastic Compliance Matrix: (Units=1/GPa)
#
#
# Indices 1 2 3 4 5 6 
#
# 1 0.019194 -0.003554 -0.002192 0.000000 0.000000 0.000000
# 2 -0.003554 0.016543 -0.013906 0.000000 0.000000 0.000000
# 3 -0.002192 -0.013906 0.027873 0.000000 0.000000 0.000000
# 4 0.000000 0.000000 0.000000 0.027874 0.000000 0.000000
# 5 0.000000 0.000000 0.000000 0.000000 0.037905 0.000000
# 6 0.000000 0.000000 0.000000 0.000000 0.000000 0.030156
#
#
# Mechanical properties :
#
#
# Convention : Reuss Voigt Hill
#
# Bulk Modulus (GPa) = 41.14305 51.53409 46.33857
# Shear Modulus (GPa) = 24.16025 28.18283 26.17154
#
# Velocity S-wave (km/s) = 3.46648 3.74396 3.60789
# Velocity P-wave (km/s) = 6.04030 6.65740 6.35634
#
# Compressibility (1/GPa) = 0.02430544
#
# Stress axis : x y z
#
# Youngs Moduli (GPa) = 52.09917 60.44833 35.87681
#
# Poissons Ratio (x) = 0.21480 0.07866
# Poissons Ratio (y) = 0.18513 0.49892
# Poissons Ratio (z) = 0.11423 0.84062
#
# Static dielectric constant tensor:
#      x y z
#    x 3.610120 0.000000 0.000000 
#    y 0.000000 4.087350 0.000000 
#    z 0.000000 0.000000 3.416920 
# 
# 
# High freq. dielectric constant tensor:
#      x y z
#    x 1.792020 0.000000 0.000000 
#    y 0.000000 1.808780 0.000000 
#    z 0.000000 0.000000 1.759570 
# 
# From -- ./inp_files/19770.got.cif
#   From: 2010.03.12/outbox.cif.g09.slc.cpg/sg38_10_cif.got.tgz:19770.got - 2010.04.14 02:38:36.
