data_PCOD8179028
_publ_section_title
;
Structure prediction by ZEFSAII (Michael W. Deem and Ramdas Pophale) SiO2 
 PCOD8179028
Probable space group: A M M 2
;
_chemical_formula_sum "Si O2"
_cell_formula_units_Z 48
_cell_length_a 15.327043
_cell_length_b 9.044986
_cell_length_c 19.410475
_cell_angle_alpha 90.000000
_cell_angle_beta 90.000000
_cell_angle_gamma 90.000000
_cell_volume 2690.930233
_symmetry_space_group_name_H-M "A M M 2"
_symmetry_group_IT_number 38
_symmetry_cell_setting 'orthorhombic'
loop_
_space_group_symop_operation_xyz
x,y,z
-x,-y,z
-x,y,z
x,-y,z
x,1/2+y,1/2+z
-x,1/2-y,1/2+z
-x,1/2+y,1/2+z
x,1/2-y,1/2+z
loop_
_atom_site_type_symbol
_atom_site_label
_atom_site_fract_x
_atom_site_fract_y
_atom_site_fract_z
Si Si1 0.906987 0.332741 0.988850
Si Si2 0.733255 0.329515 0.135475
Si Si3 0.398750 0.172813 0.232311
Si Si4 0.279208 0.666583 0.972529
Si Si5 0.399665 0.171500 0.871435
Si Si6 0.904098 0.328056 0.628970
O O1 0.898689 0.500000 0.020377
O O2 0.000000 0.319518 0.947473
O O3 0.819942 0.306775 0.942972
O O4 0.908983 0.213581 0.049025
O O5 0.728840 0.500000 0.156128
O O6 0.653332 0.245562 0.170201
O O7 0.723442 0.303947 0.054038
O O8 0.825532 0.264549 0.163720
O O9 0.500000 0.209488 0.220022
O O10 0.367019 0.239429 0.304879
O O11 0.379932 0.000000 0.233741
O O12 0.310981 0.500000 0.956522
O O13 0.344341 0.780850 0.937642
O O14 0.500000 0.207536 0.888067
O O15 0.384755 0.000000 0.856785
O O16 0.881293 0.500000 0.635864
O O17 0.000000 0.294231 0.662513
#
# Coordination Sequence:
#
# PCOD8179028 Si02
#       6
#     8   8   8   8   8   8
#     4   8  14  26  44  67  97 131 164 198 241 293
#     4  10  20  33  51  76 105 135 167 206 249 293
#     4  10  21  37  56  75  97 128 165 206 253 305
#     4   9  18  31  49  75 103 131 163 201 245 288
#     4  10  21  36  53  72  96 129 167 205 247 298
#     4   9  16  26  43  69 100 132 166 204 245 290
#
# _framework density 17.837698
#
# number of rings (size 3 to 8) (size 9 to 14) (size 15 to 20)
#    0.000    2.667    0.000    3.000    0.000    7.000 
#    0.000    3.333    0.000    1.000    0.000    2.333 
#    0.000    0.000    0.000    0.000    0.000    0.000 
#
# Total GULP energy -297416.984864 kJ/mol
# GULP energy per Si atom -12392.374369 kJ/mol
# Density = 1.779710 g / cm^3
# Si number density = 17.837698 Si / 1000 Ang^3
#
#
#
# Elastic Constant Matrix: (Units=GPa)
#
#
# Indices 1 2 3 4 5 6 
#
# 1 117.7676 61.3590 45.6046 0.0000 0.0000 0.0000
# 2 61.3590 96.0552 33.7514 0.0000 0.0000 0.0000
# 3 45.6046 33.7514 45.6644 0.0000 0.0000 0.0000
# 4 0.0000 0.0000 0.0000 27.3486 0.0000 0.0000
# 5 0.0000 0.0000 0.0000 0.0000 3.7361 0.0000
# 6 0.0000 0.0000 0.0000 0.0000 0.0000 32.4752
#
#
#
# Elastic Compliance Matrix: (Units=1/GPa)
#
#
# Indices 1 2 3 4 5 6 
#
# 1 0.016268 -0.006326 -0.011571 0.000000 0.000000 0.000000
# 2 -0.006326 0.016523 -0.005895 0.000000 0.000000 0.000000
# 3 -0.011571 -0.005895 0.037812 0.000000 0.000000 0.000000
# 4 0.000000 0.000000 0.000000 0.036565 0.000000 0.000000
# 5 0.000000 0.000000 0.000000 0.000000 0.267660 0.000000
# 6 0.000000 0.000000 0.000000 0.000000 0.000000 0.030793
#
#
# Mechanical properties :
#
#
# Convention : Reuss Voigt Hill
#
# Bulk Modulus (GPa) = 43.44209 60.10191 51.77200
# Shear Modulus (GPa) = 10.84889 20.63013 15.73951
#
# Velocity S-wave (km/s) = 2.46885 3.40449 2.97370
# Velocity P-wave (km/s) = 5.70385 7.01577 6.39355
#
# Compressibility (1/GPa) = 0.02301915
#
# Stress axis : x y z
#
# Youngs Moduli (GPa) = 61.46992 60.52187 26.44687
#
# Poissons Ratio (x) = 0.38287 0.30602
# Poissons Ratio (y) = 0.38887 0.15589
# Poissons Ratio (z) = 0.71127 0.35675
#
# Static dielectric constant tensor:
#      x y z
#    x 3.744510 0.000000 0.000000 
#    y 0.000000 3.367380 0.000000 
#    z 0.000000 0.000000 2.816350 
# 
# 
# High freq. dielectric constant tensor:
#      x y z
#    x 1.711730 0.000000 0.000000 
#    y 0.000000 1.702290 0.000000 
#    z 0.000000 0.000000 1.631950 
# 
# From -- ./inp_files/14980.got.cif
#   From: 2010.03.12/outbox.cif.g09.slc.cpg/sg38_8_cif.got.tgz:14980.got - 2010.04.14 02:38:36.
