data_PCOD8179574
_publ_section_title
;
Structure prediction by ZEFSAII (Michael W. Deem and Ramdas Pophale) SiO2 
 PCOD8179574
Probable space group: A M M 2
;
_chemical_formula_sum "Si O2"
_cell_formula_units_Z 56
_cell_length_a 19.392748
_cell_length_b 8.917015
_cell_length_c 15.954309
_cell_angle_alpha 90.000000
_cell_angle_beta 90.000000
_cell_angle_gamma 90.000000
_cell_volume 2758.905661
_symmetry_space_group_name_H-M "A M M 2"
_symmetry_group_IT_number 38
_symmetry_cell_setting 'orthorhombic'
loop_
_space_group_symop_operation_xyz
x,y,z
-x,-y,z
-x,y,z
x,-y,z
x,1/2+y,1/2+z
-x,1/2-y,1/2+z
-x,1/2+y,1/2+z
x,1/2-y,1/2+z
loop_
_atom_site_type_symbol
_atom_site_label
_atom_site_fract_x
_atom_site_fract_y
_atom_site_fract_z
Si Si1 0.159949 0.677277 0.744160
Si Si2 0.079144 0.177649 0.083196
Si Si3 0.422122 0.325189 0.923958
Si Si4 0.301199 0.168917 0.175856
Si Si5 0.292376 0.668999 0.486058
Si Si6 0.577068 0.172002 0.749209
Si Si7 0.840226 0.176803 0.430690
O O1 0.159462 0.500000 0.734466
O O2 0.112318 0.743476 0.669405
O O3 0.239301 0.731435 0.734015
O O4 0.132976 0.722287 0.837061
O O5 0.000000 0.227496 0.083590
O O6 0.087787 0.000000 0.078547
O O7 0.113667 0.243917 0.000148
O O8 0.500000 0.287472 0.953261
O O9 0.406196 0.500000 0.932725
O O10 0.369676 0.232778 0.980935
O O11 0.411132 0.277662 0.828422
O O12 0.367261 0.277686 0.180553
O O13 0.323268 0.000000 0.201063
O O14 0.270414 0.170644 0.082665
O O15 0.290194 0.500000 0.450176
O O16 0.239187 0.771744 0.435401
O O17 0.500000 0.193336 0.712140
O O18 0.589221 0.000000 0.775156
O O19 0.844080 0.000000 0.444514
#
# Coordination Sequence:
#
# PCOD8179574 Si02
#       7
#     8   8   8   8   8   8   8
#     4   9  19  38  61  87 118 157 202 241 290 358
#     4  10  21  41  66  89 121 163 201 241 296 364
#     4  10  21  37  56  79 112 154 199 248 304 363
#     4  10  20  36  58  81 112 152 198 248 297 360
#     4  11  22  37  59  85 116 155 202 251 300 362
#     4  10  21  36  54  79 112 149 195 250 304 360
#     4  11  22  37  63  94 124 158 200 253 305 357
#
# _framework density 20.297903000000002
#
# number of rings (size 3 to 8) (size 9 to 14) (size 15 to 20)
#    0.000    1.857    1.429    2.571    0.000    5.429 
#    0.000    6.429    0.000    0.000    0.000    0.000 
#    0.000    0.000    0.000    0.000    0.000    0.000 
#
# Total GULP energy -347182.357781 kJ/mol
# GULP energy per Si atom -12399.369921 kJ/mol
# Density = 2.025170 g / cm^3
# Si number density = 20.297903 Si / 1000 Ang^3
#
#
#
# Elastic Constant Matrix: (Units=GPa)
#
#
# Indices 1 2 3 4 5 6 
#
# 1 127.0819 37.4636 60.8571 0.0000 0.0000 0.0000
# 2 37.4636 46.8386 20.1234 0.0000 0.0000 0.0000
# 3 60.8571 20.1234 111.9643 0.0000 0.0000 0.0000
# 4 0.0000 0.0000 0.0000 29.8377 0.0000 0.0000
# 5 0.0000 0.0000 0.0000 0.0000 28.7989 0.0000
# 6 0.0000 0.0000 0.0000 0.0000 0.0000 29.1050
#
#
#
# Elastic Compliance Matrix: (Units=1/GPa)
#
#
# Indices 1 2 3 4 5 6 
#
# 1 0.012866 -0.007896 -0.005574 0.000000 0.000000 0.000000
# 2 -0.007896 0.027982 -0.000737 0.000000 0.000000 0.000000
# 3 -0.005574 -0.000737 0.012094 0.000000 0.000000 0.000000
# 4 0.000000 0.000000 0.000000 0.033515 0.000000 0.000000
# 5 0.000000 0.000000 0.000000 0.000000 0.034724 0.000000
# 6 0.000000 0.000000 0.000000 0.000000 0.000000 0.034358
#
#
# Mechanical properties :
#
#
# Convention : Reuss Voigt Hill
#
# Bulk Modulus (GPa) = 40.77144 58.08588 49.42866
# Shear Modulus (GPa) = 26.02416 28.71103 27.36759
#
# Velocity S-wave (km/s) = 3.58454 3.76504 3.67590
# Velocity P-wave (km/s) = 6.10427 6.89779 6.51312
#
# Compressibility (1/GPa) = 0.02452697
#
# Stress axis : x y z
#
# Youngs Moduli (GPa) = 77.72448 35.73685 82.68789
#
# Poissons Ratio (x) = 0.28218 0.46090
# Poissons Ratio (y) = 0.61371 0.06098
# Poissons Ratio (z) = 0.43324 0.02636
#
# Static dielectric constant tensor:
#      x y z
#    x 3.748780 0.000000 0.000000 
#    y 0.000000 3.520310 0.000000 
#    z 0.000000 0.000000 3.666000 
# 
# 
# High freq. dielectric constant tensor:
#      x y z
#    x 1.795180 0.000000 0.000000 
#    y 0.000000 1.778600 0.000000 
#    z 0.000000 0.000000 1.793180 
# 
# From -- ./inp_files/15436.got.cif
#   From: 2010.03.12/outbox.cif.g09.slc.cpg/sg38_8_cif.got.tgz:15436.got - 2010.04.14 02:38:36.
