data_PCOD8179214
_publ_section_title
;
Structure prediction by ZEFSAII (Michael W. Deem and Ramdas Pophale) SiO2 
 PCOD8179214
Probable space group: A M M 2
;
_chemical_formula_sum "Si O2"
_cell_formula_units_Z 64
_cell_length_a 24.289869
_cell_length_b 9.455069
_cell_length_c 14.912695
_cell_angle_alpha 90.000000
_cell_angle_beta 90.000000
_cell_angle_gamma 90.000000
_cell_volume 3424.885136
_symmetry_space_group_name_H-M "A M M 2"
_symmetry_group_IT_number 38
_symmetry_cell_setting 'orthorhombic'
loop_
_space_group_symop_operation_xyz
x,y,z
-x,-y,z
-x,y,z
x,-y,z
x,1/2+y,1/2+z
-x,1/2-y,1/2+z
-x,1/2+y,1/2+z
x,1/2-y,1/2+z
loop_
_atom_site_type_symbol
_atom_site_label
_atom_site_fract_x
_atom_site_fract_y
_atom_site_fract_z
Si Si1 0.560932 0.158714 0.113270
Si Si2 0.260914 0.164002 0.245485
Si Si3 0.939678 0.332355 0.910525
Si Si4 0.063359 0.664769 0.111799
Si Si5 0.335226 0.832638 0.612717
Si Si6 0.560142 0.341710 0.400308
Si Si7 0.661127 0.162268 0.406354
Si Si8 0.133765 0.833559 0.250526
O O1 0.500000 0.202350 0.148989
O O2 0.606588 0.269297 0.148059
O O3 0.575861 0.000000 0.146634
O O4 0.560216 0.161378 0.006861
O O5 0.286524 0.261815 0.168749
O O6 0.286991 0.194696 0.343104
O O7 0.197516 0.206364 0.253386
O O8 0.268915 0.000000 0.218626
O O9 0.941759 0.500000 0.910146
O O10 0.925543 0.282639 0.010639
O O11 0.000000 0.273839 0.881790
O O12 0.893590 0.276086 0.842318
O O13 0.077375 0.500000 0.123826
O O14 0.104928 0.756391 0.168975
O O15 0.000000 0.694032 0.138858
O O16 0.324893 0.792283 0.508332
O O17 0.335317 0.000000 0.628534
O O18 0.500000 0.288949 0.366025
O O19 0.571235 0.500000 0.365362
O O20 0.608703 0.242908 0.363983
O O21 0.644012 0.000000 0.405270
O O22 0.124461 0.000000 0.239105
#
# Coordination Sequence:
#
# PCOD8179214 Si02
#       8
#     8   8   8   8   8   8   8   8
#     4   8  14  27  49  75 102 133 165 199 251 316
#     4  10  22  38  52  71 102 138 176 214 254 303
#     4   8  15  30  53  79 105 135 169 202 245 304
#     4   9  18  33  54  81 111 139 166 202 253 307
#     4  10  20  34  54  78 101 129 169 217 262 301
#     4   8  14  26  47  75 102 127 159 202 255 312
#     4   9  19  35  53  73  99 132 170 212 256 302
#     4  10  20  34  54  77 101 135 178 218 250 289
#
# _framework density 18.686758000000001
#
# number of rings (size 3 to 8) (size 9 to 14) (size 15 to 20)
#    0.000    3.000    0.000    2.250    0.000    3.750 
#    0.000    6.250    0.000    1.500    0.000    0.000 
#    0.000    0.000    0.000    0.000    0.000    0.000 
#
# Total GULP energy -396674.748951 kJ/mol
# GULP energy per Si atom -12396.085905 kJ/mol
# Density = 1.864423 g / cm^3
# Si number density = 18.686758 Si / 1000 Ang^3
#
#
#
# Elastic Constant Matrix: (Units=GPa)
#
#
# Indices 1 2 3 4 5 6 
#
# 1 174.5509 71.5482 77.9171 0.0000 0.0000 0.0000
# 2 71.5482 69.7855 45.9212 0.0000 0.0000 0.0000
# 3 77.9171 45.9212 89.8482 0.0000 0.0000 0.0000
# 4 0.0000 0.0000 0.0000 25.9659 0.0000 0.0000
# 5 0.0000 0.0000 0.0000 0.0000 40.0225 0.0000
# 6 0.0000 0.0000 0.0000 0.0000 0.0000 14.8039
#
#
#
# Elastic Compliance Matrix: (Units=1/GPa)
#
#
# Indices 1 2 3 4 5 6 
#
# 1 0.011730 -0.008035 -0.006066 0.000000 0.000000 0.000000
# 2 -0.008035 0.027095 -0.006880 0.000000 0.000000 0.000000
# 3 -0.006066 -0.006880 0.019907 0.000000 0.000000 0.000000
# 4 0.000000 0.000000 0.000000 0.038512 0.000000 0.000000
# 5 0.000000 0.000000 0.000000 0.000000 0.024986 0.000000
# 6 0.000000 0.000000 0.000000 0.000000 0.000000 0.067550
#
#
# Mechanical properties :
#
#
# Convention : Reuss Voigt Hill
#
# Bulk Modulus (GPa) = 59.63094 80.55083 70.09088
# Shear Modulus (GPa) = 21.06757 25.41167 23.23962
#
# Velocity S-wave (km/s) = 3.36133 3.69165 3.53036
# Velocity P-wave (km/s) = 6.85892 7.83393 7.36258
#
# Compressibility (1/GPa) = 0.01676982
#
# Stress axis : x y z
#
# Youngs Moduli (GPa) = 85.24965 36.90731 50.23432
#
# Poissons Ratio (x) = 0.29655 0.30472
# Poissons Ratio (y) = 0.68498 0.34562
# Poissons Ratio (z) = 0.51712 0.25393
#
# Static dielectric constant tensor:
#      x y z
#    x 2.939880 0.000000 0.000000 
#    y 0.000000 3.309100 0.000000 
#    z 0.000000 0.000000 3.407780 
# 
# 
# High freq. dielectric constant tensor:
#      x y z
#    x 1.726940 0.000000 0.000000 
#    y 0.000000 1.707280 0.000000 
#    z 0.000000 0.000000 1.718710 
# 
# From -- ./inp_files/15846.got.cif
#   From: 2010.03.12/outbox.cif.g09.slc.cpg/sg38_8_cif.got.tgz:15846.got - 2010.04.14 02:38:36.
