data_PCOD8179568
_publ_section_title
;
Structure prediction by ZEFSAII (Michael W. Deem and Ramdas Pophale) SiO2 
 PCOD8179568
Probable space group: A M M 2
;
_chemical_formula_sum "Si O2"
_cell_formula_units_Z 64
_cell_length_a 9.203515
_cell_length_b 29.114794
_cell_length_c 12.783637
_cell_angle_alpha 90.000000
_cell_angle_beta 90.000000
_cell_angle_gamma 90.000000
_cell_volume 3425.483470
_symmetry_space_group_name_H-M "A M M 2"
_symmetry_group_IT_number 38
_symmetry_cell_setting 'orthorhombic'
loop_
_space_group_symop_operation_xyz
x,y,z
-x,-y,z
-x,y,z
x,-y,z
x,1/2+y,1/2+z
-x,1/2-y,1/2+z
-x,1/2+y,1/2+z
x,1/2-y,1/2+z
loop_
_atom_site_type_symbol
_atom_site_label
_atom_site_fract_x
_atom_site_fract_y
_atom_site_fract_z
Si Si1 0.668827 0.874646 0.809510
Si Si2 0.334303 0.554445 0.709857
Si Si3 0.327925 0.550774 0.476678
Si Si4 0.670664 0.746732 0.079371
Si Si5 0.158227 0.791029 0.897570
Si Si6 0.331366 0.641775 0.075623
Si Si7 0.828271 0.883932 0.372273
Si Si8 0.842975 0.793410 0.252545
O O1 0.500000 0.863097 0.832505
O O2 0.724268 0.916526 0.882291
O O3 0.768899 0.832032 0.835401
O O4 0.689973 0.884996 0.685968
O O5 0.500000 0.570781 0.728326
O O6 0.322884 0.500000 0.719971
O O7 0.281154 0.569190 0.592378
O O8 0.232049 0.576140 0.797899
O O9 0.500000 0.546946 0.476674
O O10 0.261303 0.500000 0.456813
O O11 0.500000 0.745789 0.078427
O O12 0.728450 0.694259 0.086754
O O13 0.719541 0.779805 0.172127
O O14 0.727519 0.772747 0.979475
O O15 0.125372 0.750147 0.821214
O O16 0.000000 0.806009 0.944838
O O17 0.500000 0.642324 0.043008
O O18 0.242733 0.614086 0.987558
O O19 0.784103 0.835488 0.321320
O O20 0.000000 0.890085 0.384962
O O21 0.000000 0.806688 0.200334
#
# Coordination Sequence:
#
# PCOD8179568 Si02
#       8
#     8   8   8   8   8   8   8   8
#     4  10  20  36  57  85 114 144 191 236 277 331
#     4   9  19  38  62  87 114 143 180 229 287 343
#     4   8  16  34  61  88 112 139 173 223 284 338
#     4  11  22  35  53  76 108 148 190 236 278 326
#     4  11  22  36  53  76 112 151 189 227 274 335
#     4  10  21  36  54  79 114 150 189 235 278 327
#     4  11  23  38  57  82 113 150 193 232 278 341
#     4  10  22  37  52  75 109 149 188 229 275 330
#
# _framework density 18.683496000000002
#
# number of rings (size 3 to 8) (size 9 to 14) (size 15 to 20)
#    0.000    2.000    2.500    1.875    1.750    2.750 
#    0.000    0.625    0.000    3.375    0.000    0.000 
#    0.000    0.000    0.000    0.000    0.000    0.000 
#
# Total GULP energy -396611.353719 kJ/mol
# GULP energy per Si atom -12394.104804 kJ/mol
# Density = 1.864097 g / cm^3
# Si number density = 18.683496 Si / 1000 Ang^3
#
#
#
# Elastic Constant Matrix: (Units=GPa)
#
#
# Indices 1 2 3 4 5 6 
#
# 1 58.4712 27.4287 44.1759 0.0000 0.0000 0.0000
# 2 27.4287 67.7999 46.7599 0.0000 0.0000 0.0000
# 3 44.1759 46.7599 132.6132 0.0000 0.0000 0.0000
# 4 0.0000 0.0000 0.0000 31.6143 0.0000 0.0000
# 5 0.0000 0.0000 0.0000 0.0000 23.0972 0.0000
# 6 0.0000 0.0000 0.0000 0.0000 0.0000 25.1194
#
#
#
# Elastic Compliance Matrix: (Units=1/GPa)
#
#
# Indices 1 2 3 4 5 6 
#
# 1 0.024380 -0.005631 -0.006136 0.000000 0.000000 0.000000
# 2 -0.005631 0.020789 -0.005455 0.000000 0.000000 0.000000
# 3 -0.006136 -0.005455 0.011508 0.000000 0.000000 0.000000
# 4 0.000000 0.000000 0.000000 0.031631 0.000000 0.000000
# 5 0.000000 0.000000 0.000000 0.000000 0.043295 0.000000
# 6 0.000000 0.000000 0.000000 0.000000 0.000000 0.039810
#
#
# Mechanical properties :
#
#
# Convention : Reuss Voigt Hill
#
# Bulk Modulus (GPa) = 44.97624 55.06812 50.02218
# Shear Modulus (GPa) = 23.44474 25.33417 24.38946
#
# Velocity S-wave (km/s) = 3.54621 3.68634 3.61695
# Velocity P-wave (km/s) = 6.39472 6.90340 6.65392
#
# Compressibility (1/GPa) = 0.02223396
#
# Stress axis : x y z
#
# Youngs Moduli (GPa) = 41.01779 48.10176 86.89662
#
# Poissons Ratio (x) = 0.27087 0.53317
# Poissons Ratio (y) = 0.23098 0.47398
# Poissons Ratio (z) = 0.25167 0.26237
#
# Static dielectric constant tensor:
#      x y z
#    x 3.340460 0.000000 0.000000 
#    y 0.000000 3.312630 0.000000 
#    z 0.000000 0.000000 3.491710 
# 
# 
# High freq. dielectric constant tensor:
#      x y z
#    x 1.717080 0.000000 0.000000 
#    y 0.000000 1.709320 0.000000 
#    z 0.000000 0.000000 1.730740 
# 
# From -- ./inp_files/8560.got.cif
#   From: 2010.03.12/outbox.cif.g09.slc.cpg/sg38_5_cif.got.tgz:8560.got - 2010.04.14 02:38:36.
