data_PCOD8179477
_publ_section_title
;
Structure prediction by ZEFSAII (Michael W. Deem and Ramdas Pophale) SiO2 
 PCOD8179477
Probable space group: A M M 2
;
_chemical_formula_sum "Si O2"
_cell_formula_units_Z 48
_cell_length_a 16.915619
_cell_length_b 9.059893
_cell_length_c 15.935197
_cell_angle_alpha 90.000000
_cell_angle_beta 90.000000
_cell_angle_gamma 90.000000
_cell_volume 2442.127871
_symmetry_space_group_name_H-M "A M M 2"
_symmetry_group_IT_number 38
_symmetry_cell_setting 'orthorhombic'
loop_
_space_group_symop_operation_xyz
x,y,z
-x,-y,z
-x,y,z
x,-y,z
x,1/2+y,1/2+z
-x,1/2-y,1/2+z
-x,1/2+y,1/2+z
x,1/2-y,1/2+z
loop_
_atom_site_type_symbol
_atom_site_label
_atom_site_fract_x
_atom_site_fract_y
_atom_site_fract_z
Si Si1 0.590931 0.325508 0.451440
Si Si2 0.000000 0.830494 0.620183
Si Si3 0.847742 0.671924 0.361769
Si Si4 0.000000 0.326271 0.792854
Si Si5 0.683239 0.826085 0.790255
Si Si6 0.161449 0.333075 0.027008
Si Si7 0.674487 0.669650 0.105036
O O1 0.500000 0.278710 0.447110
O O2 0.602265 0.500000 0.455110
O O3 0.632684 0.258536 0.367643
O O4 0.628120 0.261491 0.535894
O O5 0.077349 0.794518 0.566945
O O6 0.000000 0.720854 0.697244
O O7 0.000000 0.000000 0.651904
O O8 0.869086 0.500000 0.357428
O O9 0.775703 0.712533 0.300225
O O10 0.820417 0.715284 0.454873
O O11 0.923307 0.766581 0.339032
O O12 0.000000 0.500000 0.800597
O O13 0.654528 0.768274 0.698772
O O14 0.671523 0.000000 0.792324
O O15 0.160177 0.500000 0.990795
O O16 0.230879 0.316180 0.094963
O O17 0.647822 0.500000 0.096367
#
# Coordination Sequence:
#
# PCOD8179477 Si02
#       7
#     8   4   8   4   8   8   8
#     4  10  21  39  61  86 118 153 193 244 298 351
#     4  10  21  38  57  79 113 155 199 243 290 345
#     4  11  21  37  61  84 113 154 202 242 290 355
#     4  12  25  38  53  81 119 153 197 249 298 343
#     4   9  19  37  61  88 116 154 197 239 287 351
#     4  10  20  35  57  86 120 154 192 244 296 345
#     4  10  20  36  60  88 119 155 197 238 290 354
#
# _framework density 19.654990999999999
#
# number of rings (size 3 to 8) (size 9 to 14) (size 15 to 20)
#    0.000    1.833    1.667    2.750    0.000    5.000 
#    0.000    5.833    0.000    0.000    0.000    0.000 
#    0.000    0.000    0.000    0.000    0.000    0.000 
#
# Total GULP energy -297596.025244 kJ/mol
# GULP energy per Si atom -12399.834385 kJ/mol
# Density = 1.961026 g / cm^3
# Si number density = 19.654991 Si / 1000 Ang^3
#
#
#
# Elastic Constant Matrix: (Units=GPa)
#
#
# Indices 1 2 3 4 5 6 
#
# 1 108.4440 45.0151 69.1873 0.0000 0.0000 0.0000
# 2 45.0151 52.7176 33.0685 0.0000 0.0000 0.0000
# 3 69.1873 33.0685 155.9066 0.0000 0.0000 0.0000
# 4 0.0000 0.0000 0.0000 34.0676 0.0000 0.0000
# 5 0.0000 0.0000 0.0000 0.0000 24.8978 0.0000
# 6 0.0000 0.0000 0.0000 0.0000 0.0000 24.0103
#
#
#
# Elastic Compliance Matrix: (Units=1/GPa)
#
#
# Indices 1 2 3 4 5 6 
#
# 1 0.017361 -0.011525 -0.005260 0.000000 0.000000 0.000000
# 2 -0.011525 0.029531 -0.001149 0.000000 0.000000 0.000000
# 3 -0.005260 -0.001149 0.008992 0.000000 0.000000 0.000000
# 4 0.000000 0.000000 0.000000 0.029353 0.000000 0.000000
# 5 0.000000 0.000000 0.000000 0.000000 0.040164 0.000000
# 6 0.000000 0.000000 0.000000 0.000000 0.000000 0.041649
#
#
# Mechanical properties :
#
#
# Convention : Reuss Voigt Hill
#
# Bulk Modulus (GPa) = 49.96018 67.95667 58.95843
# Shear Modulus (GPa) = 23.85596 27.91497 25.88547
#
# Velocity S-wave (km/s) = 3.48765 3.77271 3.63298
# Velocity P-wave (km/s) = 6.45694 7.32309 6.90361
#
# Compressibility (1/GPa) = 0.02001594
#
# Stress axis : x y z
#
# Youngs Moduli (GPa) = 57.59935 33.86260 111.20939
#
# Poissons Ratio (x) = 0.39027 0.58495
# Poissons Ratio (y) = 0.66385 0.12779
# Poissons Ratio (z) = 0.30297 0.03891
#
# Static dielectric constant tensor:
#      x y z
#    x 3.027880 0.000000 0.000000 
#    y 0.000000 3.370960 0.000000 
#    z 0.000000 0.000000 3.815550 
# 
# 
# High freq. dielectric constant tensor:
#      x y z
#    x 1.772770 0.000000 0.000000 
#    y 0.000000 1.740330 0.000000 
#    z 0.000000 0.000000 1.777700 
# 
# From -- ./inp_files/15001.got.cif
#   From: 2010.03.12/outbox.cif.g09.slc.cpg/sg38_8_cif.got.tgz:15001.got - 2010.04.14 02:38:36.
