data_PCOD8179072
_publ_section_title
;
Structure prediction by ZEFSAII (Michael W. Deem and Ramdas Pophale) SiO2 
 PCOD8179072
Probable space group: A M M 2
;
_chemical_formula_sum "Si O2"
_cell_formula_units_Z 64
_cell_length_a 9.138779
_cell_length_b 15.424860
_cell_length_c 23.128401
_cell_angle_alpha 90.000000
_cell_angle_beta 90.000000
_cell_angle_gamma 90.000000
_cell_volume 3260.280861
_symmetry_space_group_name_H-M "A M M 2"
_symmetry_group_IT_number 38
_symmetry_cell_setting 'orthorhombic'
loop_
_space_group_symop_operation_xyz
x,y,z
-x,-y,z
-x,y,z
x,-y,z
x,1/2+y,1/2+z
-x,1/2-y,1/2+z
-x,1/2+y,1/2+z
x,1/2-y,1/2+z
loop_
_atom_site_type_symbol
_atom_site_label
_atom_site_fract_x
_atom_site_fract_y
_atom_site_fract_z
Si Si1 0.829887 0.265158 0.656470
Si Si2 0.325784 0.400125 0.196581
Si Si3 0.168973 0.257079 0.027614
Si Si4 0.328128 0.899860 0.240513
Si Si5 0.334794 0.096387 0.473381
Si Si6 0.162209 0.324158 0.412459
Si Si7 0.345079 0.401472 0.321867
Si Si8 0.167450 0.860360 0.359707
O O1 0.762995 0.168131 0.657824
O O2 0.814138 0.290918 0.588794
O O3 0.743744 0.336627 0.693166
O O4 0.000000 0.263859 0.675478
O O5 0.500000 0.389744 0.187680
O O6 0.278231 0.500000 0.183069
O O7 0.278220 0.367752 0.261304
O O8 0.000000 0.280915 0.014271
O O9 0.261847 0.345182 0.023191
O O10 0.228160 0.194954 0.975941
O O11 0.500000 0.878631 0.244703
O O12 0.255094 0.884011 0.302304
O O13 0.302701 0.000000 0.221960
O O14 0.500000 0.128663 0.460722
O O15 0.243944 0.094536 0.414019
O O16 0.336439 0.000000 0.499298
O O17 0.248526 0.398124 0.379145
O O18 0.171250 0.242283 0.369594
O O19 0.000000 0.359473 0.420200
O O20 0.500000 0.353510 0.334275
O O21 0.378291 0.500000 0.307569
O O22 0.000000 0.893249 0.354293
#
# Coordination Sequence:
#
# PCOD8179072 Si02
#       8
#     8   8   8   8   8   8   8   8
#     4  11  23  39  59  81 108 146 191 238 285 332
#     4   9  19  36  57  82 115 151 181 216 271 336
#     4   9  21  39  54  72 102 140 182 224 268 323
#     4  11  24  40  58  82 112 146 187 235 285 340
#     4  10  20  33  52  81 113 143 177 217 264 322
#     4   9  18  33  52  75 102 133 170 212 260 313
#     4   9  18  32  50  75 105 134 165 204 256 318
#     4  10  20  34  55  83 113 143 176 218 271 331
#
# _framework density 19.630210999999999
#
# number of rings (size 3 to 8) (size 9 to 14) (size 15 to 20)
#    0.000    2.250    0.000    4.125    0.000   10.500 
#    0.000    4.375    0.000    3.750    0.000    0.000 
#    0.000    0.000    0.000    0.000    0.000    0.000 
#
# Total GULP energy -396571.471145 kJ/mol
# GULP energy per Si atom -12392.858473 kJ/mol
# Density = 1.958553 g / cm^3
# Si number density = 19.630211 Si / 1000 Ang^3
#
#
#
# Elastic Constant Matrix: (Units=GPa)
#
#
# Indices 1 2 3 4 5 6 
#
# 1 105.7762 30.9009 43.2825 0.0000 0.0000 0.0000
# 2 30.9009 51.2500 29.6623 0.0000 0.0000 0.0000
# 3 43.2825 29.6623 93.6130 0.0000 0.0000 0.0000
# 4 0.0000 0.0000 0.0000 15.8776 0.0000 0.0000
# 5 0.0000 0.0000 0.0000 0.0000 19.9762 0.0000
# 6 0.0000 0.0000 0.0000 0.0000 0.0000 9.5755
#
#
#
# Elastic Compliance Matrix: (Units=1/GPa)
#
#
# Indices 1 2 3 4 5 6 
#
# 1 0.012705 -0.005218 -0.004221 0.000000 0.000000 0.000000
# 2 -0.005218 0.026037 -0.005838 0.000000 0.000000 0.000000
# 3 -0.004221 -0.005838 0.014484 0.000000 0.000000 0.000000
# 4 0.000000 0.000000 0.000000 0.062982 0.000000 0.000000
# 5 0.000000 0.000000 0.000000 0.000000 0.050060 0.000000
# 6 0.000000 0.000000 0.000000 0.000000 0.000000 0.104433
#
#
# Mechanical properties :
#
#
# Convention : Reuss Voigt Hill
#
# Bulk Modulus (GPa) = 44.10514 50.92562 47.51538
# Shear Modulus (GPa) = 16.19112 18.87208 17.53160
#
# Velocity S-wave (km/s) = 2.87506 3.10398 2.99171
# Velocity P-wave (km/s) = 5.79120 6.23258 6.01594
#
# Compressibility (1/GPa) = 0.02267310
#
# Stress axis : x y z
#
# Youngs Moduli (GPa) = 78.70656 38.40717 69.04308
#
# Poissons Ratio (x) = 0.20039 0.29144
# Poissons Ratio (y) = 0.41065 0.40305
# Poissons Ratio (z) = 0.33224 0.22421
#
# Static dielectric constant tensor:
#      x y z
#    x 3.668020 0.000000 0.000000 
#    y 0.000000 3.441310 0.000000 
#    z 0.000000 0.000000 3.518020 
# 
# 
# High freq. dielectric constant tensor:
#      x y z
#    x 1.770130 0.000000 0.000000 
#    y 0.000000 1.748860 0.000000 
#    z 0.000000 0.000000 1.763210 
# 
# From -- ./inp_files/22216.got.cif
#   From: 2010.03.12/outbox.cif.g09.slc.cpg/sg38_12_cif.got.tgz:22216.got - 2010.04.14 02:38:36.
