data_PCOD8179329
_publ_section_title
;
Structure prediction by ZEFSAII (Michael W. Deem and Ramdas Pophale) SiO2 
 PCOD8179329
Probable space group: A M M 2
;
_chemical_formula_sum "Si O2"
_cell_formula_units_Z 64
_cell_length_a 23.382615
_cell_length_b 9.264483
_cell_length_c 15.485720
_cell_angle_alpha 90.000000
_cell_angle_beta 90.000000
_cell_angle_gamma 90.000000
_cell_volume 3354.638061
_symmetry_space_group_name_H-M "A M M 2"
_symmetry_group_IT_number 38
_symmetry_cell_setting 'orthorhombic'
loop_
_space_group_symop_operation_xyz
x,y,z
-x,-y,z
-x,y,z
x,-y,z
x,1/2+y,1/2+z
-x,1/2-y,1/2+z
-x,1/2+y,1/2+z
x,1/2-y,1/2+z
loop_
_atom_site_type_symbol
_atom_site_label
_atom_site_fract_x
_atom_site_fract_y
_atom_site_fract_z
Si Si1 0.833102 0.669125 0.739750
Si Si2 0.177644 0.334285 0.404068
Si Si3 0.434183 0.831138 0.417891
Si Si4 0.434135 0.831374 0.747824
Si Si5 0.363183 0.828964 0.582777
Si Si6 0.936175 0.163025 0.994454
Si Si7 0.934815 0.667136 0.167206
Si Si8 0.755125 0.832330 0.076378
O O1 0.841805 0.500000 0.751867
O O2 0.802364 0.734069 0.824779
O O3 0.894668 0.744924 0.731981
O O4 0.795463 0.706717 0.656545
O O5 0.189959 0.500000 0.379914
O O6 0.110006 0.308000 0.420047
O O7 0.212494 0.288645 0.488963
O O8 0.500000 0.792435 0.437302
O O9 0.411876 0.750392 0.332704
O O10 0.397183 0.775550 0.498412
O O11 0.426047 0.000000 0.402329
O O12 0.500000 0.793623 0.728535
O O13 0.397610 0.776147 0.666805
O O14 0.425550 0.000000 0.764007
O O15 0.301261 0.760775 0.584230
O O16 0.357389 0.000000 0.582466
O O17 0.000000 0.179918 0.955061
O O18 0.927081 0.000000 0.031427
O O19 0.926236 0.275260 0.070697
O O20 0.917192 0.500000 0.168846
O O21 0.000000 0.689502 0.197718
O O22 0.738703 0.000000 0.077113
#
# Coordination Sequence:
#
# PCOD8179329 Si02
#       8
#     8   8   8   8   8   8   8   8
#     4  11  23  40  60  83 110 146 189 233 282 335
#     4  10  21  39  59  82 111 146 186 230 283 338
#     4   9  18  34  56  83 115 147 180 223 274 328
#     4   9  18  34  56  83 115 148 183 226 274 326
#     4  10  21  36  57  82 109 146 190 229 273 328
#     4   9  17  33  58  83 111 146 180 221 278 338
#     4  10  20  34  56  86 116 145 180 225 278 336
#     4  10  23  42  58  77 112 150 188 234 282 328
#
# _framework density 19.078064000000001
#
# number of rings (size 3 to 8) (size 9 to 14) (size 15 to 20)
#    0.000    2.250    1.250    1.125    0.000    6.750 
#    0.000    6.250    0.000    3.750    0.000    0.000 
#    0.000    0.000    0.000    0.000    0.000    0.000 
#
# Total GULP energy -396875.267861 kJ/mol
# GULP energy per Si atom -12402.352121 kJ/mol
# Density = 1.903464 g / cm^3
# Si number density = 19.078064 Si / 1000 Ang^3
#
#
#
# Elastic Constant Matrix: (Units=GPa)
#
#
# Indices 1 2 3 4 5 6 
#
# 1 95.9555 50.2965 63.3399 0.0000 0.0000 0.0000
# 2 50.2965 75.3408 66.8904 0.0000 0.0000 0.0000
# 3 63.3399 66.8904 154.1259 0.0000 0.0000 0.0000
# 4 0.0000 0.0000 0.0000 35.8559 0.0000 0.0000
# 5 0.0000 0.0000 0.0000 0.0000 9.8272 0.0000
# 6 0.0000 0.0000 0.0000 0.0000 0.0000 33.0808
#
#
#
# Elastic Compliance Matrix: (Units=1/GPa)
#
#
# Indices 1 2 3 4 5 6 
#
# 1 0.017038 -0.008391 -0.003360 0.000000 0.000000 0.000000
# 2 -0.008391 0.025726 -0.007717 0.000000 0.000000 0.000000
# 3 -0.003360 -0.007717 0.011218 0.000000 0.000000 0.000000
# 4 0.000000 0.000000 0.000000 0.027889 0.000000 0.000000
# 5 0.000000 0.000000 0.000000 0.000000 0.101758 0.000000
# 6 0.000000 0.000000 0.000000 0.000000 0.000000 0.030229
#
#
# Mechanical properties :
#
#
# Convention : Reuss Voigt Hill
#
# Bulk Modulus (GPa) = 66.46181 76.27508 71.36845
# Shear Modulus (GPa) = 19.39419 25.41247 22.40333
#
# Velocity S-wave (km/s) = 3.19183 3.65365 3.43052
# Velocity P-wave (km/s) = 6.96391 7.60698 7.29254
#
# Compressibility (1/GPa) = 0.01504623
#
# Stress axis : x y z
#
# Youngs Moduli (GPa) = 58.69314 38.87165 89.14123
#
# Poissons Ratio (x) = 0.32616 0.29954
# Poissons Ratio (y) = 0.49248 0.68787
# Poissons Ratio (z) = 0.19723 0.29996
#
# Static dielectric constant tensor:
#      x y z
#    x 3.476280 0.000000 0.000000 
#    y 0.000000 3.428100 0.000000 
#    z 0.000000 0.000000 3.523800 
# 
# 
# High freq. dielectric constant tensor:
#      x y z
#    x 1.738680 0.000000 0.000000 
#    y 0.000000 1.736500 0.000000 
#    z 0.000000 0.000000 1.744710 
# 
# From -- ./inp_files/15761.got.cif
#   From: 2010.03.12/outbox.cif.g09.slc.cpg/sg38_8_cif.got.tgz:15761.got - 2010.04.14 02:38:36.
