data_PCOD8179242
_publ_section_title
;
Structure prediction by ZEFSAII (Michael W. Deem and Ramdas Pophale) SiO2 
 PCOD8179242
Probable space group: A M M 2
;
_chemical_formula_sum "Si O2"
_cell_formula_units_Z 64
_cell_length_a 14.708813
_cell_length_b 9.062520
_cell_length_c 24.680219
_cell_angle_alpha 90.000000
_cell_angle_beta 90.000000
_cell_angle_gamma 90.000000
_cell_volume 3289.846340
_symmetry_space_group_name_H-M "A M M 2"
_symmetry_group_IT_number 38
_symmetry_cell_setting 'orthorhombic'
loop_
_space_group_symop_operation_xyz
x,y,z
-x,-y,z
-x,y,z
x,-y,z
x,1/2+y,1/2+z
-x,1/2-y,1/2+z
-x,1/2+y,1/2+z
x,1/2-y,1/2+z
loop_
_atom_site_type_symbol
_atom_site_label
_atom_site_fract_x
_atom_site_fract_y
_atom_site_fract_z
Si Si1 0.400512 0.331828 0.951530
Si Si2 0.644711 0.675040 0.559368
Si Si3 0.172105 0.670169 0.085767
Si Si4 0.900571 0.333067 0.496005
Si Si5 0.401030 0.669749 0.165898
Si Si6 0.211934 0.327865 0.906724
Si Si7 0.789800 0.168827 0.707918
Si Si8 0.104312 0.825159 0.301844
O O1 0.500000 0.312275 0.923362
O O2 0.387132 0.500000 0.971691
O O3 0.320759 0.295009 0.907811
O O4 0.400448 0.226677 0.003607
O O5 0.642944 0.500000 0.561933
O O6 0.745382 0.737136 0.561365
O O7 0.590854 0.736746 0.611203
O O8 0.183526 0.500000 0.070150
O O9 0.161685 0.689383 0.149926
O O10 0.089261 0.743813 0.053016
O O11 0.868411 0.500000 0.506775
O O12 0.828799 0.255553 0.457553
O O13 0.000000 0.330010 0.468520
O O14 0.500000 0.683891 0.195605
O O15 0.380255 0.500000 0.149601
O O16 0.316488 0.721580 0.203796
O O17 0.190083 0.500000 0.912585
O O18 0.164580 0.266668 0.852218
O O19 0.846459 0.268887 0.748212
O O20 0.795003 0.000000 0.727636
O O21 0.000000 0.766412 0.305722
O O22 0.104201 0.000000 0.299673
#
# Coordination Sequence:
#
# PCOD8179242 Si02
#       8
#     8   8   8   8   8   8   8   8
#     4  10  20  34  54  80 111 150 192 230 275 335
#     4  11  20  30  49  80 117 152 189 233 279 328
#     4  10  20  36  56  79 112 154 193 229 277 341
#     4  11  23  36  54  85 119 148 181 230 292 346
#     4   9  18  34  55  79 112 154 195 230 272 336
#     4  10  21  39  61  81 109 150 193 234 278 340
#     4   9  20  37  58  84 111 143 188 236 282 334
#     4  10  22  40  61  84 109 143 190 241 292 342
#
# _framework density 19.453796000000001
#
# number of rings (size 3 to 8) (size 9 to 14) (size 15 to 20)
#    0.000    2.000    1.250    3.375    0.000    7.250 
#    0.000    3.125    0.000    0.750    0.000    0.000 
#    0.000    0.000    0.000    0.000    0.000    0.000 
#
# Total GULP energy -396607.839670 kJ/mol
# GULP energy per Si atom -12393.994990 kJ/mol
# Density = 1.940952 g / cm^3
# Si number density = 19.453796 Si / 1000 Ang^3
#
#
#
# Elastic Constant Matrix: (Units=GPa)
#
#
# Indices 1 2 3 4 5 6 
#
# 1 145.0003 39.5925 62.3041 0.0000 0.0000 0.0000
# 2 39.5925 78.5025 37.0665 0.0000 0.0000 0.0000
# 3 62.3041 37.0665 92.7727 0.0000 0.0000 0.0000
# 4 0.0000 0.0000 0.0000 27.5044 0.0000 0.0000
# 5 0.0000 0.0000 0.0000 0.0000 21.2138 0.0000
# 6 0.0000 0.0000 0.0000 0.0000 0.0000 23.3966
#
#
#
# Elastic Compliance Matrix: (Units=1/GPa)
#
#
# Indices 1 2 3 4 5 6 
#
# 1 0.010023 -0.002313 -0.005807 0.000000 0.000000 0.000000
# 2 -0.002313 0.016234 -0.004933 0.000000 0.000000 0.000000
# 3 -0.005807 -0.004933 0.016650 0.000000 0.000000 0.000000
# 4 0.000000 0.000000 0.000000 0.036358 0.000000 0.000000
# 5 0.000000 0.000000 0.000000 0.000000 0.047139 0.000000
# 6 0.000000 0.000000 0.000000 0.000000 0.000000 0.042741
#
#
# Mechanical properties :
#
#
# Convention : Reuss Voigt Hill
#
# Bulk Modulus (GPa) = 59.52005 66.02240 62.77122
# Shear Modulus (GPa) = 24.89387 26.24379 25.56883
#
# Velocity S-wave (km/s) = 3.58109 3.67690 3.62931
# Velocity P-wave (km/s) = 6.91093 7.21373 7.06395
#
# Compressibility (1/GPa) = 0.01680106
#
# Stress axis : x y z
#
# Youngs Moduli (GPa) = 99.76583 61.59831 60.06048
#
# Poissons Ratio (x) = 0.14249 0.34879
# Poissons Ratio (y) = 0.23079 0.29626
# Poissons Ratio (z) = 0.57937 0.30385
#
# Static dielectric constant tensor:
#      x y z
#    x 3.917240 0.000000 0.000000 
#    y 0.000000 3.485470 0.000000 
#    z 0.000000 0.000000 3.352360 
# 
# 
# High freq. dielectric constant tensor:
#      x y z
#    x 1.774270 0.000000 0.000000 
#    y 0.000000 1.753120 0.000000 
#    z 0.000000 0.000000 1.726280 
# 
# From -- ./inp_files/22969.got.cif
#   From: 2010.03.12/outbox.cif.g09.slc.cpg/sg38_12_cif.got.tgz:22969.got - 2010.04.14 02:38:36.
