data_PCOD8179660
_publ_section_title
;
Structure prediction by ZEFSAII (Michael W. Deem and Ramdas Pophale) SiO2 
 PCOD8179660
Probable space group: A M M 2
;
_chemical_formula_sum "Si O2"
_cell_formula_units_Z 56
_cell_length_a 16.690243
_cell_length_b 8.318945
_cell_length_c 19.376785
_cell_angle_alpha 90.000000
_cell_angle_beta 90.000000
_cell_angle_gamma 90.000000
_cell_volume 2690.373851
_symmetry_space_group_name_H-M "A M M 2"
_symmetry_group_IT_number 38
_symmetry_cell_setting 'orthorhombic'
loop_
_space_group_symop_operation_xyz
x,y,z
-x,-y,z
-x,y,z
x,-y,z
x,1/2+y,1/2+z
-x,1/2-y,1/2+z
-x,1/2+y,1/2+z
x,1/2-y,1/2+z
loop_
_atom_site_type_symbol
_atom_site_label
_atom_site_fract_x
_atom_site_fract_y
_atom_site_fract_z
Si Si1 0.591051 0.182565 0.735900
Si Si2 0.320013 0.814821 0.357525
Si Si3 0.850743 0.310189 0.315537
Si Si4 0.000000 0.690537 0.407288
Si Si5 0.592378 0.308175 0.486710
Si Si6 0.144370 0.808034 0.160803
Si Si7 0.685654 0.317310 0.617347
Si Si8 0.000000 0.309369 0.564462
O O1 0.500000 0.237103 0.734860
O O2 0.623985 0.198966 0.812655
O O3 0.639984 0.304819 0.689252
O O4 0.602088 0.000000 0.710208
O O5 0.227392 0.777326 0.344544
O O6 0.347344 0.776836 0.434469
O O7 0.335945 0.000000 0.339621
O O8 0.838057 0.500000 0.320683
O O9 0.922378 0.249995 0.365061
O O10 0.870225 0.265044 0.236530
O O11 0.000000 0.500000 0.410826
O O12 0.000000 0.760651 0.485979
O O13 0.500000 0.249773 0.479556
O O14 0.596129 0.500000 0.480033
O O15 0.628623 0.242069 0.558861
O O16 0.226822 0.738286 0.127899
O O17 0.076731 0.748983 0.107529
O O18 0.146248 0.000000 0.168912
O O19 0.700631 0.500000 0.597117
O O20 0.000000 0.500000 0.560237
#
# Coordination Sequence:
#
# PCOD8179660 Si02
#       8
#     8   8   8   4   8   8   8   4
#     4  11  23  39  61  89 120 156 200 252 305 356
#     4  12  25  40  60  88 121 161 207 251 304 360
#     4  11  22  39  64  91 123 159 199 249 301 357
#     4   9  21  38  63  95 120 155 202 244 293 356
#     4  10  22  40  61  87 121 162 205 252 309 365
#     4  10  20  36  61  91 123 160 199 242 293 357
#     4  10  21  37  61  91 122 160 203 246 300 365
#     4   9  19  36  61  93 124 157 198 242 291 354
#
# _framework density 20.814948999999999
#
# number of rings (size 3 to 8) (size 9 to 14) (size 15 to 20)
#    0.000    1.571    1.429    3.429    2.000    4.286 
#    0.000    1.071    0.000    1.714    0.000    0.000 
#    0.000    0.000    0.000    0.000    0.000    0.000 
#
# Total GULP energy -347164.027732 kJ/mol
# GULP energy per Si atom -12398.715276 kJ/mol
# Density = 2.076757 g / cm^3
# Si number density = 20.814949 Si / 1000 Ang^3
#
#
#
# Elastic Constant Matrix: (Units=GPa)
#
#
# Indices 1 2 3 4 5 6 
#
# 1 167.4838 27.0711 65.7726 0.0000 0.0000 0.0000
# 2 27.0711 30.3241 22.4252 0.0000 0.0000 0.0000
# 3 65.7726 22.4252 130.4097 0.0000 0.0000 0.0000
# 4 0.0000 0.0000 0.0000 28.4002 0.0000 0.0000
# 5 0.0000 0.0000 0.0000 0.0000 46.7227 0.0000
# 6 0.0000 0.0000 0.0000 0.0000 0.0000 24.1596
#
#
#
# Elastic Compliance Matrix: (Units=1/GPa)
#
#
# Indices 1 2 3 4 5 6 
#
# 1 0.008005 -0.004767 -0.003218 0.000000 0.000000 0.000000
# 2 -0.004767 0.040620 -0.004581 0.000000 0.000000 0.000000
# 3 -0.003218 -0.004581 0.010079 0.000000 0.000000 0.000000
# 4 0.000000 0.000000 0.000000 0.035211 0.000000 0.000000
# 5 0.000000 0.000000 0.000000 0.000000 0.021403 0.000000
# 6 0.000000 0.000000 0.000000 0.000000 0.000000 0.041391
#
#
# Mechanical properties :
#
#
# Convention : Reuss Voigt Hill
#
# Bulk Modulus (GPa) = 29.78563 62.08391 45.93477
# Shear Modulus (GPa) = 25.90270 34.05308 29.97789
#
# Velocity S-wave (km/s) = 3.53147 4.04913 3.79913
# Velocity P-wave (km/s) = 5.56500 7.19388 6.43122
#
# Compressibility (1/GPa) = 0.03357323
#
# Stress axis : x y z
#
# Youngs Moduli (GPa) = 124.92604 24.61838 99.21941
#
# Poissons Ratio (x) = 0.11735 0.31924
# Poissons Ratio (y) = 0.59547 0.45452
# Poissons Ratio (z) = 0.40196 0.11278
#
# Static dielectric constant tensor:
#      x y z
#    x 4.014250 0.000000 0.000000 
#    y 0.000000 3.420050 0.000000 
#    z 0.000000 0.000000 3.884650 
# 
# 
# High freq. dielectric constant tensor:
#      x y z
#    x 1.832000 0.000000 0.000000 
#    y 0.000000 1.788110 0.000000 
#    z 0.000000 0.000000 1.825390 
# 
# From -- ./inp_files/21146.got.cif
#   From: 2010.03.12/outbox.cif.g09.slc.cpg/sg38_11_cif.got.tgz:21146.got - 2010.04.14 02:38:36.
