data_PCOD8179887
_publ_section_title
;
Structure prediction by ZEFSAII (Michael W. Deem and Ramdas Pophale) SiO2 
 PCOD8179887
Probable space group: A M M 2
;
_chemical_formula_sum "Si O2"
_cell_formula_units_Z 56
_cell_length_a 14.574907
_cell_length_b 9.391738
_cell_length_c 20.917513
_cell_angle_alpha 90.000000
_cell_angle_beta 90.000000
_cell_angle_gamma 90.000000
_cell_volume 2863.266740
_symmetry_space_group_name_H-M "A M M 2"
_symmetry_group_IT_number 38
_symmetry_cell_setting 'orthorhombic'
loop_
_space_group_symop_operation_xyz
x,y,z
-x,-y,z
-x,y,z
x,-y,z
x,1/2+y,1/2+z
-x,1/2-y,1/2+z
-x,1/2+y,1/2+z
x,1/2-y,1/2+z
loop_
_atom_site_type_symbol
_atom_site_label
_atom_site_fract_x
_atom_site_fract_y
_atom_site_fract_z
Si Si1 0.897698 0.163234 0.541150
Si Si2 0.730078 0.170021 0.850798
Si Si3 0.894016 0.333000 0.801022
Si Si4 0.281916 0.165734 0.473513
Si Si5 0.603277 0.330973 0.235244
Si Si6 0.396756 0.168889 0.594012
Si Si7 0.891419 0.655655 0.658116
O O1 0.827922 0.186527 0.482688
O O2 0.855580 0.238886 0.603712
O O3 0.000000 0.218313 0.521819
O O4 0.902232 0.000000 0.561028
O O5 0.832201 0.234769 0.846221
O O6 0.685033 0.237186 0.914565
O O7 0.670668 0.225345 0.790515
O O8 0.733744 0.000000 0.856338
O O9 0.875076 0.500000 0.813828
O O10 0.865718 0.290378 0.728762
O O11 0.000000 0.297597 0.815218
O O12 0.331999 0.224741 0.537206
O O13 0.305763 0.000000 0.460413
O O14 0.500000 0.275486 0.248903
O O15 0.603474 0.500000 0.236418
O O16 0.635751 0.276687 0.164634
O O17 0.500000 0.223120 0.580914
O O18 0.394210 0.000000 0.594631
O O19 0.848258 0.500000 0.645668
O O20 0.000000 0.644624 0.654310
#
# Coordination Sequence:
#
# PCOD8179887 Si02
#       7
#     8   8   8   8   8   8   8
#     4   9  18  31  48  72 102 137 176 217 259 308
#     4  11  23  35  53  82 113 144 183 229 275 321
#     4   9  19  36  55  75 106 148 186 220 268 329
#     4  10  21  35  52  75 107 144 183 221 265 323
#     4   8  16  33  56  81 109 141 178 223 276 329
#     4   8  15  31  56  81 102 132 179 228 269 316
#     4   8  15  29  49  73  99 130 169 213 263 313
#
# _framework density 19.558078999999999
#
# number of rings (size 3 to 8) (size 9 to 14) (size 15 to 20)
#    0.000    3.000    0.000    2.143    2.000    2.571 
#    0.000    2.857    0.000    1.286    0.000    4.000 
#    0.000    0.000    0.000    0.000    0.000    0.000 
#
# Total GULP energy -347006.131121 kJ/mol
# GULP energy per Si atom -12393.076111 kJ/mol
# Density = 1.951356 g / cm^3
# Si number density = 19.558079 Si / 1000 Ang^3
#
#
#
# Elastic Constant Matrix: (Units=GPa)
#
#
# Indices 1 2 3 4 5 6 
#
# 1 83.4841 26.3030 63.0130 0.0000 0.0000 0.0000
# 2 26.3030 48.7276 46.5329 0.0000 0.0000 0.0000
# 3 63.0130 46.5329 144.9849 0.0000 0.0000 0.0000
# 4 0.0000 0.0000 0.0000 33.6452 0.0000 0.0000
# 5 0.0000 0.0000 0.0000 0.0000 24.7377 0.0000
# 6 0.0000 0.0000 0.0000 0.0000 0.0000 11.8433
#
#
#
# Elastic Compliance Matrix: (Units=1/GPa)
#
#
# Indices 1 2 3 4 5 6 
#
# 1 0.018180 -0.003270 -0.006852 0.000000 0.000000 0.000000
# 2 -0.003270 0.030180 -0.008265 0.000000 0.000000 0.000000
# 3 -0.006852 -0.008265 0.012528 0.000000 0.000000 0.000000
# 4 0.000000 0.000000 0.000000 0.029722 0.000000 0.000000
# 5 0.000000 0.000000 0.000000 0.000000 0.040424 0.000000
# 6 0.000000 0.000000 0.000000 0.000000 0.000000 0.084436
#
#
# Mechanical properties :
#
#
# Convention : Reuss Voigt Hill
#
# Bulk Modulus (GPa) = 41.46969 60.98827 51.22898
# Shear Modulus (GPa) = 19.20983 23.46843 21.33913
#
# Velocity S-wave (km/s) = 3.13740 3.46777 3.30671
# Velocity P-wave (km/s) = 5.86291 6.87639 6.38978
#
# Compressibility (1/GPa) = 0.02411400
#
# Stress axis : x y z
#
# Youngs Moduli (GPa) = 55.00399 33.13410 79.82198
#
# Poissons Ratio (x) = 0.10836 0.54693
# Poissons Ratio (y) = 0.17989 0.65973
# Poissons Ratio (z) = 0.37688 0.27385
#
# Static dielectric constant tensor:
#      x y z
#    x 3.595640 0.000000 0.000000 
#    y 0.000000 3.329250 0.000000 
#    z 0.000000 0.000000 3.810840 
# 
# 
# High freq. dielectric constant tensor:
#      x y z
#    x 1.753820 0.000000 0.000000 
#    y 0.000000 1.720990 0.000000 
#    z 0.000000 0.000000 1.766520 
# 
# From -- ./inp_files/21036.got.cif
#   From: 2010.03.12/outbox.cif.g09.slc.cpg/sg38_11_cif.got.tgz:21036.got - 2010.04.14 02:38:36.
