data_PCOD8179484
_publ_section_title
;
Structure prediction by ZEFSAII (Michael W. Deem and Ramdas Pophale) SiO2 
 PCOD8179484
Probable space group: A M M 2
;
_chemical_formula_sum "Si O2"
_cell_formula_units_Z 64
_cell_length_a 23.632400
_cell_length_b 8.962366
_cell_length_c 15.510213
_cell_angle_alpha 90.000000
_cell_angle_beta 90.000000
_cell_angle_gamma 90.000000
_cell_volume 3285.097519
_symmetry_space_group_name_H-M "A M M 2"
_symmetry_group_IT_number 38
_symmetry_cell_setting 'orthorhombic'
loop_
_space_group_symop_operation_xyz
x,y,z
-x,-y,z
-x,y,z
x,-y,z
x,1/2+y,1/2+z
-x,1/2-y,1/2+z
-x,1/2+y,1/2+z
x,1/2-y,1/2+z
loop_
_atom_site_type_symbol
_atom_site_label
_atom_site_fract_x
_atom_site_fract_y
_atom_site_fract_z
Si Si1 0.744716 0.324364 0.449890
Si Si2 0.437181 0.674032 0.055030
Si Si3 0.124998 0.823618 0.964083
Si Si4 0.933369 0.672521 0.803149
Si Si5 0.680208 0.674146 0.798058
Si Si6 0.561151 0.323076 0.859237
Si Si7 0.066247 0.326740 0.125855
Si Si8 0.671216 0.173643 0.107804
O O1 0.737245 0.500000 0.444382
O O2 0.809447 0.279660 0.462647
O O3 0.723005 0.256618 0.360884
O O4 0.709657 0.258049 0.531309
O O5 0.500000 0.711465 0.090328
O O6 0.424716 0.500000 0.060469
O O7 0.391145 0.757383 0.112243
O O8 0.431263 0.731175 0.957253
O O9 0.098338 0.743401 0.045791
O O10 0.115075 0.000000 0.971391
O O11 0.096932 0.764804 0.877264
O O12 0.914724 0.500000 0.806648
O O13 0.914440 0.740940 0.711878
O O14 0.000000 0.689862 0.816817
O O15 0.681747 0.500000 0.821342
O O16 0.615619 0.736300 0.807025
O O17 0.700607 0.704776 0.700265
O O18 0.500000 0.261701 0.823903
O O19 0.558814 0.500000 0.856282
O O20 0.082227 0.500000 0.135322
O O21 0.000000 0.305289 0.109199
O O22 0.663367 0.000000 0.092613
#
# Coordination Sequence:
#
# PCOD8179484 Si02
#       8
#     8   8   8   8   8   8   8   8
#     4  10  23  41  55  76 113 149 184 234 285 325
#     4   9  17  31  53  79 107 139 175 218 271 334
#     4  11  23  38  58  83 116 159 202 243 288 336
#     4  10  21  38  61  90 122 153 188 236 292 345
#     4  10  20  35  58  82 103 140 188 228 274 334
#     4   8  14  27  49  76 104 133 170 218 269 327
#     4  10  21  38  61  91 125 157 191 232 281 342
#     4  10  21  36  55  80 109 139 178 230 282 329
#
# _framework density 19.481918
#
# number of rings (size 3 to 8) (size 9 to 14) (size 15 to 20)
#    0.000    2.250    1.250    2.250    0.000    6.250 
#    0.000    2.500    0.000    0.375    0.000    0.000 
#    0.000    0.000    0.000    0.000    0.000    0.000 
#
# Total GULP energy -396747.791395 kJ/mol
# GULP energy per Si atom -12398.368481 kJ/mol
# Density = 1.943758 g / cm^3
# Si number density = 19.481918 Si / 1000 Ang^3
#
#
#
# Elastic Constant Matrix: (Units=GPa)
#
#
# Indices 1 2 3 4 5 6 
#
# 1 85.5575 32.2185 51.2570 0.0000 0.0000 0.0000
# 2 32.2185 36.0291 21.0046 0.0000 0.0000 0.0000
# 3 51.2570 21.0046 104.4430 0.0000 0.0000 0.0000
# 4 0.0000 0.0000 0.0000 32.1845 0.0000 0.0000
# 5 0.0000 0.0000 0.0000 0.0000 21.6339 0.0000
# 6 0.0000 0.0000 0.0000 0.0000 0.0000 29.2947
#
#
#
# Elastic Compliance Matrix: (Units=1/GPa)
#
#
# Indices 1 2 3 4 5 6 
#
# 1 0.022071 -0.015204 -0.007774 0.000000 0.000000 0.000000
# 2 -0.015204 0.041916 -0.000968 0.000000 0.000000 0.000000
# 3 -0.007774 -0.000968 0.013584 0.000000 0.000000 0.000000
# 4 0.000000 0.000000 0.000000 0.031071 0.000000 0.000000
# 5 0.000000 0.000000 0.000000 0.000000 0.046224 0.000000
# 6 0.000000 0.000000 0.000000 0.000000 0.000000 0.034136
#
#
# Mechanical properties :
#
#
# Convention : Reuss Voigt Hill
#
# Bulk Modulus (GPa) = 33.69410 48.33221 41.01316
# Shear Modulus (GPa) = 20.26037 24.72591 22.49314
#
# Velocity S-wave (km/s) = 3.22834 3.56641 3.40158
# Velocity P-wave (km/s) = 5.58827 6.46697 6.04361
#
# Compressibility (1/GPa) = 0.02967878
#
# Stress axis : x y z
#
# Youngs Moduli (GPa) = 45.30853 23.85723 73.61384
#
# Poissons Ratio (x) = 0.36274 0.57226
# Poissons Ratio (y) = 0.68889 0.07125
# Poissons Ratio (z) = 0.35222 0.02309
#
# Static dielectric constant tensor:
#      x y z
#    x 3.771210 0.000000 0.000000 
#    y 0.000000 3.387550 0.000000 
#    z 0.000000 0.000000 3.621780 
# 
# 
# High freq. dielectric constant tensor:
#      x y z
#    x 1.758820 0.000000 0.000000 
#    y 0.000000 1.743340 0.000000 
#    z 0.000000 0.000000 1.765460 
# 
# From -- ./inp_files/15803.got.cif
#   From: 2010.03.12/outbox.cif.g09.slc.cpg/sg38_8_cif.got.tgz:15803.got - 2010.04.14 02:38:36.
