data_PCOD8179993
_publ_section_title
;
Structure prediction by ZEFSAII (Michael W. Deem and Ramdas Pophale) SiO2 
 PCOD8179993
Probable space group: A M M 2
;
_chemical_formula_sum "Si O2"
_cell_formula_units_Z 40
_cell_length_a 7.664355
_cell_length_b 8.973322
_cell_length_c 28.603235
_cell_angle_alpha 90.000000
_cell_angle_beta 90.000000
_cell_angle_gamma 90.000000
_cell_volume 1967.179631
_symmetry_space_group_name_H-M "A M M 2"
_symmetry_group_IT_number 38
_symmetry_cell_setting 'orthorhombic'
loop_
_space_group_symop_operation_xyz
x,y,z
-x,-y,z
-x,y,z
x,-y,z
x,1/2+y,1/2+z
-x,1/2-y,1/2+z
-x,1/2+y,1/2+z
x,1/2-y,1/2+z
loop_
_atom_site_type_symbol
_atom_site_label
_atom_site_fract_x
_atom_site_fract_y
_atom_site_fract_z
Si Si1 0.802216 0.832629 0.998050
Si Si2 0.699048 0.827875 0.183808
Si Si3 0.295129 0.169862 0.589114
Si Si4 0.000000 0.172868 0.255333
Si Si5 0.303891 0.329157 0.909516
Si Si6 0.000000 0.676043 0.353500
O O1 0.692231 0.732813 0.962324
O O2 0.000000 0.835373 0.979644
O O3 0.725254 0.000000 0.999409
O O4 0.800031 0.764509 0.049613
O O5 0.500000 0.789761 0.198623
O O6 0.759616 0.731973 0.139519
O O7 0.825889 0.788402 0.226433
O O8 0.717404 0.000000 0.169570
O O9 0.500000 0.185846 0.581388
O O10 0.232241 0.000000 0.585778
O O11 0.000000 0.278164 0.299774
O O12 0.000000 0.000000 0.270746
O O13 0.500000 0.316055 0.889206
O O14 0.241606 0.500000 0.910660
O O15 0.175232 0.236690 0.877017
O O16 0.000000 0.500000 0.358441
#
# Coordination Sequence:
#
# PCOD8179993 Si02
#       6
#     8   8   8   4   8   4
#     4  11  23  37  57  88 125 164 205 250 302 360
#     4   9  19  37  60  86 118 156 199 249 302 355
#     4  10  21  36  55  83 120 161 204 248 297 356
#     4  10  22  40  63  88 117 154 200 251 303 367
#     4  11  24  43  68  94 123 162 206 254 309 366
#     4  12  26  44  65  94 127 160 202 253 311 373
#
# _framework density 20.333680000000001
#
# number of rings (size 3 to 8) (size 9 to 14) (size 15 to 20)
#    0.000    1.600    1.000    3.300    1.400    8.000 
#    0.000    2.000    0.000    0.000    0.000    0.000 
#    0.000    0.000    0.000    0.000    0.000    0.000 
#
# Total GULP energy -248096.786089 kJ/mol
# GULP energy per Si atom -12404.839304 kJ/mol
# Density = 2.028740 g / cm^3
# Si number density = 20.333680 Si / 1000 Ang^3
#
#
#
# Elastic Constant Matrix: (Units=GPa)
#
#
# Indices 1 2 3 4 5 6 
#
# 1 98.8603 52.1673 51.7665 0.0000 0.0000 0.0000
# 2 52.1673 162.7730 72.7138 0.0000 0.0000 0.0000
# 3 51.7665 72.7138 121.9057 0.0000 0.0000 0.0000
# 4 0.0000 0.0000 0.0000 42.6298 0.0000 0.0000
# 5 0.0000 0.0000 0.0000 0.0000 22.8106 0.0000
# 6 0.0000 0.0000 0.0000 0.0000 0.0000 20.9622
#
#
#
# Elastic Compliance Matrix: (Units=1/GPa)
#
#
# Indices 1 2 3 4 5 6 
#
# 1 0.013683 -0.002440 -0.004355 0.000000 0.000000 0.000000
# 2 -0.002440 0.008810 -0.004219 0.000000 0.000000 0.000000
# 3 -0.004355 -0.004219 0.012569 0.000000 0.000000 0.000000
# 4 0.000000 0.000000 0.000000 0.023458 0.000000 0.000000
# 5 0.000000 0.000000 0.000000 0.000000 0.043839 0.000000
# 6 0.000000 0.000000 0.000000 0.000000 0.000000 0.047705
#
#
# Mechanical properties :
#
#
# Convention : Reuss Voigt Hill
#
# Bulk Modulus (GPa) = 76.72018 81.87046 79.29532
# Shear Modulus (GPa) = 28.33867 31.07328 29.70597
#
# Velocity S-wave (km/s) = 3.73725 3.91342 3.82635
# Velocity P-wave (km/s) = 7.51234 7.79556 7.65526
#
# Compressibility (1/GPa) = 0.01303438
#
# Stress axis : x y z
#
# Youngs Moduli (GPa) = 73.08191 113.50524 79.56071
#
# Poissons Ratio (x) = 0.27693 0.34651
# Poissons Ratio (y) = 0.17830 0.33567
# Poissons Ratio (z) = 0.31829 0.47888
#
# Static dielectric constant tensor:
#      x y z
#    x 3.761780 0.000000 0.000000 
#    y 0.000000 3.783480 0.000000 
#    z 0.000000 0.000000 3.534680 
# 
# 
# High freq. dielectric constant tensor:
#      x y z
#    x 1.803000 0.000000 0.000000 
#    y 0.000000 1.800930 0.000000 
#    z 0.000000 0.000000 1.787680 
# 
# From -- ./inp_files/23280.got.cif
#   From: 2010.03.12/outbox.cif.g09.slc.cpg/sg38_12_cif.got.tgz:23280.got - 2010.04.14 02:38:36.
