data_PCOD8179206
_publ_section_title
;
Structure prediction by ZEFSAII (Michael W. Deem and Ramdas Pophale) SiO2 
 PCOD8179206
Probable space group: A M M 2
;
_chemical_formula_sum "Si O2"
_cell_formula_units_Z 56
_cell_length_a 13.612224
_cell_length_b 22.244399
_cell_length_c 9.395457
_cell_angle_alpha 90.000000
_cell_angle_beta 90.000000
_cell_angle_gamma 90.000000
_cell_volume 2844.904373
_symmetry_space_group_name_H-M "A M M 2"
_symmetry_group_IT_number 38
_symmetry_cell_setting 'orthorhombic'
loop_
_space_group_symop_operation_xyz
x,y,z
-x,-y,z
-x,y,z
x,-y,z
x,1/2+y,1/2+z
-x,1/2-y,1/2+z
-x,1/2+y,1/2+z
x,1/2-y,1/2+z
loop_
_atom_site_type_symbol
_atom_site_label
_atom_site_fract_x
_atom_site_fract_y
_atom_site_fract_z
Si Si1 0.886815 0.379157 0.250000
Si Si2 0.204924 0.344009 0.534661
Si Si3 0.887837 0.385030 0.812211
Si Si4 0.387428 0.203817 0.162188
Si Si5 0.387685 0.322634 0.987492
Si Si6 0.891761 0.779396 0.526716
Si Si7 0.754186 0.065874 0.524736
O O1 0.818322 0.377835 0.389090
O O2 0.885828 0.313677 0.176984
O O3 0.836357 0.427439 0.147302
O O4 0.000000 0.397852 0.283004
O O5 0.133389 0.375101 0.647648
O O6 0.319504 0.346052 0.581909
O O7 0.185663 0.273262 0.523117
O O8 0.000000 0.405826 0.833777
O O9 0.866067 0.323721 0.897945
O O10 0.813341 0.434257 0.875111
O O11 0.500000 0.185164 0.132341
O O12 0.362040 0.202388 0.330076
O O13 0.367182 0.270920 0.103673
O O14 0.500000 0.343497 0.992599
O O15 0.325272 0.381013 0.031075
O O16 0.000000 0.751436 0.505887
O O17 0.703976 0.000000 0.539949
#
# Coordination Sequence:
#
# PCOD8179206 Si02
#       7
#     8   8   8   8   8   8   8
#     4  10  22  36  53  83 118 159 204 245 294 351
#     4  12  20  31  55  82 120 157 193 238 303 360
#     4  10  20  34  53  82 113 152 204 248 291 349
#     4  10  22  37  60  93 128 157 190 247 308 363
#     4  10  22  41  64  96 124 155 199 245 307 363
#     4   9  18  30  48  78 116 155 193 236 293 360
#     4  11  23  42  62  83 115 162 209 249 294 353
#
# _framework density 19.684317
#
# number of rings (size 3 to 8) (size 9 to 14) (size 15 to 20)
#    0.000    1.714    1.429    5.143    4.000    3.714 
#    0.000    0.714    0.000    1.714    0.000    0.000 
#    0.000    0.000    0.000    0.000    0.000    0.000 
#
# Total GULP energy -347129.498959 kJ/mol
# GULP energy per Si atom -12397.482106 kJ/mol
# Density = 1.963951 g / cm^3
# Si number density = 19.684317 Si / 1000 Ang^3
#
#
#
# Elastic Constant Matrix: (Units=GPa)
#
#
# Indices 1 2 3 4 5 6 
#
# 1 108.8596 37.1176 28.7705 0.0000 0.0000 0.0000
# 2 37.1176 68.7888 31.8127 0.0000 0.0000 0.0000
# 3 28.7705 31.8127 102.2228 0.0000 0.0000 0.0000
# 4 0.0000 0.0000 0.0000 18.1239 0.0000 0.0000
# 5 0.0000 0.0000 0.0000 0.0000 32.5511 0.0000
# 6 0.0000 0.0000 0.0000 0.0000 0.0000 12.9002
#
#
#
# Elastic Compliance Matrix: (Units=1/GPa)
#
#
# Indices 1 2 3 4 5 6 
#
# 1 0.011456 -0.005479 -0.001519 0.000000 0.000000 0.000000
# 2 -0.005479 0.019602 -0.004558 0.000000 0.000000 0.000000
# 3 -0.001519 -0.004558 0.011629 0.000000 0.000000 0.000000
# 4 0.000000 0.000000 0.000000 0.055176 0.000000 0.000000
# 5 0.000000 0.000000 0.000000 0.000000 0.030721 0.000000
# 6 0.000000 0.000000 0.000000 0.000000 0.000000 0.077518
#
#
# Mechanical properties :
#
#
# Convention : Reuss Voigt Hill
#
# Bulk Modulus (GPa) = 51.08903 52.80809 51.94856
# Shear Modulus (GPa) = 21.20998 24.85972 23.03485
#
# Velocity S-wave (km/s) = 3.28610 3.55761 3.42455
# Velocity P-wave (km/s) = 6.35677 6.61523 6.48728
#
# Compressibility (1/GPa) = 0.01957367
#
# Stress axis : x y z
#
# Youngs Moduli (GPa) = 87.29251 51.01633 85.99434
#
# Poissons Ratio (x) = 0.27951 0.13064
# Poissons Ratio (y) = 0.47826 0.39198
# Poissons Ratio (z) = 0.13261 0.23254
#
# Static dielectric constant tensor:
#      x y z
#    x 3.788020 0.000000 0.000000 
#    y 0.000000 3.164870 0.000000 
#    z 0.000000 0.000000 3.697280 
# 
# 
# High freq. dielectric constant tensor:
#      x y z
#    x 1.779900 0.000000 0.000000 
#    y 0.000000 1.717250 0.000000 
#    z 0.000000 0.000000 1.772400 
# 
# From -- ./inp_files/5684.got.cif
#   From: 2010.03.12/outbox.cif.g09.slc.cpg/sg38_3_cif.got.tgz:5684.got - 2010.04.14 02:38:36.
