data_PCOD8179846
_publ_section_title
;
Structure prediction by ZEFSAII (Michael W. Deem and Ramdas Pophale) SiO2 
 PCOD8179846
Probable space group: A M M 2
;
_chemical_formula_sum "Si O2"
_cell_formula_units_Z 48
_cell_length_a 7.636162
_cell_length_b 9.057238
_cell_length_c 34.314238
_cell_angle_alpha 90.000000
_cell_angle_beta 90.000000
_cell_angle_gamma 90.000000
_cell_volume 2373.259743
_symmetry_space_group_name_H-M "A M M 2"
_symmetry_group_IT_number 38
_symmetry_cell_setting 'orthorhombic'
loop_
_space_group_symop_operation_xyz
x,y,z
-x,-y,z
-x,y,z
x,-y,z
x,1/2+y,1/2+z
-x,1/2-y,1/2+z
-x,1/2+y,1/2+z
x,1/2-y,1/2+z
loop_
_atom_site_type_symbol
_atom_site_label
_atom_site_fract_x
_atom_site_fract_y
_atom_site_fract_z
Si Si1 0.199806 0.834044 0.490040
Si Si2 0.706805 0.665804 0.073926
Si Si3 0.698198 0.672317 0.650417
Si Si4 0.000000 0.326965 0.709810
Si Si5 0.000000 0.676103 0.291427
Si Si6 0.698539 0.661060 0.416659
Si Si7 0.293316 0.172932 0.341251
O O1 0.220553 0.766533 0.533435
O O2 0.297574 0.732374 0.459250
O O3 0.000000 0.837150 0.477236
O O4 0.280121 0.000000 0.489244
O O5 0.500000 0.671487 0.072145
O O6 0.778605 0.500000 0.078559
O O7 0.774822 0.756529 0.110948
O O8 0.500000 0.728025 0.659935
O O9 0.698586 0.500000 0.642716
O O10 0.825429 0.713813 0.685760
O O11 0.000000 0.500000 0.721611
O O12 0.000000 0.220921 0.746526
O O13 0.178196 0.742001 0.309442
O O14 0.000000 0.500000 0.296111
O O15 0.500000 0.634207 0.405301
O O16 0.794208 0.500000 0.416542
O O17 0.774411 0.769250 0.383444
O O18 0.500000 0.202398 0.333590
O O19 0.251724 0.000000 0.339062
#
# Coordination Sequence:
#
# PCOD8179846 Si02
#       7
#     8   8   8   4   4   8   8
#     4  10  21  34  50  77 112 152 195 239 285 342
#     4   9  18  33  53  77 107 145 189 237 287 340
#     4   9  19  36  58  83 112 148 190 237 289 346
#     4  10  22  40  60  85 116 151 192 236 287 354
#     4  12  26  42  64  95 128 159 192 244 305 360
#     4  10  21  37  57  82 113 150 193 243 295 345
#     4  10  22  42  68  93 120 160 205 247 295 358
#
# _framework density 20.225345999999998
#
# number of rings (size 3 to 8) (size 9 to 14) (size 15 to 20)
#    0.000    2.167    0.000    2.250    2.333    5.000 
#    0.000    3.333    0.000    0.000    0.000    0.000 
#    0.000    0.000    0.000    0.000    0.000    0.000 
#
# Total GULP energy -297538.773980 kJ/mol
# GULP energy per Si atom -12397.448916 kJ/mol
# Density = 2.017931 g / cm^3
# Si number density = 20.225346 Si / 1000 Ang^3
#
#
#
# Elastic Constant Matrix: (Units=GPa)
#
#
# Indices 1 2 3 4 5 6 
#
# 1 73.4923 41.2455 47.8765 0.0000 0.0000 0.0000
# 2 41.2455 120.0167 77.9382 0.0000 0.0000 0.0000
# 3 47.8765 77.9382 158.8062 0.0000 0.0000 0.0000
# 4 0.0000 0.0000 0.0000 39.0424 0.0000 0.0000
# 5 0.0000 0.0000 0.0000 0.0000 27.4666 0.0000
# 6 0.0000 0.0000 0.0000 0.0000 0.0000 19.0540
#
#
#
# Elastic Compliance Matrix: (Units=1/GPa)
#
#
# Indices 1 2 3 4 5 6 
#
# 1 0.018114 -0.003932 -0.003531 0.000000 0.000000 0.000000
# 2 -0.003932 0.013083 -0.005236 0.000000 0.000000 0.000000
# 3 -0.003531 -0.005236 0.009931 0.000000 0.000000 0.000000
# 4 0.000000 0.000000 0.000000 0.025613 0.000000 0.000000
# 5 0.000000 0.000000 0.000000 0.000000 0.036408 0.000000
# 6 0.000000 0.000000 0.000000 0.000000 0.000000 0.052483
#
#
# Mechanical properties :
#
#
# Convention : Reuss Voigt Hill
#
# Bulk Modulus (GPa) = 63.56942 76.27063 69.92003
# Shear Modulus (GPa) = 26.84226 29.46293 28.15259
#
# Velocity S-wave (km/s) = 3.64697 3.82086 3.73493
# Velocity P-wave (km/s) = 7.01660 7.56687 7.29693
#
# Compressibility (1/GPa) = 0.01573083
#
# Stress axis : x y z
#
# Youngs Moduli (GPa) = 55.20592 76.43249 100.69383
#
# Poissons Ratio (x) = 0.30053 0.35558
# Poissons Ratio (y) = 0.21707 0.52720
# Poissons Ratio (z) = 0.19495 0.40017
#
# Static dielectric constant tensor:
#      x y z
#    x 3.764080 0.000000 0.000000 
#    y 0.000000 3.796270 0.000000 
#    z 0.000000 0.000000 3.640180 
# 
# 
# High freq. dielectric constant tensor:
#      x y z
#    x 1.790620 0.000000 0.000000 
#    y 0.000000 1.784030 0.000000 
#    z 0.000000 0.000000 1.789870 
# 
# From -- ./inp_files/24317.got.cif
#   From: 2010.03.12/outbox.cif.g09.slc.cpg/sg38_13_cif.got.tgz:24317.got - 2010.04.14 02:38:36.
