data_PCOD8179172
_publ_section_title
;
Structure prediction by ZEFSAII (Michael W. Deem and Ramdas Pophale) SiO2 
 PCOD8179172
Probable space group: A M M 2
;
_chemical_formula_sum "Si O2"
_cell_formula_units_Z 56
_cell_length_a 21.730534
_cell_length_b 9.133381
_cell_length_c 14.991156
_cell_angle_alpha 90.000000
_cell_angle_beta 90.000000
_cell_angle_gamma 90.000000
_cell_volume 2975.343398
_symmetry_space_group_name_H-M "A M M 2"
_symmetry_group_IT_number 38
_symmetry_cell_setting 'orthorhombic'
loop_
_space_group_symop_operation_xyz
x,y,z
-x,-y,z
-x,y,z
x,-y,z
x,1/2+y,1/2+z
-x,1/2-y,1/2+z
-x,1/2+y,1/2+z
x,1/2-y,1/2+z
loop_
_atom_site_type_symbol
_atom_site_label
_atom_site_fract_x
_atom_site_fract_y
_atom_site_fract_z
Si Si1 0.848638 0.326767 0.128790
Si Si2 0.070551 0.329016 0.771645
Si Si3 0.619163 0.668724 0.977036
Si Si4 0.932321 0.326143 0.972036
Si Si5 0.622637 0.173006 0.272098
Si Si6 0.707951 0.670781 0.135749
Si Si7 0.500000 0.336511 0.482259
Si Si8 0.500000 0.665820 0.270433
O O1 0.854578 0.500000 0.133033
O O2 0.882132 0.261946 0.213874
O O3 0.778058 0.277333 0.126914
O O4 0.881462 0.263763 0.039897
O O5 0.084510 0.500000 0.760304
O O6 0.083361 0.275093 0.872272
O O7 0.000000 0.294807 0.744745
O O8 0.600092 0.500000 0.979598
O O9 0.635543 0.714160 0.875588
O O10 0.561158 0.756512 0.016714
O O11 0.676930 0.703397 0.040116
O O12 0.933394 0.500000 0.973900
O O13 0.000000 0.267175 0.000130
O O14 0.678824 0.234464 0.214768
O O15 0.560327 0.249252 0.236294
O O16 0.616548 0.000000 0.258688
O O17 0.702109 0.500000 0.160736
O O18 0.500000 0.500000 0.520870
O O19 0.500000 0.334212 0.376252
O O20 0.500000 0.500000 0.232578
#
# Coordination Sequence:
#
# PCOD8179172 Si02
#       8
#     8   8   8   8   8   8   4   4
#     4  10  20  34  53  76 103 137 177 215 250 299
#     4   9  18  33  54  80 107 134 167 210 260 308
#     4   9  19  36  55  74 101 136 172 211 256 307
#     4   8  15  30  53  78 102 132 170 209 252 305
#     4  10  20  35  56  80 103 131 173 220 258 301
#     4  10  22  37  51  73 105 141 177 210 254 309
#     4   9  17  30  53  82 104 126 164 214 265 309
#     4   9  17  32  55  80 106 136 166 206 265 317
#
# _framework density 18.821356999999999
#
# number of rings (size 3 to 8) (size 9 to 14) (size 15 to 20)
#    0.000    2.714    0.000    2.143    0.000    6.000 
#    0.000    4.286    0.000    0.857    0.000    0.000 
#    0.000    0.000    0.000    0.000    0.000    0.000 
#
# Total GULP energy -347191.696535 kJ/mol
# GULP energy per Si atom -12399.703448 kJ/mol
# Density = 1.877852 g / cm^3
# Si number density = 18.821357 Si / 1000 Ang^3
#
#
#
# Elastic Constant Matrix: (Units=GPa)
#
#
# Indices 1 2 3 4 5 6 
#
# 1 174.8759 56.6236 84.5907 0.0000 0.0000 0.0000
# 2 56.6236 59.4692 39.9463 0.0000 0.0000 0.0000
# 3 84.5907 39.9463 105.2635 0.0000 0.0000 0.0000
# 4 0.0000 0.0000 0.0000 28.2298 0.0000 0.0000
# 5 0.0000 0.0000 0.0000 0.0000 11.2579 0.0000
# 6 0.0000 0.0000 0.0000 0.0000 0.0000 25.3836
#
#
#
# Elastic Compliance Matrix: (Units=1/GPa)
#
#
# Indices 1 2 3 4 5 6 
#
# 1 0.010715 -0.005930 -0.006360 0.000000 0.000000 0.000000
# 2 -0.005930 0.025850 -0.005044 0.000000 0.000000 0.000000
# 3 -0.006360 -0.005044 0.016525 0.000000 0.000000 0.000000
# 4 0.000000 0.000000 0.000000 0.035424 0.000000 0.000000
# 5 0.000000 0.000000 0.000000 0.000000 0.088826 0.000000
# 6 0.000000 0.000000 0.000000 0.000000 0.000000 0.039395
#
#
# Mechanical properties :
#
#
# Convention : Reuss Voigt Hill
#
# Bulk Modulus (GPa) = 54.28550 77.99220 66.13885
# Shear Modulus (GPa) = 19.41400 23.53746 21.47573
#
# Velocity S-wave (km/s) = 3.21516 3.54018 3.38158
# Velocity P-wave (km/s) = 6.53362 7.63142 7.10376
#
# Compressibility (1/GPa) = 0.01842113
#
# Stress axis : x y z
#
# Youngs Moduli (GPa) = 93.32666 38.68459 60.51256
#
# Poissons Ratio (x) = 0.22940 0.38488
# Poissons Ratio (y) = 0.55343 0.30525
# Poissons Ratio (z) = 0.59359 0.19514
#
# Static dielectric constant tensor:
#      x y z
#    x 3.654740 0.000000 0.000000 
#    y 0.000000 3.291240 0.000000 
#    z 0.000000 0.000000 3.501820 
# 
# 
# High freq. dielectric constant tensor:
#      x y z
#    x 1.730710 0.000000 0.000000 
#    y 0.000000 1.713170 0.000000 
#    z 0.000000 0.000000 1.733650 
# 
# From -- ./inp_files/15560.got.cif
#   From: 2010.03.12/outbox.cif.g09.slc.cpg/sg38_8_cif.got.tgz:15560.got - 2010.04.14 02:38:36.
