data_PCOD8179225
_publ_section_title
;
Structure prediction by ZEFSAII (Michael W. Deem and Ramdas Pophale) SiO2 
 PCOD8179225
Probable space group: A M M 2
;
_chemical_formula_sum "Si O2"
_cell_formula_units_Z 48
_cell_length_a 8.960889
_cell_length_b 9.338113
_cell_length_c 31.055506
_cell_angle_alpha 90.000000
_cell_angle_beta 90.000000
_cell_angle_gamma 90.000000
_cell_volume 2598.656236
_symmetry_space_group_name_H-M "A M M 2"
_symmetry_group_IT_number 38
_symmetry_cell_setting 'orthorhombic'
loop_
_space_group_symop_operation_xyz
x,y,z
-x,-y,z
-x,y,z
x,-y,z
x,1/2+y,1/2+z
-x,1/2-y,1/2+z
-x,1/2+y,1/2+z
x,1/2-y,1/2+z
loop_
_atom_site_type_symbol
_atom_site_label
_atom_site_fract_x
_atom_site_fract_y
_atom_site_fract_z
Si Si1 0.824762 0.166397 0.164090
Si Si2 0.177800 0.659351 0.419048
Si Si3 0.171918 0.666575 0.999913
Si Si4 0.675984 0.164566 0.587533
Si Si5 0.834024 0.670042 0.325434
Si Si6 0.672785 0.668100 0.240371
O O1 0.746542 0.234330 0.123004
O O2 0.769518 0.244081 0.206815
O O3 0.000000 0.189860 0.159624
O O4 0.781905 0.000000 0.166718
O O5 0.242786 0.500000 0.425704
O O6 0.239413 0.756225 0.457826
O O7 0.226343 0.723198 0.372226
O O8 0.000000 0.656027 0.419778
O O9 0.191057 0.500000 0.991315
O O10 0.265260 0.716390 0.041256
O O11 0.000000 0.708670 0.007937
O O12 0.500000 0.182037 0.588998
O O13 0.723582 0.000000 0.596300
O O14 0.843833 0.500000 0.327915
O O15 0.721415 0.718973 0.288030
O O16 0.000000 0.731740 0.315729
O O17 0.500000 0.704332 0.233700
O O18 0.704260 0.500000 0.233578
#
# Coordination Sequence:
#
# PCOD8179225 Si02
#       6
#     8   8   8   8   8   8
#     4  11  24  39  55  77 103 131 166 209 256 305
#     4   8  14  26  46  71  98 130 169 210 249 290
#     4   9  17  30  49  73 100 130 166 209 253 294
#     4  10  21  37  56  77 102 134 171 209 251 302
#     4   8  14  27  48  72  98 131 171 212 250 289
#     4  10  20  34  54  79 105 135 171 209 251 301
#
# _framework density 18.471084999999999
#
# number of rings (size 3 to 8) (size 9 to 14) (size 15 to 20)
#    0.000    2.667    0.000    3.000    0.000    6.000 
#    0.000    3.333    0.000    4.000    0.000    0.000 
#    0.000    0.000    0.000    0.000    0.000    0.000 
#
# Total GULP energy -297549.753442 kJ/mol
# GULP energy per Si atom -12397.906393 kJ/mol
# Density = 1.842904 g / cm^3
# Si number density = 18.471085 Si / 1000 Ang^3
#
#
#
# Elastic Constant Matrix: (Units=GPa)
#
#
# Indices 1 2 3 4 5 6 
#
# 1 53.5734 29.7331 42.2491 0.0000 0.0000 0.0000
# 2 29.7331 58.2041 59.3115 0.0000 0.0000 0.0000
# 3 42.2491 59.3115 165.3978 0.0000 0.0000 0.0000
# 4 0.0000 0.0000 0.0000 31.4463 0.0000 0.0000
# 5 0.0000 0.0000 0.0000 0.0000 -7.3060 0.0000
# 6 0.0000 0.0000 0.0000 0.0000 0.0000 19.5468
#
#
#
# Elastic Compliance Matrix: (Units=1/GPa)
#
#
# Indices 1 2 3 4 5 6 
#
# 1 0.027010 -0.010664 -0.003075 0.000000 0.000000 0.000000
# 2 -0.010664 0.031285 -0.008495 0.000000 0.000000 0.000000
# 3 -0.003075 -0.008495 0.009878 0.000000 0.000000 0.000000
# 4 0.000000 0.000000 0.000000 0.031800 0.000000 0.000000
# 5 0.000000 0.000000 0.000000 0.000000 -0.136873 0.000000
# 6 0.000000 0.000000 0.000000 0.000000 0.000000 0.051159
#
#
# Mechanical properties :
#
#
# Convention : Reuss Voigt Hill
#
# Bulk Modulus (GPa) = 42.18614 59.97364 51.07989
# Shear Modulus (GPa) = 75.04341 18.46284 46.75312
#
# Velocity S-wave (km/s) = 6.38089 3.16500 5.03651
# Velocity P-wave (km/s) = 8.78500 6.77464 7.84449
#
# Compressibility (1/GPa) = 0.02370447
#
# Stress axis : x y z
#
# Youngs Moduli (GPa) = 37.02381 31.96435 101.23735
#
# Poissons Ratio (x) = 0.34087 0.31133
# Poissons Ratio (y) = 0.39482 0.85999
# Poissons Ratio (z) = 0.11386 0.27153
#
# Static dielectric constant tensor:
#      x y z
#    x 3.265360 0.000000 0.000000 
#    y 0.000000 3.281030 0.000000 
#    z 0.000000 0.000000 3.868600 
# 
# 
# High freq. dielectric constant tensor:
#      x y z
#    x 1.699860 0.000000 0.000000 
#    y 0.000000 1.690760 0.000000 
#    z 0.000000 0.000000 1.737080 
# 
# From -- ./inp_files/24291.got.cif
#   From: 2010.03.12/outbox.cif.g09.slc.cpg/sg38_13_cif.got.tgz:24291.got - 2010.04.14 02:38:36.
