data_PCOD8179884
_publ_section_title
;
Structure prediction by ZEFSAII (Michael W. Deem and Ramdas Pophale) SiO2 
 PCOD8179884
Probable space group: A M M 2
;
_chemical_formula_sum "Si O2"
_cell_formula_units_Z 56
_cell_length_a 9.259435
_cell_length_b 17.470784
_cell_length_c 17.484455
_cell_angle_alpha 90.000000
_cell_angle_beta 90.000000
_cell_angle_gamma 90.000000
_cell_volume 2828.453097
_symmetry_space_group_name_H-M "A M M 2"
_symmetry_group_IT_number 38
_symmetry_cell_setting 'orthorhombic'
loop_
_space_group_symop_operation_xyz
x,y,z
-x,-y,z
-x,y,z
x,-y,z
x,1/2+y,1/2+z
-x,1/2-y,1/2+z
-x,1/2+y,1/2+z
x,1/2-y,1/2+z
loop_
_atom_site_type_symbol
_atom_site_label
_atom_site_fract_x
_atom_site_fract_y
_atom_site_fract_z
Si Si1 0.829017 0.412769 0.073580
Si Si2 0.327833 0.664667 0.767822
Si Si3 0.159960 0.148451 0.889209
Si Si4 0.342732 0.911911 0.013163
Si Si5 0.168015 0.685590 0.218430
Si Si6 0.158364 0.587918 0.647899
Si Si7 0.165760 0.676229 0.921103
O O1 0.766537 0.500000 0.071312
O O2 0.774473 0.368661 0.149880
O O3 0.000000 0.416866 0.076268
O O4 0.779604 0.364960 0.998696
O O5 0.500000 0.667688 0.767583
O O6 0.263405 0.738180 0.723508
O O7 0.265062 0.593786 0.720175
O O8 0.271497 0.650860 0.853317
O O9 0.277505 0.094767 0.928463
O O10 0.188312 0.142721 0.798935
O O11 0.177523 0.232521 0.926066
O O12 0.000000 0.117475 0.907330
O O13 0.500000 0.871601 0.016224
O O14 0.362331 0.000000 0.034114
O O15 0.235458 0.872362 0.074552
O O16 0.000000 0.707958 0.206599
O O17 0.133383 0.500000 0.629679
O O18 0.000000 0.626456 0.661222
O O19 0.000000 0.652463 0.902425
#
# Coordination Sequence:
#
# PCOD8179884 Si02
#       7
#     8   8   8   8   8   8   8
#     4   9  18  34  59  89 116 145 187 240 290 334
#     4  11  22  36  56  83 114 149 186 230 283 335
#     4   9  18  32  52  79 109 146 192 234 274 325
#     4  10  21  35  51  77 112 145 180 225 278 335
#     4   9  19  36  58  84 112 146 190 236 278 330
#     4  10  21  37  57  80 107 142 183 226 275 332
#     4   9  19  36  56  82 112 146 190 234 276 331
#
# _framework density 19.798807
#
# number of rings (size 3 to 8) (size 9 to 14) (size 15 to 20)
#    0.000    2.429    0.000    3.000    2.000    5.143 
#    0.000    3.571    0.000    1.286    0.000    0.000 
#    0.000    0.000    0.000    0.000    0.000    0.000 
#
# Total GULP energy -347030.368196 kJ/mol
# GULP energy per Si atom -12393.941721 kJ/mol
# Density = 1.975374 g / cm^3
# Si number density = 19.798807 Si / 1000 Ang^3
#
#
#
# Elastic Constant Matrix: (Units=GPa)
#
#
# Indices 1 2 3 4 5 6 
#
# 1 135.3393 21.7875 66.6441 0.0000 0.0000 0.0000
# 2 21.7875 49.3251 52.3047 0.0000 0.0000 0.0000
# 3 66.6441 52.3047 153.9245 0.0000 0.0000 0.0000
# 4 0.0000 0.0000 0.0000 32.1132 0.0000 0.0000
# 5 0.0000 0.0000 0.0000 0.0000 10.3777 0.0000
# 6 0.0000 0.0000 0.0000 0.0000 0.0000 18.9152
#
#
#
# Elastic Compliance Matrix: (Units=1/GPa)
#
#
# Indices 1 2 3 4 5 6 
#
# 1 0.009393 0.000256 -0.004154 0.000000 0.000000 0.000000
# 2 0.000256 0.031701 -0.010883 0.000000 0.000000 0.000000
# 3 -0.004154 -0.010883 0.011993 0.000000 0.000000 0.000000
# 4 0.000000 0.000000 0.000000 0.031140 0.000000 0.000000
# 5 0.000000 0.000000 0.000000 0.000000 0.096361 0.000000
# 6 0.000000 0.000000 0.000000 0.000000 0.000000 0.052868
#
#
# Mechanical properties :
#
#
# Convention : Reuss Voigt Hill
#
# Bulk Modulus (GPa) = 42.50746 68.89573 55.70159
# Shear Modulus (GPa) = 18.45975 25.47138 21.96557
#
# Velocity S-wave (km/s) = 3.05678 3.59069 3.33444
# Velocity P-wave (km/s) = 5.82880 7.21555 6.55893
#
# Compressibility (1/GPa) = 0.02352528
#
# Stress axis : x y z
#
# Youngs Moduli (GPa) = 106.46128 31.54464 83.38029
#
# Poissons Ratio (x) = -0.00806 0.34634
# Poissons Ratio (y) = -0.02722 0.90742
# Poissons Ratio (z) = 0.44221 0.34330
#
# Static dielectric constant tensor:
#      x y z
#    x 3.640520 0.000000 0.000000 
#    y 0.000000 3.410940 0.000000 
#    z 0.000000 0.000000 3.703060 
# 
# 
# High freq. dielectric constant tensor:
#      x y z
#    x 1.755510 0.000000 0.000000 
#    y 0.000000 1.748500 0.000000 
#    z 0.000000 0.000000 1.781870 
# 
# From -- ./inp_files/12381.got.cif
#   From: 2010.03.12/outbox.cif.g09.slc.cpg/sg38_7_cif.got.tgz:12381.got - 2010.04.14 02:38:36.
