data_PCOD8179401
_publ_section_title
;
Structure prediction by ZEFSAII (Michael W. Deem and Ramdas Pophale) SiO2 
 PCOD8179401
Probable space group: A M M 2
;
_chemical_formula_sum "Si O2"
_cell_formula_units_Z 64
_cell_length_a 19.732878
_cell_length_b 8.728597
_cell_length_c 20.109700
_cell_angle_alpha 90.000000
_cell_angle_beta 90.000000
_cell_angle_gamma 90.000000
_cell_volume 3463.701560
_symmetry_space_group_name_H-M "A M M 2"
_symmetry_group_IT_number 38
_symmetry_cell_setting 'orthorhombic'
loop_
_space_group_symop_operation_xyz
x,y,z
-x,-y,z
-x,y,z
x,-y,z
x,1/2+y,1/2+z
-x,1/2-y,1/2+z
-x,1/2+y,1/2+z
x,1/2-y,1/2+z
loop_
_atom_site_type_symbol
_atom_site_label
_atom_site_fract_x
_atom_site_fract_y
_atom_site_fract_z
Si Si1 0.710402 0.821706 0.385560
Si Si2 0.679078 0.321857 0.738587
Si Si3 0.851779 0.679450 0.420111
Si Si4 0.818748 0.678118 0.051997
Si Si5 0.424243 0.181939 0.639834
Si Si6 0.078357 0.823917 0.302096
Si Si7 0.668530 0.679249 0.025386
Si Si8 0.820112 0.322060 0.200570
O O1 0.672577 0.784403 0.317068
O O2 0.778378 0.722938 0.390973
O O3 0.659836 0.780181 0.447005
O O4 0.731865 0.000000 0.389495
O O5 0.669406 0.500000 0.724032
O O6 0.618964 0.230670 0.703590
O O7 0.752424 0.273271 0.712711
O O8 0.862796 0.500000 0.414012
O O9 0.861597 0.730086 0.496846
O O10 0.908663 0.763853 0.376495
O O11 0.821706 0.500000 0.032599
O O12 0.741493 0.739326 0.049828
O O13 0.847280 0.709219 0.125714
O O14 0.500000 0.250234 0.644934
O O15 0.389973 0.250859 0.572201
O O16 0.427048 0.000000 0.637960
O O17 0.120827 0.725047 0.250067
O O18 0.000000 0.803011 0.284521
O O19 0.101091 0.000000 0.296773
O O20 0.665451 0.500000 0.037358
O O21 0.802192 0.500000 0.210201
#
# Coordination Sequence:
#
# PCOD8179401 Si02
#       8
#     8   8   8   8   8   8   8   8
#     4   9  18  33  53  77 108 144 181 229 283 330
#     4  11  21  33  54  82 115 150 184 232 288 341
#     4  11  21  33  55  85 113 143 184 233 280 332
#     4   9  18  34  56  80 112 146 182 230 280 333
#     4  10  20  35  55  78 108 148 193 240 289 341
#     4  11  24  41  59  81 115 156 192 230 284 345
#     4   8  14  30  52  75 102 136 182 226 272 329
#     4  11  21  36  60  87 114 148 191 238 284 337
#
# _framework density 18.477343000000001
#
# number of rings (size 3 to 8) (size 9 to 14) (size 15 to 20)
#    0.000    2.000    2.500    3.000    0.000    2.750 
#    0.000    1.250    0.000    3.000    0.000    0.000 
#    0.000    0.000    0.000    0.000    0.000    0.000 
#
# Total GULP energy -396747.128017 kJ/mol
# GULP energy per Si atom -12398.347751 kJ/mol
# Density = 1.843529 g / cm^3
# Si number density = 18.477343 Si / 1000 Ang^3
#
#
#
# Elastic Constant Matrix: (Units=GPa)
#
#
# Indices 1 2 3 4 5 6 
#
# 1 65.8407 10.4843 35.5932 0.0000 0.0000 0.0000
# 2 10.4843 31.5873 20.8237 0.0000 0.0000 0.0000
# 3 35.5932 20.8237 128.9745 0.0000 0.0000 0.0000
# 4 0.0000 0.0000 0.0000 30.0425 0.0000 0.0000
# 5 0.0000 0.0000 0.0000 0.0000 26.6182 0.0000
# 6 0.0000 0.0000 0.0000 0.0000 0.0000 21.2098
#
#
#
# Elastic Compliance Matrix: (Units=1/GPa)
#
#
# Indices 1 2 3 4 5 6 
#
# 1 0.018108 -0.003039 -0.004507 0.000000 0.000000 0.000000
# 2 -0.003039 0.035940 -0.004964 0.000000 0.000000 0.000000
# 3 -0.004507 -0.004964 0.009799 0.000000 0.000000 0.000000
# 4 0.000000 0.000000 0.000000 0.033286 0.000000 0.000000
# 5 0.000000 0.000000 0.000000 0.000000 0.037568 0.000000
# 6 0.000000 0.000000 0.000000 0.000000 0.000000 0.047148
#
#
# Mechanical properties :
#
#
# Convention : Reuss Voigt Hill
#
# Bulk Modulus (GPa) = 25.75550 40.02277 32.88913
# Shear Modulus (GPa) = 22.74679 26.20752 24.47715
#
# Velocity S-wave (km/s) = 3.51246 3.77020 3.64361
# Velocity P-wave (km/s) = 5.51535 6.37652 5.96150
#
# Compressibility (1/GPa) = 0.03882666
#
# Stress axis : x y z
#
# Youngs Moduli (GPa) = 55.22277 27.82450 102.05514
#
# Poissons Ratio (x) = 0.08457 0.45993
# Poissons Ratio (y) = 0.16785 0.50659
# Poissons Ratio (z) = 0.24887 0.13812
#
# Static dielectric constant tensor:
#      x y z
#    x 3.263240 0.000000 0.000000 
#    y 0.000000 3.272210 0.000000 
#    z 0.000000 0.000000 3.789530 
# 
# 
# High freq. dielectric constant tensor:
#      x y z
#    x 1.683200 0.000000 0.000000 
#    y 0.000000 1.705800 0.000000 
#    z 0.000000 0.000000 1.736370 
# 
# From -- ./inp_files/21405.got.cif
#   From: 2010.03.12/outbox.cif.g09.slc.cpg/sg38_11_cif.got.tgz:21405.got - 2010.04.14 02:38:36.
