data_PCOD8179215
_publ_section_title
;
Structure prediction by ZEFSAII (Michael W. Deem and Ramdas Pophale) SiO2 
 PCOD8179215
Probable space group: A M M 2
;
_chemical_formula_sum "Si O2"
_cell_formula_units_Z 64
_cell_length_a 20.076494
_cell_length_b 8.999070
_cell_length_c 18.673656
_cell_angle_alpha 90.000000
_cell_angle_beta 90.000000
_cell_angle_gamma 90.000000
_cell_volume 3373.765225
_symmetry_space_group_name_H-M "A M M 2"
_symmetry_group_IT_number 38
_symmetry_cell_setting 'orthorhombic'
loop_
_space_group_symop_operation_xyz
x,y,z
-x,-y,z
-x,y,z
x,-y,z
x,1/2+y,1/2+z
-x,1/2-y,1/2+z
-x,1/2+y,1/2+z
x,1/2-y,1/2+z
loop_
_atom_site_type_symbol
_atom_site_label
_atom_site_fract_x
_atom_site_fract_y
_atom_site_fract_z
Si Si1 0.424962 0.171097 0.202840
Si Si2 0.692836 0.823690 0.460932
Si Si3 0.922655 0.826218 0.308152
Si Si4 0.697267 0.325857 0.799337
Si Si5 0.922665 0.172663 0.954473
Si Si6 0.820002 0.173869 0.549627
Si Si7 0.425337 0.176031 0.557210
Si Si8 0.184370 0.825840 0.715695
O O1 0.500000 0.212558 0.227392
O O2 0.375975 0.207016 0.268311
O O3 0.402612 0.265675 0.134462
O O4 0.420213 0.000000 0.180234
O O5 0.697852 0.763923 0.380189
O O6 0.756052 0.767780 0.506008
O O7 0.625348 0.761469 0.497471
O O8 0.690026 0.000000 0.460713
O O9 0.898519 0.756899 0.383102
O O10 0.882327 0.752512 0.243748
O O11 0.000000 0.792235 0.294226
O O12 0.907202 0.000000 0.311051
O O13 0.715107 0.500000 0.796232
O O14 0.751135 0.236430 0.754765
O O15 0.000000 0.202520 0.969039
O O16 0.906951 0.000000 0.944370
O O17 0.884141 0.236782 0.022650
O O18 0.808413 0.211085 0.632285
O O19 0.832496 0.000000 0.537042
O O20 0.500000 0.231566 0.538322
O O21 0.422224 0.000000 0.560753
O O22 0.178566 0.000000 0.730186
#
# Coordination Sequence:
#
# PCOD8179215 Si02
#       8
#     8   8   8   8   8   8   8   8
#     4   9  18  32  50  75 107 139 172 215 267 321
#     4   9  18  33  52  75 102 132 172 219 262 309
#     4  10  21  38  60  83 109 143 180 218 265 324
#     4  10  20  34  54  77 103 140 182 224 273 328
#     4  10  21  37  58  84 112 140 174 219 266 315
#     4  10  21  36  54  76 106 144 180 219 268 319
#     4   9  17  31  53  77 101 134 174 214 259 315
#     4  11  23  37  55  80 110 143 182 230 276 319
#
# _framework density 18.969902999999999
#
# number of rings (size 3 to 8) (size 9 to 14) (size 15 to 20)
#    0.000    2.250    0.000    2.625    0.000    6.000 
#    0.000    6.250    0.000    0.000    0.000    3.500 
#    0.000    0.000    0.000    0.000    0.000    0.000 
#
# Total GULP energy -396901.422878 kJ/mol
# GULP energy per Si atom -12403.169465 kJ/mol
# Density = 1.892673 g / cm^3
# Si number density = 18.969903 Si / 1000 Ang^3
#
#
#
# Elastic Constant Matrix: (Units=GPa)
#
#
# Indices 1 2 3 4 5 6 
#
# 1 115.2135 46.7808 84.4689 0.0000 0.0000 0.0000
# 2 46.7808 62.4974 53.1963 0.0000 0.0000 0.0000
# 3 84.4689 53.1963 155.2007 0.0000 0.0000 0.0000
# 4 0.0000 0.0000 0.0000 30.6748 0.0000 0.0000
# 5 0.0000 0.0000 0.0000 0.0000 41.6725 0.0000
# 6 0.0000 0.0000 0.0000 0.0000 0.0000 26.7874
#
#
#
# Elastic Compliance Matrix: (Units=1/GPa)
#
#
# Indices 1 2 3 4 5 6 
#
# 1 0.016113 -0.006490 -0.006545 0.000000 0.000000 0.000000
# 2 -0.006490 0.025206 -0.005107 0.000000 0.000000 0.000000
# 3 -0.006545 -0.005107 0.011756 0.000000 0.000000 0.000000
# 4 0.000000 0.000000 0.000000 0.032600 0.000000 0.000000
# 5 0.000000 0.000000 0.000000 0.000000 0.023997 0.000000
# 6 0.000000 0.000000 0.000000 0.000000 0.000000 0.037331
#
#
# Mechanical properties :
#
#
# Convention : Reuss Voigt Hill
#
# Bulk Modulus (GPa) = 59.55878 77.97819 68.76849
# Shear Modulus (GPa) = 26.47113 29.72465 28.09789
#
# Velocity S-wave (km/s) = 3.73960 3.96275 3.85279
# Velocity P-wave (km/s) = 7.07889 7.88247 7.49146
#
# Compressibility (1/GPa) = 0.01679014
#
# Stress axis : x y z
#
# Youngs Moduli (GPa) = 62.05992 39.67344 85.06193
#
# Poissons Ratio (x) = 0.25748 0.55676
# Poissons Ratio (y) = 0.40277 0.43443
# Poissons Ratio (z) = 0.40620 0.20262
#
# Static dielectric constant tensor:
#      x y z
#    x 3.672550 0.000000 0.000000 
#    y 0.000000 3.342930 0.000000 
#    z 0.000000 0.000000 3.557870 
# 
# 
# High freq. dielectric constant tensor:
#      x y z
#    x 1.749980 0.000000 0.000000 
#    y 0.000000 1.723090 0.000000 
#    z 0.000000 0.000000 1.738860 
# 
# From -- ./inp_files/18911.got.cif
#   From: 2010.03.12/outbox.cif.g09.slc.cpg/sg38_10_cif.got.tgz:18911.got - 2010.04.14 02:38:36.
