data_PCOD8179643
_publ_section_title
;
Structure prediction by ZEFSAII (Michael W. Deem and Ramdas Pophale) SiO2 
 PCOD8179643
Probable space group: A M M 2
;
_chemical_formula_sum "Si O2"
_cell_formula_units_Z 48
_cell_length_a 8.698956
_cell_length_b 27.738478
_cell_length_c 9.786456
_cell_angle_alpha 90.000000
_cell_angle_beta 90.000000
_cell_angle_gamma 90.000000
_cell_volume 2361.430726
_symmetry_space_group_name_H-M "A M M 2"
_symmetry_group_IT_number 38
_symmetry_cell_setting 'orthorhombic'
loop_
_space_group_symop_operation_xyz
x,y,z
-x,-y,z
-x,y,z
x,-y,z
x,1/2+y,1/2+z
-x,1/2-y,1/2+z
-x,1/2+y,1/2+z
x,1/2-y,1/2+z
loop_
_atom_site_type_symbol
_atom_site_label
_atom_site_fract_x
_atom_site_fract_y
_atom_site_fract_z
Si Si1 0.683317 0.280988 0.227240
Si Si2 0.181420 0.204848 0.430384
Si Si3 0.681135 0.554463 0.568868
Si Si4 0.825592 0.099716 0.327397
Si Si5 0.826779 0.554345 0.106206
Si Si6 0.321535 0.616442 0.321188
O O1 0.500000 0.276000 0.232862
O O2 0.762693 0.237263 0.305066
O O3 0.743350 0.329486 0.303552
O O4 0.733861 0.280255 0.069480
O O5 0.227455 0.150630 0.389638
O O6 0.000000 0.210219 0.452767
O O7 0.500000 0.550468 0.550415
O O8 0.751555 0.500000 0.568216
O O9 0.715846 0.583026 0.706636
O O10 0.754818 0.586325 0.445713
O O11 0.808938 0.059599 0.444201
O O12 0.000000 0.102865 0.272562
O O13 0.788325 0.500000 0.147791
O O14 0.707006 0.588642 0.180617
O O15 0.000000 0.568701 0.150224
O O16 0.500000 0.620525 0.349425
#
# Coordination Sequence:
#
# PCOD8179643 Si02
#       6
#     8   8   8   8   8   8
#     4  11  24  42  65  94 125 162 205 256 313 372
#     4  11  24  43  66  93 124 162 205 256 313 372
#     4  10  22  39  59  87 124 164 205 250 300 357
#     4  10  22  40  61  87 121 159 200 249 303 360
#     4  10  20  36  60  88 119 156 198 247 299 355
#     4  10  22  40  61  87 121 159 199 248 304 360
#
# _framework density 20.326661000000001
#
# number of rings (size 3 to 8) (size 9 to 14) (size 15 to 20)
#    0.000    1.667    1.667    2.000    2.333    5.333 
#    0.000    0.000    0.000    0.000    0.000    0.000 
#    0.000    0.000    0.000    0.000    0.000    0.000 
#
# Total GULP energy -297621.298841 kJ/mol
# GULP energy per Si atom -12400.887452 kJ/mol
# Density = 2.028040 g / cm^3
# Si number density = 20.326661 Si / 1000 Ang^3
#
#
#
# Elastic Constant Matrix: (Units=GPa)
#
#
# Indices 1 2 3 4 5 6 
#
# 1 23.9913 21.2043 11.3062 0.0000 0.0000 0.0000
# 2 21.2043 85.3248 34.2672 0.0000 0.0000 0.0000
# 3 11.3062 34.2672 88.5401 0.0000 0.0000 0.0000
# 4 0.0000 0.0000 0.0000 41.0024 0.0000 0.0000
# 5 0.0000 0.0000 0.0000 0.0000 31.7693 0.0000
# 6 0.0000 0.0000 0.0000 0.0000 0.0000 26.0367
#
#
#
# Elastic Compliance Matrix: (Units=1/GPa)
#
#
# Indices 1 2 3 4 5 6 
#
# 1 0.053712 -0.012543 -0.002004 0.000000 0.000000 0.000000
# 2 -0.012543 0.016806 -0.004903 0.000000 0.000000 0.000000
# 3 -0.002004 -0.004903 0.013448 0.000000 0.000000 0.000000
# 4 0.000000 0.000000 0.000000 0.024389 0.000000 0.000000
# 5 0.000000 0.000000 0.000000 0.000000 0.031477 0.000000
# 6 0.000000 0.000000 0.000000 0.000000 0.000000 0.038407
#
#
# Mechanical properties :
#
#
# Convention : Reuss Voigt Hill
#
# Bulk Modulus (GPa) = 22.18980 36.82350 29.50665
# Shear Modulus (GPa) = 21.53674 28.50024 25.01849
#
# Velocity S-wave (km/s) = 3.25858 3.74854 3.51211
# Velocity P-wave (km/s) = 5.00980 6.07376 5.56725
#
# Compressibility (1/GPa) = 0.04506575
#
# Stress axis : x y z
#
# Youngs Moduli (GPa) = 18.61769 59.50249 74.36221
#
# Poissons Ratio (x) = 0.74635 0.14904
# Poissons Ratio (y) = 0.23353 0.36457
# Poissons Ratio (z) = 0.03732 0.29172
#
# Static dielectric constant tensor:
#      x y z
#    x 3.504230 0.000000 0.000000 
#    y 0.000000 4.054930 0.000000 
#    z 0.000000 0.000000 3.640260 
# 
# 
# High freq. dielectric constant tensor:
#      x y z
#    x 1.778740 0.000000 0.000000 
#    y 0.000000 1.810470 0.000000 
#    z 0.000000 0.000000 1.800210 
# 
# From -- ./inp_files/3767.got.cif
#   From: 2010.03.12/outbox.cif.g09.slc.cpg/sg38_2_cif.got.tgz:3767.got - 2010.04.14 02:38:36.
