data_PCOD8179411
_publ_section_title
;
Structure prediction by ZEFSAII (Michael W. Deem and Ramdas Pophale) SiO2 
 PCOD8179411
Probable space group: A M M 2
;
_chemical_formula_sum "Si O2"
_cell_formula_units_Z 64
_cell_length_a 18.729345
_cell_length_b 9.230918
_cell_length_c 19.729387
_cell_angle_alpha 90.000000
_cell_angle_beta 90.000000
_cell_angle_gamma 90.000000
_cell_volume 3410.994934
_symmetry_space_group_name_H-M "A M M 2"
_symmetry_group_IT_number 38
_symmetry_cell_setting 'orthorhombic'
loop_
_space_group_symop_operation_xyz
x,y,z
-x,-y,z
-x,y,z
x,-y,z
x,1/2+y,1/2+z
-x,1/2-y,1/2+z
-x,1/2+y,1/2+z
x,1/2-y,1/2+z
loop_
_atom_site_type_symbol
_atom_site_label
_atom_site_fract_x
_atom_site_fract_y
_atom_site_fract_z
Si Si1 0.853667 0.172137 0.576530
Si Si2 0.313091 0.666684 0.869464
Si Si3 0.918905 0.334304 0.457658
Si Si4 0.845566 0.664899 0.841251
Si Si5 0.916960 0.332034 0.699415
Si Si6 0.583217 0.334609 0.273479
Si Si7 0.579398 0.172733 0.621969
Si Si8 0.700531 0.327849 0.022322
O O1 0.910849 0.241983 0.525907
O O2 0.870264 0.231218 0.650975
O O3 0.774990 0.224535 0.554429
O O4 0.861387 0.000000 0.575684
O O5 0.335277 0.500000 0.873773
O O6 0.238720 0.687010 0.829397
O O7 0.374803 0.746147 0.829426
O O8 0.306809 0.731084 0.945720
O O9 0.897779 0.500000 0.472564
O O10 0.868423 0.272989 0.399774
O O11 0.000000 0.321260 0.432698
O O12 0.860755 0.500000 0.865220
O O13 0.889210 0.702157 0.774303
O O14 0.905159 0.500000 0.680587
O O15 0.000000 0.289900 0.694946
O O16 0.500000 0.319360 0.289860
O O17 0.608338 0.500000 0.278485
O O18 0.599385 0.273973 0.197829
O O19 0.500000 0.228184 0.602076
O O20 0.636095 0.235647 0.568130
O O21 0.579801 0.000000 0.622102
O O22 0.698699 0.500000 0.022152
#
# Coordination Sequence:
#
# PCOD8179411 Si02
#       8
#     8   8   8   8   8   8   8   8
#     4  11  22  37  57  82 113 147 185 233 283 336
#     4  10  20  35  55  82 114 143 180 227 272 329
#     4  11  23  38  58  83 111 145 189 236 280 335
#     4  10  21  39  59  82 114 150 187 231 286 343
#     4  10  22  39  57  79 110 147 187 232 284 342
#     4   9  19  35  55  81 112 146 184 223 268 326
#     4   8  15  30  53  79 107 141 180 221 266 315
#     4   9  18  33  52  79 111 139 178 227 270 321
#
# _framework density 18.762854999999998
#
# number of rings (size 3 to 8) (size 9 to 14) (size 15 to 20)
#    0.000    2.250    1.250    2.250    1.750    5.000 
#    0.000    1.250    0.000    0.750    0.000    0.000 
#    0.000    0.000    0.000    0.000    0.000    0.000 
#
# Total GULP energy -396832.963694 kJ/mol
# GULP energy per Si atom -12401.030115 kJ/mol
# Density = 1.872015 g / cm^3
# Si number density = 18.762855 Si / 1000 Ang^3
#
#
#
# Elastic Constant Matrix: (Units=GPa)
#
#
# Indices 1 2 3 4 5 6 
#
# 1 92.1396 30.7152 54.3418 0.0000 0.0000 0.0000
# 2 30.7152 60.0619 36.4560 0.0000 0.0000 0.0000
# 3 54.3418 36.4560 100.5177 0.0000 0.0000 0.0000
# 4 0.0000 0.0000 0.0000 26.8907 0.0000 0.0000
# 5 0.0000 0.0000 0.0000 0.0000 43.1964 0.0000
# 6 0.0000 0.0000 0.0000 0.0000 0.0000 26.3518
#
#
#
# Elastic Compliance Matrix: (Units=1/GPa)
#
#
# Indices 1 2 3 4 5 6 
#
# 1 0.016618 -0.003905 -0.007568 0.000000 0.000000 0.000000
# 2 -0.003905 0.022267 -0.005965 0.000000 0.000000 0.000000
# 3 -0.007568 -0.005965 0.016203 0.000000 0.000000 0.000000
# 4 0.000000 0.000000 0.000000 0.037188 0.000000 0.000000
# 5 0.000000 0.000000 0.000000 0.000000 0.023150 0.000000
# 6 0.000000 0.000000 0.000000 0.000000 0.000000 0.037948
#
#
# Mechanical properties :
#
#
# Convention : Reuss Voigt Hill
#
# Bulk Modulus (GPa) = 49.47272 55.08280 52.27776
# Shear Modulus (GPa) = 25.64278 28.03485 26.83882
#
# Velocity S-wave (km/s) = 3.70087 3.86964 3.78620
# Velocity P-wave (km/s) = 6.68480 7.02756 6.85832
#
# Compressibility (1/GPa) = 0.02021316
#
# Stress axis : x y z
#
# Youngs Moduli (GPa) = 60.17512 44.90980 61.71651
#
# Poissons Ratio (x) = 0.17537 0.46706
# Poissons Ratio (y) = 0.23498 0.36812
# Poissons Ratio (z) = 0.45540 0.26787
#
# Static dielectric constant tensor:
#      x y z
#    x 3.563130 0.000000 0.000000 
#    y 0.000000 3.190370 0.000000 
#    z 0.000000 0.000000 3.543550 
# 
# 
# High freq. dielectric constant tensor:
#      x y z
#    x 1.736890 0.000000 0.000000 
#    y 0.000000 1.699540 0.000000 
#    z 0.000000 0.000000 1.735610 
# 
# From -- ./inp_files/18904.got.cif
#   From: 2010.03.12/outbox.cif.g09.slc.cpg/sg38_10_cif.got.tgz:18904.got - 2010.04.14 02:38:36.
