data_PCOD8179624
_publ_section_title
;
Structure prediction by ZEFSAII (Michael W. Deem and Ramdas Pophale) SiO2 
 PCOD8179624
Probable space group: A M M 2
;
_chemical_formula_sum "Si O2"
_cell_formula_units_Z 64
_cell_length_a 19.202122
_cell_length_b 20.147623
_cell_length_c 8.569036
_cell_angle_alpha 90.000000
_cell_angle_beta 90.000000
_cell_angle_gamma 90.000000
_cell_volume 3315.163925
_symmetry_space_group_name_H-M "A M M 2"
_symmetry_group_IT_number 38
_symmetry_cell_setting 'orthorhombic'
loop_
_space_group_symop_operation_xyz
x,y,z
-x,-y,z
-x,y,z
x,-y,z
x,1/2+y,1/2+z
-x,1/2-y,1/2+z
-x,1/2+y,1/2+z
x,1/2-y,1/2+z
loop_
_atom_site_type_symbol
_atom_site_label
_atom_site_fract_x
_atom_site_fract_y
_atom_site_fract_z
Si Si1 0.632310 0.722296 0.218610
Si Si2 0.869771 0.308489 0.963928
Si Si3 0.713489 0.818965 0.430503
Si Si4 0.162355 0.573756 0.477130
Si Si5 0.078633 0.573694 0.779713
Si Si6 0.577960 0.659492 0.522436
Si Si7 0.920921 0.821874 0.798521
Si Si8 0.700733 0.921440 0.165207
O O1 0.692619 0.759555 0.314483
O O2 0.589427 0.677507 0.340194
O O3 0.583526 0.776178 0.133483
O O4 0.664271 0.675685 0.082771
O O5 0.788549 0.298398 0.998087
O O6 0.871598 0.376766 0.869341
O O7 0.901732 0.248781 0.867468
O O8 0.917207 0.315012 0.114366
O O9 0.709669 0.887872 0.335185
O O10 0.173197 0.500000 0.405735
O O11 0.100084 0.572451 0.600393
O O12 0.136879 0.623651 0.344344
O O13 0.233956 0.598673 0.556247
O O14 0.086680 0.500000 0.852175
O O15 0.000000 0.599484 0.791394
O O16 0.500000 0.630960 0.539156
O O17 0.631329 0.602835 0.577695
O O18 0.000000 0.842114 0.844938
O O19 0.697792 0.000000 0.192732
#
# Coordination Sequence:
#
# PCOD8179624 Si02
#       8
#     8   8   8   8   8   8   8   8
#     4   9  20  35  59  92 125 151 191 238 286 343
#     4  12  24  37  59  83 119 154 195 246 299 357
#     4  10  20  36  59  87 117 155 195 242 291 341
#     4  10  22  41  61  82 110 152 199 244 294 351
#     4  10  20  37  60  82 110 151 197 242 292 349
#     4  10  20  36  63  92 124 157 188 233 286 345
#     4  12  26  39  56  84 119 154 196 250 305 356
#     4  10  22  40  61  88 117 153 200 240 284 346
#
# _framework density 19.305229000000001
#
# number of rings (size 3 to 8) (size 9 to 14) (size 15 to 20)
#    0.000    1.625    1.250    3.375    7.000    1.500 
#    0.000    1.250    0.000    0.000    0.000    0.000 
#    0.000    0.000    0.000    0.000    0.000    0.000 
#
# Total GULP energy -396800.972034 kJ/mol
# GULP energy per Si atom -12400.030376 kJ/mol
# Density = 1.926129 g / cm^3
# Si number density = 19.305229 Si / 1000 Ang^3
#
#
#
# Elastic Constant Matrix: (Units=GPa)
#
#
# Indices 1 2 3 4 5 6 
#
# 1 118.5370 32.0808 23.0622 0.0000 0.0000 0.0000
# 2 32.0808 80.4491 30.7677 0.0000 0.0000 0.0000
# 3 23.0622 30.7677 80.9343 0.0000 0.0000 0.0000
# 4 0.0000 0.0000 0.0000 24.5202 0.0000 0.0000
# 5 0.0000 0.0000 0.0000 0.0000 24.8461 0.0000
# 6 0.0000 0.0000 0.0000 0.0000 0.0000 27.2611
#
#
#
# Elastic Compliance Matrix: (Units=1/GPa)
#
#
# Indices 1 2 3 4 5 6 
#
# 1 0.009610 -0.003259 -0.001500 0.000000 0.000000 0.000000
# 2 -0.003259 0.015650 -0.005021 0.000000 0.000000 0.000000
# 3 -0.001500 -0.005021 0.014692 0.000000 0.000000 0.000000
# 4 0.000000 0.000000 0.000000 0.040783 0.000000 0.000000
# 5 0.000000 0.000000 0.000000 0.000000 0.040248 0.000000
# 6 0.000000 0.000000 0.000000 0.000000 0.000000 0.036682
#
#
# Mechanical properties :
#
#
# Convention : Reuss Voigt Hill
#
# Bulk Modulus (GPa) = 49.03550 50.19353 49.61452
# Shear Modulus (GPa) = 27.17094 28.25945 27.71520
#
# Velocity S-wave (km/s) = 3.75566 3.83015 3.79308
# Velocity P-wave (km/s) = 6.65296 6.75399 6.70367
#
# Compressibility (1/GPa) = 0.02039339
#
# Stress axis : x y z
#
# Youngs Moduli (GPa) = 104.05998 63.89815 68.06566
#
# Poissons Ratio (x) = 0.20822 0.10207
# Poissons Ratio (y) = 0.33909 0.34175
# Poissons Ratio (z) = 0.15604 0.32082
#
# Static dielectric constant tensor:
#      x y z
#    x 3.517840 0.000000 0.000000 
#    y 0.000000 3.441840 0.000000 
#    z 0.000000 0.000000 3.499390 
# 
# 
# High freq. dielectric constant tensor:
#      x y z
#    x 1.757180 0.000000 0.000000 
#    y 0.000000 1.741340 0.000000 
#    z 0.000000 0.000000 1.748560 
# 
# From -- ./inp_files/6495.got.cif
#   From: 2010.03.12/outbox.cif.g09.slc.cpg/sg38_4_cif.got.tgz:6495.got - 2010.04.14 02:38:36.
