data_PCOD8179431
_publ_section_title
;
Structure prediction by ZEFSAII (Michael W. Deem and Ramdas Pophale) SiO2 
 PCOD8179431
Probable space group: A M M 2
;
_chemical_formula_sum "Si O2"
_cell_formula_units_Z 32
_cell_length_a 13.134551
_cell_length_b 8.864319
_cell_length_c 15.443974
_cell_angle_alpha 90.000000
_cell_angle_beta 90.000000
_cell_angle_gamma 90.000000
_cell_volume 1798.124132
_symmetry_space_group_name_H-M "A M M 2"
_symmetry_group_IT_number 38
_symmetry_cell_setting 'orthorhombic'
loop_
_space_group_symop_operation_xyz
x,y,z
-x,-y,z
-x,y,z
x,-y,z
x,1/2+y,1/2+z
-x,1/2-y,1/2+z
-x,1/2+y,1/2+z
x,1/2-y,1/2+z
loop_
_atom_site_type_symbol
_atom_site_label
_atom_site_fract_x
_atom_site_fract_y
_atom_site_fract_z
Si Si1 0.116581 0.173131 0.460800
Si Si2 0.791480 0.671238 0.622205
Si Si3 0.801730 0.177726 0.793234
Si Si4 0.614033 0.171537 0.237221
O O1 0.188473 0.234828 0.536237
O O2 0.133328 0.267781 0.374220
O O3 0.000000 0.191773 0.490153
O O4 0.144761 0.000000 0.442702
O O5 0.830641 0.500000 0.610213
O O6 0.848001 0.746524 0.705572
O O7 0.669540 0.675662 0.642676
O O8 0.682596 0.228686 0.803474
O O9 0.809828 0.000000 0.785103
O O10 0.500000 0.238106 0.229889
O O11 0.611452 0.000000 0.271907
#
# Coordination Sequence:
#
# PCOD8179431 Si02
#       4
#     8   8   8   8
#     4  11  23  38  56  79 108 145 187 228 272 322
#     4   9  19  36  57  81 110 143 179 223 272 321
#     4  10  20  35  56  82 112 144 181 223 270 323
#     4   8  16  34  58  81 109 144 179 220 270 320
#
# _framework density 17.796323000000001
#
# number of rings (size 3 to 8) (size 9 to 14) (size 15 to 20)
#    1.500    1.000    0.000    3.000    0.000    3.500 
#    0.000    1.250    0.000    4.500    0.000    0.000 
#    0.000    0.000    0.000    0.000    0.000    0.000 
#
# Total GULP energy -198237.954560 kJ/mol
# GULP energy per Si atom -12389.872160 kJ/mol
# Density = 1.775582 g / cm^3
# Si number density = 17.796323 Si / 1000 Ang^3
#
#
#
# Elastic Constant Matrix: (Units=GPa)
#
#
# Indices 1 2 3 4 5 6 
#
# 1 53.5400 29.4486 7.9964 0.0000 0.0000 0.0000
# 2 29.4486 108.3153 28.9424 0.0000 0.0000 0.0000
# 3 7.9964 28.9424 81.9159 0.0000 0.0000 0.0000
# 4 0.0000 0.0000 0.0000 36.1471 0.0000 0.0000
# 5 0.0000 0.0000 0.0000 0.0000 23.1456 0.0000
# 6 0.0000 0.0000 0.0000 0.0000 0.0000 21.7281
#
#
#
# Elastic Compliance Matrix: (Units=1/GPa)
#
#
# Indices 1 2 3 4 5 6 
#
# 1 0.021962 -0.005961 -0.000038 0.000000 0.000000 0.000000
# 2 -0.005961 0.011813 -0.003592 0.000000 0.000000 0.000000
# 3 -0.000038 -0.003592 0.013480 0.000000 0.000000 0.000000
# 4 0.000000 0.000000 0.000000 0.027665 0.000000 0.000000
# 5 0.000000 0.000000 0.000000 0.000000 0.043205 0.000000
# 6 0.000000 0.000000 0.000000 0.000000 0.000000 0.046023
#
#
# Mechanical properties :
#
#
# Convention : Reuss Voigt Hill
#
# Bulk Modulus (GPa) = 35.61994 41.83844 38.72919
# Shear Modulus (GPa) = 25.94887 28.02975 26.98931
#
# Velocity S-wave (km/s) = 3.82265 3.97297 3.89854
# Velocity P-wave (km/s) = 6.28827 6.67882 6.48649
#
# Compressibility (1/GPa) = 0.02807416
#
# Stress axis : x y z
#
# Youngs Moduli (GPa) = 45.53331 84.65482 74.18197
#
# Poissons Ratio (x) = 0.50462 0.00280
# Poissons Ratio (y) = 0.27142 0.26644
# Poissons Ratio (z) = 0.00172 0.30406
#
# Static dielectric constant tensor:
#      x y z
#    x 3.176420 0.000000 0.000000 
#    y 0.000000 3.304730 0.000000 
#    z 0.000000 0.000000 3.018120 
# 
# 
# High freq. dielectric constant tensor:
#      x y z
#    x 1.670110 0.000000 0.000000 
#    y 0.000000 1.700720 0.000000 
#    z 0.000000 0.000000 1.668230 
# 
# From -- ./inp_files/9746.got.cif
#   From: 2010.03.12/outbox.cif.g09.slc.cpg/sg38_5_cif.got.tgz:9746.got - 2010.04.14 02:38:36.
