data_PCOD8179447
_publ_section_title
;
Structure prediction by ZEFSAII (Michael W. Deem and Ramdas Pophale) SiO2 
 PCOD8179447
Probable space group: A M M 2
;
_chemical_formula_sum "Si O2"
_cell_formula_units_Z 64
_cell_length_a 8.982480
_cell_length_b 24.592585
_cell_length_c 14.901916
_cell_angle_alpha 90.000000
_cell_angle_beta 90.000000
_cell_angle_gamma 90.000000
_cell_volume 3291.869052
_symmetry_space_group_name_H-M "A M M 2"
_symmetry_group_IT_number 38
_symmetry_cell_setting 'orthorhombic'
loop_
_space_group_symop_operation_xyz
x,y,z
-x,-y,z
-x,y,z
x,-y,z
x,1/2+y,1/2+z
-x,1/2-y,1/2+z
-x,1/2+y,1/2+z
x,1/2-y,1/2+z
loop_
_atom_site_type_symbol
_atom_site_label
_atom_site_fract_x
_atom_site_fract_y
_atom_site_fract_z
Si Si1 0.325191 0.855411 0.077700
Si Si2 0.828702 0.330386 0.754495
Si Si3 0.829909 0.639639 0.950201
Si Si4 0.169290 0.937544 0.951018
Si Si5 0.667732 0.764835 0.534582
Si Si6 0.327041 0.936862 0.586546
Si Si7 0.669062 0.281619 0.240812
Si Si8 0.172557 0.889965 0.761062
O O1 0.500000 0.856020 0.097355
O O2 0.242777 0.863755 0.172490
O O3 0.278305 0.797664 0.034499
O O4 0.282076 0.902942 0.010387
O O5 0.813278 0.367616 0.843147
O O6 0.745606 0.273754 0.771528
O O7 0.000000 0.317701 0.732493
O O8 0.000000 0.632281 0.980976
O O9 0.778994 0.700843 0.973559
O O10 0.729976 0.595072 0.999394
O O11 0.199531 0.928711 0.845926
O O12 0.000000 0.920901 0.974714
O O13 0.199768 0.000000 0.973777
O O14 0.500000 0.769419 0.496647
O O15 0.674585 0.789288 0.634165
O O16 0.500000 0.923771 0.599574
O O17 0.244192 0.918622 0.675798
O O18 0.296658 0.000000 0.568895
O O19 0.500000 0.280752 0.276153
O O20 0.753559 0.332254 0.284813
O O21 0.000000 0.880481 0.740455
#
# Coordination Sequence:
#
# PCOD8179447 Si02
#       8
#     8   8   8   8   8   8   8   8
#     4  10  22  40  62  89 117 155 201 247 302 356
#     4  10  22  39  59  87 122 158 198 246 300 356
#     4  11  23  37  59  89 119 156 202 247 296 352
#     4  10  23  42  62  86 118 157 201 250 302 354
#     4   9  19  35  55  83 119 154 190 236 293 353
#     4  11  24  41  61  86 120 161 202 247 299 353
#     4  10  20  35  56  86 122 159 196 237 291 352
#     4  11  22  37  60  89 121 158 199 243 293 355
#
# _framework density 19.441842000000001
#
# number of rings (size 3 to 8) (size 9 to 14) (size 15 to 20)
#    0.000    1.750    1.250    3.375    1.750    7.250 
#    0.000    0.625    0.000    0.750    0.000    0.000 
#    0.000    0.000    0.000    0.000    0.000    0.000 
#
# Total GULP energy -396948.062893 kJ/mol
# GULP energy per Si atom -12404.626965 kJ/mol
# Density = 1.939759 g / cm^3
# Si number density = 19.441842 Si / 1000 Ang^3
#
#
#
# Elastic Constant Matrix: (Units=GPa)
#
#
# Indices 1 2 3 4 5 6 
#
# 1 129.4136 52.5532 54.2321 0.0000 0.0000 0.0000
# 2 52.5532 91.7123 46.9927 0.0000 0.0000 0.0000
# 3 54.2321 46.9927 89.4285 0.0000 0.0000 0.0000
# 4 0.0000 0.0000 0.0000 29.2255 0.0000 0.0000
# 5 0.0000 0.0000 0.0000 0.0000 13.9578 0.0000
# 6 0.0000 0.0000 0.0000 0.0000 0.0000 29.4172
#
#
#
# Elastic Compliance Matrix: (Units=1/GPa)
#
#
# Indices 1 2 3 4 5 6 
#
# 1 0.011378 -0.004084 -0.004754 0.000000 0.000000 0.000000
# 2 -0.004084 0.016387 -0.006134 0.000000 0.000000 0.000000
# 3 -0.004754 -0.006134 0.017288 0.000000 0.000000 0.000000
# 4 0.000000 0.000000 0.000000 0.034217 0.000000 0.000000
# 5 0.000000 0.000000 0.000000 0.000000 0.071645 0.000000
# 6 0.000000 0.000000 0.000000 0.000000 0.000000 0.033994
#
#
# Mechanical properties :
#
#
# Convention : Reuss Voigt Hill
#
# Bulk Modulus (GPa) = 66.18571 68.67893 67.43232
# Shear Modulus (GPa) = 22.73876 24.97185 23.85531
#
# Velocity S-wave (km/s) = 3.42362 3.58779 3.50667
# Velocity P-wave (km/s) = 7.05302 7.25017 7.15228
#
# Compressibility (1/GPa) = 0.01510900
#
# Stress axis : x y z
#
# Youngs Moduli (GPa) = 87.89135 61.02381 57.84196
#
# Poissons Ratio (x) = 0.24921 0.27497
# Poissons Ratio (y) = 0.35894 0.35483
# Poissons Ratio (z) = 0.41782 0.37435
#
# Static dielectric constant tensor:
#      x y z
#    x 3.666670 0.000000 0.000000 
#    y 0.000000 3.463540 0.000000 
#    z 0.000000 0.000000 3.461490 
# 
# 
# High freq. dielectric constant tensor:
#      x y z
#    x 1.769300 0.000000 0.000000 
#    y 0.000000 1.747750 0.000000 
#    z 0.000000 0.000000 1.755520 
# 
# From -- ./inp_files/12764.got.cif
#   From: 2010.03.12/outbox.cif.g09.slc.cpg/sg38_7_cif.got.tgz:12764.got - 2010.04.14 02:38:36.
