data_PCOD8179796
_publ_section_title
;
Structure prediction by ZEFSAII (Michael W. Deem and Ramdas Pophale) SiO2 
 PCOD8179796
Probable space group: A M M 2
;
_chemical_formula_sum "Si O2"
_cell_formula_units_Z 48
_cell_length_a 8.715427
_cell_length_b 18.195664
_cell_length_c 15.290880
_cell_angle_alpha 90.000000
_cell_angle_beta 90.000000
_cell_angle_gamma 90.000000
_cell_volume 2424.873337
_symmetry_space_group_name_H-M "A M M 2"
_symmetry_group_IT_number 38
_symmetry_cell_setting 'orthorhombic'
loop_
_space_group_symop_operation_xyz
x,y,z
-x,-y,z
-x,y,z
x,-y,z
x,1/2+y,1/2+z
-x,1/2-y,1/2+z
-x,1/2+y,1/2+z
x,1/2-y,1/2+z
loop_
_atom_site_type_symbol
_atom_site_label
_atom_site_fract_x
_atom_site_fract_y
_atom_site_fract_z
Si Si1 0.183288 0.346342 0.768300
Si Si2 0.825466 0.770795 0.098077
Si Si3 0.676311 0.418448 0.325626
Si Si4 0.674905 0.000000 0.318562
Si Si5 0.181285 0.276409 0.404438
Si Si6 0.174722 0.894045 0.647434
Si Si7 0.674544 0.000000 0.524087
O O1 0.246391 0.325210 0.671045
O O2 0.240805 0.427916 0.784469
O O3 0.247670 0.288001 0.840967
O O4 0.000000 0.343927 0.769613
O O5 0.813393 0.692568 0.143551
O O6 0.000000 0.794112 0.081497
O O7 0.744823 0.770602 0.002387
O O8 0.500000 0.394427 0.335207
O O9 0.702261 0.500000 0.367111
O O10 0.782071 0.357953 0.371075
O O11 0.719710 0.424375 0.224293
O O12 0.685125 0.000000 0.421473
O O13 0.500000 0.000000 0.285481
O O14 0.000000 0.266061 0.407842
O O15 0.000000 0.919251 0.662768
O O16 0.237758 0.927646 0.557482
O O17 0.500000 0.000000 0.557082
#
# Coordination Sequence:
#
# PCOD8179796 Si02
#       7
#     8   8   8   4   8   8   4
#     4  10  20  39  63  86 118 154 194 248 300 346
#     4   9  19  36  60  90 114 143 195 251 295 340
#     4  11  23  38  56  83 124 160 189 236 295 350
#     4  11  25  41  57  84 121 160 201 241 290 356
#     4  10  20  38  64  89 115 149 197 248 293 353
#     4  11  20  35  61  88 115 149 195 240 291 355
#     4  11  23  37  53  84 125 154 187 241 300 354
#
# _framework density 19.794848000000002
#
# number of rings (size 3 to 8) (size 9 to 14) (size 15 to 20)
#    0.000    1.667    2.500    2.500    0.000    4.333 
#    1.500    2.500    0.000    0.000    0.000    0.000 
#    0.000    0.000    0.000    0.000    0.000    0.000 
#
# Total GULP energy -297510.465921 kJ/mol
# GULP energy per Si atom -12396.269413 kJ/mol
# Density = 1.974979 g / cm^3
# Si number density = 19.794848 Si / 1000 Ang^3
#
#
#
# Elastic Constant Matrix: (Units=GPa)
#
#
# Indices 1 2 3 4 5 6 
#
# 1 29.3239 18.1895 21.2654 0.0000 0.0000 0.0000
# 2 18.1895 125.0382 58.1030 0.0000 0.0000 0.0000
# 3 21.2654 58.1030 124.7457 0.0000 0.0000 0.0000
# 4 0.0000 0.0000 0.0000 22.7935 0.0000 0.0000
# 5 0.0000 0.0000 0.0000 0.0000 20.1053 0.0000
# 6 0.0000 0.0000 0.0000 0.0000 0.0000 4.9501
#
#
#
# Elastic Compliance Matrix: (Units=1/GPa)
#
#
# Indices 1 2 3 4 5 6 
#
# 1 0.040003 -0.003383 -0.005244 0.000000 0.000000 0.000000
# 2 -0.003383 0.010493 -0.004311 0.000000 0.000000 0.000000
# 3 -0.005244 -0.004311 0.010918 0.000000 0.000000 0.000000
# 4 0.000000 0.000000 0.000000 0.043872 0.000000 0.000000
# 5 0.000000 0.000000 0.000000 0.000000 0.049738 0.000000
# 6 0.000000 0.000000 0.000000 0.000000 0.000000 0.202015
#
#
# Mechanical properties :
#
#
# Convention : Reuss Voigt Hill
#
# Bulk Modulus (GPa) = 28.13763 52.69153 40.41458
# Shear Modulus (GPa) = 12.66596 21.67310 17.16953
#
# Velocity S-wave (km/s) = 2.53229 3.31250 2.94832
# Velocity P-wave (km/s) = 4.77446 6.42703 5.66137
#
# Compressibility (1/GPa) = 0.03553959
#
# Stress axis : x y z
#
# Youngs Moduli (GPa) = 24.99823 95.30465 91.59226
#
# Poissons Ratio (x) = 0.32238 0.48029
# Poissons Ratio (y) = 0.08456 0.39481
# Poissons Ratio (z) = 0.13109 0.41082
#
# Static dielectric constant tensor:
#      x y z
#    x 3.425520 0.000000 0.000000 
#    y 0.000000 3.781540 0.000000 
#    z 0.000000 0.000000 3.826660 
# 
# 
# High freq. dielectric constant tensor:
#      x y z
#    x 1.747170 0.000000 0.000000 
#    y 0.000000 1.781020 0.000000 
#    z 0.000000 0.000000 1.774590 
# 
# From -- ./inp_files/12098.got.cif
#   From: 2010.03.12/outbox.cif.g09.slc.cpg/sg38_7_cif.got.tgz:12098.got - 2010.04.14 02:38:36.
