data_PCOD8179165
_publ_section_title
;
Structure prediction by ZEFSAII (Michael W. Deem and Ramdas Pophale) SiO2 
 PCOD8179165
Probable space group: A M M 2
;
_chemical_formula_sum "Si O2"
_cell_formula_units_Z 64
_cell_length_a 14.965866
_cell_length_b 9.112568
_cell_length_c 24.560867
_cell_angle_alpha 90.000000
_cell_angle_beta 90.000000
_cell_angle_gamma 90.000000
_cell_volume 3349.548942
_symmetry_space_group_name_H-M "A M M 2"
_symmetry_group_IT_number 38
_symmetry_cell_setting 'orthorhombic'
loop_
_space_group_symop_operation_xyz
x,y,z
-x,-y,z
-x,y,z
x,-y,z
x,1/2+y,1/2+z
-x,1/2-y,1/2+z
-x,1/2+y,1/2+z
x,1/2-y,1/2+z
loop_
_atom_site_type_symbol
_atom_site_label
_atom_site_fract_x
_atom_site_fract_y
_atom_site_fract_z
Si Si1 0.397372 0.671795 0.353450
Si Si2 0.099431 0.674527 0.071512
Si Si3 0.105769 0.161978 0.452353
Si Si4 0.252463 0.326524 0.267984
Si Si5 0.605202 0.829226 0.068375
Si Si6 0.101142 0.326631 0.346905
Si Si7 0.394024 0.334663 0.960864
Si Si8 0.261436 0.675134 0.145422
O O1 0.500000 0.711828 0.340940
O O2 0.385759 0.500000 0.365640
O O3 0.340354 0.722482 0.301251
O O4 0.359755 0.757592 0.405909
O O5 0.094307 0.500000 0.070217
O O6 0.170395 0.728684 0.116129
O O7 0.000000 0.736664 0.085584
O O8 0.132477 0.727963 0.011563
O O9 0.139937 0.265322 0.403815
O O10 0.000000 0.150713 0.450760
O O11 0.147798 0.000000 0.444157
O O12 0.247476 0.500000 0.264706
O O13 0.163316 0.267541 0.298037
O O14 0.256720 0.264141 0.207015
O O15 0.500000 0.804160 0.075871
O O16 0.652917 0.750560 0.118678
O O17 0.629735 0.000000 0.066757
O O18 0.641004 0.755503 0.012787
O O19 0.105846 0.500000 0.351598
O O20 0.000000 0.272863 0.335371
O O21 0.500000 0.334256 0.960715
O O22 0.356044 0.500000 0.963973
O O23 0.272892 0.500000 0.142271
#
# Coordination Sequence:
#
# PCOD8179165 Si02
#       8
#     8   8   8   8   8   8   8   8
#     4   9  17  31  50  70  97 133 165 197 246 303
#     4   8  15  29  50  76 104 132 164 207 257 303
#     4   8  14  27  47  70  96 125 158 197 245 301
#     4   9  19  33  48  71 100 130 169 210 246 290
#     4  10  21  37  55  75 103 137 167 202 256 314
#     4   9  17  30  48  70  97 127 159 199 245 291
#     4   9  17  31  53  80 104 125 158 205 252 301
#     4  10  20  34  53  76 101 133 178 222 251 289
#
# _framework density 19.107050999999998
#
# number of rings (size 3 to 8) (size 9 to 14) (size 15 to 20)
#    0.000    3.000    0.000    1.500    0.000    4.250 
#    0.000    8.750    0.000    2.625    0.000    0.000 
#    0.000    0.000    0.000    0.000    0.000    0.000 
#
# Total GULP energy -396682.739809 kJ/mol
# GULP energy per Si atom -12396.335619 kJ/mol
# Density = 1.906356 g / cm^3
# Si number density = 19.107051 Si / 1000 Ang^3
#
#
#
# Elastic Constant Matrix: (Units=GPa)
#
#
# Indices 1 2 3 4 5 6 
#
# 1 89.0940 31.2210 73.4180 0.0000 0.0000 0.0000
# 2 31.2210 55.2467 49.4762 0.0000 0.0000 0.0000
# 3 73.4180 49.4762 197.3056 0.0000 0.0000 0.0000
# 4 0.0000 0.0000 0.0000 22.1264 0.0000 0.0000
# 5 0.0000 0.0000 0.0000 0.0000 33.3862 0.0000
# 6 0.0000 0.0000 0.0000 0.0000 0.0000 13.2468
#
#
#
# Elastic Compliance Matrix: (Units=1/GPa)
#
#
# Indices 1 2 3 4 5 6 
#
# 1 0.017258 -0.005161 -0.005128 0.000000 0.000000 0.000000
# 2 -0.005161 0.024886 -0.004320 0.000000 0.000000 0.000000
# 3 -0.005128 -0.004320 0.008060 0.000000 0.000000 0.000000
# 4 0.000000 0.000000 0.000000 0.045195 0.000000 0.000000
# 5 0.000000 0.000000 0.000000 0.000000 0.029952 0.000000
# 6 0.000000 0.000000 0.000000 0.000000 0.000000 0.075490
#
#
# Mechanical properties :
#
#
# Convention : Reuss Voigt Hill
#
# Bulk Modulus (GPa) = 47.64947 72.20853 59.92900
# Shear Modulus (GPa) = 21.09232 26.25396 23.67314
#
# Velocity S-wave (km/s) = 3.32611 3.71083 3.52372
# Velocity P-wave (km/s) = 6.30420 7.49893 6.92737
#
# Compressibility (1/GPa) = 0.02098659
#
# Stress axis : x y z
#
# Youngs Moduli (GPa) = 57.94403 40.18336 124.07590
#
# Poissons Ratio (x) = 0.20738 0.63622
# Poissons Ratio (y) = 0.29904 0.53601
# Poissons Ratio (z) = 0.29712 0.17359
#
# Static dielectric constant tensor:
#      x y z
#    x 3.540320 0.000000 0.000000 
#    y 0.000000 3.305150 0.000000 
#    z 0.000000 0.000000 3.796100 
# 
# 
# High freq. dielectric constant tensor:
#      x y z
#    x 1.741810 0.000000 0.000000 
#    y 0.000000 1.708060 0.000000 
#    z 0.000000 0.000000 1.744670 
# 
# From -- ./inp_files/22972.got.cif
#   From: 2010.03.12/outbox.cif.g09.slc.cpg/sg38_12_cif.got.tgz:22972.got - 2010.04.14 02:38:36.
