data_PCOD8179663
_publ_section_title
;
Structure prediction by ZEFSAII (Michael W. Deem and Ramdas Pophale) SiO2 
 PCOD8179663
Probable space group: A M M 2
;
_chemical_formula_sum "Si O2"
_cell_formula_units_Z 48
_cell_length_a 13.488836
_cell_length_b 20.324987
_cell_length_c 8.872761
_cell_angle_alpha 90.000000
_cell_angle_beta 90.000000
_cell_angle_gamma 90.000000
_cell_volume 2432.559850
_symmetry_space_group_name_H-M "A M M 2"
_symmetry_group_IT_number 38
_symmetry_cell_setting 'orthorhombic'
loop_
_space_group_symop_operation_xyz
x,y,z
-x,-y,z
-x,y,z
x,-y,z
x,1/2+y,1/2+z
-x,1/2-y,1/2+z
-x,1/2+y,1/2+z
x,1/2-y,1/2+z
loop_
_atom_site_type_symbol
_atom_site_label
_atom_site_fract_x
_atom_site_fract_y
_atom_site_fract_z
Si Si1 0.112306 0.926953 0.441420
Si Si2 0.389751 0.159643 0.748958
Si Si3 0.885107 0.188505 0.938419
Si Si4 0.795785 0.075921 0.758030
Si Si5 0.194932 0.312273 0.760819
Si Si6 0.388115 0.288213 0.920475
O O1 0.181505 0.912295 0.583226
O O2 0.131145 0.875083 0.310147
O O3 0.000000 0.920877 0.498649
O O4 0.133337 0.000000 0.376784
O O5 0.500000 0.129924 0.737669
O O6 0.316921 0.099367 0.781548
O O7 0.380865 0.210273 0.887852
O O8 0.362364 0.199022 0.595436
O O9 0.871208 0.118089 0.858898
O O10 0.849995 0.245423 0.826869
O O11 0.000000 0.197812 0.982939
O O12 0.813788 0.193198 0.082156
O O13 0.806690 0.000000 0.805398
O O14 0.308458 0.324610 0.813123
O O15 0.500000 0.313257 0.881780
#
# Coordination Sequence:
#
# PCOD8179663 Si02
#       6
#     8   8   8   8   8   8
#     4  10  21  38  60  84 116 157 198 242 296 360
#     4  10  20  37  61  91 120 153 195 245 300 360
#     4  12  25  38  59  89 119 158 203 253 301 354
#     4  11  23  40  59  84 119 161 202 247 300 353
#     4  12  22  40  62  89 121 155 198 250 303 356
#     4  10  20  36  61  92 120 149 191 242 301 353
#
# _framework density 19.732299000000001
#
# number of rings (size 3 to 8) (size 9 to 14) (size 15 to 20)
#    0.000    1.167    3.333    4.000    0.000    2.000 
#    0.000    0.000    0.000    0.500    0.000    0.000 
#    0.000    0.000    0.000    0.000    0.000    0.000 
#
# Total GULP energy -297651.453252 kJ/mol
# GULP energy per Si atom -12402.143886 kJ/mol
# Density = 1.968739 g / cm^3
# Si number density = 19.732299 Si / 1000 Ang^3
#
#
#
# Elastic Constant Matrix: (Units=GPa)
#
#
# Indices 1 2 3 4 5 6 
#
# 1 90.8720 24.2783 5.5168 0.0000 0.0000 0.0000
# 2 24.2783 116.6934 40.7577 0.0000 0.0000 0.0000
# 3 5.5168 40.7577 68.0565 0.0000 0.0000 0.0000
# 4 0.0000 0.0000 0.0000 28.3414 0.0000 0.0000
# 5 0.0000 0.0000 0.0000 0.0000 29.5849 0.0000
# 6 0.0000 0.0000 0.0000 0.0000 0.0000 32.4682
#
#
#
# Elastic Compliance Matrix: (Units=1/GPa)
#
#
# Indices 1 2 3 4 5 6 
#
# 1 0.011674 -0.002653 0.000643 0.000000 0.000000 0.000000
# 2 -0.002653 0.011439 -0.006636 0.000000 0.000000 0.000000
# 3 0.000643 -0.006636 0.018615 0.000000 0.000000 0.000000
# 4 0.000000 0.000000 0.000000 0.035284 0.000000 0.000000
# 5 0.000000 0.000000 0.000000 0.000000 0.033801 0.000000
# 6 0.000000 0.000000 0.000000 0.000000 0.000000 0.030799
#
#
# Mechanical properties :
#
#
# Convention : Reuss Voigt Hill
#
# Bulk Modulus (GPa) = 40.92237 46.30305 43.61271
# Shear Modulus (GPa) = 29.93090 31.75017 30.84053
#
# Velocity S-wave (km/s) = 3.89890 4.01564 3.95770
# Velocity P-wave (km/s) = 6.40721 6.70948 6.56008
#
# Compressibility (1/GPa) = 0.02443651
#
# Stress axis : x y z
#
# Youngs Moduli (GPa) = 85.65770 87.41936 53.71875
#
# Poissons Ratio (x) = 0.23195 -0.03452
# Poissons Ratio (y) = 0.22728 0.35645
# Poissons Ratio (z) = -0.05505 0.58008
#
# Static dielectric constant tensor:
#      x y z
#    x 3.866070 0.000000 0.000000 
#    y 0.000000 3.461640 0.000000 
#    z 0.000000 0.000000 3.459570 
# 
# 
# High freq. dielectric constant tensor:
#      x y z
#    x 1.787510 0.000000 0.000000 
#    y 0.000000 1.752190 0.000000 
#    z 0.000000 0.000000 1.762500 
# 
# From -- ./inp_files/5446.got.cif
#   From: 2010.03.12/outbox.cif.g09.slc.cpg/sg38_3_cif.got.tgz:5446.got - 2010.04.14 02:38:36.
