data_PCOD8179265
_publ_section_title
;
Structure prediction by ZEFSAII (Michael W. Deem and Ramdas Pophale) SiO2 
 PCOD8179265
Probable space group: A M M 2
;
_chemical_formula_sum "Si O2"
_cell_formula_units_Z 64
_cell_length_a 8.660040
_cell_length_b 19.357867
_cell_length_c 20.556805
_cell_angle_alpha 90.000000
_cell_angle_beta 90.000000
_cell_angle_gamma 90.000000
_cell_volume 3446.140787
_symmetry_space_group_name_H-M "A M M 2"
_symmetry_group_IT_number 38
_symmetry_cell_setting 'orthorhombic'
loop_
_space_group_symop_operation_xyz
x,y,z
-x,-y,z
-x,y,z
x,-y,z
x,1/2+y,1/2+z
-x,1/2-y,1/2+z
-x,1/2+y,1/2+z
x,1/2-y,1/2+z
loop_
_atom_site_type_symbol
_atom_site_label
_atom_site_fract_x
_atom_site_fract_y
_atom_site_fract_z
Si Si1 0.820573 0.788013 0.915330
Si Si2 0.320489 0.290089 0.281512
Si Si3 0.821741 0.078187 0.729972
Si Si4 0.321028 0.077927 0.115983
Si Si5 0.321850 0.782182 0.537384
Si Si6 0.324451 0.923827 0.593946
Si Si7 0.820588 0.211504 0.161075
Si Si8 0.321045 0.078071 0.964443
O O1 0.772218 0.762122 0.843913
O O2 0.780991 0.869185 0.922764
O O3 0.000000 0.775716 0.926390
O O4 0.727352 0.742423 0.966668
O O5 0.500000 0.280894 0.295052
O O6 0.282929 0.370991 0.272233
O O7 0.274323 0.247204 0.218238
O O8 0.789424 0.089380 0.653823
O O9 0.000000 0.096025 0.742678
O O10 0.781552 0.000000 0.750830
O O11 0.500000 0.088936 0.132588
O O12 0.219980 0.130232 0.158921
O O13 0.269955 0.000000 0.133451
O O14 0.291315 0.092800 0.040204
O O15 0.500000 0.762380 0.549270
O O16 0.295115 0.865051 0.540040
O O17 0.221837 0.745325 0.592445
O O18 0.500000 0.918734 0.620473
O O19 0.294085 0.000000 0.563239
O O20 0.000000 0.221749 0.175263
O O21 0.500000 0.089680 0.947592
O O22 0.270696 0.000000 0.946805
#
# Coordination Sequence:
#
# PCOD8179265 Si02
#       8
#     8   8   8   8   8   8   8   8
#     4  12  25  39  56  82 115 150 190 241 289 338
#     4  12  25  41  59  79 110 155 197 237 285 346
#     4  10  20  34  54  82 116 150 187 233 282 334
#     4   9  18  34  58  86 116 150 190 233 278 335
#     4  11  21  36  59  85 115 152 191 232 279 340
#     4   9  18  33  56  85 114 147 188 231 276 331
#     4  12  23  36  58  88 118 148 188 240 289 336
#     4   9  18  34  56  81 112 151 192 230 273 335
#
# _framework density 18.571497999999998
#
# number of rings (size 3 to 8) (size 9 to 14) (size 15 to 20)
#    0.000    1.500    2.500    4.875    0.000    2.250 
#    0.000    1.250    0.000    0.750    0.000    1.750 
#    0.000    0.000    0.000    0.000    0.000    0.000 
#
# Total GULP energy -396883.762842 kJ/mol
# GULP energy per Si atom -12402.617589 kJ/mol
# Density = 1.852923 g / cm^3
# Si number density = 18.571498 Si / 1000 Ang^3
#
#
#
# Elastic Constant Matrix: (Units=GPa)
#
#
# Indices 1 2 3 4 5 6 
#
# 1 66.8306 23.5138 3.7683 0.0000 0.0000 0.0000
# 2 23.5138 94.9670 33.5597 0.0000 0.0000 0.0000
# 3 3.7683 33.5597 67.9831 0.0000 0.0000 0.0000
# 4 0.0000 0.0000 0.0000 22.0979 0.0000 0.0000
# 5 0.0000 0.0000 0.0000 0.0000 27.0066 0.0000
# 6 0.0000 0.0000 0.0000 0.0000 0.0000 23.4339
#
#
#
# Elastic Compliance Matrix: (Units=1/GPa)
#
#
# Indices 1 2 3 4 5 6 
#
# 1 0.016490 -0.004555 0.001334 0.000000 0.000000 0.000000
# 2 -0.004555 0.014013 -0.006665 0.000000 0.000000 0.000000
# 3 0.001334 -0.006665 0.017926 0.000000 0.000000 0.000000
# 4 0.000000 0.000000 0.000000 0.045253 0.000000 0.000000
# 5 0.000000 0.000000 0.000000 0.000000 0.037028 0.000000
# 6 0.000000 0.000000 0.000000 0.000000 0.000000 0.042673
#
#
# Mechanical properties :
#
#
# Convention : Reuss Voigt Hill
#
# Bulk Modulus (GPa) = 34.89352 39.05158 36.97255
# Shear Modulus (GPa) = 24.66613 25.77026 25.21820
#
# Velocity S-wave (km/s) = 3.64836 3.72912 3.68896
# Velocity P-wave (km/s) = 6.04789 6.29406 6.17220
#
# Compressibility (1/GPa) = 0.02865861
#
# Stress axis : x y z
#
# Youngs Moduli (GPa) = 60.64121 71.36240 55.78566
#
# Poissons Ratio (x) = 0.32502 -0.07443
# Poissons Ratio (y) = 0.27619 0.37181
# Poissons Ratio (z) = -0.08091 0.47563
#
# Static dielectric constant tensor:
#      x y z
#    x 3.387020 0.000000 0.000000 
#    y 0.000000 3.649510 0.000000 
#    z 0.000000 0.000000 3.166520 
# 
# 
# High freq. dielectric constant tensor:
#      x y z
#    x 1.725000 0.000000 0.000000 
#    y 0.000000 1.726400 0.000000 
#    z 0.000000 0.000000 1.692380 
# 
# From -- ./inp_files/20253.got.cif
#   From: 2010.03.12/outbox.cif.g09.slc.cpg/sg38_11_cif.got.tgz:20253.got - 2010.04.14 02:38:36.
