data_PCOD8179816
_publ_section_title
;
Structure prediction by ZEFSAII (Michael W. Deem and Ramdas Pophale) SiO2 
 PCOD8179816
Probable space group: A M M 2
;
_chemical_formula_sum "Si O2"
_cell_formula_units_Z 48
_cell_length_a 10.021760
_cell_length_b 8.815075
_cell_length_c 27.068290
_cell_angle_alpha 90.000000
_cell_angle_beta 90.000000
_cell_angle_gamma 90.000000
_cell_volume 2391.282197
_symmetry_space_group_name_H-M "A M M 2"
_symmetry_group_IT_number 38
_symmetry_cell_setting 'orthorhombic'
loop_
_space_group_symop_operation_xyz
x,y,z
-x,-y,z
-x,y,z
x,-y,z
x,1/2+y,1/2+z
-x,1/2-y,1/2+z
-x,1/2+y,1/2+z
x,1/2-y,1/2+z
loop_
_atom_site_type_symbol
_atom_site_label
_atom_site_fract_x
_atom_site_fract_y
_atom_site_fract_z
Si Si1 0.500000 0.819566 0.022260
Si Si2 0.264761 0.676458 0.453768
Si Si3 0.233428 0.821289 0.669305
Si Si4 0.151508 0.326124 0.768988
Si Si5 0.500000 0.179501 0.133710
Si Si6 0.000000 0.819881 0.599013
Si Si7 0.000000 0.678928 0.987869
Si Si8 0.652569 0.674198 0.343164
O O1 0.500000 0.755720 0.077855
O O2 0.500000 0.000000 0.020007
O O3 0.632414 0.759906 0.994749
O O4 0.234426 0.500000 0.462013
O O5 0.329464 0.707315 0.400832
O O6 0.128125 0.767046 0.457981
O O7 0.174660 0.781980 0.722504
O O8 0.372517 0.737337 0.662955
O O9 0.131661 0.761404 0.627355
O O10 0.256137 0.000000 0.665625
O O11 0.177972 0.500000 0.753659
O O12 0.250187 0.282789 0.813051
O O13 0.000000 0.303651 0.787753
O O14 0.500000 0.000000 0.133052
O O15 0.000000 0.753196 0.543612
O O16 0.000000 0.000000 0.599327
O O17 0.000000 0.500000 0.990436
O O18 0.500000 0.709928 0.328456
O O19 0.687728 0.500000 0.330939
#
# Coordination Sequence:
#
# PCOD8179816 Si02
#       8
#     4   8   8   8   4   4   4   8
#     4   9  18  37  64  89 120 157 202 251 296 347
#     4  10  20  39  63  89 119 158 204 249 293 349
#     4  11  22  41  65  88 118 161 206 249 296 356
#     4  11  25  43  63  90 123 156 194 247 308 363
#     4  11  23  37  58  93 128 161 198 247 302 355
#     4   9  20  39  62  87 118 157 204 251 296 349
#     4  11  23  37  56  89 128 161 196 245 298 355
#     4  10  22  41  66  91 117 154 202 249 295 354
#
# _framework density 20.072911999999999
#
# number of rings (size 3 to 8) (size 9 to 14) (size 15 to 20)
#    0.000    1.667    1.667    2.500    2.333    2.000 
#    0.000    3.750    0.000    0.000    0.000    0.000 
#    0.000    0.000    0.000    0.000    0.000    0.000 
#
# Total GULP energy -297720.119696 kJ/mol
# GULP energy per Si atom -12405.004987 kJ/mol
# Density = 2.002723 g / cm^3
# Si number density = 20.072912 Si / 1000 Ang^3
#
#
#
# Elastic Constant Matrix: (Units=GPa)
#
#
# Indices 1 2 3 4 5 6 
#
# 1 144.5667 38.6772 29.5722 0.0000 0.0000 0.0000
# 2 38.6772 59.5046 25.5979 0.0000 0.0000 0.0000
# 3 29.5722 25.5979 71.0015 0.0000 0.0000 0.0000
# 4 0.0000 0.0000 0.0000 26.5863 0.0000 0.0000
# 5 0.0000 0.0000 0.0000 0.0000 41.5842 0.0000
# 6 0.0000 0.0000 0.0000 0.0000 0.0000 18.6903
#
#
#
# Elastic Compliance Matrix: (Units=1/GPa)
#
#
# Indices 1 2 3 4 5 6 
#
# 1 0.008573 -0.004777 -0.001848 0.000000 0.000000 0.000000
# 2 -0.004777 0.022552 -0.006141 0.000000 0.000000 0.000000
# 3 -0.001848 -0.006141 0.017068 0.000000 0.000000 0.000000
# 4 0.000000 0.000000 0.000000 0.037613 0.000000 0.000000
# 5 0.000000 0.000000 0.000000 0.000000 0.024048 0.000000
# 6 0.000000 0.000000 0.000000 0.000000 0.000000 0.053504
#
#
# Mechanical properties :
#
#
# Convention : Reuss Voigt Hill
#
# Bulk Modulus (GPa) = 44.13009 51.41859 47.77434
# Shear Modulus (GPa) = 25.45231 29.45386 27.45309
#
# Velocity S-wave (km/s) = 3.56475 3.83475 3.70221
# Velocity P-wave (km/s) = 6.24307 6.72894 6.49055
#
# Compressibility (1/GPa) = 0.02266028
#
# Stress axis : x y z
#
# Youngs Moduli (GPa) = 116.63850 44.34111 58.58895
#
# Poissons Ratio (x) = 0.21184 0.10830
# Poissons Ratio (y) = 0.55724 0.35979
# Poissons Ratio (z) = 0.21560 0.27230
#
# Static dielectric constant tensor:
#      x y z
#    x 3.795180 0.000000 0.000000 
#    y 0.000000 3.440200 0.000000 
#    z 0.000000 0.000000 3.704500 
# 
# 
# High freq. dielectric constant tensor:
#      x y z
#    x 1.800140 0.000000 0.000000 
#    y 0.000000 1.766250 0.000000 
#    z 0.000000 0.000000 1.789330 
# 
# From -- ./inp_files/24485.got.cif
#   From: 2010.03.12/outbox.cif.g09.slc.cpg/sg38_13_cif.got.tgz:24485.got - 2010.04.14 02:38:36.
