data_PCOD8179304
_publ_section_title
;
Structure prediction by ZEFSAII (Michael W. Deem and Ramdas Pophale) SiO2 
 PCOD8179304
Probable space group: A M M 2
;
_chemical_formula_sum "Si O2"
_cell_formula_units_Z 40
_cell_length_a 7.696373
_cell_length_b 9.074965
_cell_length_c 29.043681
_cell_angle_alpha 90.000000
_cell_angle_beta 90.000000
_cell_angle_gamma 90.000000
_cell_volume 2028.536022
_symmetry_space_group_name_H-M "A M M 2"
_symmetry_group_IT_number 38
_symmetry_cell_setting 'orthorhombic'
loop_
_space_group_symop_operation_xyz
x,y,z
-x,-y,z
-x,y,z
x,-y,z
x,1/2+y,1/2+z
-x,1/2-y,1/2+z
-x,1/2+y,1/2+z
x,1/2-y,1/2+z
loop_
_atom_site_type_symbol
_atom_site_label
_atom_site_fract_x
_atom_site_fract_y
_atom_site_fract_z
Si Si1 0.000000 0.674816 0.897730
Si Si2 0.695671 0.169355 0.739603
Si Si3 0.802163 0.832642 0.153593
Si Si4 0.000000 0.824388 0.293298
Si Si5 0.295824 0.833692 0.054266
Si Si6 0.303474 0.174363 0.462843
O O1 0.000000 0.733096 0.845751
O O2 0.825880 0.733029 0.923183
O O3 0.000000 0.500000 0.898331
O O4 0.500000 0.184725 0.759303
O O5 0.693483 0.228343 0.687280
O O6 0.824871 0.265121 0.770357
O O7 0.756806 0.000000 0.739831
O O8 0.789402 0.773209 0.101319
O O9 0.000000 0.828371 0.170660
O O10 0.728900 0.000000 0.155767
O O11 0.000000 0.000000 0.289470
O O12 0.500000 0.824623 0.060865
O O13 0.232979 0.000000 0.044661
O O14 0.234592 0.735118 0.011537
O O15 0.500000 0.230404 0.452115
O O16 0.299207 0.000000 0.466036
#
# Coordination Sequence:
#
# PCOD8179304 Si02
#       6
#     4   8   8   4   8   8
#     4   9  20  37  58  83 108 137 180 233 286 335
#     4  11  24  41  61  86 119 155 190 235 293 351
#     4  10  20  34  55  84 116 152 195 237 278 332
#     4  11  23  41  64  89 114 145 194 247 292 347
#     4   9  18  32  50  77 114 150 185 226 270 323
#     4   9  18  34  55  79 109 144 183 226 272 327
#
# _framework density 19.718653
#
# number of rings (size 3 to 8) (size 9 to 14) (size 15 to 20)
#    0.000    2.200    1.000    1.500    1.400    4.000 
#    0.000    6.000    0.000    2.400    0.000    0.000 
#    0.000    0.000    0.000    0.000    0.000    0.000 
#
# Total GULP energy -248005.007888 kJ/mol
# GULP energy per Si atom -12400.250394 kJ/mol
# Density = 1.967377 g / cm^3
# Si number density = 19.718653 Si / 1000 Ang^3
#
#
#
# Elastic Constant Matrix: (Units=GPa)
#
#
# Indices 1 2 3 4 5 6 
#
# 1 100.1278 37.9771 62.3994 0.0000 0.0000 0.0000
# 2 37.9771 68.4474 49.1189 0.0000 0.0000 0.0000
# 3 62.3994 49.1189 145.3993 0.0000 0.0000 0.0000
# 4 0.0000 0.0000 0.0000 27.9223 0.0000 0.0000
# 5 0.0000 0.0000 0.0000 0.0000 25.3650 0.0000
# 6 0.0000 0.0000 0.0000 0.0000 0.0000 22.2158
#
#
#
# Elastic Compliance Matrix: (Units=1/GPa)
#
#
# Indices 1 2 3 4 5 6 
#
# 1 0.014740 -0.004803 -0.004703 0.000000 0.000000 0.000000
# 2 -0.004803 0.020850 -0.004982 0.000000 0.000000 0.000000
# 3 -0.004703 -0.004982 0.010579 0.000000 0.000000 0.000000
# 4 0.000000 0.000000 0.000000 0.035814 0.000000 0.000000
# 5 0.000000 0.000000 0.000000 0.000000 0.039424 0.000000
# 6 0.000000 0.000000 0.000000 0.000000 0.000000 0.045013
#
#
# Mechanical properties :
#
#
# Convention : Reuss Voigt Hill
#
# Bulk Modulus (GPa) = 58.16676 68.10725 63.13701
# Shear Modulus (GPa) = 24.85973 26.06588 25.46281
#
# Velocity S-wave (km/s) = 3.55452 3.63972 3.59737
# Velocity P-wave (km/s) = 6.81238 7.23035 7.02447
#
# Compressibility (1/GPa) = 0.01719195
#
# Stress axis : x y z
#
# Youngs Moduli (GPa) = 67.84237 47.96138 94.52570
#
# Poissons Ratio (x) = 0.23037 0.44457
# Poissons Ratio (y) = 0.32586 0.47095
# Poissons Ratio (z) = 0.31908 0.23896
#
# Static dielectric constant tensor:
#      x y z
#    x 3.690180 0.000000 0.000000 
#    y 0.000000 3.458990 0.000000 
#    z 0.000000 0.000000 3.713260 
# 
# 
# High freq. dielectric constant tensor:
#      x y z
#    x 1.776880 0.000000 0.000000 
#    y 0.000000 1.748340 0.000000 
#    z 0.000000 0.000000 1.766560 
# 
# From -- ./inp_files/23228.got.cif
#   From: 2010.03.12/outbox.cif.g09.slc.cpg/sg38_12_cif.got.tgz:23228.got - 2010.04.14 02:38:36.
