data_PCOD8179307
_publ_section_title
;
Structure prediction by ZEFSAII (Michael W. Deem and Ramdas Pophale) SiO2 
 PCOD8179307
Probable space group: A M M 2
;
_chemical_formula_sum "Si O2"
_cell_formula_units_Z 64
_cell_length_a 19.164645
_cell_length_b 8.715600
_cell_length_c 20.299193
_cell_angle_alpha 90.000000
_cell_angle_beta 90.000000
_cell_angle_gamma 90.000000
_cell_volume 3390.602219
_symmetry_space_group_name_H-M "A M M 2"
_symmetry_group_IT_number 38
_symmetry_cell_setting 'orthorhombic'
loop_
_space_group_symop_operation_xyz
x,y,z
-x,-y,z
-x,y,z
x,-y,z
x,1/2+y,1/2+z
-x,1/2-y,1/2+z
-x,1/2+y,1/2+z
x,1/2-y,1/2+z
loop_
_atom_site_type_symbol
_atom_site_label
_atom_site_fract_x
_atom_site_fract_y
_atom_site_fract_z
Si Si1 0.922583 0.675668 0.082880
Si Si2 0.924047 0.680289 0.444610
Si Si3 0.578954 0.320150 0.219260
Si Si4 0.713682 0.321607 0.764015
Si Si5 0.300402 0.322125 0.008717
Si Si6 0.781495 0.824421 0.641035
Si Si7 0.780963 0.318649 0.389040
Si Si8 0.579333 0.824077 0.080400
O O1 0.915213 0.500000 0.059160
O O2 0.864736 0.709742 0.138866
O O3 0.000000 0.707382 0.112357
O O4 0.907849 0.780443 0.020071
O O5 0.928174 0.500000 0.438174
O O6 0.860783 0.740702 0.399060
O O7 0.000000 0.750854 0.423556
O O8 0.500000 0.269187 0.237292
O O9 0.589538 0.500000 0.229274
O O10 0.632736 0.231011 0.266415
O O11 0.595837 0.280364 0.143669
O O12 0.718235 0.500000 0.780620
O O13 0.745597 0.289219 0.692244
O O14 0.758304 0.226209 0.816095
O O15 0.318088 0.500000 0.001201
O O16 0.268940 0.262846 0.940959
O O17 0.247351 0.290166 0.068286
O O18 0.372192 0.230798 0.020805
O O19 0.766080 0.000000 0.662183
O O20 0.775535 0.500000 0.399154
O O21 0.500000 0.802747 0.056792
O O22 0.594818 0.000000 0.099496
#
# Coordination Sequence:
#
# PCOD8179307 Si02
#       8
#     8   8   8   8   8   8   8   8
#     4   9  17  31  54  83 113 146 185 232 283 334
#     4   9  18  33  55  83 111 143 185 231 280 336
#     4  10  20  36  59  85 113 146 185 230 283 340
#     4  12  25  39  58  83 115 152 194 237 282 338
#     4  11  21  35  58  86 116 148 187 233 281 335
#     4  10  20  35  56  83 115 148 186 231 281 336
#     4  11  23  39  59  82 116 154 191 235 286 341
#     4  10  20  34  55  85 117 149 189 235 282 332
#
# _framework density 18.875703999999999
#
# number of rings (size 3 to 8) (size 9 to 14) (size 15 to 20)
#    0.000    1.750    2.500    2.625    0.000    3.000 
#    0.000    1.250    0.000    7.500    0.000    0.000 
#    0.000    0.000    0.000    0.000    0.000    0.000 
#
# Total GULP energy -396821.925579 kJ/mol
# GULP energy per Si atom -12400.685174 kJ/mol
# Density = 1.883274 g / cm^3
# Si number density = 18.875704 Si / 1000 Ang^3
#
#
#
# Elastic Constant Matrix: (Units=GPa)
#
#
# Indices 1 2 3 4 5 6 
#
# 1 134.9395 29.6933 31.4485 0.0000 0.0000 0.0000
# 2 29.6933 45.6359 8.8437 0.0000 0.0000 0.0000
# 3 31.4485 8.8437 49.8137 0.0000 0.0000 0.0000
# 4 0.0000 0.0000 0.0000 29.5834 0.0000 0.0000
# 5 0.0000 0.0000 0.0000 0.0000 30.5965 0.0000
# 6 0.0000 0.0000 0.0000 0.0000 0.0000 25.0433
#
#
#
# Elastic Compliance Matrix: (Units=1/GPa)
#
#
# Indices 1 2 3 4 5 6 
#
# 1 0.009814 -0.005370 -0.005243 0.000000 0.000000 0.000000
# 2 -0.005370 0.025631 -0.001160 0.000000 0.000000 0.000000
# 3 -0.005243 -0.001160 0.023591 0.000000 0.000000 0.000000
# 4 0.000000 0.000000 0.000000 0.033803 0.000000 0.000000
# 5 0.000000 0.000000 0.000000 0.000000 0.032684 0.000000
# 6 0.000000 0.000000 0.000000 0.000000 0.000000 0.039931
#
#
# Mechanical properties :
#
#
# Convention : Reuss Voigt Hill
#
# Bulk Modulus (GPa) = 28.17648 41.15110 34.66379
# Shear Modulus (GPa) = 24.89683 27.73820 26.31752
#
# Velocity S-wave (km/s) = 3.63573 3.83759 3.73802
# Velocity P-wave (km/s) = 5.70828 6.44085 6.08560
#
# Compressibility (1/GPa) = 0.03549059
#
# Stress axis : x y z
#
# Youngs Moduli (GPa) = 101.89380 39.01480 42.38980
#
# Poissons Ratio (x) = 0.20950 0.22223
# Poissons Ratio (y) = 0.54714 0.04919
# Poissons Ratio (z) = 0.53419 0.04527
#
# Static dielectric constant tensor:
#      x y z
#    x 3.996650 0.000000 0.000000 
#    y 0.000000 3.433680 0.000000 
#    z 0.000000 0.000000 3.060200 
# 
# 
# High freq. dielectric constant tensor:
#      x y z
#    x 1.756000 0.000000 0.000000 
#    y 0.000000 1.735640 0.000000 
#    z 0.000000 0.000000 1.693480 
# 
# From -- ./inp_files/18961.got.cif
#   From: 2010.03.12/outbox.cif.g09.slc.cpg/sg38_10_cif.got.tgz:18961.got - 2010.04.14 02:38:36.
