data_PCOD8179258
_publ_section_title
;
Structure prediction by ZEFSAII (Michael W. Deem and Ramdas Pophale) SiO2 
 PCOD8179258
Probable space group: A M M 2
;
_chemical_formula_sum "Si O2"
_cell_formula_units_Z 40
_cell_length_a 7.776042
_cell_length_b 7.672169
_cell_length_c 32.649527
_cell_angle_alpha 90.000000
_cell_angle_beta 90.000000
_cell_angle_gamma 90.000000
_cell_volume 1947.841670
_symmetry_space_group_name_H-M "A M M 2"
_symmetry_group_IT_number 38
_symmetry_cell_setting 'orthorhombic'
loop_
_space_group_symop_operation_xyz
x,y,z
-x,-y,z
-x,y,z
x,-y,z
x,1/2+y,1/2+z
-x,1/2-y,1/2+z
-x,1/2+y,1/2+z
x,1/2-y,1/2+z
loop_
_atom_site_type_symbol
_atom_site_label
_atom_site_fract_x
_atom_site_fract_y
_atom_site_fract_z
Si Si1 0.195336 0.000000 0.422220
Si Si2 0.204118 0.806401 0.976298
Si Si3 0.000000 0.798602 0.707843
Si Si4 0.311424 0.292770 0.565824
Si Si5 0.697767 0.700925 0.268785
Si Si6 0.697605 0.500000 0.831584
Si Si7 0.000000 0.197694 0.116702
O O1 0.278542 0.824389 0.441411
O O2 0.198119 0.000000 0.373344
O O3 0.000000 0.000000 0.436997
O O4 0.000000 0.816719 0.975982
O O5 0.280118 0.000000 0.967780
O O6 0.264853 0.733091 0.020041
O O7 0.826943 0.748042 0.732334
O O8 0.000000 0.696571 0.665586
O O9 0.000000 0.000000 0.696910
O O10 0.500000 0.218865 0.577596
O O11 0.312708 0.500000 0.568159
O O12 0.171990 0.213547 0.597879
O O13 0.500000 0.732323 0.254470
O O14 0.726262 0.500000 0.282343
O O15 0.744799 0.825533 0.306589
O O16 0.500000 0.500000 0.843831
O O17 0.000000 0.000000 0.101134
#
# Coordination Sequence:
#
# PCOD8179258 Si02
#       7
#     4   8   4   8   8   4   4
#     4  10  22  34  52  88 116 146 190 240 280 331
#     4   9  17  34  55  75 110 154 190 232 280 327
#     4  10  22  38  58  84 109 149 188 225 288 354
#     4   9  17  32  54  78 108 149 192 228 277 337
#     4   9  20  39  60  83 114 149 187 234 283 338
#     4  10  22  38  58  84 116 152 190 237 287 342
#     4  10  20  34  54  82 111 141 180 240 285 329
#
# _framework density 20.535550000000001
#
# number of rings (size 3 to 8) (size 9 to 14) (size 15 to 20)
#    0.000    2.600    1.000    0.000    2.800    2.400 
#    1.800    0.000    0.000    0.000    0.000    0.000 
#    0.000    0.000    0.000    0.000    0.000    0.000 
#
# Total GULP energy -247907.263246 kJ/mol
# GULP energy per Si atom -12395.363162 kJ/mol
# Density = 2.048881 g / cm^3
# Si number density = 20.535550 Si / 1000 Ang^3
#
#
#
# Elastic Constant Matrix: (Units=GPa)
#
#
# Indices 1 2 3 4 5 6 
#
# 1 102.7845 33.7343 63.9945 0.0000 0.0000 0.0000
# 2 33.7343 85.9309 56.3577 0.0000 0.0000 0.0000
# 3 63.9945 56.3577 152.7156 0.0000 0.0000 0.0000
# 4 0.0000 0.0000 0.0000 21.1657 0.0000 0.0000
# 5 0.0000 0.0000 0.0000 0.0000 16.7039 0.0000
# 6 0.0000 0.0000 0.0000 0.0000 0.0000 8.8695
#
#
#
# Elastic Compliance Matrix: (Units=1/GPa)
#
#
# Indices 1 2 3 4 5 6 
#
# 1 0.013442 -0.002088 -0.004862 0.000000 0.000000 0.000000
# 2 -0.002088 0.015678 -0.004911 0.000000 0.000000 0.000000
# 3 -0.004862 -0.004911 0.010398 0.000000 0.000000 0.000000
# 4 0.000000 0.000000 0.000000 0.047246 0.000000 0.000000
# 5 0.000000 0.000000 0.000000 0.000000 0.059866 0.000000
# 6 0.000000 0.000000 0.000000 0.000000 0.000000 0.112745
#
#
# Mechanical properties :
#
#
# Convention : Reuss Voigt Hill
#
# Bulk Modulus (GPa) = 63.30933 72.17820 67.74377
# Shear Modulus (GPa) = 17.33936 21.83747 19.58842
#
# Velocity S-wave (km/s) = 2.90894 3.26452 3.09184
# Velocity P-wave (km/s) = 6.49451 7.03091 6.76802
#
# Compressibility (1/GPa) = 0.01579546
#
# Stress axis : x y z
#
# Youngs Moduli (GPa) = 74.39631 63.78523 96.17498
#
# Poissons Ratio (x) = 0.13319 0.46760
# Poissons Ratio (y) = 0.15534 0.47228
# Poissons Ratio (z) = 0.36172 0.31323
#
# Static dielectric constant tensor:
#      x y z
#    x 3.917570 0.000000 0.000000 
#    y 0.000000 3.791200 0.000000 
#    z 0.000000 0.000000 3.423980 
# 
# 
# High freq. dielectric constant tensor:
#      x y z
#    x 1.807150 0.000000 0.000000 
#    y 0.000000 1.796420 0.000000 
#    z 0.000000 0.000000 1.783240 
# 
# From -- ./inp_files/23294.got.cif
#   From: 2010.03.12/outbox.cif.g09.slc.cpg/sg38_12_cif.got.tgz:23294.got - 2010.04.14 02:38:36.
