data_PCOD8179541
_publ_section_title
;
Structure prediction by ZEFSAII (Michael W. Deem and Ramdas Pophale) SiO2 
 PCOD8179541
Probable space group: A M M 2
;
_chemical_formula_sum "Si O2"
_cell_formula_units_Z 64
_cell_length_a 14.661491
_cell_length_b 12.341362
_cell_length_c 18.780960
_cell_angle_alpha 90.000000
_cell_angle_beta 90.000000
_cell_angle_gamma 90.000000
_cell_volume 3398.278886
_symmetry_space_group_name_H-M "A M M 2"
_symmetry_group_IT_number 38
_symmetry_cell_setting 'orthorhombic'
loop_
_space_group_symop_operation_xyz
x,y,z
-x,-y,z
-x,y,z
x,-y,z
x,1/2+y,1/2+z
-x,1/2-y,1/2+z
-x,1/2+y,1/2+z
x,1/2-y,1/2+z
loop_
_atom_site_type_symbol
_atom_site_label
_atom_site_fract_x
_atom_site_fract_y
_atom_site_fract_z
Si Si1 0.607081 0.235792 0.089690
Si Si2 0.600493 0.874760 0.232252
Si Si3 0.100830 0.293592 0.649680
Si Si4 0.902674 0.122722 0.999216
Si Si5 0.707795 0.129441 0.958673
Si Si6 0.251937 0.375133 0.163964
Si Si7 0.894304 0.375885 0.802006
Si Si8 0.267889 0.729107 0.313925
O O1 0.500000 0.261052 0.081221
O O2 0.629447 0.146692 0.150402
O O3 0.658370 0.343789 0.117705
O O4 0.643297 0.190679 0.014586
O O5 0.500000 0.824820 0.244153
O O6 0.666797 0.825549 0.290358
O O7 0.601124 0.000000 0.246880
O O8 0.106405 0.375641 0.584260
O O9 0.167390 0.193538 0.634697
O O10 0.127143 0.364862 0.718044
O O11 0.000000 0.243539 0.658921
O O12 0.000000 0.179478 0.976277
O O13 0.907246 0.000000 0.973082
O O14 0.811631 0.173821 0.966558
O O15 0.683649 0.164944 0.878484
O O16 0.697812 0.000000 0.968826
O O17 0.231545 0.500000 0.150333
O O18 0.260066 0.355096 0.248704
O O19 0.872081 0.500000 0.824954
O O20 0.828106 0.286042 0.838283
O O21 0.000000 0.348591 0.819883
#
# Coordination Sequence:
#
# PCOD8179541 Si02
#       8
#     8   8   8   8   8   8   8   8
#     4  10  21  38  59  83 105 133 177 230 278 322
#     4   9  18  35  59  83 105 132 171 220 271 319
#     4   9  16  29  52  82 110 137 175 226 271 311
#     4   9  17  30  51  79 108 137 171 215 268 319
#     4  11  22  36  55  81 111 143 176 218 272 324
#     4  10  20  36  55  78 109 146 183 218 262 320
#     4   9  17  30  51  79 110 144 182 223 266 310
#     4  10  21  34  52  80 112 147 176 217 258 322
#
# _framework density 18.833062999999999
#
# number of rings (size 3 to 8) (size 9 to 14) (size 15 to 20)
#    0.000    2.375    1.250    1.500    0.000    3.750 
#    0.000    1.250    0.000    4.500    0.000    0.000 
#    0.000    0.000    0.000    0.000    0.000    0.000 
#
# Total GULP energy -396526.366374 kJ/mol
# GULP energy per Si atom -12391.448949 kJ/mol
# Density = 1.879020 g / cm^3
# Si number density = 18.833063 Si / 1000 Ang^3
#
#
#
# Elastic Constant Matrix: (Units=GPa)
#
#
# Indices 1 2 3 4 5 6 
#
# 1 95.0462 28.4321 25.9080 0.0000 0.0000 0.0000
# 2 28.4321 66.5867 13.8448 0.0000 0.0000 0.0000
# 3 25.9080 13.8448 72.1340 0.0000 0.0000 0.0000
# 4 0.0000 0.0000 0.0000 17.5912 0.0000 0.0000
# 5 0.0000 0.0000 0.0000 0.0000 19.4678 0.0000
# 6 0.0000 0.0000 0.0000 0.0000 0.0000 15.8207
#
#
#
# Elastic Compliance Matrix: (Units=1/GPa)
#
#
# Indices 1 2 3 4 5 6 
#
# 1 0.012965 -0.004758 -0.003743 0.000000 0.000000 0.000000
# 2 -0.004758 0.017388 -0.001629 0.000000 0.000000 0.000000
# 3 -0.003743 -0.001629 0.015520 0.000000 0.000000 0.000000
# 4 0.000000 0.000000 0.000000 0.056847 0.000000 0.000000
# 5 0.000000 0.000000 0.000000 0.000000 0.051367 0.000000
# 6 0.000000 0.000000 0.000000 0.000000 0.000000 0.063208
#
#
# Mechanical properties :
#
#
# Convention : Reuss Voigt Hill
#
# Bulk Modulus (GPa) = 39.04115 41.12630 40.08373
# Shear Modulus (GPa) = 20.31762 21.61473 20.96618
#
# Velocity S-wave (km/s) = 3.28811 3.39145 3.34018
# Velocity P-wave (km/s) = 5.93218 6.10087 6.01711
#
# Compressibility (1/GPa) = 0.02561400
#
# Stress axis : x y z
#
# Youngs Moduli (GPa) = 77.13221 57.51066 64.43238
#
# Poissons Ratio (x) = 0.27361 0.24119
# Poissons Ratio (y) = 0.36696 0.10493
# Poissons Ratio (z) = 0.28873 0.09366
#
# Static dielectric constant tensor:
#      x y z
#    x 3.833680 0.000000 0.000000 
#    y 0.000000 3.141340 0.000000 
#    z 0.000000 0.000000 3.253140 
# 
# 
# High freq. dielectric constant tensor:
#      x y z
#    x 1.745660 0.000000 0.000000 
#    y 0.000000 1.706210 0.000000 
#    z 0.000000 0.000000 1.712800 
# 
# From -- ./inp_files/18451.got.cif
#   From: 2010.03.12/outbox.cif.g09.slc.cpg/sg38_10_cif.got.tgz:18451.got - 2010.04.14 02:38:36.
