data_PCOD8179474
_publ_section_title
;
Structure prediction by ZEFSAII (Michael W. Deem and Ramdas Pophale) SiO2 
 PCOD8179474
Probable space group: A M M 2
;
_chemical_formula_sum "Si O2"
_cell_formula_units_Z 56
_cell_length_a 13.977563
_cell_length_b 13.529404
_cell_length_c 14.700993
_cell_angle_alpha 90.000000
_cell_angle_beta 90.000000
_cell_angle_gamma 90.000000
_cell_volume 2780.076807
_symmetry_space_group_name_H-M "A M M 2"
_symmetry_group_IT_number 38
_symmetry_cell_setting 'orthorhombic'
loop_
_space_group_symop_operation_xyz
x,y,z
-x,-y,z
-x,y,z
x,-y,z
x,1/2+y,1/2+z
-x,1/2-y,1/2+z
-x,1/2+y,1/2+z
x,1/2-y,1/2+z
loop_
_atom_site_type_symbol
_atom_site_label
_atom_site_fract_x
_atom_site_fract_y
_atom_site_fract_z
Si Si1 0.393592 0.110168 0.522010
Si Si2 0.888215 0.731093 0.452358
Si Si3 0.608524 0.766529 0.346784
Si Si4 0.233499 0.707463 0.121483
Si Si5 0.105137 0.609441 0.806266
Si Si6 0.294049 0.390189 0.702304
Si Si7 0.771534 0.617622 0.312051
O O1 0.500000 0.122544 0.565997
O O2 0.378059 0.196051 0.448780
O O3 0.307447 0.121433 0.593580
O O4 0.385391 0.000000 0.479640
O O5 0.849128 0.762842 0.550947
O O6 0.862940 0.823617 0.389558
O O7 0.839392 0.638390 0.399900
O O8 0.000000 0.708070 0.462671
O O9 0.500000 0.739277 0.323721
O O10 0.640367 0.860565 0.286819
O O11 0.668508 0.666948 0.330756
O O12 0.302139 0.805237 0.126791
O O13 0.188570 0.670038 0.218606
O O14 0.102426 0.500000 0.847700
O O15 0.180996 0.614870 0.725597
O O16 0.000000 0.639903 0.768277
O O17 0.322559 0.500000 0.667749
O O18 0.762063 0.500000 0.299848
#
# Coordination Sequence:
#
# PCOD8179474 Si02
#       7
#     8   8   8   8   8   8   8
#     4  10  20  36  62  93 124 160 206 261 316 371
#     4  11  23  41  63  90 126 165 207 260 315 373
#     4  10  20  38  63  92 122 158 206 257 313 377
#     4  11  22  39  59  94 124 168 211 263 310 379
#     4   9  17  33  59  85 110 145 191 247 309 362
#     4  10  20  35  57  85 118 154 199 255 307 366
#     4  11  24  43  65  93 129 171 213 260 321 381
#
# _framework density 20.143328
#
# number of rings (size 3 to 8) (size 9 to 14) (size 15 to 20)
#    0.000    1.714    4.286    0.857    0.000    7.714 
#    0.000    0.000    0.000    0.000    0.000    0.000 
#    0.000    0.000    0.000    0.000    0.000    0.000 
#
# Total GULP energy -346939.307698 kJ/mol
# GULP energy per Si atom -12390.689561 kJ/mol
# Density = 2.009748 g / cm^3
# Si number density = 20.143328 Si / 1000 Ang^3
#
#
#
# Elastic Constant Matrix: (Units=GPa)
#
#
# Indices 1 2 3 4 5 6 
#
# 1 98.3447 27.8320 36.3460 0.0000 0.0000 0.0000
# 2 27.8320 129.8909 21.9921 0.0000 0.0000 0.0000
# 3 36.3460 21.9921 71.7208 0.0000 0.0000 0.0000
# 4 0.0000 0.0000 0.0000 22.3224 0.0000 0.0000
# 5 0.0000 0.0000 0.0000 0.0000 19.2863 0.0000
# 6 0.0000 0.0000 0.0000 0.0000 0.0000 24.7167
#
#
#
# Elastic Compliance Matrix: (Units=1/GPa)
#
#
# Indices 1 2 3 4 5 6 
#
# 1 0.012876 -0.001745 -0.005990 0.000000 0.000000 0.000000
# 2 -0.001745 0.008357 -0.001678 0.000000 0.000000 0.000000
# 3 -0.005990 -0.001678 0.017493 0.000000 0.000000 0.000000
# 4 0.000000 0.000000 0.000000 0.044798 0.000000 0.000000
# 5 0.000000 0.000000 0.000000 0.000000 0.051850 0.000000
# 6 0.000000 0.000000 0.000000 0.000000 0.000000 0.040458
#
#
# Mechanical properties :
#
#
# Convention : Reuss Voigt Hill
#
# Bulk Modulus (GPa) = 50.25241 52.47740 51.36491
# Shear Modulus (GPa) = 24.83955 27.51753 26.17854
#
# Velocity S-wave (km/s) = 3.51542 3.70007 3.60893
# Velocity P-wave (km/s) = 6.44043 6.66052 6.55140
#
# Compressibility (1/GPa) = 0.01989954
#
# Stress axis : x y z
#
# Youngs Moduli (GPa) = 77.66449 119.66343 57.16515
#
# Poissons Ratio (x) = 0.20878 0.34243
# Poissons Ratio (y) = 0.13551 0.09594
# Poissons Ratio (z) = 0.46522 0.20083
#
# Static dielectric constant tensor:
#      x y z
#    x 3.741500 0.000000 0.000000 
#    y 0.000000 3.782910 0.000000 
#    z 0.000000 0.000000 3.550410 
# 
# 
# High freq. dielectric constant tensor:
#      x y z
#    x 1.786270 0.000000 0.000000 
#    y 0.000000 1.790770 0.000000 
#    z 0.000000 0.000000 1.766490 
# 
# From -- ./inp_files/14648.got.cif
#   From: 2010.03.12/outbox.cif.g09.slc.cpg/sg38_8_cif.got.tgz:14648.got - 2010.04.14 02:38:36.
