data_PCOD8179773
_publ_section_title
;
Structure prediction by ZEFSAII (Michael W. Deem and Ramdas Pophale) SiO2 
 PCOD8179773
Probable space group: A M M 2
;
_chemical_formula_sum "Si O2"
_cell_formula_units_Z 40
_cell_length_a 7.711794
_cell_length_b 9.158458
_cell_length_c 29.121105
_cell_angle_alpha 90.000000
_cell_angle_beta 90.000000
_cell_angle_gamma 90.000000
_cell_volume 2056.769523
_symmetry_space_group_name_H-M "A M M 2"
_symmetry_group_IT_number 38
_symmetry_cell_setting 'orthorhombic'
loop_
_space_group_symop_operation_xyz
x,y,z
-x,-y,z
-x,y,z
x,-y,z
x,1/2+y,1/2+z
-x,1/2-y,1/2+z
-x,1/2+y,1/2+z
x,1/2-y,1/2+z
loop_
_atom_site_type_symbol
_atom_site_label
_atom_site_fract_x
_atom_site_fract_y
_atom_site_fract_z
Si Si1 0.807582 0.827902 0.739520
Si Si2 0.294508 0.334616 0.337488
Si Si3 0.500000 0.325761 0.577588
Si Si4 0.804328 0.831161 0.525400
Si Si5 0.301461 0.168610 0.425498
Si Si6 0.500000 0.325569 0.175071
O O1 0.777929 0.762162 0.790519
O O2 0.668742 0.770100 0.702878
O O3 0.000000 0.786539 0.722004
O O4 0.780326 0.000000 0.743886
O O5 0.500000 0.322748 0.335661
O O6 0.229947 0.500000 0.341817
O O7 0.219889 0.252047 0.381991
O O8 0.500000 0.500000 0.579479
O O9 0.326573 0.272529 0.552287
O O10 0.500000 0.258862 0.627814
O O11 0.802510 0.791375 0.471495
O O12 0.000000 0.806054 0.543778
O O13 0.747279 0.000000 0.532410
O O14 0.500000 0.215420 0.433876
O O15 0.285470 0.000000 0.413510
O O16 0.500000 0.500000 0.166716
#
# Coordination Sequence:
#
# PCOD8179773 Si02
#       6
#     8   8   4   8   8   4
#     4   9  17  31  54  82 108 139 183 231 275 324
#     4   9  16  28  48  76 110 147 184 223 270 326
#     4  12  26  42  61  86 119 151 182 237 305 362
#     4  10  21  40  65  88 113 151 200 244 281 336
#     4   9  17  31  52  80 114 149 186 229 275 328
#     4  10  20  38  61  80 103 139 188 239 281 336
#
# _framework density 19.447973000000001
#
# number of rings (size 3 to 8) (size 9 to 14) (size 15 to 20)
#    0.000    2.400    2.000    0.900    0.000    2.800 
#    0.000    3.000    0.000    1.200    0.000    0.000 
#    0.000    0.000    0.000    0.000    0.000    0.000 
#
# Total GULP energy -247955.374604 kJ/mol
# GULP energy per Si atom -12397.768730 kJ/mol
# Density = 1.940371 g / cm^3
# Si number density = 19.447973 Si / 1000 Ang^3
#
#
#
# Elastic Constant Matrix: (Units=GPa)
#
#
# Indices 1 2 3 4 5 6 
#
# 1 111.9172 41.2449 64.1417 0.0000 0.0000 0.0000
# 2 41.2449 70.1689 59.4007 0.0000 0.0000 0.0000
# 3 64.1417 59.4007 146.0032 0.0000 0.0000 0.0000
# 4 0.0000 0.0000 0.0000 32.3727 0.0000 0.0000
# 5 0.0000 0.0000 0.0000 0.0000 3.5650 0.0000
# 6 0.0000 0.0000 0.0000 0.0000 0.0000 11.0429
#
#
#
# Elastic Compliance Matrix: (Units=1/GPa)
#
#
# Indices 1 2 3 4 5 6 
#
# 1 0.012698 -0.004182 -0.003877 0.000000 0.000000 0.000000
# 2 -0.004182 0.023115 -0.007567 0.000000 0.000000 0.000000
# 3 -0.003877 -0.007567 0.011631 0.000000 0.000000 0.000000
# 4 0.000000 0.000000 0.000000 0.030890 0.000000 0.000000
# 5 0.000000 0.000000 0.000000 0.000000 0.280508 0.000000
# 6 0.000000 0.000000 0.000000 0.000000 0.000000 0.090556
#
#
# Mechanical properties :
#
#
# Convention : Reuss Voigt Hill
#
# Bulk Modulus (GPa) = 61.75758 73.07377 67.41568
# Shear Modulus (GPa) = 10.28701 20.28290 15.28496
#
# Velocity S-wave (km/s) = 2.30239 3.23295 2.80651
# Velocity P-wave (km/s) = 6.23636 7.18272 6.72621
#
# Compressibility (1/GPa) = 0.01619234
#
# Stress axis : x y z
#
# Youngs Moduli (GPa) = 78.74983 43.26140 85.97551
#
# Poissons Ratio (x) = 0.18091 0.33335
# Poissons Ratio (y) = 0.32931 0.65060
# Poissons Ratio (z) = 0.30534 0.32737
#
# Static dielectric constant tensor:
#      x y z
#    x 3.595620 0.000000 0.000000 
#    y 0.000000 3.268760 0.000000 
#    z 0.000000 0.000000 3.654870 
# 
# 
# High freq. dielectric constant tensor:
#      x y z
#    x 1.761290 0.000000 0.000000 
#    y 0.000000 1.714370 0.000000 
#    z 0.000000 0.000000 1.763100 
# 
# From -- ./inp_files/23266.got.cif
#   From: 2010.03.12/outbox.cif.g09.slc.cpg/sg38_12_cif.got.tgz:23266.got - 2010.04.14 02:38:36.
