data_PCOD8179425
_publ_section_title
;
Structure prediction by ZEFSAII (Michael W. Deem and Ramdas Pophale) SiO2 
 PCOD8179425
Probable space group: A M M 2
;
_chemical_formula_sum "Si O2"
_cell_formula_units_Z 64
_cell_length_a 24.403600
_cell_length_b 8.803912
_cell_length_c 14.790136
_cell_angle_alpha 90.000000
_cell_angle_beta 90.000000
_cell_angle_gamma 90.000000
_cell_volume 3177.618522
_symmetry_space_group_name_H-M "A M M 2"
_symmetry_group_IT_number 38
_symmetry_cell_setting 'orthorhombic'
loop_
_space_group_symop_operation_xyz
x,y,z
-x,-y,z
-x,y,z
x,-y,z
x,1/2+y,1/2+z
-x,1/2-y,1/2+z
-x,1/2+y,1/2+z
x,1/2-y,1/2+z
loop_
_atom_site_type_symbol
_atom_site_label
_atom_site_fract_x
_atom_site_fract_y
_atom_site_fract_z
Si Si1 0.259892 0.321247 0.162480
Si Si2 0.436513 0.825371 0.298044
Si Si3 0.062722 0.320945 0.336890
Si Si4 0.143445 0.680153 0.184770
Si Si5 0.378028 0.680154 0.142141
Si Si6 0.363748 0.675585 0.448642
Si Si7 0.135469 0.320566 0.978292
Si Si8 0.243358 0.175590 0.972104
O O1 0.260182 0.500000 0.164463
O O2 0.205323 0.265668 0.216595
O O3 0.320629 0.267027 0.191978
O O4 0.251798 0.271998 0.060842
O O5 0.500000 0.804850 0.321015
O O6 0.425986 0.763822 0.196723
O O7 0.402214 0.726421 0.367875
O O8 0.418575 0.000000 0.304693
O O9 0.071224 0.500000 0.349029
O O10 0.098468 0.253750 0.253467
O O11 0.081057 0.237478 0.428424
O O12 0.000000 0.279709 0.316958
O O13 0.139750 0.500000 0.186545
O O14 0.131481 0.735803 0.082463
O O15 0.386734 0.500000 0.146629
O O16 0.378642 0.729105 0.037812
O O17 0.374812 0.500000 0.471134
O O18 0.300057 0.696665 0.415880
O O19 0.140378 0.500000 0.971191
O O20 0.188297 0.244493 0.927025
O O21 0.233131 0.000000 0.994090
#
# Coordination Sequence:
#
# PCOD8179425 Si02
#       8
#     8   8   8   8   8   8   8   8
#     4   8  15  30  53  81 110 140 177 220 269 327
#     4  11  25  42  58  80 112 151 196 241 283 332
#     4  10  21  36  53  75 104 141 186 230 271 320
#     4   8  16  33  55  76 103 140 177 213 260 321
#     4  10  20  36  60  87 115 147 184 231 285 340
#     4  10  21  38  61  87 115 149 187 231 285 341
#     4  10  20  35  56  81 109 142 178 220 271 324
#     4   9  17  31  54  84 114 142 175 217 270 331
#
# _framework density 20.14087
#
# number of rings (size 3 to 8) (size 9 to 14) (size 15 to 20)
#    0.000    2.500    0.000    2.625    0.000    5.250 
#    0.000    6.875    0.000    0.000    0.000    0.000 
#    0.000    0.000    0.000    0.000    0.000    0.000 
#
# Total GULP energy -396488.759155 kJ/mol
# GULP energy per Si atom -12390.273724 kJ/mol
# Density = 2.009503 g / cm^3
# Si number density = 20.140870 Si / 1000 Ang^3
#
#
#
# Elastic Constant Matrix: (Units=GPa)
#
#
# Indices 1 2 3 4 5 6 
#
# 1 88.7283 38.0610 19.8556 0.0000 0.0000 0.0000
# 2 38.0610 89.0550 6.2539 0.0000 0.0000 0.0000
# 3 19.8556 6.2539 51.3849 0.0000 0.0000 0.0000
# 4 0.0000 0.0000 0.0000 27.4013 0.0000 0.0000
# 5 0.0000 0.0000 0.0000 0.0000 34.7516 0.0000
# 6 0.0000 0.0000 0.0000 0.0000 0.0000 29.0181
#
#
#
# Elastic Compliance Matrix: (Units=1/GPa)
#
#
# Indices 1 2 3 4 5 6 
#
# 1 0.015000 -0.006056 -0.005059 0.000000 0.000000 0.000000
# 2 -0.006056 0.013770 0.000664 0.000000 0.000000 0.000000
# 3 -0.005059 0.000664 0.021335 0.000000 0.000000 0.000000
# 4 0.000000 0.000000 0.000000 0.036495 0.000000 0.000000
# 5 0.000000 0.000000 0.000000 0.000000 0.028776 0.000000
# 6 0.000000 0.000000 0.000000 0.000000 0.000000 0.034461
#
#
# Mechanical properties :
#
#
# Convention : Reuss Voigt Hill
#
# Bulk Modulus (GPa) = 34.24177 39.72323 36.98250
# Shear Modulus (GPa) = 27.70493 29.23407 28.46950
#
# Velocity S-wave (km/s) = 3.71287 3.81396 3.76376
# Velocity P-wave (km/s) = 5.95136 6.25784 6.10652
#
# Compressibility (1/GPa) = 0.02920410
#
# Stress axis : x y z
#
# Youngs Moduli (GPa) = 66.66621 72.61918 46.87120
#
# Poissons Ratio (x) = 0.43975 0.23713
# Poissons Ratio (y) = 0.40370 -0.03112
# Poissons Ratio (z) = 0.33728 -0.04822
#
# Static dielectric constant tensor:
#      x y z
#    x 4.187480 0.000000 0.000000 
#    y 0.000000 3.525320 0.000000 
#    z 0.000000 0.000000 3.475220 
# 
# 
# High freq. dielectric constant tensor:
#      x y z
#    x 1.797360 0.000000 0.000000 
#    y 0.000000 1.775760 0.000000 
#    z 0.000000 0.000000 1.768750 
# 
# From -- ./inp_files/15887.got.cif
#   From: 2010.03.12/outbox.cif.g09.slc.cpg/sg38_8_cif.got.tgz:15887.got - 2010.04.14 02:38:36.
