data_PCOD8179491
_publ_section_title
;
Structure prediction by ZEFSAII (Michael W. Deem and Ramdas Pophale) SiO2 
 PCOD8179491
Probable space group: A M M 2
;
_chemical_formula_sum "Si O2"
_cell_formula_units_Z 40
_cell_length_a 14.338632
_cell_length_b 9.550301
_cell_length_c 15.440787
_cell_angle_alpha 90.000000
_cell_angle_beta 90.000000
_cell_angle_gamma 90.000000
_cell_volume 2114.434374
_symmetry_space_group_name_H-M "A M M 2"
_symmetry_group_IT_number 38
_symmetry_cell_setting 'orthorhombic'
loop_
_space_group_symop_operation_xyz
x,y,z
-x,-y,z
-x,y,z
x,-y,z
x,1/2+y,1/2+z
-x,1/2-y,1/2+z
-x,1/2+y,1/2+z
x,1/2-y,1/2+z
loop_
_atom_site_type_symbol
_atom_site_label
_atom_site_fract_x
_atom_site_fract_y
_atom_site_fract_z
Si Si1 0.394931 0.661888 0.269990
Si Si2 0.600377 0.665565 0.072809
Si Si3 0.796502 0.837554 0.510036
Si Si4 0.892258 0.337560 0.655462
Si Si5 0.771910 0.661668 0.818990
O O1 0.500000 0.687083 0.304073
O O2 0.367027 0.500000 0.278570
O O3 0.385703 0.714203 0.171449
O O4 0.323851 0.752800 0.326060
O O5 0.500000 0.725922 0.038240
O O6 0.594169 0.500000 0.069740
O O7 0.689473 0.718104 0.018693
O O8 0.864198 0.749314 0.570910
O O9 0.826592 0.816824 0.409998
O O10 0.803694 0.000000 0.538031
O O11 0.872061 0.500000 0.636682
O O12 0.836161 0.284946 0.740101
O O13 0.000000 0.310520 0.675458
O O14 0.745369 0.500000 0.806884
#
# Coordination Sequence:
#
# PCOD8179491 Si02
#       5
#     8   8   8   8   8
#     4   9  17  31  53  79 110 149 186 219 259 311
#     4   8  14  27  49  76 106 140 176 214 256 303
#     4  10  20  35  58  85 108 138 182 225 264 316
#     4  10  22  40  57  75 107 145 176 219 282 335
#     4  10  21  35  55  84 113 140 175 224 277 322
#
# _framework density 18.917587000000001
#
# number of rings (size 3 to 8) (size 9 to 14) (size 15 to 20)
#    0.000    2.600    2.000    1.200    0.000    3.200 
#    0.000    4.000    0.000    0.600    0.000    0.000 
#    0.000    0.000    0.000    0.000    0.000    0.000 
#
# Total GULP energy -247911.305122 kJ/mol
# GULP energy per Si atom -12395.565256 kJ/mol
# Density = 1.887453 g / cm^3
# Si number density = 18.917587 Si / 1000 Ang^3
#
#
#
# Elastic Constant Matrix: (Units=GPa)
#
#
# Indices 1 2 3 4 5 6 
#
# 1 95.7113 45.0048 43.5588 0.0000 0.0000 0.0000
# 2 45.0048 55.5612 42.9522 0.0000 0.0000 0.0000
# 3 43.5588 42.9522 98.0100 0.0000 0.0000 0.0000
# 4 0.0000 0.0000 0.0000 25.3421 0.0000 0.0000
# 5 0.0000 0.0000 0.0000 0.0000 16.2050 0.0000
# 6 0.0000 0.0000 0.0000 0.0000 0.0000 30.2261
#
#
#
# Elastic Compliance Matrix: (Units=1/GPa)
#
#
# Indices 1 2 3 4 5 6 
#
# 1 0.017220 -0.012147 -0.002330 0.000000 0.000000 0.000000
# 2 -0.012147 0.035789 -0.010286 0.000000 0.000000 0.000000
# 3 -0.002330 -0.010286 0.015746 0.000000 0.000000 0.000000
# 4 0.000000 0.000000 0.000000 0.039460 0.000000 0.000000
# 5 0.000000 0.000000 0.000000 0.000000 0.061709 0.000000
# 6 0.000000 0.000000 0.000000 0.000000 0.000000 0.033084
#
#
# Mechanical properties :
#
#
# Convention : Reuss Voigt Hill
#
# Bulk Modulus (GPa) = 52.00252 56.92378 54.46315
# Shear Modulus (GPa) = 19.30919 22.20576 20.75748
#
# Velocity S-wave (km/s) = 3.19831 3.42982 3.31608
# Velocity P-wave (km/s) = 6.41775 6.77057 6.59652
#
# Compressibility (1/GPa) = 0.01922984
#
# Stress axis : x y z
#
# Youngs Moduli (GPa) = 58.07114 27.94154 63.50822
#
# Poissons Ratio (x) = 0.33942 0.14795
# Poissons Ratio (y) = 0.70542 0.65322
# Poissons Ratio (z) = 0.13529 0.28739
#
# Static dielectric constant tensor:
#      x y z
#    x -9.347160 0.000000 0.000000 
#    y 0.000000 3.152020 0.000000 
#    z 0.000000 0.000000 3.413860 
# 
# 
# High freq. dielectric constant tensor:
#      x y z
#    x 1.734900 0.000000 0.000000 
#    y 0.000000 1.705460 0.000000 
#    z 0.000000 0.000000 1.731290 
# 
# From -- ./inp_files/13483.got.cif
#   From: 2010.03.12/outbox.cif.g09.slc.cpg/sg38_7_cif.got.tgz:13483.got - 2010.04.14 02:38:36.
