data_PCOD8179625
_publ_section_title
;
Structure prediction by ZEFSAII (Michael W. Deem and Ramdas Pophale) SiO2 
 PCOD8179625
Probable space group: A M M 2
;
_chemical_formula_sum "Si O2"
_cell_formula_units_Z 64
_cell_length_a 23.886555
_cell_length_b 8.933824
_cell_length_c 15.350808
_cell_angle_alpha 90.000000
_cell_angle_beta 90.000000
_cell_angle_gamma 90.000000
_cell_volume 3275.835998
_symmetry_space_group_name_H-M "A M M 2"
_symmetry_group_IT_number 38
_symmetry_cell_setting 'orthorhombic'
loop_
_space_group_symop_operation_xyz
x,y,z
-x,-y,z
-x,y,z
x,-y,z
x,1/2+y,1/2+z
-x,1/2-y,1/2+z
-x,1/2+y,1/2+z
x,1/2-y,1/2+z
loop_
_atom_site_type_symbol
_atom_site_label
_atom_site_fract_x
_atom_site_fract_y
_atom_site_fract_z
Si Si1 0.062805 0.823019 0.371570
Si Si2 0.142643 0.823351 0.525261
Si Si3 0.131643 0.671656 0.223828
Si Si4 0.632603 0.171542 0.478825
Si Si5 0.741896 0.177047 0.035055
Si Si6 0.741741 0.173225 0.717440
Si Si7 0.640569 0.171115 0.285945
Si Si8 0.436023 0.675929 0.626896
O O1 0.095745 0.767604 0.457436
O O2 0.091448 0.770197 0.282842
O O3 0.000000 0.757734 0.376613
O O4 0.061716 0.000000 0.369721
O O5 0.123972 0.778854 0.623061
O O6 0.199875 0.741674 0.499066
O O7 0.153587 0.000000 0.520205
O O8 0.114040 0.500000 0.235717
O O9 0.195715 0.698109 0.254015
O O10 0.691410 0.257350 0.479184
O O11 0.610320 0.184615 0.379582
O O12 0.586836 0.243296 0.541465
O O13 0.642021 0.000000 0.506512
O O14 0.731164 0.223985 0.134057
O O15 0.742733 0.000000 0.026294
O O16 0.696255 0.225810 0.787755
O O17 0.733564 0.000000 0.691715
O O18 0.597906 0.228713 0.212123
O O19 0.658526 0.000000 0.268065
O O20 0.500000 0.723752 0.640876
O O21 0.429776 0.500000 0.612215
#
# Coordination Sequence:
#
# PCOD8179625 Si02
#       8
#     8   8   8   8   8   8   8   8
#     4  10  22  39  59  84 115 153 198 243 289 347
#     4   9  20  39  59  82 114 154 195 239 293 351
#     4   9  20  37  57  84 115 150 191 237 292 347
#     4  11  23  38  59  90 122 156 201 244 292 352
#     4  11  21  35  58  87 121 156 195 241 299 355
#     4  10  20  36  59  87 121 154 192 242 296 355
#     4  10  22  38  59  88 120 158 197 239 295 352
#     4  10  22  42  64  86 118 160 203 248 295 346
#
# _framework density 19.536999000000002
#
# number of rings (size 3 to 8) (size 9 to 14) (size 15 to 20)
#    0.000    2.000    1.250    2.625    1.750    5.500 
#    0.000    2.500    0.000    0.000    0.000    0.000 
#    0.000    0.000    0.000    0.000    0.000    0.000 
#
# Total GULP energy -396855.067605 kJ/mol
# GULP energy per Si atom -12401.720863 kJ/mol
# Density = 1.949253 g / cm^3
# Si number density = 19.536999 Si / 1000 Ang^3
#
#
#
# Elastic Constant Matrix: (Units=GPa)
#
#
# Indices 1 2 3 4 5 6 
#
# 1 132.0418 48.9353 62.4618 0.0000 0.0000 0.0000
# 2 48.9353 60.4069 31.0291 0.0000 0.0000 0.0000
# 3 62.4618 31.0291 103.7208 0.0000 0.0000 0.0000
# 4 0.0000 0.0000 0.0000 30.9618 0.0000 0.0000
# 5 0.0000 0.0000 0.0000 0.0000 24.6102 0.0000
# 6 0.0000 0.0000 0.0000 0.0000 0.0000 29.4060
#
#
#
# Elastic Compliance Matrix: (Units=1/GPa)
#
#
# Indices 1 2 3 4 5 6 
#
# 1 0.013067 -0.007731 -0.005556 0.000000 0.000000 0.000000
# 2 -0.007731 0.024135 -0.002564 0.000000 0.000000 0.000000
# 3 -0.005556 -0.002564 0.013754 0.000000 0.000000 0.000000
# 4 0.000000 0.000000 0.000000 0.032298 0.000000 0.000000
# 5 0.000000 0.000000 0.000000 0.000000 0.040634 0.000000
# 6 0.000000 0.000000 0.000000 0.000000 0.000000 0.034007
#
#
# Mechanical properties :
#
#
# Convention : Reuss Voigt Hill
#
# Bulk Modulus (GPa) = 51.94129 64.55797 58.24963
# Shear Modulus (GPa) = 25.50823 27.24515 26.37669
#
# Velocity S-wave (km/s) = 3.61728 3.73841 3.67834
# Velocity P-wave (km/s) = 6.64004 7.19374 6.92243
#
# Compressibility (1/GPa) = 0.01925251
#
# Stress axis : x y z
#
# Youngs Moduli (GPa) = 76.52875 41.43407 72.70440
#
# Poissons Ratio (x) = 0.32035 0.40396
# Poissons Ratio (y) = 0.59168 0.18643
# Poissons Ratio (z) = 0.42520 0.10624
#
# Static dielectric constant tensor:
#      x y z
#    x 3.658580 0.000000 0.000000 
#    y 0.000000 3.464930 0.000000 
#    z 0.000000 0.000000 3.556110 
# 
# 
# High freq. dielectric constant tensor:
#      x y z
#    x 1.756730 0.000000 0.000000 
#    y 0.000000 1.755810 0.000000 
#    z 0.000000 0.000000 1.765030 
# 
# From -- ./inp_files/15736.got.cif
#   From: 2010.03.12/outbox.cif.g09.slc.cpg/sg38_8_cif.got.tgz:15736.got - 2010.04.14 02:38:36.
