data_PCOD8179322
_publ_section_title
;
Structure prediction by ZEFSAII (Michael W. Deem and Ramdas Pophale) SiO2 
 PCOD8179322
Probable space group: A M M 2
;
_chemical_formula_sum "Si O2"
_cell_formula_units_Z 64
_cell_length_a 24.243665
_cell_length_b 8.817547
_cell_length_c 14.740440
_cell_angle_alpha 90.000000
_cell_angle_beta 90.000000
_cell_angle_gamma 90.000000
_cell_volume 3151.058782
_symmetry_space_group_name_H-M "A M M 2"
_symmetry_group_IT_number 38
_symmetry_cell_setting 'orthorhombic'
loop_
_space_group_symop_operation_xyz
x,y,z
-x,-y,z
-x,y,z
x,-y,z
x,1/2+y,1/2+z
-x,1/2-y,1/2+z
-x,1/2+y,1/2+z
x,1/2-y,1/2+z
loop_
_atom_site_type_symbol
_atom_site_label
_atom_site_fract_x
_atom_site_fract_y
_atom_site_fract_z
Si Si1 0.938109 0.320636 0.673260
Si Si2 0.242324 0.167809 0.298552
Si Si3 0.259199 0.669727 0.012295
Si Si4 0.631125 0.321158 0.480792
Si Si5 0.636072 0.320016 0.785417
Si Si6 0.133927 0.676560 0.318770
Si Si7 0.564197 0.175052 0.631493
Si Si8 0.148377 0.178965 0.025183
O O1 0.937614 0.500000 0.677151
O O2 0.915930 0.259706 0.768759
O O3 0.900184 0.262285 0.590568
O O4 0.000000 0.259169 0.657712
O O5 0.250635 0.165225 0.405516
O O6 0.300747 0.220555 0.256041
O O7 0.192645 0.280181 0.272629
O O8 0.226129 0.000000 0.263597
O O9 0.267420 0.500000 0.050990
O O10 0.313061 0.770462 0.033188
O O11 0.205478 0.745066 0.058284
O O12 0.632336 0.500000 0.463333
O O13 0.623531 0.233743 0.386891
O O14 0.580324 0.275869 0.544778
O O15 0.626539 0.500000 0.779710
O O16 0.595279 0.232002 0.720382
O O17 0.124655 0.500000 0.308308
O O18 0.132533 0.729184 0.423353
O O19 0.500000 0.197443 0.650188
O O20 0.579129 0.000000 0.612881
O O21 0.156790 0.000000 0.030131
#
# Coordination Sequence:
#
# PCOD8179322 Si02
#       8
#     8   8   8   8   8   8   8   8
#     4  10  22  39  56  75 104 145 189 228 271 330
#     4   8  16  32  55  83 114 146 179 218 270 336
#     4   9  17  32  56  86 117 146 182 229 281 337
#     4  11  22  38  62  89 119 155 193 236 288 343
#     4  10  21  39  63  90 120 153 189 235 291 346
#     4  10  20  34  56  84 111 140 176 225 277 323
#     4  11  25  43  61  84 115 153 200 247 288 338
#     4   9  19  36  57  81 110 144 182 224 276 336
#
# _framework density 20.310632999999999
#
# number of rings (size 3 to 8) (size 9 to 14) (size 15 to 20)
#    0.000    2.250    0.000    3.375    0.000    7.750 
#    0.000    2.500    0.000    0.000    0.000    0.000 
#    0.000    0.000    0.000    0.000    0.000    0.000 
#
# Total GULP energy -396833.623189 kJ/mol
# GULP energy per Si atom -12401.050725 kJ/mol
# Density = 2.026440 g / cm^3
# Si number density = 20.310633 Si / 1000 Ang^3
#
#
#
# Elastic Constant Matrix: (Units=GPa)
#
#
# Indices 1 2 3 4 5 6 
#
# 1 106.0236 25.6156 22.2465 0.0000 0.0000 0.0000
# 2 25.6156 45.3832 0.6472 0.0000 0.0000 0.0000
# 3 22.2465 0.6472 47.9051 0.0000 0.0000 0.0000
# 4 0.0000 0.0000 0.0000 29.6771 0.0000 0.0000
# 5 0.0000 0.0000 0.0000 0.0000 34.9830 0.0000
# 6 0.0000 0.0000 0.0000 0.0000 0.0000 32.0147
#
#
#
# Elastic Compliance Matrix: (Units=1/GPa)
#
#
# Indices 1 2 3 4 5 6 
#
# 1 0.012260 -0.006840 -0.005601 0.000000 0.000000 0.000000
# 2 -0.006840 0.025855 0.002827 0.000000 0.000000 0.000000
# 3 -0.005601 0.002827 0.023437 0.000000 0.000000 0.000000
# 4 0.000000 0.000000 0.000000 0.033696 0.000000 0.000000
# 5 0.000000 0.000000 0.000000 0.000000 0.028585 0.000000
# 6 0.000000 0.000000 0.000000 0.000000 0.000000 0.031236
#
#
# Mechanical properties :
#
#
# Convention : Reuss Voigt Hill
#
# Bulk Modulus (GPa) = 23.62688 32.92560 28.27624
# Shear Modulus (GPa) = 26.53869 29.38846 27.96358
#
# Velocity S-wave (km/s) = 3.61867 3.80801 3.71454
# Velocity P-wave (km/s) = 5.39608 5.96496 5.68764
#
# Compressibility (1/GPa) = 0.04232467
#
# Stress axis : x y z
#
# Youngs Moduli (GPa) = 81.56897 38.67742 42.66695
#
# Poissons Ratio (x) = 0.26455 0.23897
# Poissons Ratio (y) = 0.55792 -0.12062
# Poissons Ratio (z) = 0.45685 -0.10934
#
# Static dielectric constant tensor:
#      x y z
#    x 3.930930 0.000000 0.000000 
#    y 0.000000 3.703380 0.000000 
#    z 0.000000 0.000000 3.572530 
# 
# 
# High freq. dielectric constant tensor:
#      x y z
#    x 1.794380 0.000000 0.000000 
#    y 0.000000 1.793190 0.000000 
#    z 0.000000 0.000000 1.787010 
# 
# From -- ./inp_files/15834.got.cif
#   From: 2010.03.12/outbox.cif.g09.slc.cpg/sg38_8_cif.got.tgz:15834.got - 2010.04.14 02:38:36.
