data_PCOD8179555
_publ_section_title
;
Structure prediction by ZEFSAII (Michael W. Deem and Ramdas Pophale) SiO2 
 PCOD8179555
Probable space group: A M M 2
;
_chemical_formula_sum "Si O2"
_cell_formula_units_Z 64
_cell_length_a 23.922345
_cell_length_b 8.642343
_cell_length_c 15.639311
_cell_angle_alpha 90.000000
_cell_angle_beta 90.000000
_cell_angle_gamma 90.000000
_cell_volume 3233.351086
_symmetry_space_group_name_H-M "A M M 2"
_symmetry_group_IT_number 38
_symmetry_cell_setting 'orthorhombic'
loop_
_space_group_symop_operation_xyz
x,y,z
-x,-y,z
-x,y,z
x,-y,z
x,1/2+y,1/2+z
-x,1/2-y,1/2+z
-x,1/2+y,1/2+z
x,1/2-y,1/2+z
loop_
_atom_site_type_symbol
_atom_site_label
_atom_site_fract_x
_atom_site_fract_y
_atom_site_fract_z
Si Si1 0.245175 0.682368 0.994640
Si Si2 0.938806 0.176794 0.408132
Si Si3 0.634049 0.318549 0.492777
Si Si4 0.177812 0.315494 0.649036
Si Si5 0.434010 0.177438 0.342922
Si Si6 0.562010 0.816586 0.151688
Si Si7 0.939513 0.819079 0.088060
Si Si8 0.823866 0.681156 0.835657
O O1 0.237790 0.500000 0.998878
O O2 0.309219 0.725152 0.982802
O O3 0.211005 0.754883 0.914068
O O4 0.222040 0.751959 0.082091
O O5 0.932633 0.289586 0.487807
O O6 0.890006 0.219798 0.341827
O O7 0.000000 0.198155 0.364257
O O8 0.931372 0.000000 0.440234
O O9 0.646600 0.500000 0.500286
O O10 0.596287 0.288491 0.409855
O O11 0.603394 0.254655 0.578239
O O12 0.177193 0.500000 0.642401
O O13 0.115005 0.247983 0.634191
O O14 0.196846 0.257670 0.743336
O O15 0.500000 0.196584 0.354311
O O16 0.416546 0.229715 0.246639
O O17 0.415988 0.000000 0.359263
O O18 0.500000 0.746682 0.135636
O O19 0.557846 0.000000 0.146401
O O20 0.000000 0.749026 0.119156
O O21 0.940628 0.000000 0.105253
O O22 0.813404 0.500000 0.839019
#
# Coordination Sequence:
#
# PCOD8179555 Si02
#       8
#     8   8   8   8   8   8   8   8
#     4  11  23  40  56  74 106 143 184 230 275 320
#     4   9  16  29  52  78 103 134 174 215 258 319
#     4  11  22  36  57  83 111 145 187 228 268 315
#     4  10  20  36  57  78 102 136 179 223 269 325
#     4   9  18  35  59  86 115 146 179 215 261 316
#     4   8  16  33  57  83 112 146 179 212 258 318
#     4   9  17  29  49  78 108 133 160 208 272 326
#     4   9  19  35  55  77 102 137 178 220 271 326
#
# _framework density 19.793704999999999
#
# number of rings (size 3 to 8) (size 9 to 14) (size 15 to 20)
#    0.000    2.500    1.250    1.875    0.000    2.250 
#    0.000   10.625    0.000    1.500    0.000    3.500 
#    0.000    0.000    0.000    0.000    0.000    0.000 
#
# Total GULP energy -396600.262846 kJ/mol
# GULP energy per Si atom -12393.758214 kJ/mol
# Density = 1.974865 g / cm^3
# Si number density = 19.793705 Si / 1000 Ang^3
#
#
#
# Elastic Constant Matrix: (Units=GPa)
#
#
# Indices 1 2 3 4 5 6 
#
# 1 95.9508 9.6930 63.7446 0.0000 0.0000 0.0000
# 2 9.6930 18.6201 14.7442 0.0000 0.0000 0.0000
# 3 63.7446 14.7442 150.5919 0.0000 0.0000 0.0000
# 4 0.0000 0.0000 0.0000 23.7820 0.0000 0.0000
# 5 0.0000 0.0000 0.0000 0.0000 16.6041 0.0000
# 6 0.0000 0.0000 0.0000 0.0000 0.0000 25.1539
#
#
#
# Elastic Compliance Matrix: (Units=1/GPa)
#
#
# Indices 1 2 3 4 5 6 
#
# 1 0.014647 -0.002943 -0.005912 0.000000 0.000000 0.000000
# 2 -0.002943 0.058810 -0.004512 0.000000 0.000000 0.000000
# 3 -0.005912 -0.004512 0.009585 0.000000 0.000000 0.000000
# 4 0.000000 0.000000 0.000000 0.042049 0.000000 0.000000
# 5 0.000000 0.000000 0.000000 0.000000 0.060226 0.000000
# 6 0.000000 0.000000 0.000000 0.000000 0.000000 0.039755
#
#
# Mechanical properties :
#
#
# Convention : Reuss Voigt Hill
#
# Bulk Modulus (GPa) = 17.75968 49.05849 33.40908
# Shear Modulus (GPa) = 18.47914 24.90674 21.69294
#
# Velocity S-wave (km/s) = 3.05878 3.55112 3.31411
# Velocity P-wave (km/s) = 4.63322 6.45389 5.61780
#
# Compressibility (1/GPa) = 0.05630733
#
# Stress axis : x y z
#
# Youngs Moduli (GPa) = 68.27438 17.00380 104.33382
#
# Poissons Ratio (x) = 0.05005 0.61679
# Poissons Ratio (y) = 0.20096 0.47076
# Poissons Ratio (z) = 0.40362 0.07672
#
# Static dielectric constant tensor:
#      x y z
#    x 3.819360 0.000000 0.000000 
#    y 0.000000 3.247280 0.000000 
#    z 0.000000 0.000000 3.782430 
# 
# 
# High freq. dielectric constant tensor:
#      x y z
#    x 1.776830 0.000000 0.000000 
#    y 0.000000 1.733230 0.000000 
#    z 0.000000 0.000000 1.773940 
# 
# From -- ./inp_files/15802.got.cif
#   From: 2010.03.12/outbox.cif.g09.slc.cpg/sg38_8_cif.got.tgz:15802.got - 2010.04.14 02:38:36.
