data_PCOD8179918
_publ_section_title
;
Structure prediction by ZEFSAII (Michael W. Deem and Ramdas Pophale) SiO2 
 PCOD8179918
Probable space group: A M M 2
;
_chemical_formula_sum "Si O2"
_cell_formula_units_Z 56
_cell_length_a 23.643790
_cell_length_b 8.980889
_cell_length_c 14.437171
_cell_angle_alpha 90.000000
_cell_angle_beta 90.000000
_cell_angle_gamma 90.000000
_cell_volume 3065.621425
_symmetry_space_group_name_H-M "A M M 2"
_symmetry_group_IT_number 38
_symmetry_cell_setting 'orthorhombic'
loop_
_space_group_symop_operation_xyz
x,y,z
-x,-y,z
-x,y,z
x,-y,z
x,1/2+y,1/2+z
-x,1/2-y,1/2+z
-x,1/2+y,1/2+z
x,1/2-y,1/2+z
loop_
_atom_site_type_symbol
_atom_site_label
_atom_site_fract_x
_atom_site_fract_y
_atom_site_fract_z
Si Si1 0.155324 0.675572 0.857830
Si Si2 0.857970 0.674576 0.647380
Si Si3 0.234681 0.825036 0.997922
Si Si4 0.354522 0.175508 0.518230
Si Si5 0.438517 0.325747 0.169990
Si Si6 0.935999 0.174583 0.507238
Si Si7 0.565000 0.671346 0.382184
O O1 0.166291 0.500000 0.859510
O O2 0.148980 0.733934 0.752458
O O3 0.209062 0.754073 0.904711
O O4 0.099303 0.720035 0.915730
O O5 0.869213 0.500000 0.648205
O O6 0.802509 0.716445 0.588016
O O7 0.912242 0.749308 0.599930
O O8 0.238154 0.000000 0.982406
O O9 0.296107 0.760981 0.014912
O O10 0.388237 0.239119 0.607441
O O11 0.393438 0.214168 0.431249
O O12 0.342756 0.000000 0.521689
O O13 0.500000 0.254915 0.144167
O O14 0.442681 0.500000 0.151189
O O15 0.424253 0.292995 0.275458
O O16 0.000000 0.228837 0.491024
O O17 0.932619 0.000000 0.524101
O O18 0.500000 0.703503 0.409460
O O19 0.580347 0.500000 0.405129
#
# Coordination Sequence:
#
# PCOD8179918 Si02
#       7
#     8   8   8   8   8   8   8
#     4   9  18  35  56  76 101 134 171 208 251 298
#     4   9  19  35  55  76 100 134 172 213 256 295
#     4  10  21  36  51  72 102 132 168 212 256 300
#     4  11  21  33  52  76 101 131 168 208 251 299
#     4   8  16  32  52  73  99 131 164 198 243 302
#     4   9  18  32  51  78 110 139 168 203 243 295
#     4   9  18  34  54  75 101 132 165 204 252 303
#
# _framework density 18.267095999999999
#
# number of rings (size 3 to 8) (size 9 to 14) (size 15 to 20)
#    0.000    2.714    0.000    2.143    0.000    4.000 
#    0.000    5.714    0.000    1.714    0.000    0.000 
#    0.000    0.000    0.000    0.000    0.000    0.000 
#
# Total GULP energy -347159.278021 kJ/mol
# GULP energy per Si atom -12398.545644 kJ/mol
# Density = 1.822552 g / cm^3
# Si number density = 18.267096 Si / 1000 Ang^3
#
#
#
# Elastic Constant Matrix: (Units=GPa)
#
#
# Indices 1 2 3 4 5 6 
#
# 1 124.3139 29.0751 57.9182 0.0000 0.0000 0.0000
# 2 29.0751 31.6583 29.8048 0.0000 0.0000 0.0000
# 3 57.9182 29.8048 128.9659 0.0000 0.0000 0.0000
# 4 0.0000 0.0000 0.0000 26.8441 0.0000 0.0000
# 5 0.0000 0.0000 0.0000 0.0000 21.3267 0.0000
# 6 0.0000 0.0000 0.0000 0.0000 0.0000 26.8307
#
#
#
# Elastic Compliance Matrix: (Units=1/GPa)
#
#
# Indices 1 2 3 4 5 6 
#
# 1 0.011317 -0.007168 -0.003426 0.000000 0.000000 0.000000
# 2 -0.007168 0.044911 -0.007160 0.000000 0.000000 0.000000
# 3 -0.003426 -0.007160 0.010947 0.000000 0.000000 0.000000
# 4 0.000000 0.000000 0.000000 0.037252 0.000000 0.000000
# 5 0.000000 0.000000 0.000000 0.000000 0.046890 0.000000
# 6 0.000000 0.000000 0.000000 0.000000 0.000000 0.037271
#
#
# Mechanical properties :
#
#
# Convention : Reuss Voigt Hill
#
# Bulk Modulus (GPa) = 31.57821 57.61491 44.59656
# Shear Modulus (GPa) = 21.30819 26.20964 23.75891
#
# Velocity S-wave (km/s) = 3.41908 3.79199 3.61035
# Velocity P-wave (km/s) = 5.73684 7.12607 6.46886
#
# Compressibility (1/GPa) = 0.03166741
#
# Stress axis : x y z
#
# Youngs Moduli (GPa) = 88.36475 22.26605 91.34768
#
# Poissons Ratio (x) = 0.15961 0.31293
# Poissons Ratio (y) = 0.63342 0.65406
# Poissons Ratio (z) = 0.30271 0.15943
#
# Static dielectric constant tensor:
#      x y z
#    x 3.468980 0.000000 0.000000 
#    y 0.000000 3.189130 0.000000 
#    z 0.000000 0.000000 3.525480 
# 
# 
# High freq. dielectric constant tensor:
#      x y z
#    x 1.711280 0.000000 0.000000 
#    y 0.000000 1.692530 0.000000 
#    z 0.000000 0.000000 1.713040 
# 
# From -- ./inp_files/15449.got.cif
#   From: 2010.03.12/outbox.cif.g09.slc.cpg/sg38_8_cif.got.tgz:15449.got - 2010.04.14 02:38:36.
