data_PCOD8179528
_publ_section_title
;
Structure prediction by ZEFSAII (Michael W. Deem and Ramdas Pophale) SiO2 
 PCOD8179528
Probable space group: A M M 2
;
_chemical_formula_sum "Si O2"
_cell_formula_units_Z 48
_cell_length_a 13.951752
_cell_length_b 16.841947
_cell_length_c 9.668763
_cell_angle_alpha 90.000000
_cell_angle_beta 90.000000
_cell_angle_gamma 90.000000
_cell_volume 2271.914373
_symmetry_space_group_name_H-M "A M M 2"
_symmetry_group_IT_number 38
_symmetry_cell_setting 'orthorhombic'
loop_
_space_group_symop_operation_xyz
x,y,z
-x,-y,z
-x,y,z
x,-y,z
x,1/2+y,1/2+z
-x,1/2-y,1/2+z
-x,1/2+y,1/2+z
x,1/2-y,1/2+z
loop_
_atom_site_type_symbol
_atom_site_label
_atom_site_fract_x
_atom_site_fract_y
_atom_site_fract_z
Si Si1 0.394773 0.408552 0.241410
Si Si2 0.268581 0.696013 0.776173
Si Si3 0.106642 0.193141 0.675954
Si Si4 0.299799 0.668411 0.483003
Si Si5 0.758828 0.593086 0.015312
Si Si6 0.893811 0.092366 0.939606
O O1 0.500000 0.367919 0.226930
O O2 0.406435 0.500000 0.209384
O O3 0.355319 0.399985 0.398951
O O4 0.321123 0.375582 0.125690
O O5 0.165405 0.731761 0.733185
O O6 0.336312 0.685136 0.639510
O O7 0.316686 0.755612 0.885708
O O8 0.266376 0.610805 0.854865
O O9 0.151975 0.152811 0.539722
O O10 0.105809 0.119448 0.781255
O O11 0.000000 0.223513 0.640930
O O12 0.188550 0.643768 0.513995
O O13 0.782204 0.500000 0.032987
O O14 0.000000 0.107890 0.004920
O O15 0.867062 0.000000 0.946134
#
# Coordination Sequence:
#
# PCOD8179528 Si02
#       6
#     8   8   8   8   8   8
#     4  10  21  40  66  92 121 162 206 251 312 378
#     4  11  22  39  60  89 122 159 211 251 307 368
#     4  10  20  35  60  86 119 164 205 247 300 367
#     4  11  20  37  60  83 120 158 203 252 302 367
#     4  11  22  40  63  92 128 163 206 261 310 366
#     4   9  17  30  52  82 111 147 196 243 292 352
#
# _framework density 21.127558000000001
#
# number of rings (size 3 to 8) (size 9 to 14) (size 15 to 20)
#    0.000    1.667    5.000    1.000    0.000    3.667 
#    0.000    4.167    0.000    2.000    0.000    0.000 
#    0.000    0.000    0.000    0.000    0.000    0.000 
#
# Total GULP energy -297343.212849 kJ/mol
# GULP energy per Si atom -12389.300535 kJ/mol
# Density = 2.107947 g / cm^3
# Si number density = 21.127558 Si / 1000 Ang^3
#
#
#
# Elastic Constant Matrix: (Units=GPa)
#
#
# Indices 1 2 3 4 5 6 
#
# 1 75.2924 14.8888 28.1176 0.0000 0.0000 0.0000
# 2 14.8888 58.9358 34.1772 0.0000 0.0000 0.0000
# 3 28.1176 34.1772 147.0193 0.0000 0.0000 0.0000
# 4 0.0000 0.0000 0.0000 34.4156 0.0000 0.0000
# 5 0.0000 0.0000 0.0000 0.0000 8.3733 0.0000
# 6 0.0000 0.0000 0.0000 0.0000 0.0000 16.3651
#
#
#
# Elastic Compliance Matrix: (Units=1/GPa)
#
#
# Indices 1 2 3 4 5 6 
#
# 1 0.014589 -0.002390 -0.002235 0.000000 0.000000 0.000000
# 2 -0.002390 0.020003 -0.004193 0.000000 0.000000 0.000000
# 3 -0.002235 -0.004193 0.008204 0.000000 0.000000 0.000000
# 4 0.000000 0.000000 0.000000 0.029057 0.000000 0.000000
# 5 0.000000 0.000000 0.000000 0.000000 0.119427 0.000000
# 6 0.000000 0.000000 0.000000 0.000000 0.000000 0.061106
#
#
# Mechanical properties :
#
#
# Convention : Reuss Voigt Hill
#
# Bulk Modulus (GPa) = 39.74411 48.40165 44.07288
# Shear Modulus (GPa) = 17.95942 25.43508 21.69725
#
# Velocity S-wave (km/s) = 2.91872 3.47346 3.20811
# Velocity P-wave (km/s) = 5.49645 6.24865 5.88458
#
# Compressibility (1/GPa) = 0.02516096
#
# Stress axis : x y z
#
# Youngs Moduli (GPa) = 68.54677 49.99288 121.89283
#
# Poissons Ratio (x) = 0.11946 0.27238
# Poissons Ratio (y) = 0.16380 0.51110
# Poissons Ratio (z) = 0.15317 0.20962
#
# Static dielectric constant tensor:
#      x y z
#    x 4.072780 0.000000 0.000000 
#    y 0.000000 3.718930 0.000000 
#    z 0.000000 0.000000 3.978740 
# 
# 
# High freq. dielectric constant tensor:
#      x y z
#    x 1.799340 0.000000 0.000000 
#    y 0.000000 1.827280 0.000000 
#    z 0.000000 0.000000 1.820720 
# 
# From -- ./inp_files/5471.got.cif
#   From: 2010.03.12/outbox.cif.g09.slc.cpg/sg38_3_cif.got.tgz:5471.got - 2010.04.14 02:38:36.
