data_PCOD8179068
_publ_section_title
;
Structure prediction by ZEFSAII (Michael W. Deem and Ramdas Pophale) SiO2 
 PCOD8179068
Probable space group: A M M 2
;
_chemical_formula_sum "Si O2"
_cell_formula_units_Z 64
_cell_length_a 13.431194
_cell_length_b 13.718195
_cell_length_c 18.973087
_cell_angle_alpha 90.000000
_cell_angle_beta 90.000000
_cell_angle_gamma 90.000000
_cell_volume 3495.824262
_symmetry_space_group_name_H-M "A M M 2"
_symmetry_group_IT_number 38
_symmetry_cell_setting 'orthorhombic'
loop_
_space_group_symop_operation_xyz
x,y,z
-x,-y,z
-x,y,z
x,-y,z
x,1/2+y,1/2+z
-x,1/2-y,1/2+z
-x,1/2+y,1/2+z
x,1/2-y,1/2+z
loop_
_atom_site_type_symbol
_atom_site_label
_atom_site_fract_x
_atom_site_fract_y
_atom_site_fract_z
Si Si1 0.610972 0.791915 0.544060
Si Si2 0.116960 0.723364 0.862219
Si Si3 0.115855 0.251464 0.588994
Si Si4 0.882384 0.608583 0.465957
Si Si5 0.385182 0.110166 0.135420
Si Si6 0.387049 0.389430 0.192730
Si Si7 0.206211 0.386402 0.985911
Si Si8 0.754309 0.273710 0.725084
O O1 0.500000 0.794438 0.511577
O O2 0.638951 0.682823 0.570469
O O3 0.620256 0.863948 0.610353
O O4 0.688190 0.827985 0.484834
O O5 0.145898 0.827419 0.897287
O O6 0.142985 0.637084 0.916303
O O7 0.183735 0.702952 0.794366
O O8 0.000000 0.718840 0.843096
O O9 0.154630 0.337856 0.537180
O O10 0.142491 0.147899 0.553558
O O11 0.167513 0.256948 0.663453
O O12 0.000000 0.259118 0.602709
O O13 0.835048 0.500000 0.460334
O O14 0.000000 0.600763 0.470224
O O15 0.500000 0.123991 0.158180
O O16 0.318012 0.136677 0.203524
O O17 0.362924 0.000000 0.111033
O O18 0.500000 0.373182 0.219236
O O19 0.352836 0.500000 0.203806
O O20 0.313095 0.322026 0.237879
O O21 0.227322 0.500000 0.990878
#
# Coordination Sequence:
#
# PCOD8179068 Si02
#       8
#     8   8   8   8   8   8   8   8
#     4   9  17  32  55  85 113 138 175 227 281 330
#     4  10  23  39  53  74 111 156 192 226 273 331
#     4  10  20  33  52  80 108 139 186 241 280 315
#     4   8  16  34  55  72  95 134 182 229 279 325
#     4   9  18  34  57  85 115 143 173 217 279 342
#     4   9  17  31  54  83 113 142 175 222 283 342
#     4  11  21  37  57  79 108 148 190 226 275 333
#     4  11  20  34  54  82 113 145 183 229 275 328
#
# _framework density 18.307556999999999
#
# number of rings (size 3 to 8) (size 9 to 14) (size 15 to 20)
#    0.000    2.375    2.500    3.000    0.000    3.250 
#    0.000    1.250    0.000    4.500    0.000    1.750 
#    0.000    0.000    0.000    0.000    0.000    0.000 
#
# Total GULP energy -396671.784705 kJ/mol
# GULP energy per Si atom -12395.993272 kJ/mol
# Density = 1.826589 g / cm^3
# Si number density = 18.307557 Si / 1000 Ang^3
#
#
#
# Elastic Constant Matrix: (Units=GPa)
#
#
# Indices 1 2 3 4 5 6 
#
# 1 92.7044 40.3843 26.4737 0.0000 0.0000 0.0000
# 2 40.3843 137.9291 25.4622 0.0000 0.0000 0.0000
# 3 26.4737 25.4622 61.0783 0.0000 0.0000 0.0000
# 4 0.0000 0.0000 0.0000 9.5866 0.0000 0.0000
# 5 0.0000 0.0000 0.0000 0.0000 20.3111 0.0000
# 6 0.0000 0.0000 0.0000 0.0000 0.0000 24.2186
#
#
#
# Elastic Compliance Matrix: (Units=1/GPa)
#
#
# Indices 1 2 3 4 5 6 
#
# 1 0.013429 -0.003096 -0.004530 0.000000 0.000000 0.000000
# 2 -0.003096 0.008568 -0.002230 0.000000 0.000000 0.000000
# 3 -0.004530 -0.002230 0.019266 0.000000 0.000000 0.000000
# 4 0.000000 0.000000 0.000000 0.104312 0.000000 0.000000
# 5 0.000000 0.000000 0.000000 0.000000 0.049234 0.000000
# 6 0.000000 0.000000 0.000000 0.000000 0.000000 0.041291
#
#
# Mechanical properties :
#
#
# Convention : Reuss Voigt Hill
#
# Bulk Modulus (GPa) = 46.40135 52.92802 49.66468
# Shear Modulus (GPa) = 19.01175 24.11604 21.56390
#
# Velocity S-wave (km/s) = 3.22602 3.63336 3.43573
# Velocity P-wave (km/s) = 6.26712 6.82459 6.55178
#
# Compressibility (1/GPa) = 0.02155110
#
# Stress axis : x y z
#
# Youngs Moduli (GPa) = 74.46453 116.71118 51.90575
#
# Poissons Ratio (x) = 0.36130 0.23514
# Poissons Ratio (y) = 0.23052 0.11576
# Poissons Ratio (z) = 0.33734 0.26028
#
# Static dielectric constant tensor:
#      x y z
#    x 3.612460 0.000000 0.000000 
#    y 0.000000 3.570550 0.000000 
#    z 0.000000 0.000000 3.036260 
# 
# 
# High freq. dielectric constant tensor:
#      x y z
#    x 1.723050 0.000000 0.000000 
#    y 0.000000 1.710650 0.000000 
#    z 0.000000 0.000000 1.667190 
# 
# From -- ./inp_files/18501.got.cif
#   From: 2010.03.12/outbox.cif.g09.slc.cpg/sg38_10_cif.got.tgz:18501.got - 2010.04.14 02:38:36.
