data_PCOD8179785
_publ_section_title
;
Structure prediction by ZEFSAII (Michael W. Deem and Ramdas Pophale) SiO2 
 PCOD8179785
Probable space group: A M M 2
;
_chemical_formula_sum "Si O2"
_cell_formula_units_Z 48
_cell_length_a 17.026023
_cell_length_b 8.653761
_cell_length_c 15.773493
_cell_angle_alpha 90.000000
_cell_angle_beta 90.000000
_cell_angle_gamma 90.000000
_cell_volume 2324.052796
_symmetry_space_group_name_H-M "A M M 2"
_symmetry_group_IT_number 38
_symmetry_cell_setting 'orthorhombic'
loop_
_space_group_symop_operation_xyz
x,y,z
-x,-y,z
-x,y,z
x,-y,z
x,1/2+y,1/2+z
-x,1/2-y,1/2+z
-x,1/2+y,1/2+z
x,1/2-y,1/2+z
loop_
_atom_site_type_symbol
_atom_site_label
_atom_site_fract_x
_atom_site_fract_y
_atom_site_fract_z
Si Si1 0.500000 0.319309 0.108030
Si Si2 0.500000 0.321794 0.427694
Si Si3 0.816950 0.680392 0.113126
Si Si4 0.186151 0.817428 0.424409
Si Si5 0.349205 0.325089 0.860522
Si Si6 0.660520 0.674890 0.665363
Si Si7 0.911817 0.683101 0.766824
O O1 0.500000 0.500000 0.126249
O O2 0.575380 0.244471 0.150717
O O3 0.500000 0.288161 0.008541
O O4 0.500000 0.500000 0.455146
O O5 0.576806 0.286529 0.372311
O O6 0.827663 0.500000 0.130348
O O7 0.725284 0.723006 0.117990
O O8 0.867888 0.772747 0.180676
O O9 0.845889 0.725691 0.018001
O O10 0.276023 0.758758 0.414731
O O11 0.130687 0.746492 0.350629
O O12 0.188640 0.000000 0.412146
O O13 0.372289 0.500000 0.887516
O O14 0.320201 0.322359 0.764280
O O15 0.663288 0.500000 0.630174
O O16 0.913296 0.500000 0.772569
O O17 0.000000 0.750425 0.764234
#
# Coordination Sequence:
#
# PCOD8179785 Si02
#       7
#     4   4   8   8   8   8   8
#     4  12  25  40  57  83 123 165 209 257 310 363
#     4  12  25  38  55  85 121 157 209 261 308 361
#     4  11  22  37  63  95 127 161 203 256 313 371
#     4   9  19  38  62  89 118 160 206 245 300 372
#     4  10  20  38  62  84 116 160 205 250 306 369
#     4  11  22  39  63  89 120 162 210 254 306 369
#     4  10  21  41  66  89 119 161 206 253 310 379
#
# _framework density 20.653576000000001
#
# number of rings (size 3 to 8) (size 9 to 14) (size 15 to 20)
#    0.000    1.500    1.667    4.000    0.000    5.667 
#    0.000    4.167    0.000    0.000    0.000    0.000 
#    0.000    0.000    0.000    0.000    0.000    0.000 
#
# Total GULP energy -297648.337075 kJ/mol
# GULP energy per Si atom -12402.014045 kJ/mol
# Density = 2.060657 g / cm^3
# Si number density = 20.653576 Si / 1000 Ang^3
#
#
#
# Elastic Constant Matrix: (Units=GPa)
#
#
# Indices 1 2 3 4 5 6 
#
# 1 137.9564 12.7052 51.3906 0.0000 0.0000 0.0000
# 2 12.7052 40.7841 13.8974 0.0000 0.0000 0.0000
# 3 51.3906 13.8974 118.0770 0.0000 0.0000 0.0000
# 4 0.0000 0.0000 0.0000 29.6698 0.0000 0.0000
# 5 0.0000 0.0000 0.0000 0.0000 23.5082 0.0000
# 6 0.0000 0.0000 0.0000 0.0000 0.0000 21.6562
#
#
#
# Elastic Compliance Matrix: (Units=1/GPa)
#
#
# Indices 1 2 3 4 5 6 
#
# 1 0.008737 -0.001486 -0.003628 0.000000 0.000000 0.000000
# 2 -0.001486 0.025796 -0.002390 0.000000 0.000000 0.000000
# 3 -0.003628 -0.002390 0.010329 0.000000 0.000000 0.000000
# 4 0.000000 0.000000 0.000000 0.033704 0.000000 0.000000
# 5 0.000000 0.000000 0.000000 0.000000 0.042538 0.000000
# 6 0.000000 0.000000 0.000000 0.000000 0.000000 0.046176
#
#
# Mechanical properties :
#
#
# Convention : Reuss Voigt Hill
#
# Bulk Modulus (GPa) = 33.49332 50.31153 41.90243
# Shear Modulus (GPa) = 26.00928 29.55515 27.78221
#
# Velocity S-wave (km/s) = 3.55253 3.78695 3.67161
# Velocity P-wave (km/s) = 5.75145 6.59803 6.18923
#
# Compressibility (1/GPa) = 0.02985670
#
# Stress axis : x y z
#
# Youngs Moduli (GPa) = 114.45783 38.76507 96.81323
#
# Poissons Ratio (x) = 0.05759 0.35121
# Poissons Ratio (y) = 0.17004 0.23134
# Poissons Ratio (z) = 0.41522 0.09263
#
# Static dielectric constant tensor:
#      x y z
#    x 3.849190 0.000000 0.000000 
#    y 0.000000 3.526440 0.000000 
#    z 0.000000 0.000000 3.862270 
# 
# 
# High freq. dielectric constant tensor:
#      x y z
#    x 1.810770 0.000000 0.000000 
#    y 0.000000 1.786140 0.000000 
#    z 0.000000 0.000000 1.820620 
# 
# From -- ./inp_files/15000.got.cif
#   From: 2010.03.12/outbox.cif.g09.slc.cpg/sg38_8_cif.got.tgz:15000.got - 2010.04.14 02:38:36.
