data_PCOD8179940
_publ_section_title
;
Structure prediction by ZEFSAII (Michael W. Deem and Ramdas Pophale) SiO2 
 PCOD8179940
Probable space group: A M M 2
;
_chemical_formula_sum "Si O2"
_cell_formula_units_Z 48
_cell_length_a 9.029099
_cell_length_b 9.116197
_cell_length_c 31.221317
_cell_angle_alpha 90.000000
_cell_angle_beta 90.000000
_cell_angle_gamma 90.000000
_cell_volume 2569.859235
_symmetry_space_group_name_H-M "A M M 2"
_symmetry_group_IT_number 38
_symmetry_cell_setting 'orthorhombic'
loop_
_space_group_symop_operation_xyz
x,y,z
-x,-y,z
-x,y,z
x,-y,z
x,1/2+y,1/2+z
-x,1/2-y,1/2+z
-x,1/2+y,1/2+z
x,1/2-y,1/2+z
loop_
_atom_site_type_symbol
_atom_site_label
_atom_site_fract_x
_atom_site_fract_y
_atom_site_fract_z
Si Si1 0.332319 0.175095 0.065440
Si Si2 0.674324 0.331335 0.227280
Si Si3 0.330485 0.675139 0.380568
Si Si4 0.828199 0.170901 0.304306
Si Si5 0.325150 0.840328 0.973246
Si Si6 0.827944 0.668673 0.140579
O O1 0.500000 0.225741 0.076233
O O2 0.220503 0.236878 0.100138
O O3 0.323129 0.000000 0.064719
O O4 0.282053 0.238605 0.018282
O O5 0.500000 0.311087 0.225072
O O6 0.718913 0.500000 0.236249
O O7 0.736629 0.231067 0.264573
O O8 0.741540 0.276381 0.182490
O O9 0.500000 0.718209 0.369512
O O10 0.313089 0.500000 0.379114
O O11 0.220410 0.748522 0.347377
O O12 0.284186 0.737839 0.428052
O O13 0.000000 0.202926 0.296149
O O14 0.794593 0.000000 0.309373
O O15 0.500000 0.862674 0.973783
O O16 0.248362 0.000000 0.972859
O O17 0.790174 0.500000 0.130933
O O18 0.000000 0.694046 0.149137
#
# Coordination Sequence:
#
# PCOD8179940 Si02
#       6
#     8   8   8   8   8   8
#     4   9  17  31  53  79 105 135 172 213 256 300
#     4  10  21  38  60  81  98 124 168 216 257 301
#     4   9  17  32  56  81 102 130 172 217 257 299
#     4  11  24  38  51  73 107 141 169 202 250 306
#     4   7  12  26  49  76 103 130 166 213 256 294
#     4  10  21  36  53  75 105 139 171 205 250 303
#
# _framework density 18.678066000000001
#
# number of rings (size 3 to 8) (size 9 to 14) (size 15 to 20)
#    0.000    2.667    0.000    4.000    0.000    6.667 
#    0.000    1.667    0.000    8.000    0.000    0.000 
#    0.000    0.000    0.000    0.000    0.000    0.000 
#
# Total GULP energy -297437.615545 kJ/mol
# GULP energy per Si atom -12393.233981 kJ/mol
# Density = 1.863555 g / cm^3
# Si number density = 18.678066 Si / 1000 Ang^3
#
#
#
# Elastic Constant Matrix: (Units=GPa)
#
#
# Indices 1 2 3 4 5 6 
#
# 1 65.1152 27.1070 47.6849 0.0000 0.0000 0.0000
# 2 27.1070 41.7052 41.5056 0.0000 0.0000 0.0000
# 3 47.6849 41.5056 162.0219 0.0000 0.0000 0.0000
# 4 0.0000 0.0000 0.0000 21.4655 0.0000 0.0000
# 5 0.0000 0.0000 0.0000 0.0000 -0.1336 0.0000
# 6 0.0000 0.0000 0.0000 0.0000 0.0000 26.5740
#
#
#
# Elastic Compliance Matrix: (Units=1/GPa)
#
#
# Indices 1 2 3 4 5 6 
#
# 1 0.022756 -0.010906 -0.003904 0.000000 0.000000 0.000000
# 2 -0.010906 0.037409 -0.006374 0.000000 0.000000 0.000000
# 3 -0.003904 -0.006374 0.008954 0.000000 0.000000 0.000000
# 4 0.000000 0.000000 0.000000 0.046586 0.000000 0.000000
# 5 0.000000 0.000000 0.000000 0.000000 -7.483272 0.000000
# 6 0.000000 0.000000 0.000000 0.000000 0.000000 0.037631
#
#
# Mechanical properties :
#
#
# Convention : Reuss Voigt Hill
#
# Bulk Modulus (GPa) = 37.37882 55.71524 46.54703
# Shear Modulus (GPa) = -0.68694 19.75083 9.53195
#
# Velocity S-wave (km/s) = -0.60711 3.25535 2.26150
# Velocity P-wave (km/s) = 4.42314 6.63504 5.63861
#
# Compressibility (1/GPa) = 0.02675312
#
# Stress axis : x y z
#
# Youngs Moduli (GPa) = 43.94433 26.73137 111.68675
#
# Poissons Ratio (x) = 0.29153 0.43598
# Poissons Ratio (y) = 0.47924 0.71184
# Poissons Ratio (z) = 0.17154 0.17037
#
# Static dielectric constant tensor:
#      x y z
#    x 3.274430 0.000000 0.000000 
#    y 0.000000 3.156800 0.000000 
#    z 0.000000 0.000000 3.879630 
# 
# 
# High freq. dielectric constant tensor:
#      x y z
#    x 1.709730 0.000000 0.000000 
#    y 0.000000 1.693180 0.000000 
#    z 0.000000 0.000000 1.750420 
# 
# From -- ./inp_files/24270.got.cif
#   From: 2010.03.12/outbox.cif.g09.slc.cpg/sg38_13_cif.got.tgz:24270.got - 2010.04.14 02:38:36.
