data_PCOD8179423
_publ_section_title
;
Structure prediction by ZEFSAII (Michael W. Deem and Ramdas Pophale) SiO2 
 PCOD8179423
Probable space group: A M M 2
;
_chemical_formula_sum "Si O2"
_cell_formula_units_Z 48
_cell_length_a 9.295680
_cell_length_b 7.850311
_cell_length_c 33.641487
_cell_angle_alpha 90.000000
_cell_angle_beta 90.000000
_cell_angle_gamma 90.000000
_cell_volume 2454.953164
_symmetry_space_group_name_H-M "A M M 2"
_symmetry_group_IT_number 38
_symmetry_cell_setting 'orthorhombic'
loop_
_space_group_symop_operation_xyz
x,y,z
-x,-y,z
-x,y,z
x,-y,z
x,1/2+y,1/2+z
-x,1/2-y,1/2+z
-x,1/2+y,1/2+z
x,1/2-y,1/2+z
loop_
_atom_site_type_symbol
_atom_site_label
_atom_site_fract_x
_atom_site_fract_y
_atom_site_fract_z
Si Si1 0.329853 0.500000 0.668221
Si Si2 0.173441 0.000000 0.250878
Si Si3 0.663767 0.689278 0.112745
Si Si4 0.660806 0.696689 0.386039
Si Si5 0.165852 0.692596 0.540594
Si Si6 0.330414 0.196760 0.795491
Si Si7 0.842082 0.806542 0.457836
O O1 0.500000 0.500000 0.679275
O O2 0.228619 0.500000 0.706155
O O3 0.284952 0.669348 0.644109
O O4 0.234546 0.827585 0.270592
O O5 0.000000 0.000000 0.252836
O O6 0.500000 0.727832 0.101072
O O7 0.681037 0.500000 0.131670
O O8 0.752436 0.691048 0.072028
O O9 0.500000 0.767552 0.389542
O O10 0.667289 0.500000 0.397477
O O11 0.715295 0.725568 0.341214
O O12 0.754795 0.798219 0.417250
O O13 0.185082 0.500000 0.554978
O O14 0.229432 0.711418 0.495759
O O15 0.000000 0.750017 0.539764
O O16 0.500000 0.234580 0.789256
O O17 0.298205 0.000000 0.783099
O O18 0.000000 0.728239 0.449328
O O19 0.853950 0.000000 0.471135
#
# Coordination Sequence:
#
# PCOD8179423 Si02
#       7
#     4   4   8   8   8   8   8
#     4  10  22  42  62  86 120 156 198 244 294 358
#     4  12  26  40  62  96 130 158 196 250 310 372
#     4  10  21  38  62  89 115 148 192 242 293 345
#     4   9  19  36  57  81 108 144 194 246 293 342
#     4  10  20  35  56  80 111 154 199 239 289 350
#     4   9  20  41  66  89 118 161 208 251 301 364
#     4  10  21  34  49  76 114 153 194 238 288 348
#
# _framework density 19.552306999999999
#
# number of rings (size 3 to 8) (size 9 to 14) (size 15 to 20)
#    0.000    2.167    0.833    2.750    1.167    5.333 
#    0.000    3.333    0.000    0.000    0.000    0.000 
#    0.000    0.000    0.000    0.000    0.000    0.000 
#
# Total GULP energy -297530.717931 kJ/mol
# GULP energy per Si atom -12397.113247 kJ/mol
# Density = 1.950780 g / cm^3
# Si number density = 19.552307 Si / 1000 Ang^3
#
#
#
# Elastic Constant Matrix: (Units=GPa)
#
#
# Indices 1 2 3 4 5 6 
#
# 1 80.7787 46.9032 63.1395 0.0000 0.0000 0.0000
# 2 46.9032 113.5423 61.1633 0.0000 0.0000 0.0000
# 3 63.1395 61.1633 130.9129 0.0000 0.0000 0.0000
# 4 0.0000 0.0000 0.0000 27.6112 0.0000 0.0000
# 5 0.0000 0.0000 0.0000 0.0000 74.0494 0.0000
# 6 0.0000 0.0000 0.0000 0.0000 0.0000 24.3621
#
#
#
# Elastic Compliance Matrix: (Units=1/GPa)
#
#
# Indices 1 2 3 4 5 6 
#
# 1 0.021385 -0.004380 -0.008268 0.000000 0.000000 0.000000
# 2 -0.004380 0.012667 -0.003805 0.000000 0.000000 0.000000
# 3 -0.008268 -0.003805 0.013404 0.000000 0.000000 0.000000
# 4 0.000000 0.000000 0.000000 0.036217 0.000000 0.000000
# 5 0.000000 0.000000 0.000000 0.000000 0.013504 0.000000
# 6 0.000000 0.000000 0.000000 0.000000 0.000000 0.041047
#
#
# Mechanical properties :
#
#
# Convention : Reuss Voigt Hill
#
# Bulk Modulus (GPa) = 68.73170 74.18288 71.45729
# Shear Modulus (GPa) = 28.41219 35.47307 31.94263
#
# Velocity S-wave (km/s) = 3.81614 4.26404 4.04629
# Velocity P-wave (km/s) = 7.39231 7.89087 7.64566
#
# Compressibility (1/GPa) = 0.01454933
#
# Stress axis : x y z
#
# Youngs Moduli (GPa) = 46.76147 78.94771 74.60500
#
# Poissons Ratio (x) = 0.34582 0.61680
# Poissons Ratio (y) = 0.20483 0.28389
# Poissons Ratio (z) = 0.38660 0.30041
#
# Static dielectric constant tensor:
#      x y z
#    x 3.433480 0.000000 0.000000 
#    y 0.000000 3.660110 0.000000 
#    z 0.000000 0.000000 3.456670 
# 
# 
# High freq. dielectric constant tensor:
#      x y z
#    x 1.743440 0.000000 0.000000 
#    y 0.000000 1.774170 0.000000 
#    z 0.000000 0.000000 1.759510 
# 
# From -- ./inp_files/24352.got.cif
#   From: 2010.03.12/outbox.cif.g09.slc.cpg/sg38_13_cif.got.tgz:24352.got - 2010.04.14 02:38:36.
