data_PCOD8179936
_publ_section_title
;
Structure prediction by ZEFSAII (Michael W. Deem and Ramdas Pophale) SiO2 
 PCOD8179936
Probable space group: A M M 2
;
_chemical_formula_sum "Si O2"
_cell_formula_units_Z 64
_cell_length_a 8.886232
_cell_length_b 14.625187
_cell_length_c 24.408554
_cell_angle_alpha 90.000000
_cell_angle_beta 90.000000
_cell_angle_gamma 90.000000
_cell_volume 3172.204137
_symmetry_space_group_name_H-M "A M M 2"
_symmetry_group_IT_number 38
_symmetry_cell_setting 'orthorhombic'
loop_
_space_group_symop_operation_xyz
x,y,z
-x,-y,z
-x,y,z
x,-y,z
x,1/2+y,1/2+z
-x,1/2-y,1/2+z
-x,1/2+y,1/2+z
x,1/2-y,1/2+z
loop_
_atom_site_type_symbol
_atom_site_label
_atom_site_fract_x
_atom_site_fract_y
_atom_site_fract_z
Si Si1 0.177823 0.398552 0.709730
Si Si2 0.676934 0.763367 0.006912
Si Si3 0.177695 0.395072 0.070481
Si Si4 0.669542 0.608604 0.181766
Si Si5 0.824832 0.393998 0.291250
Si Si6 0.178017 0.227880 0.893084
Si Si7 0.826504 0.109067 0.092019
Si Si8 0.178654 0.398084 0.827413
O O1 0.245330 0.500000 0.712409
O O2 0.230331 0.353399 0.652163
O O3 0.227885 0.354025 0.767952
O O4 0.000000 0.404285 0.705351
O O5 0.500000 0.749301 0.006317
O O6 0.753396 0.667060 0.022665
O O7 0.720027 0.843940 0.048146
O O8 0.733604 0.796429 0.947805
O O9 0.226898 0.500000 0.059962
O O10 0.236778 0.358408 0.128996
O O11 0.000000 0.384794 0.069862
O O12 0.500000 0.645500 0.176299
O O13 0.674865 0.500000 0.184424
O O14 0.741662 0.647239 0.237784
O O15 0.785872 0.500000 0.299953
O O16 0.771782 0.342637 0.345964
O O17 0.000000 0.377686 0.280492
O O18 0.230527 0.329574 0.874854
O O19 0.000000 0.222063 0.903806
O O20 0.000000 0.137074 0.080833
O O21 0.808297 0.000000 0.088614
O O22 0.246219 0.500000 0.837513
O O23 0.000000 0.405169 0.827114
#
# Coordination Sequence:
#
# PCOD8179936 Si02
#       8
#     8   8   8   8   8   8   8   8
#     4   7  11  23  47  80 110 132 161 207 264 320
#     4  12  26  40  54  77 112 151 190 234 286 342
#     4  10  21  39  63  86 109 142 186 235 283 334
#     4   9  17  31  54  85 118 146 173 213 273 342
#     4   9  18  33  53  78 109 144 182 226 273 321
#     4  10  21  36  53  75 102 139 192 238 268 313
#     4   9  18  35  60  86 112 144 182 225 272 326
#     4   8  14  27  50  79 106 128 158 210 269 317
#
# _framework density 20.175246000000001
#
# number of rings (size 3 to 8) (size 9 to 14) (size 15 to 20)
#    0.000    2.750    0.000    3.375    0.000    5.000 
#    0.000    5.000    0.000    0.750    0.000    1.750 
#    0.000    0.000    0.000    0.000    0.000    0.000 
#
# Total GULP energy -396556.828979 kJ/mol
# GULP energy per Si atom -12392.400906 kJ/mol
# Density = 2.012933 g / cm^3
# Si number density = 20.175246 Si / 1000 Ang^3
#
#
#
# Elastic Constant Matrix: (Units=GPa)
#
#
# Indices 1 2 3 4 5 6 
#
# 1 65.4364 6.6323 23.5841 0.0000 0.0000 0.0000
# 2 6.6323 29.4244 -2.5903 0.0000 0.0000 0.0000
# 3 23.5841 -2.5903 94.2540 0.0000 0.0000 0.0000
# 4 0.0000 0.0000 0.0000 30.6723 0.0000 0.0000
# 5 0.0000 0.0000 0.0000 0.0000 12.1881 0.0000
# 6 0.0000 0.0000 0.0000 0.0000 0.0000 17.6820
#
#
#
# Elastic Compliance Matrix: (Units=1/GPa)
#
#
# Indices 1 2 3 4 5 6 
#
# 1 0.017322 -0.004296 -0.004452 0.000000 0.000000 0.000000
# 2 -0.004296 0.035133 0.002041 0.000000 0.000000 0.000000
# 3 -0.004452 0.002041 0.011780 0.000000 0.000000 0.000000
# 4 0.000000 0.000000 0.000000 0.032603 0.000000 0.000000
# 5 0.000000 0.000000 0.000000 0.000000 0.082047 0.000000
# 6 0.000000 0.000000 0.000000 0.000000 0.000000 0.056555
#
#
# Mechanical properties :
#
#
# Convention : Reuss Voigt Hill
#
# Bulk Modulus (GPa) = 19.67770 27.15190 23.41480
# Shear Modulus (GPa) = 18.81144 22.87441 20.84292
#
# Velocity S-wave (km/s) = 3.05684 3.37083 3.21766
# Velocity P-wave (km/s) = 4.71525 5.35137 5.04335
#
# Compressibility (1/GPa) = 0.05081894
#
# Stress axis : x y z
#
# Youngs Moduli (GPa) = 57.72946 28.46292 84.89120
#
# Poissons Ratio (x) = 0.12229 0.37797
# Poissons Ratio (y) = 0.24803 -0.17323
# Poissons Ratio (z) = 0.25704 -0.05808
#
# Static dielectric constant tensor:
#      x y z
#    x 3.299830 0.000000 0.000000 
#    y 0.000000 3.713620 0.000000 
#    z 0.000000 0.000000 3.887840 
# 
# 
# High freq. dielectric constant tensor:
#      x y z
#    x 1.747820 0.000000 0.000000 
#    y 0.000000 1.780460 0.000000 
#    z 0.000000 0.000000 1.798180 
# 
# From -- ./inp_files/22155.got.cif
#   From: 2010.03.12/outbox.cif.g09.slc.cpg/sg38_12_cif.got.tgz:22155.got - 2010.04.14 02:38:36.
