data_PCOD8179106
_publ_section_title
;
Structure prediction by ZEFSAII (Michael W. Deem and Ramdas Pophale) SiO2 
 PCOD8179106
Probable space group: A M M 2
;
_chemical_formula_sum "Si O2"
_cell_formula_units_Z 56
_cell_length_a 8.874746
_cell_length_b 22.459375
_cell_length_c 14.355733
_cell_angle_alpha 90.000000
_cell_angle_beta 90.000000
_cell_angle_gamma 90.000000
_cell_volume 2861.402624
_symmetry_space_group_name_H-M "A M M 2"
_symmetry_group_IT_number 38
_symmetry_cell_setting 'orthorhombic'
loop_
_space_group_symop_operation_xyz
x,y,z
-x,-y,z
-x,y,z
x,-y,z
x,1/2+y,1/2+z
-x,1/2-y,1/2+z
-x,1/2+y,1/2+z
x,1/2-y,1/2+z
loop_
_atom_site_type_symbol
_atom_site_label
_atom_site_fract_x
_atom_site_fract_y
_atom_site_fract_z
Si Si1 0.172899 0.114976 0.240920
Si Si2 0.821364 0.500000 0.426647
Si Si3 0.175090 0.657269 0.938497
Si Si4 0.321405 0.853499 0.626333
Si Si5 0.819440 0.500000 0.637709
Si Si6 0.328616 0.782766 0.134555
Si Si7 0.178638 0.113302 0.810419
Si Si8 0.325582 0.783264 0.923157
O O1 0.195547 0.111696 0.352335
O O2 0.247777 0.057732 0.191131
O O3 0.235374 0.176948 0.203766
O O4 0.000000 0.115148 0.213202
O O5 0.757779 0.500000 0.531905
O O6 0.763011 0.441515 0.373071
O O7 0.000000 0.500000 0.429837
O O8 0.264579 0.716876 0.912907
O O9 0.000000 0.672411 0.955876
O O10 0.246239 0.625735 0.029255
O O11 0.500000 0.861146 0.618662
O O12 0.273311 0.785127 0.644061
O O13 0.255160 0.893565 0.709262
O O14 0.000000 0.500000 0.640808
O O15 0.500000 0.787137 0.166362
O O16 0.307239 0.805473 0.029040
O O17 0.229503 0.174538 0.857081
O O18 0.000000 0.112755 0.798714
O O19 0.500000 0.784371 0.891866
#
# Coordination Sequence:
#
# PCOD8179106 Si02
#       8
#     8   4   8   8   4   8   8   8
#     4  10  20  33  54  79 104 137 177 218 264 311
#     4   9  20  36  56  81 108 138 177 225 276 323
#     4  10  20  34  53  81 110 140 181 227 269 319
#     4  10  21  37  55  78 109 145 177 217 275 333
#     4   9  18  36  56  77 106 138 171 213 264 317
#     4   9  19  33  51  76 108 141 174 212 261 318
#     4  11  21  35  56  81 107 141 184 230 275 325
#     4  10  20  34  52  79 113 148 180 218 272 329
#
# _framework density 19.570822
#
# number of rings (size 3 to 8) (size 9 to 14) (size 15 to 20)
#    0.000    2.143    0.000    4.286    0.000    8.000 
#    0.000    2.500    0.000    6.000    0.000    0.000 
#    0.000    0.000    0.000    0.000    0.000    0.000 
#
# Total GULP energy -347236.732514 kJ/mol
# GULP energy per Si atom -12401.311875 kJ/mol
# Density = 1.952628 g / cm^3
# Si number density = 19.570822 Si / 1000 Ang^3
#
#
#
# Elastic Constant Matrix: (Units=GPa)
#
#
# Indices 1 2 3 4 5 6 
#
# 1 63.8770 21.7671 42.6091 0.0000 0.0000 0.0000
# 2 21.7671 58.4739 55.0925 0.0000 0.0000 0.0000
# 3 42.6091 55.0925 146.5920 0.0000 0.0000 0.0000
# 4 0.0000 0.0000 0.0000 33.6997 0.0000 0.0000
# 5 0.0000 0.0000 0.0000 0.0000 29.4821 0.0000
# 6 0.0000 0.0000 0.0000 0.0000 0.0000 9.1034
#
#
#
# Elastic Compliance Matrix: (Units=1/GPa)
#
#
# Indices 1 2 3 4 5 6 
#
# 1 0.019757 -0.003010 -0.004611 0.000000 0.000000 0.000000
# 2 -0.003010 0.026935 -0.009248 0.000000 0.000000 0.000000
# 3 -0.004611 -0.009248 0.011638 0.000000 0.000000 0.000000
# 4 0.000000 0.000000 0.000000 0.029674 0.000000 0.000000
# 5 0.000000 0.000000 0.000000 0.000000 0.033919 0.000000
# 6 0.000000 0.000000 0.000000 0.000000 0.000000 0.109850
#
#
# Mechanical properties :
#
#
# Convention : Reuss Voigt Hill
#
# Bulk Modulus (GPa) = 40.66490 56.43115 48.54803
# Shear Modulus (GPa) = 18.26768 24.42198 21.34483
#
# Velocity S-wave (km/s) = 3.05850 3.53636 3.30607
# Velocity P-wave (km/s) = 5.77027 6.75066 6.27963
#
# Compressibility (1/GPa) = 0.02459123
#
# Stress axis : x y z
#
# Youngs Moduli (GPa) = 50.61557 37.12608 85.92787
#
# Poissons Ratio (x) = 0.11174 0.39626
# Poissons Ratio (y) = 0.15234 0.79466
# Poissons Ratio (z) = 0.23341 0.34334
#
# Static dielectric constant tensor:
#      x y z
#    x 3.425680 0.000000 0.000000 
#    y 0.000000 3.443400 0.000000 
#    z 0.000000 0.000000 3.896210 
# 
# 
# High freq. dielectric constant tensor:
#      x y z
#    x 1.751770 0.000000 0.000000 
#    y 0.000000 1.737180 0.000000 
#    z 0.000000 0.000000 1.781660 
# 
# From -- ./inp_files/12501.got.cif
#   From: 2010.03.12/outbox.cif.g09.slc.cpg/sg38_7_cif.got.tgz:12501.got - 2010.04.14 02:38:36.
