data_PCOD8179820
_publ_section_title
;
Structure prediction by ZEFSAII (Michael W. Deem and Ramdas Pophale) SiO2 
 PCOD8179820
Probable space group: A M M 2
;
_chemical_formula_sum "Si O2"
_cell_formula_units_Z 40
_cell_length_a 13.082946
_cell_length_b 15.313131
_cell_length_c 9.335059
_cell_angle_alpha 90.000000
_cell_angle_beta 90.000000
_cell_angle_gamma 90.000000
_cell_volume 1870.193804
_symmetry_space_group_name_H-M "A M M 2"
_symmetry_group_IT_number 38
_symmetry_cell_setting 'orthorhombic'
loop_
_space_group_symop_operation_xyz
x,y,z
-x,-y,z
-x,y,z
x,-y,z
x,1/2+y,1/2+z
-x,1/2-y,1/2+z
-x,1/2+y,1/2+z
x,1/2-y,1/2+z
loop_
_atom_site_type_symbol
_atom_site_label
_atom_site_fract_x
_atom_site_fract_y
_atom_site_fract_z
Si Si1 0.386968 0.141733 0.901540
Si Si2 0.881493 0.500000 0.386107
Si Si3 0.693098 0.500000 0.199289
Si Si4 0.390549 0.000000 0.142538
Si Si5 0.181930 0.684739 0.503324
Si Si6 0.885198 0.331536 0.812445
Si Si7 0.232050 0.500000 0.892513
O O1 0.500000 0.185885 0.885434
O O2 0.364777 0.085597 0.758697
O O3 0.383250 0.083315 0.042372
O O4 0.294269 0.208335 0.934763
O O5 0.812750 0.500000 0.243688
O O6 0.852638 0.415201 0.478678
O O7 0.000000 0.500000 0.341704
O O8 0.691700 0.500000 0.028073
O O9 0.500000 0.000000 0.223526
O O10 0.298985 0.000000 0.251203
O O11 0.179439 0.699117 0.673751
O O12 0.107159 0.751994 0.424757
O O13 0.837351 0.414091 0.893566
O O14 0.000000 0.355240 0.763159
#
# Coordination Sequence:
#
# PCOD8179820 Si02
#       7
#     8   4   4   4   8   8   4
#     4   9  18  40  68  92 124 169 211 261 326 387
#     4  10  20  39  66  89 121 170 223 260 314 393
#     4   9  21  33  61  95 129 161 210 269 311 375
#     4   9  17  36  67  93 119 162 212 259 317 378
#     4  11  24  43  66  97 127 168 219 268 324 389
#     4  12  26  43  65  94 133 175 216 270 326 382
#     4  12  24  42  62  95 133 169 221 268 316 382
#
# _framework density 21.388158000000001
#
# number of rings (size 3 to 8) (size 9 to 14) (size 15 to 20)
#    0.000    1.600    2.000    4.200    5.600    1.600 
#    0.000    2.000    0.000    0.000    0.000    0.000 
#    0.000    0.000    0.000    0.000    0.000    0.000 
#
# Total GULP energy -247944.595223 kJ/mol
# GULP energy per Si atom -12397.229761 kJ/mol
# Density = 2.133948 g / cm^3
# Si number density = 21.388158 Si / 1000 Ang^3
#
#
#
# Elastic Constant Matrix: (Units=GPa)
#
#
# Indices 1 2 3 4 5 6 
#
# 1 135.0998 12.1450 19.9129 0.0000 0.0000 0.0000
# 2 12.1450 88.0210 35.0775 0.0000 0.0000 0.0000
# 3 19.9129 35.0775 110.3713 0.0000 0.0000 0.0000
# 4 0.0000 0.0000 0.0000 -13.5089 0.0000 0.0000
# 5 0.0000 0.0000 0.0000 0.0000 22.8595 0.0000
# 6 0.0000 0.0000 0.0000 0.0000 0.0000 22.2232
#
#
#
# Elastic Compliance Matrix: (Units=1/GPa)
#
#
# Indices 1 2 3 4 5 6 
#
# 1 0.007630 -0.000577 -0.001193 0.000000 0.000000 0.000000
# 2 -0.000577 0.013052 -0.004044 0.000000 0.000000 0.000000
# 3 -0.001193 -0.004044 0.010561 0.000000 0.000000 0.000000
# 4 0.000000 0.000000 0.000000 -0.074025 0.000000 0.000000
# 5 0.000000 0.000000 0.000000 0.000000 0.043746 0.000000
# 6 0.000000 0.000000 0.000000 0.000000 0.000000 0.044998
#
#
# Mechanical properties :
#
#
# Convention : Reuss Voigt Hill
#
# Bulk Modulus (GPa) = 50.98406 51.97365 51.47885
# Shear Modulus (GPa) = 77.96942 24.07187 51.02064
#
# Velocity S-wave (km/s) = 6.04430 3.35845 4.88942
# Velocity P-wave (km/s) = 8.52061 6.27630 7.48307
#
# Compressibility (1/GPa) = 0.01961397
#
# Stress axis : x y z
#
# Youngs Moduli (GPa) = 131.06709 76.61564 94.68969
#
# Poissons Ratio (x) = 0.04423 0.11297
# Poissons Ratio (y) = 0.07566 0.38293
# Poissons Ratio (z) = 0.15637 0.30983
#
# Static dielectric constant tensor:
#      x y z
#    x 4.376270 0.000000 0.000000 
#    y 0.000000 3.589880 0.000000 
#    z 0.000000 0.000000 3.593670 
# 
# 
# High freq. dielectric constant tensor:
#      x y z
#    x 1.854880 0.000000 0.000000 
#    y 0.000000 1.812200 0.000000 
#    z 0.000000 0.000000 1.830120 
# 
# From -- ./inp_files/5296.got.cif
#   From: 2010.03.12/outbox.cif.g09.slc.cpg/sg38_3_cif.got.tgz:5296.got - 2010.04.14 02:38:36.
