data_PCOD8179913
_publ_section_title
;
Structure prediction by ZEFSAII (Michael W. Deem and Ramdas Pophale) SiO2 
 PCOD8179913
Probable space group: A M M 2
;
_chemical_formula_sum "Si O2"
_cell_formula_units_Z 36
_cell_length_a 11.696619
_cell_length_b 27.605914
_cell_length_c 5.101784
_cell_angle_alpha 90.000000
_cell_angle_beta 90.000000
_cell_angle_gamma 90.000000
_cell_volume 1647.344923
_symmetry_space_group_name_H-M "A M M 2"
_symmetry_group_IT_number 38
_symmetry_cell_setting 'orthorhombic'
loop_
_space_group_symop_operation_xyz
x,y,z
-x,-y,z
-x,y,z
x,-y,z
x,1/2+y,1/2+z
-x,1/2-y,1/2+z
-x,1/2+y,1/2+z
x,1/2-y,1/2+z
loop_
_atom_site_type_symbol
_atom_site_label
_atom_site_fract_x
_atom_site_fract_y
_atom_site_fract_z
Si Si1 0.762121 0.553204 0.121640
Si Si2 0.129957 0.090112 0.104654
Si Si3 0.500000 0.283005 0.352656
Si Si4 0.131251 0.218921 0.512607
Si Si5 0.286872 0.649902 0.301667
O O1 0.702814 0.500000 0.131293
O O2 0.860694 0.556592 0.344776
O O3 0.671895 0.597279 0.183323
O O4 0.820692 0.559293 0.842255
O O5 0.000000 0.105736 0.158994
O O6 0.204090 0.139524 0.052732
O O7 0.500000 0.240527 0.565722
O O8 0.609541 0.316776 0.392049
O O9 0.160042 0.239959 0.228028
O O10 0.212125 0.173359 0.568149
O O11 0.000000 0.202061 0.536861
#
# Coordination Sequence:
#
# PCOD8179913 Si02
#       5
#     8   8   4   8   8
#     4  10  23  39  62  94 133 174 213 258 316 380
#     4  10  22  37  62  94 133 171 210 258 316 380
#     4  12  28  46  75  98 123 166 220 278 332 380
#     4  10  21  35  56  85 120 157 196 248 313 383
#     4  10  25  42  65  92 129 164 218 262 329 378
#
# _framework density 21.853346999999999
#
# number of rings (size 3 to 8) (size 9 to 14) (size 15 to 20)
#    1.333    0.444    0.000    3.333    6.222    2.667 
#    0.000    0.556    0.000    0.000    0.000    0.000 
#    0.000    0.000    0.000    0.000    0.000    0.000 
#
# Total GULP energy -223026.916312 kJ/mol
# GULP energy per Si atom -12390.384240 kJ/mol
# Density = 2.180361 g / cm^3
# Si number density = 21.853347 Si / 1000 Ang^3
#
#
#
# Elastic Constant Matrix: (Units=GPa)
#
#
# Indices 1 2 3 4 5 6 
#
# 1 69.5929 38.3516 -8.0146 0.0000 0.0000 0.0000
# 2 38.3516 141.6545 2.3381 0.0000 0.0000 0.0000
# 3 -8.0146 2.3381 79.6253 0.0000 0.0000 0.0000
# 4 0.0000 0.0000 0.0000 23.0544 0.0000 0.0000
# 5 0.0000 0.0000 0.0000 0.0000 10.6927 0.0000
# 6 0.0000 0.0000 0.0000 0.0000 0.0000 22.8554
#
#
#
# Elastic Compliance Matrix: (Units=1/GPa)
#
#
# Indices 1 2 3 4 5 6 
#
# 1 0.017162 -0.004677 0.001865 0.000000 0.000000 0.000000
# 2 -0.004677 0.008338 -0.000716 0.000000 0.000000 0.000000
# 3 0.001865 -0.000716 0.012768 0.000000 0.000000 0.000000
# 4 0.000000 0.000000 0.000000 0.043376 0.000000 0.000000
# 5 0.000000 0.000000 0.000000 0.000000 0.093522 0.000000
# 6 0.000000 0.000000 0.000000 0.000000 0.000000 0.043753
#
#
# Mechanical properties :
#
#
# Convention : Reuss Voigt Hill
#
# Bulk Modulus (GPa) = 32.04040 39.58033 35.81037
# Shear Modulus (GPa) = 21.15265 28.53366 24.84316
#
# Velocity S-wave (km/s) = 3.11454 3.61735 3.37532
# Velocity P-wave (km/s) = 5.25616 5.96641 5.62251
#
# Compressibility (1/GPa) = 0.03121059
#
# Stress axis : x y z
#
# Youngs Moduli (GPa) = 58.26996 119.93978 78.32374
#
# Poissons Ratio (x) = 0.56097 -0.14605
# Poissons Ratio (y) = 0.27253 0.05605
# Poissons Ratio (z) = -0.10866 0.08583
#
# Static dielectric constant tensor:
#      x y z
#    x 3.561610 0.000000 0.000000 
#    y 0.000000 3.989400 0.000000 
#    z 0.000000 0.000000 3.943250 
# 
# 
# High freq. dielectric constant tensor:
#      x y z
#    x 1.805530 0.000000 0.000000 
#    y 0.000000 1.869200 0.000000 
#    z 0.000000 0.000000 1.875730 
# 
# From -- ./inp_files/977.got.cif
#   From: 2010.03.12/outbox.cif.g09.slc.cpg/sg38_1_cif.got.tgz:977.got - 2010.04.14 02:38:36.
