data_PCOD8179441
_publ_section_title
;
Structure prediction by ZEFSAII (Michael W. Deem and Ramdas Pophale) SiO2 
 PCOD8179441
Probable space group: A M M 2
;
_chemical_formula_sum "Si O2"
_cell_formula_units_Z 64
_cell_length_a 9.352966
_cell_length_b 18.595533
_cell_length_c 18.926574
_cell_angle_alpha 90.000000
_cell_angle_beta 90.000000
_cell_angle_gamma 90.000000
_cell_volume 3291.773871
_symmetry_space_group_name_H-M "A M M 2"
_symmetry_group_IT_number 38
_symmetry_cell_setting 'orthorhombic'
loop_
_space_group_symop_operation_xyz
x,y,z
-x,-y,z
-x,y,z
x,-y,z
x,1/2+y,1/2+z
-x,1/2-y,1/2+z
-x,1/2+y,1/2+z
x,1/2-y,1/2+z
loop_
_atom_site_type_symbol
_atom_site_label
_atom_site_fract_x
_atom_site_fract_y
_atom_site_fract_z
Si Si1 0.669168 0.702674 0.885120
Si Si2 0.338536 0.320664 0.729290
Si Si3 0.329993 0.917438 0.103528
Si Si4 0.669616 0.353445 0.453517
Si Si5 0.834342 0.081900 0.831706
Si Si6 0.154328 0.579205 0.112783
Si Si7 0.158158 0.579255 0.947049
Si Si8 0.338978 0.340818 0.212268
O O1 0.500000 0.706838 0.879552
O O2 0.735644 0.690129 0.806337
O O3 0.721484 0.774401 0.926409
O O4 0.717469 0.633588 0.927822
O O5 0.500000 0.347003 0.742014
O O6 0.266708 0.377909 0.674408
O O7 0.333481 0.242891 0.693722
O O8 0.500000 0.917706 0.107733
O O9 0.272604 0.000000 0.099829
O O10 0.284410 0.870972 0.034385
O O11 0.500000 0.362884 0.443652
O O12 0.752440 0.411191 0.405951
O O13 0.763329 0.136311 0.776110
O O14 0.000000 0.102962 0.841106
O O15 0.818113 0.000000 0.805311
O O16 0.166714 0.500000 0.146241
O O17 0.287502 0.624609 0.139617
O O18 0.000000 0.612236 0.136596
O O19 0.160497 0.573751 0.030058
O O20 0.191099 0.500000 0.915091
O O21 0.000000 0.604806 0.921438
O O22 0.500000 0.365012 0.231409
#
# Coordination Sequence:
#
# PCOD8179441 Si02
#       8
#     8   8   8   8   8   8   8   8
#     4  10  20  35  56  84 115 145 186 242 292 338
#     4   9  19  35  52  78 114 146 180 227 285 337
#     4   9  18  33  56  83 111 148 190 231 282 344
#     4  10  20  36  58  86 115 145 187 239 290 341
#     4  11  23  37  55  80 113 152 189 230 283 346
#     4   9  19  36  54  75 109 147 183 226 274 332
#     4   9  20  38  57  79 111 150 189 230 281 343
#     4  11  21  34  54  80 112 149 186 233 284 336
#
# _framework density 19.442404
#
# number of rings (size 3 to 8) (size 9 to 14) (size 15 to 20)
#    0.000    2.250    1.250    2.250    1.750    5.000 
#    0.000    2.500    0.000    0.750    0.000    1.750 
#    0.000    0.000    0.000    0.000    0.000    0.000 
#
# Total GULP energy -396510.736121 kJ/mol
# GULP energy per Si atom -12390.960504 kJ/mol
# Density = 1.939815 g / cm^3
# Si number density = 19.442404 Si / 1000 Ang^3
#
#
#
# Elastic Constant Matrix: (Units=GPa)
#
#
# Indices 1 2 3 4 5 6 
#
# 1 47.8597 30.3531 24.0204 0.0000 0.0000 0.0000
# 2 30.3531 108.0013 62.8649 0.0000 0.0000 0.0000
# 3 24.0204 62.8649 99.3704 0.0000 0.0000 0.0000
# 4 0.0000 0.0000 0.0000 51.0122 0.0000 0.0000
# 5 0.0000 0.0000 0.0000 0.0000 22.0016 0.0000
# 6 0.0000 0.0000 0.0000 0.0000 0.0000 15.9311
#
#
#
# Elastic Compliance Matrix: (Units=1/GPa)
#
#
# Indices 1 2 3 4 5 6 
#
# 1 0.025849 -0.005742 -0.002616 0.000000 0.000000 0.000000
# 2 -0.005742 0.015932 -0.008691 0.000000 0.000000 0.000000
# 3 -0.002616 -0.008691 0.016194 0.000000 0.000000 0.000000
# 4 0.000000 0.000000 0.000000 0.019603 0.000000 0.000000
# 5 0.000000 0.000000 0.000000 0.000000 0.045451 0.000000
# 6 0.000000 0.000000 0.000000 0.000000 0.000000 0.062770
#
#
# Mechanical properties :
#
#
# Convention : Reuss Voigt Hill
#
# Bulk Modulus (GPa) = 41.88138 54.41201 48.14670
# Shear Modulus (GPa) = 21.94373 26.98851 24.46612
#
# Velocity S-wave (km/s) = 3.36319 3.72980 3.55123
# Velocity P-wave (km/s) = 6.05553 6.82609 6.45232
#
# Compressibility (1/GPa) = 0.02387696
#
# Stress axis : x y z
#
# Youngs Moduli (GPa) = 38.68635 62.76802 61.75221
#
# Poissons Ratio (x) = 0.36042 0.16152
# Poissons Ratio (y) = 0.22214 0.53668
# Poissons Ratio (z) = 0.10119 0.54551
#
# Static dielectric constant tensor:
#      x y z
#    x 3.409900 0.000000 0.000000 
#    y 0.000000 3.665280 0.000000 
#    z 0.000000 0.000000 3.660410 
# 
# 
# High freq. dielectric constant tensor:
#      x y z
#    x 1.723830 0.000000 0.000000 
#    y 0.000000 1.758570 0.000000 
#    z 0.000000 0.000000 1.760840 
# 
# From -- ./inp_files/20104.got.cif
#   From: 2010.03.12/outbox.cif.g09.slc.cpg/sg38_11_cif.got.tgz:20104.got - 2010.04.14 02:38:36.
