data_PCOD8179003
_publ_section_title
;
Structure prediction by ZEFSAII (Michael W. Deem and Ramdas Pophale) SiO2 
 PCOD8179003
Probable space group: A M M 2
;
_chemical_formula_sum "Si O2"
_cell_formula_units_Z 44
_cell_length_a 7.405101
_cell_length_b 14.124736
_cell_length_c 21.267082
_cell_angle_alpha 90.000000
_cell_angle_beta 90.000000
_cell_angle_gamma 90.000000
_cell_volume 2224.432498
_symmetry_space_group_name_H-M "A M M 2"
_symmetry_group_IT_number 38
_symmetry_cell_setting 'orthorhombic'
loop_
_space_group_symop_operation_xyz
x,y,z
-x,-y,z
-x,y,z
x,-y,z
x,1/2+y,1/2+z
-x,1/2-y,1/2+z
-x,1/2+y,1/2+z
x,1/2-y,1/2+z
loop_
_atom_site_type_symbol
_atom_site_label
_atom_site_fract_x
_atom_site_fract_y
_atom_site_fract_z
Si Si1 0.707219 0.395167 0.774730
Si Si2 0.000000 0.391393 0.100754
Si Si3 0.290373 0.203943 0.828282
Si Si4 0.712089 0.611326 0.454921
Si Si5 0.704358 0.609351 0.203170
Si Si6 0.000000 0.392819 0.672183
Si Si7 0.000000 0.796557 0.041585
O O1 0.500000 0.387996 0.753207
O O2 0.753318 0.500000 0.801711
O O3 0.747637 0.317359 0.828927
O O4 0.822235 0.373063 0.713092
O O5 0.177675 0.370626 0.141860
O O6 0.000000 0.318821 0.041427
O O7 0.000000 0.500000 0.075879
O O8 0.500000 0.178379 0.828660
O O9 0.207916 0.155471 0.890217
O O10 0.209512 0.162860 0.763455
O O11 0.500000 0.632490 0.464065
O O12 0.752511 0.500000 0.455348
O O13 0.819200 0.661973 0.510719
O O14 0.500000 0.643745 0.188857
O O15 0.708786 0.500000 0.221414
O O16 0.000000 0.322072 0.614694
O O17 0.000000 0.500000 0.646624
#
# Coordination Sequence:
#
# PCOD8179003 Si02
#       7
#     8   4   8   8   8   4   4
#     4   9  18  32  51  77 107 135 166 210 262 316
#     4  10  22  37  53  78 109 140 179 223 262 311
#     4   9  17  32  54  79 106 135 168 210 265 321
#     4  10  22  39  57  79 107 138 176 223 269 314
#     4   9  17  31  54  82 108 133 164 211 272 327
#     4  10  20  33  50  75 104 136 176 216 258 308
#     4  12  24  38  55  75 105 146 189 223 258 307
#
# _framework density 19.780325000000001
#
# number of rings (size 3 to 8) (size 9 to 14) (size 15 to 20)
#    0.000    2.364    0.000    2.455    0.000    5.091 
#    0.000    4.545    0.000    1.091    0.000    0.000 
#    0.000    0.000    0.000    0.000    0.000    0.000 
#
# Total GULP energy -272735.505947 kJ/mol
# GULP energy per Si atom -12397.068452 kJ/mol
# Density = 1.973530 g / cm^3
# Si number density = 19.780325 Si / 1000 Ang^3
#
#
#
# Elastic Constant Matrix: (Units=GPa)
#
#
# Indices 1 2 3 4 5 6 
#
# 1 88.4960 44.4306 36.6094 0.0000 0.0000 0.0000
# 2 44.4306 148.1308 73.3433 0.0000 0.0000 0.0000
# 3 36.6094 73.3433 81.2264 0.0000 0.0000 0.0000
# 4 0.0000 0.0000 0.0000 36.2985 0.0000 0.0000
# 5 0.0000 0.0000 0.0000 0.0000 9.1579 0.0000
# 6 0.0000 0.0000 0.0000 0.0000 0.0000 20.5412
#
#
#
# Elastic Compliance Matrix: (Units=1/GPa)
#
#
# Indices 1 2 3 4 5 6 
#
# 1 0.014201 -0.001972 -0.004620 0.000000 0.000000 0.000000
# 2 -0.001972 0.012483 -0.010383 0.000000 0.000000 0.000000
# 3 -0.004620 -0.010383 0.023769 0.000000 0.000000 0.000000
# 4 0.000000 0.000000 0.000000 0.027549 0.000000 0.000000
# 5 0.000000 0.000000 0.000000 0.000000 0.109195 0.000000
# 6 0.000000 0.000000 0.000000 0.000000 0.000000 0.048683
#
#
# Mechanical properties :
#
#
# Convention : Reuss Voigt Hill
#
# Bulk Modulus (GPa) = 60.59356 69.62443 65.10899
# Shear Modulus (GPa) = 18.16000 24.09752 21.12876
#
# Velocity S-wave (km/s) = 3.03328 3.49414 3.27183
# Velocity P-wave (km/s) = 6.55496 7.18011 6.87464
#
# Compressibility (1/GPa) = 0.01650340
#
# Stress axis : x y z
#
# Youngs Moduli (GPa) = 70.41626 80.10862 42.07240
#
# Poissons Ratio (x) = 0.15798 0.19437
# Poissons Ratio (y) = 0.13887 0.43683
# Poissons Ratio (z) = 0.32532 0.83174
#
# Static dielectric constant tensor:
#      x y z
#    x 3.711040 0.000000 0.000000 
#    y 0.000000 3.880920 0.000000 
#    z 0.000000 0.000000 3.323830 
# 
# 
# High freq. dielectric constant tensor:
#      x y z
#    x 1.776200 0.000000 0.000000 
#    y 0.000000 1.788040 0.000000 
#    z 0.000000 0.000000 1.733200 
# 
# From -- ./inp_files/16566.got.cif
#   From: 2010.03.12/outbox.cif.g09.slc.cpg/sg38_9_cif.got.tgz:16566.got - 2010.04.14 02:38:36.
