data_PCOD8179293
_publ_section_title
;
Structure prediction by ZEFSAII (Michael W. Deem and Ramdas Pophale) SiO2 
 PCOD8179293
Probable space group: A M M 2
;
_chemical_formula_sum "Si O2"
_cell_formula_units_Z 64
_cell_length_a 9.384654
_cell_length_b 30.407384
_cell_length_c 11.929243
_cell_angle_alpha 90.000000
_cell_angle_beta 90.000000
_cell_angle_gamma 90.000000
_cell_volume 3404.161921
_symmetry_space_group_name_H-M "A M M 2"
_symmetry_group_IT_number 38
_symmetry_cell_setting 'orthorhombic'
loop_
_space_group_symop_operation_xyz
x,y,z
-x,-y,z
-x,y,z
x,-y,z
x,1/2+y,1/2+z
-x,1/2-y,1/2+z
-x,1/2+y,1/2+z
x,1/2-y,1/2+z
loop_
_atom_site_type_symbol
_atom_site_label
_atom_site_fract_x
_atom_site_fract_y
_atom_site_fract_z
Si Si1 0.662959 0.951408 0.354810
Si Si2 0.834213 0.551128 0.400822
Si Si3 0.669027 0.372384 0.005218
Si Si4 0.662523 0.804820 0.929932
Si Si5 0.333820 0.619784 0.256781
Si Si6 0.837182 0.324550 0.646570
Si Si7 0.665402 0.206885 0.351051
Si Si8 0.837993 0.426217 0.648726
O O1 0.500000 0.939232 0.327402
O O2 0.726973 0.915801 0.441311
O O3 0.745865 0.952589 0.237942
O O4 0.675280 0.000000 0.409382
O O5 0.806642 0.500000 0.376637
O O6 0.747688 0.578905 0.310564
O O7 0.778223 0.563698 0.524767
O O8 0.000000 0.563472 0.390241
O O9 0.500000 0.372316 0.009606
O O10 0.728026 0.372704 0.131752
O O11 0.722844 0.328852 0.940551
O O12 0.500000 0.811194 0.971323
O O13 0.693764 0.834958 0.822404
O O14 0.692561 0.754589 0.900765
O O15 0.770782 0.818780 0.025050
O O16 0.500000 0.607489 0.254794
O O17 0.752132 0.295879 0.736210
O O18 0.825887 0.375257 0.679786
O O19 0.000000 0.308484 0.643365
O O20 0.500000 0.198791 0.322827
O O21 0.000000 0.443139 0.656283
#
# Coordination Sequence:
#
# PCOD8179293 Si02
#       8
#     8   8   8   8   8   8   8   8
#     4  10  20  34  55  83 112 145 186 231 281 334
#     4  10  21  38  58  80 110 149 188 227 280 340
#     4   9  19  36  56  80 112 148 183 228 281 330
#     4  10  22  37  60  88 114 148 191 236 280 335
#     4  10  21  37  57  83 112 144 188 236 281 331
#     4  11  22  37  60  87 118 151 186 230 283 339
#     4  10  21  38  62  86 114 150 191 235 279 332
#     4  10  20  36  57  81 113 149 184 225 278 334
#
# _framework density 18.800515999999998
#
# number of rings (size 3 to 8) (size 9 to 14) (size 15 to 20)
#    0.000    2.000    2.500    0.750    1.750    3.000 
#    0.000    2.500    0.000    0.000    0.000    0.000 
#    0.000    0.000    0.000    0.000    0.000    0.000 
#
# Total GULP energy -396889.998324 kJ/mol
# GULP energy per Si atom -12402.812448 kJ/mol
# Density = 1.875772 g / cm^3
# Si number density = 18.800516 Si / 1000 Ang^3
#
#
#
# Elastic Constant Matrix: (Units=GPa)
#
#
# Indices 1 2 3 4 5 6 
#
# 1 60.4940 34.3913 44.3506 0.0000 0.0000 0.0000
# 2 34.3913 109.1294 44.8709 0.0000 0.0000 0.0000
# 3 44.3506 44.8709 130.6334 0.0000 0.0000 0.0000
# 4 0.0000 0.0000 0.0000 20.0520 0.0000 0.0000
# 5 0.0000 0.0000 0.0000 0.0000 16.3423 0.0000
# 6 0.0000 0.0000 0.0000 0.0000 0.0000 20.3793
#
#
#
# Elastic Compliance Matrix: (Units=1/GPa)
#
#
# Indices 1 2 3 4 5 6 
#
# 1 0.024084 -0.004923 -0.006486 0.000000 0.000000 0.000000
# 2 -0.004923 0.011677 -0.002339 0.000000 0.000000 0.000000
# 3 -0.006486 -0.002339 0.010660 0.000000 0.000000 0.000000
# 4 0.000000 0.000000 0.000000 0.049870 0.000000 0.000000
# 5 0.000000 0.000000 0.000000 0.000000 0.061191 0.000000
# 6 0.000000 0.000000 0.000000 0.000000 0.000000 0.049070
#
#
# Mechanical properties :
#
#
# Convention : Reuss Voigt Hill
#
# Bulk Modulus (GPa) = 52.83997 60.83138 56.83567
# Shear Modulus (GPa) = 20.80235 23.13098 21.96667
#
# Velocity S-wave (km/s) = 3.32998 3.51142 3.42191
# Velocity P-wave (km/s) = 6.55375 6.99046 6.77563
#
# Compressibility (1/GPa) = 0.01892507
#
# Stress axis : x y z
#
# Youngs Moduli (GPa) = 41.52064 85.63955 93.80454
#
# Poissons Ratio (x) = 0.42163 0.60838
# Poissons Ratio (y) = 0.20442 0.21944
# Poissons Ratio (z) = 0.26929 0.20034
#
# Static dielectric constant tensor:
#      x y z
#    x 3.294100 0.000000 0.000000 
#    y 0.000000 3.561840 0.000000 
#    z 0.000000 0.000000 3.476200 
# 
# 
# High freq. dielectric constant tensor:
#      x y z
#    x 1.709940 0.000000 0.000000 
#    y 0.000000 1.742030 0.000000 
#    z 0.000000 0.000000 1.731250 
# 
# From -- ./inp_files/8574.got.cif
#   From: 2010.03.12/outbox.cif.g09.slc.cpg/sg38_5_cif.got.tgz:8574.got - 2010.04.14 02:38:36.
