data_PCOD8179793
_publ_section_title
;
Structure prediction by ZEFSAII (Michael W. Deem and Ramdas Pophale) SiO2 
 PCOD8179793
Probable space group: A M M 2
;
_chemical_formula_sum "Si O2"
_cell_formula_units_Z 64
_cell_length_a 8.986953
_cell_length_b 26.931563
_cell_length_c 13.021478
_cell_angle_alpha 90.000000
_cell_angle_beta 90.000000
_cell_angle_gamma 90.000000
_cell_volume 3151.623360
_symmetry_space_group_name_H-M "A M M 2"
_symmetry_group_IT_number 38
_symmetry_cell_setting 'orthorhombic'
loop_
_space_group_symop_operation_xyz
x,y,z
-x,-y,z
-x,y,z
x,-y,z
x,1/2+y,1/2+z
-x,1/2-y,1/2+z
-x,1/2+y,1/2+z
x,1/2-y,1/2+z
loop_
_atom_site_type_symbol
_atom_site_label
_atom_site_fract_x
_atom_site_fract_y
_atom_site_fract_z
Si Si1 0.665674 0.228661 0.526900
Si Si2 0.826039 0.770324 0.852813
Si Si3 0.822933 0.895952 0.155515
Si Si4 0.176374 0.055255 0.368099
Si Si5 0.666083 0.201617 0.208317
Si Si6 0.672530 0.057955 0.958590
Si Si7 0.825944 0.625692 0.050724
Si Si8 0.826929 0.120762 0.784181
O O1 0.500000 0.225693 0.478995
O O2 0.765697 0.269926 0.468578
O O3 0.658409 0.248574 0.641721
O O4 0.737768 0.175007 0.525834
O O5 0.750603 0.720058 0.809317
O O6 0.780776 0.821749 0.798989
O O7 0.000000 0.762048 0.847254
O O8 0.767356 0.919866 0.262618
O O9 0.758256 0.840748 0.150363
O O10 0.761971 0.927281 0.060266
O O11 0.000000 0.894177 0.147272
O O12 0.230116 0.085016 0.468730
O O13 0.000000 0.052956 0.366407
O O14 0.244170 0.000000 0.374967
O O15 0.500000 0.182135 0.233685
O O16 0.500000 0.071256 0.974946
O O17 0.696889 0.000000 0.938150
O O18 0.730745 0.086478 0.858399
O O19 0.793176 0.606096 0.166075
O O20 0.000000 0.637542 0.038177
O O21 0.000000 0.113201 0.811810
#
# Coordination Sequence:
#
# PCOD8179793 Si02
#       8
#     8   8   8   8   8   8   8   8
#     4  11  23  37  56  84 119 161 200 242 298 363
#     4  11  22  37  58  86 121 159 202 252 298 356
#     4  11  22  38  63  93 124 160 205 258 314 375
#     4   9  19  36  60  90 120 152 193 246 307 363
#     4  11  23  38  58  87 121 159 199 241 300 369
#     4  11  25  43  63  88 121 164 211 264 324 378
#     4  10  20  38  63  91 122 158 201 250 304 364
#     4  10  22  39  62  92 123 160 206 257 311 370
#
# _framework density 20.306992999999999
#
# number of rings (size 3 to 8) (size 9 to 14) (size 15 to 20)
#    0.000    1.500    1.250    3.750    0.000    8.000 
#    0.000    1.875    0.000    1.875    0.000    0.000 
#    0.000    0.000    0.000    0.000    0.000    0.000 
#
# Total GULP energy -396824.865569 kJ/mol
# GULP energy per Si atom -12400.777049 kJ/mol
# Density = 2.026077 g / cm^3
# Si number density = 20.306993 Si / 1000 Ang^3
#
#
#
# Elastic Constant Matrix: (Units=GPa)
#
#
# Indices 1 2 3 4 5 6 
#
# 1 98.0613 64.5522 49.7121 0.0000 0.0000 0.0000
# 2 64.5522 114.0515 53.9974 0.0000 0.0000 0.0000
# 3 49.7121 53.9974 127.9089 0.0000 0.0000 0.0000
# 4 0.0000 0.0000 0.0000 38.4226 0.0000 0.0000
# 5 0.0000 0.0000 0.0000 0.0000 25.9648 0.0000
# 6 0.0000 0.0000 0.0000 0.0000 0.0000 24.9084
#
#
#
# Elastic Compliance Matrix: (Units=1/GPa)
#
#
# Indices 1 2 3 4 5 6 
#
# 1 0.017259 -0.008239 -0.003229 0.000000 0.000000 0.000000
# 2 -0.008239 0.014892 -0.003084 0.000000 0.000000 0.000000
# 3 -0.003229 -0.003084 0.010375 0.000000 0.000000 0.000000
# 4 0.000000 0.000000 0.000000 0.026026 0.000000 0.000000
# 5 0.000000 0.000000 0.000000 0.000000 0.038514 0.000000
# 6 0.000000 0.000000 0.000000 0.000000 0.000000 0.040147
#
#
# Mechanical properties :
#
#
# Convention : Reuss Voigt Hill
#
# Bulk Modulus (GPa) = 74.51851 75.17166 74.84509
# Shear Modulus (GPa) = 27.65610 29.30980 28.48295
#
# Velocity S-wave (km/s) = 3.69440 3.80325 3.74922
# Velocity P-wave (km/s) = 7.41443 7.50894 7.46184
#
# Compressibility (1/GPa) = 0.01341948
#
# Stress axis : x y z
#
# Youngs Moduli (GPa) = 57.94200 67.15175 96.38341
#
# Poissons Ratio (x) = 0.55329 0.31125
# Poissons Ratio (y) = 0.47740 0.29728
# Poissons Ratio (z) = 0.18711 0.20712
#
# Static dielectric constant tensor:
#      x y z
#    x 3.647040 0.000000 0.000000 
#    y 0.000000 3.656890 0.000000 
#    z 0.000000 0.000000 3.819490 
# 
# 
# High freq. dielectric constant tensor:
#      x y z
#    x 1.786410 0.000000 0.000000 
#    y 0.000000 1.792130 0.000000 
#    z 0.000000 0.000000 1.807410 
# 
# From -- ./inp_files/12781.got.cif
#   From: 2010.03.12/outbox.cif.g09.slc.cpg/sg38_7_cif.got.tgz:12781.got - 2010.04.14 02:38:36.
