data_PCOD8179649
_publ_section_title
;
Structure prediction by ZEFSAII (Michael W. Deem and Ramdas Pophale) SiO2 
 PCOD8179649
Probable space group: A M M 2
;
_chemical_formula_sum "Si O2"
_cell_formula_units_Z 48
_cell_length_a 8.907731
_cell_length_b 7.774955
_cell_length_c 33.739577
_cell_angle_alpha 90.000000
_cell_angle_beta 90.000000
_cell_angle_gamma 90.000000
_cell_volume 2336.708891
_symmetry_space_group_name_H-M "A M M 2"
_symmetry_group_IT_number 38
_symmetry_cell_setting 'orthorhombic'
loop_
_space_group_symop_operation_xyz
x,y,z
-x,-y,z
-x,y,z
x,-y,z
x,1/2+y,1/2+z
-x,1/2-y,1/2+z
-x,1/2+y,1/2+z
x,1/2-y,1/2+z
loop_
_atom_site_type_symbol
_atom_site_label
_atom_site_fract_x
_atom_site_fract_y
_atom_site_fract_z
Si Si1 0.172260 0.201269 0.515100
Si Si2 0.673238 0.702503 0.095507
Si Si3 0.826175 0.694662 0.673643
Si Si4 0.322192 0.000000 0.721295
Si Si5 0.822788 0.500000 0.306065
Si Si6 0.668283 0.305238 0.437296
Si Si7 0.171035 0.190944 0.361839
O O1 0.265531 0.264129 0.553096
O O2 0.232939 0.296227 0.476605
O O3 0.000000 0.251851 0.521846
O O4 0.193405 0.000000 0.508213
O O5 0.500000 0.754867 0.098751
O O6 0.697076 0.500000 0.101385
O O7 0.766223 0.800146 0.128936
O O8 0.804640 0.500000 0.689858
O O9 0.000000 0.747982 0.674004
O O10 0.736609 0.826970 0.700885
O O11 0.500000 0.000000 0.717840
O O12 0.271610 0.000000 0.766369
O O13 0.772820 0.669797 0.330084
O O14 0.000000 0.500000 0.296455
O O15 0.500000 0.240818 0.446821
O O16 0.668878 0.500000 0.421970
O O17 0.734428 0.191143 0.402101
O O18 0.000000 0.233590 0.373500
O O19 0.185806 0.000000 0.343025
#
# Coordination Sequence:
#
# PCOD8179649 Si02
#       7
#     8   8   8   4   4   8   8
#     4  10  21  36  56  83 116 159 210 261 311 369
#     4  10  20  36  60  89 123 164 207 258 321 378
#     4  11  24  42  67  96 127 169 217 262 314 381
#     4  12  26  44  68  98 134 170 208 264 326 382
#     4  10  22  42  66  94 128 164 206 258 310 374
#     4  11  23  37  55  82 119 161 206 255 312 372
#     4  10  21  39  65  93 121 159 205 251 305 369
#
# _framework density 20.541712
#
# number of rings (size 3 to 8) (size 9 to 14) (size 15 to 20)
#    0.000    1.500    1.667    3.250    0.000    8.333 
#    0.000    1.667    0.000    0.000    0.000    0.000 
#    0.000    0.000    0.000    0.000    0.000    0.000 
#
# Total GULP energy -297709.336754 kJ/mol
# GULP energy per Si atom -12404.555698 kJ/mol
# Density = 2.049496 g / cm^3
# Si number density = 20.541712 Si / 1000 Ang^3
#
#
#
# Elastic Constant Matrix: (Units=GPa)
#
#
# Indices 1 2 3 4 5 6 
#
# 1 128.7374 49.7848 58.2745 0.0000 0.0000 0.0000
# 2 49.7848 107.9806 55.8612 0.0000 0.0000 0.0000
# 3 58.2745 55.8612 131.6887 0.0000 0.0000 0.0000
# 4 0.0000 0.0000 0.0000 18.1417 0.0000 0.0000
# 5 0.0000 0.0000 0.0000 0.0000 8.6677 0.0000
# 6 0.0000 0.0000 0.0000 0.0000 0.0000 14.8641
#
#
#
# Elastic Compliance Matrix: (Units=1/GPa)
#
#
# Indices 1 2 3 4 5 6 
#
# 1 0.010472 -0.003114 -0.003313 0.000000 0.000000 0.000000
# 2 -0.003114 0.012791 -0.004048 0.000000 0.000000 0.000000
# 3 -0.003313 -0.004048 0.010777 0.000000 0.000000 0.000000
# 4 0.000000 0.000000 0.000000 0.055122 0.000000 0.000000
# 5 0.000000 0.000000 0.000000 0.000000 0.115371 0.000000
# 6 0.000000 0.000000 0.000000 0.000000 0.000000 0.067276
#
#
# Mechanical properties :
#
#
# Convention : Reuss Voigt Hill
#
# Bulk Modulus (GPa) = 76.39632 77.36085 76.87859
# Shear Modulus (GPa) = 16.82818 21.96711 19.39765
#
# Velocity S-wave (km/s) = 2.86531 3.27370 3.07629
# Velocity P-wave (km/s) = 6.94393 7.21329 7.07990
#
# Compressibility (1/GPa) = 0.01308964
#
# Stress axis : x y z
#
# Youngs Moduli (GPa) = 95.49581 78.18209 92.79322
#
# Poissons Ratio (x) = 0.24347 0.30741
# Poissons Ratio (y) = 0.29739 0.37559
# Poissons Ratio (z) = 0.31637 0.31645
#
# Static dielectric constant tensor:
#      x y z
#    x 3.808530 0.000000 0.000000 
#    y 0.000000 3.776340 0.000000 
#    z 0.000000 0.000000 3.602730 
# 
# 
# High freq. dielectric constant tensor:
#      x y z
#    x 1.810090 0.000000 0.000000 
#    y 0.000000 1.809030 0.000000 
#    z 0.000000 0.000000 1.797750 
# 
# From -- ./inp_files/24313.got.cif
#   From: 2010.03.12/outbox.cif.g09.slc.cpg/sg38_13_cif.got.tgz:24313.got - 2010.04.14 02:38:36.
