data_PCOD8179082
_publ_section_title
;
Structure prediction by ZEFSAII (Michael W. Deem and Ramdas Pophale) SiO2 
 PCOD8179082
Probable space group: A M M 2
;
_chemical_formula_sum "Si O2"
_cell_formula_units_Z 56
_cell_length_a 16.687639
_cell_length_b 8.683418
_cell_length_c 20.591047
_cell_angle_alpha 90.000000
_cell_angle_beta 90.000000
_cell_angle_gamma 90.000000
_cell_volume 2983.761003
_symmetry_space_group_name_H-M "A M M 2"
_symmetry_group_IT_number 38
_symmetry_cell_setting 'orthorhombic'
loop_
_space_group_symop_operation_xyz
x,y,z
-x,-y,z
-x,y,z
x,-y,z
x,1/2+y,1/2+z
-x,1/2-y,1/2+z
-x,1/2+y,1/2+z
x,1/2-y,1/2+z
loop_
_atom_site_type_symbol
_atom_site_label
_atom_site_fract_x
_atom_site_fract_y
_atom_site_fract_z
Si Si1 0.665056 0.182213 0.936960
Si Si2 0.251404 0.317735 0.564998
Si Si3 0.665388 0.181797 0.194580
Si Si4 0.500000 0.182544 0.734508
Si Si5 0.091006 0.177911 0.365756
Si Si6 0.761901 0.320490 0.310994
Si Si7 0.910581 0.320836 0.504865
Si Si8 0.500000 0.183877 0.882642
O O1 0.724333 0.229678 0.879444
O O2 0.577117 0.248977 0.920779
O O3 0.660158 0.000000 0.942189
O O4 0.698198 0.251646 0.004372
O O5 0.259623 0.500000 0.565278
O O6 0.288069 0.251430 0.631439
O O7 0.157074 0.272273 0.557494
O O8 0.578159 0.257744 0.197298
O O9 0.718678 0.223393 0.256037
O O10 0.654128 0.000000 0.190500
O O11 0.500000 0.244952 0.808551
O O12 0.500000 0.000000 0.733509
O O13 0.144727 0.276080 0.315640
O O14 0.105101 0.226489 0.439821
O O15 0.000000 0.209954 0.344867
O O16 0.113828 0.000000 0.358950
O O17 0.750065 0.500000 0.295810
O O18 0.901087 0.500000 0.486452
O O19 0.000000 0.286941 0.532954
O O20 0.500000 0.000000 0.880643
#
# Coordination Sequence:
#
# PCOD8179082 Si02
#       8
#     8   8   8   4   8   8   8   4
#     4   9  16  29  53  81 104 134 183 233 268 314
#     4   9  18  33  52  81 115 145 184 228 275 335
#     4  11  23  37  56  83 117 151 185 232 288 338
#     4  11  21  38  59  81 109 146 194 233 277 345
#     4  10  20  33  52  83 119 148 179 231 294 341
#     4  11  20  35  59  82 108 147 193 233 273 331
#     4   9  16  30  55  82 107 142 189 233 273 332
#     4   9  16  28  51  81 105 132 180 235 269 303
#
# _framework density 18.768259
#
# number of rings (size 3 to 8) (size 9 to 14) (size 15 to 20)
#    0.000    2.143    2.857    1.500    0.000    1.429 
#    0.000    4.286    0.000    2.571    0.000    0.000 
#    0.000    0.000    0.000    0.000    0.000    0.000 
#
# Total GULP energy -347147.496212 kJ/mol
# GULP energy per Si atom -12398.124865 kJ/mol
# Density = 1.872554 g / cm^3
# Si number density = 18.768259 Si / 1000 Ang^3
#
#
#
# Elastic Constant Matrix: (Units=GPa)
#
#
# Indices 1 2 3 4 5 6 
#
# 1 165.9360 29.4117 62.0505 0.0000 0.0000 0.0000
# 2 29.4117 32.9605 25.9707 0.0000 0.0000 0.0000
# 3 62.0505 25.9707 88.6422 0.0000 0.0000 0.0000
# 4 0.0000 0.0000 0.0000 21.1138 0.0000 0.0000
# 5 0.0000 0.0000 0.0000 0.0000 31.5266 0.0000
# 6 0.0000 0.0000 0.0000 0.0000 0.0000 24.4994
#
#
#
# Elastic Compliance Matrix: (Units=1/GPa)
#
#
# Indices 1 2 3 4 5 6 
#
# 1 0.008509 -0.003770 -0.004852 0.000000 0.000000 0.000000
# 2 -0.003770 0.041116 -0.009407 0.000000 0.000000 0.000000
# 3 -0.004852 -0.009407 0.017434 0.000000 0.000000 0.000000
# 4 0.000000 0.000000 0.000000 0.047362 0.000000 0.000000
# 5 0.000000 0.000000 0.000000 0.000000 0.031719 0.000000
# 6 0.000000 0.000000 0.000000 0.000000 0.000000 0.040817
#
#
# Mechanical properties :
#
#
# Convention : Reuss Voigt Hill
#
# Bulk Modulus (GPa) = 32.25757 58.04495 45.15126
# Shear Modulus (GPa) = 21.42715 26.76834 24.09774
#
# Velocity S-wave (km/s) = 3.38253 3.78068 3.58713
# Velocity P-wave (km/s) = 5.69912 7.07477 6.42387
#
# Compressibility (1/GPa) = 0.03100048
#
# Stress axis : x y z
#
# Youngs Moduli (GPa) = 117.52361 24.32165 57.35982
#
# Poissons Ratio (x) = 0.09169 0.27830
# Poissons Ratio (y) = 0.44305 0.53960
# Poissons Ratio (z) = 0.57021 0.22880
#
# Static dielectric constant tensor:
#      x y z
#    x 3.832150 0.000000 0.000000 
#    y 0.000000 3.142290 0.000000 
#    z 0.000000 0.000000 3.470510 
# 
# 
# High freq. dielectric constant tensor:
#      x y z
#    x 1.750050 0.000000 0.000000 
#    y 0.000000 1.698540 0.000000 
#    z 0.000000 0.000000 1.709140 
# 
# From -- ./inp_files/21166.got.cif
#   From: 2010.03.12/outbox.cif.g09.slc.cpg/sg38_11_cif.got.tgz:21166.got - 2010.04.14 02:38:36.
