data_PCOD8179024
_publ_section_title
;
Structure prediction by ZEFSAII (Michael W. Deem and Ramdas Pophale) SiO2 
 PCOD8179024
Probable space group: A M M 2
;
_chemical_formula_sum "Si O2"
_cell_formula_units_Z 48
_cell_length_a 9.397874
_cell_length_b 9.119749
_cell_length_c 30.831005
_cell_angle_alpha 90.000000
_cell_angle_beta 90.000000
_cell_angle_gamma 90.000000
_cell_volume 2642.409884
_symmetry_space_group_name_H-M "A M M 2"
_symmetry_group_IT_number 38
_symmetry_cell_setting 'orthorhombic'
loop_
_space_group_symop_operation_xyz
x,y,z
-x,-y,z
-x,y,z
x,-y,z
x,1/2+y,1/2+z
-x,1/2-y,1/2+z
-x,1/2+y,1/2+z
x,1/2-y,1/2+z
loop_
_atom_site_type_symbol
_atom_site_label
_atom_site_fract_x
_atom_site_fract_y
_atom_site_fract_z
Si Si1 0.167813 0.669430 0.941770
Si Si2 0.334801 0.330354 0.778913
Si Si3 0.169296 0.663798 0.527106
Si Si4 0.166446 0.669500 0.205740
Si Si5 0.665584 0.828582 0.866242
Si Si6 0.831017 0.162592 0.608721
O O1 0.212164 0.500000 0.940575
O O2 0.244493 0.755200 0.903786
O O3 0.000000 0.690166 0.935897
O O4 0.220858 0.736271 0.987286
O O5 0.500000 0.303366 0.769656
O O6 0.300277 0.500000 0.787199
O O7 0.250175 0.275158 0.737474
O O8 0.284416 0.240487 0.820888
O O9 0.230228 0.500000 0.521104
O O10 0.231194 0.728883 0.572130
O O11 0.000000 0.661121 0.528935
O O12 0.205875 0.500000 0.214433
O O13 0.212354 0.715029 0.156899
O O14 0.000000 0.695212 0.212913
O O15 0.500000 0.796436 0.874702
O O16 0.699402 0.000000 0.864954
O O17 0.000000 0.156262 0.605640
O O18 0.769847 0.000000 0.599905
#
# Coordination Sequence:
#
# PCOD8179024 Si02
#       6
#     8   8   8   8   8   8
#     4  10  20  33  51  76 104 133 165 202 245 291
#     4  10  21  36  53  73  98 130 167 204 245 296
#     4   9  16  26  43  69 100 132 165 201 242 288
#     4   9  18  32  51  76 103 131 165 205 248 292
#     4  10  21  37  56  75  96 127 166 205 248 298
#     4   8  14  26  44  67  97 130 162 198 242 292
#
# _framework density 18.165236
#
# number of rings (size 3 to 8) (size 9 to 14) (size 15 to 20)
#    0.000    2.667    0.000    3.000    0.000    6.667 
#    0.000    1.667    0.000    1.000    0.000    4.667 
#    0.000    0.000    0.000    0.000    0.000    0.000 
#
# Total GULP energy -297586.744753 kJ/mol
# GULP energy per Si atom -12399.447698 kJ/mol
# Density = 1.812389 g / cm^3
# Si number density = 18.165236 Si / 1000 Ang^3
#
#
#
# Elastic Constant Matrix: (Units=GPa)
#
#
# Indices 1 2 3 4 5 6 
#
# 1 27.9090 36.1683 40.7929 0.0000 0.0000 0.0000
# 2 36.1683 134.1398 87.7373 0.0000 0.0000 0.0000
# 3 40.7929 87.7373 161.1173 0.0000 0.0000 0.0000
# 4 0.0000 0.0000 0.0000 42.5194 0.0000 0.0000
# 5 0.0000 0.0000 0.0000 0.0000 -26.7296 0.0000
# 6 0.0000 0.0000 0.0000 0.0000 0.0000 23.9238
#
#
#
# Elastic Compliance Matrix: (Units=1/GPa)
#
#
# Indices 1 2 3 4 5 6 
#
# 1 0.065249 -0.010543 -0.010779 0.000000 0.000000 0.000000
# 2 -0.010543 0.013283 -0.004564 0.000000 0.000000 0.000000
# 3 -0.010779 -0.004564 0.011421 0.000000 0.000000 0.000000
# 4 0.000000 0.000000 0.000000 0.023519 0.000000 0.000000
# 5 0.000000 0.000000 0.000000 0.000000 -0.037412 0.000000
# 6 0.000000 0.000000 0.000000 0.000000 0.000000 0.041799
#
#
# Mechanical properties :
#
#
# Convention : Reuss Voigt Hill
#
# Bulk Modulus (GPa) = 26.19103 72.50700 49.34901
# Shear Modulus (GPa) = 27.41877 18.50724 22.96300
#
# Velocity S-wave (km/s) = 3.88933 3.19537 3.55930
# Velocity P-wave (km/s) = 5.88376 7.32228 6.64208
#
# Compressibility (1/GPa) = 0.03818102
#
# Stress axis : x y z
#
# Youngs Moduli (GPa) = 15.32600 75.28618 87.55771
#
# Poissons Ratio (x) = 0.79373 0.94379
# Poissons Ratio (y) = 0.16158 0.39960
# Poissons Ratio (z) = 0.16520 0.34359
#
# Static dielectric constant tensor:
#      x y z
#    x 2.942190 0.000000 0.000000 
#    y 0.000000 3.561630 0.000000 
#    z 0.000000 0.000000 3.567870 
# 
# 
# High freq. dielectric constant tensor:
#      x y z
#    x 1.656780 0.000000 0.000000 
#    y 0.000000 1.715320 0.000000 
#    z 0.000000 0.000000 1.720060 
# 
# From -- ./inp_files/22419.got.cif
#   From: 2010.03.12/outbox.cif.g09.slc.cpg/sg38_12_cif.got.tgz:22419.got - 2010.04.14 02:38:36.
