data_PCOD8179163
_publ_section_title
;
Structure prediction by ZEFSAII (Michael W. Deem and Ramdas Pophale) SiO2 
 PCOD8179163
Probable space group: A M M 2
;
_chemical_formula_sum "Si O2"
_cell_formula_units_Z 64
_cell_length_a 18.383175
_cell_length_b 9.209474
_cell_length_c 20.742821
_cell_angle_alpha 90.000000
_cell_angle_beta 90.000000
_cell_angle_gamma 90.000000
_cell_volume 3511.746573
_symmetry_space_group_name_H-M "A M M 2"
_symmetry_group_IT_number 38
_symmetry_cell_setting 'orthorhombic'
loop_
_space_group_symop_operation_xyz
x,y,z
-x,-y,z
-x,y,z
x,-y,z
x,1/2+y,1/2+z
-x,1/2-y,1/2+z
-x,1/2+y,1/2+z
x,1/2-y,1/2+z
loop_
_atom_site_type_symbol
_atom_site_label
_atom_site_fract_x
_atom_site_fract_y
_atom_site_fract_z
Si Si1 0.086470 0.160662 0.516170
Si Si2 0.586409 0.161233 0.542940
Si Si3 0.918640 0.673350 0.156688
Si Si4 0.341124 0.172845 0.782494
Si Si5 0.413511 0.164439 0.165218
Si Si6 0.916660 0.829029 0.893310
Si Si7 0.584639 0.830409 0.398421
Si Si8 0.824669 0.172445 0.773680
O O1 0.110264 0.223199 0.586140
O O2 0.115094 0.263998 0.459587
O O3 0.000000 0.152720 0.515915
O O4 0.119193 0.000000 0.504932
O O5 0.500000 0.155711 0.544443
O O6 0.616303 0.270593 0.597499
O O7 0.610406 0.210161 0.471106
O O8 0.617111 0.000000 0.557812
O O9 0.921101 0.500000 0.158202
O O10 0.863446 0.736222 0.209899
O O11 0.000000 0.733317 0.170641
O O12 0.386446 0.239380 0.724179
O O13 0.369671 0.231339 0.850396
O O14 0.258121 0.224813 0.775199
O O15 0.349208 0.000000 0.780925
O O16 0.500000 0.168352 0.166300
O O17 0.384698 0.000000 0.171820
O O18 0.867725 0.766605 0.835550
O O19 0.000000 0.781385 0.880954
O O20 0.910180 0.000000 0.899011
O O21 0.500000 0.794142 0.388725
O O22 0.598854 0.000000 0.384242
O O23 0.829573 0.000000 0.773314
#
# Coordination Sequence:
#
# PCOD8179163 Si02
#       8
#     8   8   8   8   8   8   8   8
#     4   8  14  25  44  71  96 115 144 191 239 279
#     4   8  15  30  53  78  99 119 150 196 246 291
#     4   8  13  25  48  72  91 117 156 198 235 273
#     4  11  22  33  47  69 100 135 166 200 240 283
#     4  10  20  34  53  75  98 125 159 200 242 286
#     4   9  16  28  49  72  92 119 154 191 233 280
#     4   9  18  34  55  76  98 125 159 201 244 286
#     4   9  18  31  45  66  96 125 158 199 235 270
#
# _framework density 18.224550000000001
#
# number of rings (size 3 to 8) (size 9 to 14) (size 15 to 20)
#    0.000    3.000    0.000    3.000    0.000    4.500 
#    0.000    3.750    0.000    6.750    0.000    3.500 
#    0.000    0.000    0.000    0.000    0.000    0.000 
#
# Total GULP energy -396657.317939 kJ/mol
# GULP energy per Si atom -12395.541186 kJ/mol
# Density = 1.818307 g / cm^3
# Si number density = 18.224550 Si / 1000 Ang^3
#
#
#
# Elastic Constant Matrix: (Units=GPa)
#
#
# Indices 1 2 3 4 5 6 
#
# 1 42.6869 23.6870 35.7449 0.0000 0.0000 0.0000
# 2 23.6870 60.6301 49.9376 0.0000 0.0000 0.0000
# 3 35.7449 49.9376 158.2640 0.0000 0.0000 0.0000
# 4 0.0000 0.0000 0.0000 33.9058 0.0000 0.0000
# 5 0.0000 0.0000 0.0000 0.0000 2.8386 0.0000
# 6 0.0000 0.0000 0.0000 0.0000 0.0000 12.3691
#
#
#
# Elastic Compliance Matrix: (Units=1/GPa)
#
#
# Indices 1 2 3 4 5 6 
#
# 1 0.032069 -0.008868 -0.004445 0.000000 0.000000 0.000000
# 2 -0.008868 0.024737 -0.005803 0.000000 0.000000 0.000000
# 3 -0.004445 -0.005803 0.009153 0.000000 0.000000 0.000000
# 4 0.000000 0.000000 0.000000 0.029493 0.000000 0.000000
# 5 0.000000 0.000000 0.000000 0.000000 0.352281 0.000000
# 6 0.000000 0.000000 0.000000 0.000000 0.000000 0.080847
#
#
# Mechanical properties :
#
#
# Convention : Reuss Voigt Hill
#
# Bulk Modulus (GPa) = 36.06307 53.36890 44.71599
# Shear Modulus (GPa) = 8.67973 19.97013 14.32493
#
# Velocity S-wave (km/s) = 2.18472 3.31385 2.80665
# Velocity P-wave (km/s) = 5.11812 6.63248 5.92389
#
# Compressibility (1/GPa) = 0.02772920
#
# Stress axis : x y z
#
# Youngs Moduli (GPa) = 31.18261 40.42504 109.24913
#
# Poissons Ratio (x) = 0.35848 0.48561
# Poissons Ratio (y) = 0.27652 0.63393
# Poissons Ratio (z) = 0.13861 0.23457
#
# Static dielectric constant tensor:
#      x y z
#    x 3.148140 0.000000 0.000000 
#    y 0.000000 3.196390 0.000000 
#    z 0.000000 0.000000 3.782540 
# 
# 
# High freq. dielectric constant tensor:
#      x y z
#    x 1.672330 0.000000 0.000000 
#    y 0.000000 1.677510 0.000000 
#    z 0.000000 0.000000 1.727280 
# 
# From -- ./inp_files/21401.got.cif
#   From: 2010.03.12/outbox.cif.g09.slc.cpg/sg38_11_cif.got.tgz:21401.got - 2010.04.14 02:38:36.
