data_PCOD8179958
_publ_section_title
;
Structure prediction by ZEFSAII (Michael W. Deem and Ramdas Pophale) SiO2 
 PCOD8179958
Probable space group: A M M 2
;
_chemical_formula_sum "Si O2"
_cell_formula_units_Z 56
_cell_length_a 19.795487
_cell_length_b 9.932267
_cell_length_c 14.873559
_cell_angle_alpha 90.000000
_cell_angle_beta 90.000000
_cell_angle_gamma 90.000000
_cell_volume 2924.350856
_symmetry_space_group_name_H-M "A M M 2"
_symmetry_group_IT_number 38
_symmetry_cell_setting 'orthorhombic'
loop_
_space_group_symop_operation_xyz
x,y,z
-x,-y,z
-x,y,z
x,-y,z
x,1/2+y,1/2+z
-x,1/2-y,1/2+z
-x,1/2+y,1/2+z
x,1/2-y,1/2+z
loop_
_atom_site_type_symbol
_atom_site_label
_atom_site_fract_x
_atom_site_fract_y
_atom_site_fract_z
Si Si1 0.187165 0.648542 0.200420
Si Si2 0.924943 0.650214 0.913323
Si Si3 0.340145 0.158940 0.704564
Si Si4 0.186134 0.649978 0.414270
Si Si5 0.332957 0.158258 0.905385
Si Si6 0.075181 0.650875 0.699286
Si Si7 0.579318 0.655484 0.572023
O O1 0.171178 0.500000 0.162038
O O2 0.263407 0.691054 0.173920
O O3 0.180944 0.645131 0.307234
O O4 0.132568 0.751385 0.157902
O O5 0.908426 0.500000 0.947926
O O6 0.871123 0.753377 0.956227
O O7 0.920600 0.652976 0.806298
O O8 0.000000 0.693873 0.944385
O O9 0.352187 0.211629 0.806473
O O10 0.391429 0.246157 0.646566
O O11 0.356186 0.000000 0.693885
O O12 0.175309 0.500000 0.454065
O O13 0.259779 0.711883 0.439417
O O14 0.323210 0.000000 0.894751
O O15 0.390651 0.198825 0.975490
O O16 0.089213 0.500000 0.664066
O O17 0.000000 0.698487 0.669186
O O18 0.500000 0.677139 0.566480
O O19 0.597781 0.500000 0.593956
#
# Coordination Sequence:
#
# PCOD8179958 Si02
#       7
#     8   8   8   8   8   8   8
#     4   8  14  24  39  61  88 119 158 201 241 284
#     4   8  13  20  30  50  85 123 154 190 239 288
#     4   9  18  34  55  77 102 134 171 208 248 298
#     4   8  13  23  40  60  83 116 160 202 234 275
#     4   8  16  33  54  74 100 135 170 203 245 299
#     4   8  13  20  31  52  85 123 160 197 238 285
#     4  10  21  36  54  78 105 131 163 203 248 302
#
# _framework density 19.149550000000001
#
# number of rings (size 3 to 8) (size 9 to 14) (size 15 to 20)
#    0.000    3.571    0.000    2.571    0.000    2.000 
#    0.000    7.857    0.000    0.000    0.000    1.000 
#    0.000    1.143    0.000    0.000    0.000    0.000 
#
# Total GULP energy -347001.968838 kJ/mol
# GULP energy per Si atom -12392.927459 kJ/mol
# Density = 1.910596 g / cm^3
# Si number density = 19.149550 Si / 1000 Ang^3
#
#
#
# Elastic Constant Matrix: (Units=GPa)
#
#
# Indices 1 2 3 4 5 6 
#
# 1 159.9349 86.0131 48.2973 0.0000 0.0000 0.0000
# 2 86.0131 95.4883 35.6065 0.0000 0.0000 0.0000
# 3 48.2973 35.6065 52.3095 0.0000 0.0000 0.0000
# 4 0.0000 0.0000 0.0000 15.3448 0.0000 0.0000
# 5 0.0000 0.0000 0.0000 0.0000 -13.4166 0.0000
# 6 0.0000 0.0000 0.0000 0.0000 0.0000 35.7265
#
#
#
# Elastic Compliance Matrix: (Units=1/GPa)
#
#
# Indices 1 2 3 4 5 6 
#
# 1 0.013208 -0.009850 -0.005490 0.000000 0.000000 0.000000
# 2 -0.009850 0.021381 -0.005459 0.000000 0.000000 0.000000
# 3 -0.005490 -0.005459 0.027902 0.000000 0.000000 0.000000
# 4 0.000000 0.000000 0.000000 0.065169 0.000000 0.000000
# 5 0.000000 0.000000 0.000000 0.000000 -0.074534 0.000000
# 6 0.000000 0.000000 0.000000 0.000000 0.000000 0.027990
#
#
# Mechanical properties :
#
#
# Convention : Reuss Voigt Hill
#
# Bulk Modulus (GPa) = 47.86483 71.95185 59.90834
# Shear Modulus (GPa) = 38.55722 16.71863 27.63793
#
# Velocity S-wave (km/s) = 4.49205 2.95796 3.80316
# Velocity P-wave (km/s) = 7.20793 7.02291 7.11602
#
# Compressibility (1/GPa) = 0.02089216
#
# Stress axis : x y z
#
# Youngs Moduli (GPa) = 75.71316 46.77100 35.84003
#
# Poissons Ratio (x) = 0.46070 0.19676
# Poissons Ratio (y) = 0.74578 0.19566
# Poissons Ratio (z) = 0.41566 0.25533
#
# Static dielectric constant tensor:
#      x y z
#    x 3.695580 0.000000 0.000000 
#    y 0.000000 3.596490 0.000000 
#    z 0.000000 0.000000 3.087320 
# 
# 
# High freq. dielectric constant tensor:
#      x y z
#    x 1.748130 0.000000 0.000000 
#    y 0.000000 1.727790 0.000000 
#    z 0.000000 0.000000 1.711680 
# 
# From -- ./inp_files/18828.got.cif
#   From: 2010.03.12/outbox.cif.g09.slc.cpg/sg38_10_cif.got.tgz:18828.got - 2010.04.14 02:38:36.
