data_PCOD8179530
_publ_section_title
;
Structure prediction by ZEFSAII (Michael W. Deem and Ramdas Pophale) SiO2 
 PCOD8179530
Probable space group: A M M 2
;
_chemical_formula_sum "Si O2"
_cell_formula_units_Z 64
_cell_length_a 8.908548
_cell_length_b 30.569291
_cell_length_c 11.990684
_cell_angle_alpha 90.000000
_cell_angle_beta 90.000000
_cell_angle_gamma 90.000000
_cell_volume 3265.398947
_symmetry_space_group_name_H-M "A M M 2"
_symmetry_group_IT_number 38
_symmetry_cell_setting 'orthorhombic'
loop_
_space_group_symop_operation_xyz
x,y,z
-x,-y,z
-x,y,z
x,-y,z
x,1/2+y,1/2+z
-x,1/2-y,1/2+z
-x,1/2+y,1/2+z
x,1/2-y,1/2+z
loop_
_atom_site_type_symbol
_atom_site_label
_atom_site_fract_x
_atom_site_fract_y
_atom_site_fract_z
Si Si1 0.331218 0.325768 0.498850
Si Si2 0.674425 0.204903 0.757032
Si Si3 0.674703 0.450916 0.250347
Si Si4 0.177262 0.373090 0.122453
Si Si5 0.324195 0.549801 0.727849
Si Si6 0.330018 0.427401 0.487800
Si Si7 0.824987 0.295830 0.711660
Si Si8 0.176629 0.375073 0.867078
O O1 0.500000 0.315050 0.542136
O O2 0.293248 0.299009 0.387998
O O3 0.317803 0.376142 0.468560
O O4 0.206296 0.314292 0.589098
O O5 0.500000 0.199567 0.729277
O O6 0.760931 0.168226 0.688456
O O7 0.729240 0.252394 0.723019
O O8 0.500000 0.436815 0.252037
O O9 0.695580 0.500000 0.204052
O O10 0.762584 0.418680 0.169620
O O11 0.741629 0.448892 0.376799
O O12 0.000000 0.372844 0.133576
O O13 0.228656 0.369372 0.994215
O O14 0.500000 0.560875 0.725578
O O15 0.292956 0.500000 0.764489
O O16 0.252530 0.558058 0.604240
O O17 0.249865 0.581422 0.817458
O O18 0.500000 0.444235 0.495898
O O19 0.770195 0.331823 0.801032
O O20 0.000000 0.285111 0.725303
O O21 0.000000 0.380929 0.855912
#
# Coordination Sequence:
#
# PCOD8179530 Si02
#       8
#     8   8   8   8   8   8   8   8
#     4  10  20  38  64  91 120 155 195 242 296 355
#     4  11  24  42  64  92 121 153 199 246 298 355
#     4  10  20  37  62  90 120 156 198 244 296 354
#     4  11  24  42  61  84 119 160 202 246 298 353
#     4  10  20  35  60  91 118 150 195 244 293 348
#     4   9  16  33  59  88 121 151 186 237 296 350
#     4  11  24  41  62  89 121 156 199 245 298 355
#     4  10  24  43  59  81 117 161 200 240 292 351
#
# _framework density 19.599442
#
# number of rings (size 3 to 8) (size 9 to 14) (size 15 to 20)
#    0.000    1.750    2.500    1.500    1.750    5.000 
#    0.000    3.125    0.000    1.500    0.000    0.000 
#    0.000    0.000    0.000    0.000    0.000    0.000 
#
# Total GULP energy -396840.711042 kJ/mol
# GULP energy per Si atom -12401.272220 kJ/mol
# Density = 1.955483 g / cm^3
# Si number density = 19.599442 Si / 1000 Ang^3
#
#
#
# Elastic Constant Matrix: (Units=GPa)
#
#
# Indices 1 2 3 4 5 6 
#
# 1 48.8287 34.5564 48.2428 0.0000 0.0000 0.0000
# 2 34.5564 115.3911 56.7958 0.0000 0.0000 0.0000
# 3 48.2428 56.7958 115.7935 0.0000 0.0000 0.0000
# 4 0.0000 0.0000 0.0000 15.3141 0.0000 0.0000
# 5 0.0000 0.0000 0.0000 0.0000 29.6931 0.0000
# 6 0.0000 0.0000 0.0000 0.0000 0.0000 -73.7788
#
#
#
# Elastic Compliance Matrix: (Units=1/GPa)
#
#
# Indices 1 2 3 4 5 6 
#
# 1 0.036531 -0.004546 -0.012990 0.000000 0.000000 0.000000
# 2 -0.004546 0.011990 -0.003987 0.000000 0.000000 0.000000
# 3 -0.012990 -0.003987 0.016004 0.000000 0.000000 0.000000
# 4 0.000000 0.000000 0.000000 0.065299 0.000000 0.000000
# 5 0.000000 0.000000 0.000000 0.000000 0.033678 0.000000
# 6 0.000000 0.000000 0.000000 0.000000 0.000000 -0.013554
#
#
# Mechanical properties :
#
#
# Convention : Reuss Voigt Hill
#
# Bulk Modulus (GPa) = 46.55825 62.13371 54.34598
# Shear Modulus (GPa) = 24.98074 3.60691 14.29382
#
# Velocity S-wave (km/s) = 3.57398 1.35805 2.70348
# Velocity P-wave (km/s) = 6.39043 5.85061 6.12647
#
# Compressibility (1/GPa) = 0.02147847
#
# Stress axis : x y z
#
# Youngs Moduli (GPa) = 27.37367 83.40250 62.48600
#
# Poissons Ratio (x) = 0.37918 0.81169
# Poissons Ratio (y) = 0.12445 0.24912
# Poissons Ratio (z) = 0.35558 0.33251
#
# Static dielectric constant tensor:
#      x y z
#    x 3.389440 0.000000 0.000000 
#    y 0.000000 3.634420 0.000000 
#    z 0.000000 0.000000 3.727830 
# 
# 
# High freq. dielectric constant tensor:
#      x y z
#    x 1.742360 0.000000 0.000000 
#    y 0.000000 1.776760 0.000000 
#    z 0.000000 0.000000 1.772570 
# 
# From -- ./inp_files/8554.got.cif
#   From: 2010.03.12/outbox.cif.g09.slc.cpg/sg38_5_cif.got.tgz:8554.got - 2010.04.14 02:38:36.
