data_PCOD8179945
_publ_section_title
;
Structure prediction by ZEFSAII (Michael W. Deem and Ramdas Pophale) SiO2 
 PCOD8179945
Probable space group: A M M 2
;
_chemical_formula_sum "Si O2"
_cell_formula_units_Z 64
_cell_length_a 20.328497
_cell_length_b 8.705312
_cell_length_c 18.562349
_cell_angle_alpha 90.000000
_cell_angle_beta 90.000000
_cell_angle_gamma 90.000000
_cell_volume 3284.902962
_symmetry_space_group_name_H-M "A M M 2"
_symmetry_group_IT_number 38
_symmetry_cell_setting 'orthorhombic'
loop_
_space_group_symop_operation_xyz
x,y,z
-x,-y,z
-x,y,z
x,-y,z
x,1/2+y,1/2+z
-x,1/2-y,1/2+z
-x,1/2+y,1/2+z
x,1/2-y,1/2+z
loop_
_atom_site_type_symbol
_atom_site_label
_atom_site_fract_x
_atom_site_fract_y
_atom_site_fract_z
Si Si1 0.184067 0.679523 0.350610
Si Si2 0.808004 0.321719 0.695993
Si Si3 0.074429 0.323248 0.594444
Si Si4 0.426956 0.682675 0.358371
Si Si5 0.572858 0.682606 0.196908
Si Si6 0.306539 0.819315 0.605526
Si Si7 0.923522 0.677294 0.945346
Si Si8 0.694142 0.318763 0.449388
O O1 0.187123 0.500000 0.331741
O O2 0.189296 0.777968 0.278863
O O3 0.115930 0.717849 0.389701
O O4 0.244014 0.730713 0.401438
O O5 0.789799 0.500000 0.687352
O O6 0.878992 0.284655 0.661529
O O7 0.753958 0.220344 0.656451
O O8 0.081329 0.500000 0.570390
O O9 0.096066 0.220367 0.526799
O O10 0.000000 0.285093 0.618745
O O11 0.500000 0.736516 0.383091
O O12 0.423258 0.500000 0.357565
O O13 0.412251 0.744030 0.277646
O O14 0.372363 0.749169 0.413022
O O15 0.500000 0.737201 0.172352
O O16 0.576238 0.500000 0.198332
O O17 0.626772 0.748614 0.141565
O O18 0.295957 0.747821 0.527968
O O19 0.311706 0.000000 0.597003
O O20 0.905954 0.500000 0.932257
O O21 0.000000 0.711538 0.931984
O O22 0.689825 0.500000 0.456207
#
# Coordination Sequence:
#
# PCOD8179945 Si02
#       8
#     8   8   8   8   8   8   8   8
#     4  11  23  38  57  80 108 144 185 228 272 322
#     4  11  23  38  57  81 110 143 179 225 278 327
#     4   9  19  37  59  81 107 141 179 218 264 320
#     4   8  14  28  52  77 101 135 178 220 264 318
#     4   8  15  30  52  77 105 139 180 224 270 320
#     4  11  22  35  54  80 109 143 183 225 270 324
#     4  10  21  37  58  84 113 144 179 221 268 319
#     4  10  21  36  53  77 109 142 179 224 272 321
#
# _framework density 19.483072
#
# number of rings (size 3 to 8) (size 9 to 14) (size 15 to 20)
#    0.000    2.250    0.000    3.750    0.000    8.750 
#    0.000    1.250    0.000    1.125    0.000    3.500 
#    0.000    0.000    0.000    0.000    0.000    0.000 
#
# Total GULP energy -396834.327376 kJ/mol
# GULP energy per Si atom -12401.072731 kJ/mol
# Density = 1.943873 g / cm^3
# Si number density = 19.483072 Si / 1000 Ang^3
#
#
#
# Elastic Constant Matrix: (Units=GPa)
#
#
# Indices 1 2 3 4 5 6 
#
# 1 117.3297 18.8499 66.9161 0.0000 0.0000 0.0000
# 2 18.8499 13.4113 13.5792 0.0000 0.0000 0.0000
# 3 66.9161 13.5792 120.6445 0.0000 0.0000 0.0000
# 4 0.0000 0.0000 0.0000 25.9459 0.0000 0.0000
# 5 0.0000 0.0000 0.0000 0.0000 41.4238 0.0000
# 6 0.0000 0.0000 0.0000 0.0000 0.0000 -11.5030
#
#
#
# Elastic Compliance Matrix: (Units=1/GPa)
#
#
# Indices 1 2 3 4 5 6 
#
# 1 0.014402 -0.013718 -0.006444 0.000000 0.000000 0.000000
# 2 -0.013718 0.097220 -0.003334 0.000000 0.000000 0.000000
# 3 -0.006444 -0.003334 0.012238 0.000000 0.000000 0.000000
# 4 0.000000 0.000000 0.000000 0.038542 0.000000 0.000000
# 5 0.000000 0.000000 0.000000 0.000000 0.024141 0.000000
# 6 0.000000 0.000000 0.000000 0.000000 0.000000 -0.086934
#
#
# Mechanical properties :
#
#
# Convention : Reuss Voigt Hill
#
# Bulk Modulus (GPa) = 13.00920 50.00844 31.50882
# Shear Modulus (GPa) = 29.03197 21.30937 25.17067
#
# Velocity S-wave (km/s) = 3.86439 3.31076 3.59824
# Velocity P-wave (km/s) = 5.15781 6.35123 5.78538
#
# Compressibility (1/GPa) = 0.07686869
#
# Stress axis : x y z
#
# Youngs Moduli (GPa) = 69.43401 10.28595 81.70995
#
# Poissons Ratio (x) = 0.14110 0.52656
# Poissons Ratio (y) = 0.95247 0.27242
# Poissons Ratio (z) = 0.44745 0.03429
#
# Static dielectric constant tensor:
#      x y z
#    x 3.923780 0.000000 0.000000 
#    y 0.000000 3.295720 0.000000 
#    z 0.000000 0.000000 3.594560 
# 
# 
# High freq. dielectric constant tensor:
#      x y z
#    x 1.774940 0.000000 0.000000 
#    y 0.000000 1.733770 0.000000 
#    z 0.000000 0.000000 1.759830 
# 
# From -- ./inp_files/18964.got.cif
#   From: 2010.03.12/outbox.cif.g09.slc.cpg/sg38_10_cif.got.tgz:18964.got - 2010.04.14 02:38:36.
