data_PCOD8179685
_publ_section_title
;
Structure prediction by ZEFSAII (Michael W. Deem and Ramdas Pophale) SiO2 
 PCOD8179685
Probable space group: A M M 2
;
_chemical_formula_sum "Si O2"
_cell_formula_units_Z 48
_cell_length_a 10.279607
_cell_length_b 8.983825
_cell_length_c 27.954083
_cell_angle_alpha 90.000000
_cell_angle_beta 90.000000
_cell_angle_gamma 90.000000
_cell_volume 2581.564886
_symmetry_space_group_name_H-M "A M M 2"
_symmetry_group_IT_number 38
_symmetry_cell_setting 'orthorhombic'
loop_
_space_group_symop_operation_xyz
x,y,z
-x,-y,z
-x,y,z
x,-y,z
x,1/2+y,1/2+z
-x,1/2-y,1/2+z
-x,1/2+y,1/2+z
x,1/2-y,1/2+z
loop_
_atom_site_type_symbol
_atom_site_label
_atom_site_fract_x
_atom_site_fract_y
_atom_site_fract_z
Si Si1 0.000000 0.322358 0.563441
Si Si2 0.737992 0.825704 0.719308
Si Si3 0.646825 0.826914 0.415607
Si Si4 0.500000 0.165818 0.172014
Si Si5 0.750055 0.175926 0.517191
Si Si6 0.500000 0.168728 0.059240
Si Si7 0.000000 0.325932 0.165831
Si Si8 0.649489 0.326273 0.320955
O O1 0.124775 0.259745 0.536464
O O2 0.000000 0.500000 0.561624
O O3 0.000000 0.270896 0.618165
O O4 0.628924 0.747511 0.688449
O O5 0.731852 0.774259 0.774748
O O6 0.876717 0.782204 0.697827
O O7 0.710009 0.000000 0.716132
O O8 0.500000 0.767588 0.425995
O O9 0.738307 0.790835 0.460653
O O10 0.706595 0.750525 0.368464
O O11 0.642139 0.000000 0.405275
O O12 0.500000 0.161189 0.115591
O O13 0.500000 0.000000 0.193505
O O14 0.625105 0.239966 0.543366
O O15 0.760239 0.000000 0.527626
O O16 0.500000 0.000000 0.038123
O O17 0.000000 0.500000 0.151948
O O18 0.500000 0.278540 0.312227
O O19 0.662162 0.500000 0.329433
#
# Coordination Sequence:
#
# PCOD8179685 Si02
#       8
#     4   8   8   4   8   4   4   8
#     4  12  26  42  59  84 119 155 194 245 299 350
#     4  10  20  37  58  83 113 147 192 236 279 337
#     4   9  18  34  56  85 116 147 187 234 282 337
#     4  11  23  35  52  81 112 145 186 235 290 339
#     4  11  22  40  62  85 114 154 200 239 285 351
#     4  11  23  37  56  87 120 147 188 247 300 343
#     4  10  22  40  63  84 109 155 198 233 285 348
#     4   9  17  31  53  82 115 150 185 229 285 337
#
# _framework density 18.593374000000001
#
# number of rings (size 3 to 8) (size 9 to 14) (size 15 to 20)
#    0.000    1.833    1.667    2.750    0.000    6.667 
#    0.000    0.833    0.000    1.000    0.000    0.000 
#    0.000    0.000    0.000    0.000    0.000    0.000 
#
# Total GULP energy -297630.116419 kJ/mol
# GULP energy per Si atom -12401.254851 kJ/mol
# Density = 1.855105 g / cm^3
# Si number density = 18.593374 Si / 1000 Ang^3
#
#
#
# Elastic Constant Matrix: (Units=GPa)
#
#
# Indices 1 2 3 4 5 6 
#
# 1 141.9644 62.8497 73.9066 0.0000 0.0000 0.0000
# 2 62.8497 86.7901 69.6848 0.0000 0.0000 0.0000
# 3 73.9066 69.6848 152.7674 0.0000 0.0000 0.0000
# 4 0.0000 0.0000 0.0000 35.8769 0.0000 0.0000
# 5 0.0000 0.0000 0.0000 0.0000 30.4818 0.0000
# 6 0.0000 0.0000 0.0000 0.0000 0.0000 33.1584
#
#
#
# Elastic Compliance Matrix: (Units=1/GPa)
#
#
# Indices 1 2 3 4 5 6 
#
# 1 0.011016 -0.005836 -0.002668 0.000000 0.000000 0.000000
# 2 -0.005836 0.021272 -0.006880 0.000000 0.000000 0.000000
# 3 -0.002668 -0.006880 0.010975 0.000000 0.000000 0.000000
# 4 0.000000 0.000000 0.000000 0.027873 0.000000 0.000000
# 5 0.000000 0.000000 0.000000 0.000000 0.032806 0.000000
# 6 0.000000 0.000000 0.000000 0.000000 0.000000 0.030158
#
#
# Mechanical properties :
#
#
# Convention : Reuss Voigt Hill
#
# Bulk Modulus (GPa) = 80.02225 88.26713 84.14469
# Shear Modulus (GPa) = 29.58002 31.57550 30.57776
#
# Velocity S-wave (km/s) = 3.99292 4.12541 4.05971
# Velocity P-wave (km/s) = 8.02430 8.38257 8.20539
#
# Compressibility (1/GPa) = 0.01249652
#
# Stress axis : x y z
#
# Youngs Moduli (GPa) = 90.77453 47.00997 91.11833
#
# Poissons Ratio (x) = 0.27434 0.24306
# Poissons Ratio (y) = 0.52974 0.62690
# Poissons Ratio (z) = 0.24215 0.32343
#
# Static dielectric constant tensor:
#      x y z
#    x 3.396670 0.000000 0.000000 
#    y 0.000000 3.534970 0.000000 
#    z 0.000000 0.000000 3.654060 
# 
# 
# High freq. dielectric constant tensor:
#      x y z
#    x 1.707650 0.000000 0.000000 
#    y 0.000000 1.723890 0.000000 
#    z 0.000000 0.000000 1.737790 
# 
# From -- ./inp_files/24464.got.cif
#   From: 2010.03.12/outbox.cif.g09.slc.cpg/sg38_13_cif.got.tgz:24464.got - 2010.04.14 02:38:36.
