data_PCOD8179043
_publ_section_title
;
Structure prediction by ZEFSAII (Michael W. Deem and Ramdas Pophale) SiO2 
 PCOD8179043
Probable space group: A M M 2
;
_chemical_formula_sum "Si O2"
_cell_formula_units_Z 56
_cell_length_a 9.292184
_cell_length_b 20.109113
_cell_length_c 15.608758
_cell_angle_alpha 90.000000
_cell_angle_beta 90.000000
_cell_angle_gamma 90.000000
_cell_volume 2916.614717
_symmetry_space_group_name_H-M "A M M 2"
_symmetry_group_IT_number 38
_symmetry_cell_setting 'orthorhombic'
loop_
_space_group_symop_operation_xyz
x,y,z
-x,-y,z
-x,y,z
x,-y,z
x,1/2+y,1/2+z
-x,1/2-y,1/2+z
-x,1/2+y,1/2+z
x,1/2-y,1/2+z
loop_
_atom_site_type_symbol
_atom_site_label
_atom_site_fract_x
_atom_site_fract_y
_atom_site_fract_z
Si Si1 0.155533 0.426960 0.281390
Si Si2 0.168141 0.699525 0.875491
Si Si3 0.163089 0.311452 0.512253
Si Si4 0.332948 0.577842 0.437559
Si Si5 0.668293 0.383359 0.135485
Si Si6 0.162390 0.755948 0.688746
Si Si7 0.668537 0.576701 0.942733
O O1 0.124844 0.500000 0.315811
O O2 0.256719 0.392667 0.351946
O O3 0.240349 0.434137 0.192574
O O4 0.000000 0.389719 0.272934
O O5 0.218893 0.751219 0.950318
O O6 0.205715 0.726191 0.780826
O O7 0.247880 0.628384 0.882455
O O8 0.000000 0.685348 0.886430
O O9 0.263787 0.376621 0.510546
O O10 0.170735 0.296672 0.612736
O O11 0.000000 0.329190 0.484340
O O12 0.500000 0.592728 0.428592
O O13 0.305096 0.500000 0.456229
O O14 0.500000 0.391012 0.154501
O O15 0.722276 0.311474 0.164670
O O16 0.705283 0.401064 0.038790
O O17 0.000000 0.785028 0.693096
O O18 0.500000 0.583229 0.923954
O O19 0.718329 0.500000 0.927470
#
# Coordination Sequence:
#
# PCOD8179043 Si02
#       7
#     8   8   8   8   8   8   8
#     4  10  20  33  51  77 110 148 186 225 279 346
#     4  10  21  38  60  86 115 152 198 247 295 350
#     4  10  20  36  58  84 115 150 189 239 296 352
#     4  10  21  36  55  81 113 149 191 239 290 349
#     4  11  21  34  55  84 115 149 190 240 297 353
#     4  10  21  37  58  85 115 147 194 246 292 348
#     4  10  22  39  58  83 119 160 200 246 300 359
#
# _framework density 19.200343
#
# number of rings (size 3 to 8) (size 9 to 14) (size 15 to 20)
#    0.000    1.857    1.429    2.571    0.000    6.000 
#    0.000    0.714    0.000    4.286    0.000    0.000 
#    0.000    0.000    0.000    0.000    0.000    0.000 
#
# Total GULP energy -346974.433136 kJ/mol
# GULP energy per Si atom -12391.944041 kJ/mol
# Density = 1.915664 g / cm^3
# Si number density = 19.200343 Si / 1000 Ang^3
#
#
#
# Elastic Constant Matrix: (Units=GPa)
#
#
# Indices 1 2 3 4 5 6 
#
# 1 89.7406 52.3404 35.4275 0.0000 0.0000 0.0000
# 2 52.3404 111.5991 40.6232 0.0000 0.0000 0.0000
# 3 35.4275 40.6232 94.0594 0.0000 0.0000 0.0000
# 4 0.0000 0.0000 0.0000 24.4835 0.0000 0.0000
# 5 0.0000 0.0000 0.0000 0.0000 27.6055 0.0000
# 6 0.0000 0.0000 0.0000 0.0000 0.0000 20.0618
#
#
#
# Elastic Compliance Matrix: (Units=1/GPa)
#
#
# Indices 1 2 3 4 5 6 
#
# 1 0.016179 -0.006371 -0.003342 0.000000 0.000000 0.000000
# 2 -0.006371 0.013141 -0.003276 0.000000 0.000000 0.000000
# 3 -0.003342 -0.003276 0.013305 0.000000 0.000000 0.000000
# 4 0.000000 0.000000 0.000000 0.040844 0.000000 0.000000
# 5 0.000000 0.000000 0.000000 0.000000 0.036225 0.000000
# 6 0.000000 0.000000 0.000000 0.000000 0.000000 0.049846
#
#
# Mechanical properties :
#
#
# Convention : Reuss Voigt Hill
#
# Bulk Modulus (GPa) = 60.07171 61.35350 60.71260
# Shear Modulus (GPa) = 24.86741 25.56403 25.21572
#
# Velocity S-wave (km/s) = 3.60273 3.65284 3.62787
# Velocity P-wave (km/s) = 6.97574 7.05796 7.01697
#
# Compressibility (1/GPa) = 0.01664677
#
# Stress axis : x y z
#
# Youngs Moduli (GPa) = 61.81020 76.09630 75.15907
#
# Poissons Ratio (x) = 0.48483 0.25118
# Poissons Ratio (y) = 0.39381 0.24621
# Poissons Ratio (z) = 0.20657 0.24928
#
# Static dielectric constant tensor:
#      x y z
#    x 3.622940 0.000000 0.000000 
#    y 0.000000 3.465080 0.000000 
#    z 0.000000 0.000000 3.523530 
# 
# 
# High freq. dielectric constant tensor:
#      x y z
#    x 1.749940 0.000000 0.000000 
#    y 0.000000 1.744710 0.000000 
#    z 0.000000 0.000000 1.738720 
# 
# From -- ./inp_files/12348.got.cif
#   From: 2010.03.12/outbox.cif.g09.slc.cpg/sg38_7_cif.got.tgz:12348.got - 2010.04.14 02:38:36.
