data_PCOD8179078
_publ_section_title
;
Structure prediction by ZEFSAII (Michael W. Deem and Ramdas Pophale) SiO2 
 PCOD8179078
Probable space group: A M M 2
;
_chemical_formula_sum "Si O2"
_cell_formula_units_Z 40
_cell_length_a 7.772754
_cell_length_b 9.263616
_cell_length_c 29.025882
_cell_angle_alpha 90.000000
_cell_angle_beta 90.000000
_cell_angle_gamma 90.000000
_cell_volume 2089.974044
_symmetry_space_group_name_H-M "A M M 2"
_symmetry_group_IT_number 38
_symmetry_cell_setting 'orthorhombic'
loop_
_space_group_symop_operation_xyz
x,y,z
-x,-y,z
-x,y,z
x,-y,z
x,1/2+y,1/2+z
-x,1/2-y,1/2+z
-x,1/2+y,1/2+z
x,1/2-y,1/2+z
loop_
_atom_site_type_symbol
_atom_site_label
_atom_site_fract_x
_atom_site_fract_y
_atom_site_fract_z
Si Si1 0.809416 0.829298 0.739980
Si Si2 0.296469 0.336455 0.338683
Si Si3 0.500000 0.330805 0.581474
Si Si4 0.807445 0.664415 0.515433
Si Si5 0.298270 0.167255 0.427836
Si Si6 0.500000 0.327745 0.177442
O O1 0.780569 0.769539 0.791638
O O2 0.668333 0.768978 0.704388
O O3 0.000000 0.784622 0.722720
O O4 0.786634 0.000000 0.742720
O O5 0.500000 0.331529 0.334103
O O6 0.232049 0.500000 0.346914
O O7 0.230291 0.240111 0.380996
O O8 0.500000 0.500000 0.593162
O O9 0.329908 0.284573 0.553360
O O10 0.500000 0.239571 0.627451
O O11 0.765857 0.500000 0.500745
O O12 0.798928 0.763351 0.470642
O O13 0.000000 0.677652 0.536346
O O14 0.500000 0.194986 0.434161
O O15 0.251413 0.000000 0.425636
O O16 0.500000 0.500000 0.172970
#
# Coordination Sequence:
#
# PCOD8179078 Si02
#       6
#     8   8   4   8   8   4
#     4   9  17  31  53  80 107 137 178 223 262 307
#     4   9  16  29  51  76 105 144 186 222 257 307
#     4  10  22  40  59  80 107 137 172 223 277 324
#     4  10  21  38  60  82 105 140 185 225 265 320
#     4  10  20  33  52  81 116 149 180 219 269 321
#     4  10  20  36  57  80 105 135 174 221 271 322
#
# _framework density 19.138992999999999
#
# number of rings (size 3 to 8) (size 9 to 14) (size 15 to 20)
#    0.000    2.400    2.000    0.600    0.000    3.600 
#    0.000    3.000    0.000    1.200    0.000    0.000 
#    0.000    0.000    0.000    0.000    0.000    0.000 
#
# Total GULP energy -248004.161220 kJ/mol
# GULP energy per Si atom -12400.208061 kJ/mol
# Density = 1.909543 g / cm^3
# Si number density = 19.138993 Si / 1000 Ang^3
#
#
#
# Elastic Constant Matrix: (Units=GPa)
#
#
# Indices 1 2 3 4 5 6 
#
# 1 124.5163 35.6135 78.2655 0.0000 0.0000 0.0000
# 2 35.6135 61.0445 51.9100 0.0000 0.0000 0.0000
# 3 78.2655 51.9100 156.4638 0.0000 0.0000 0.0000
# 4 0.0000 0.0000 0.0000 33.7086 0.0000 0.0000
# 5 0.0000 0.0000 0.0000 0.0000 11.5609 0.0000
# 6 0.0000 0.0000 0.0000 0.0000 0.0000 14.1036
#
#
#
# Elastic Compliance Matrix: (Units=1/GPa)
#
#
# Indices 1 2 3 4 5 6 
#
# 1 0.012013 -0.002645 -0.005132 0.000000 0.000000 0.000000
# 2 -0.002645 0.023402 -0.006441 0.000000 0.000000 0.000000
# 3 -0.005132 -0.006441 0.011095 0.000000 0.000000 0.000000
# 4 0.000000 0.000000 0.000000 0.029666 0.000000 0.000000
# 5 0.000000 0.000000 0.000000 0.000000 0.086498 0.000000
# 6 0.000000 0.000000 0.000000 0.000000 0.000000 0.070904
#
#
# Mechanical properties :
#
#
# Convention : Reuss Voigt Hill
#
# Bulk Modulus (GPa) = 55.32491 74.84472 65.08481
# Shear Modulus (GPa) = 18.65410 23.62368 21.13889
#
# Velocity S-wave (km/s) = 3.12535 3.51710 3.32700
# Velocity P-wave (km/s) = 6.48023 7.46218 6.98847
#
# Compressibility (1/GPa) = 0.01807504
#
# Stress axis : x y z
#
# Youngs Moduli (GPa) = 83.24286 42.73205 90.12933
#
# Poissons Ratio (x) = 0.11301 0.46252
# Poissons Ratio (y) = 0.22015 0.58053
# Poissons Ratio (z) = 0.42718 0.27524
#
# Static dielectric constant tensor:
#      x y z
#    x 3.629140 0.000000 0.000000 
#    y 0.000000 3.233140 0.000000 
#    z 0.000000 0.000000 3.434820 
# 
# 
# High freq. dielectric constant tensor:
#      x y z
#    x 1.752700 0.000000 0.000000 
#    y 0.000000 1.711830 0.000000 
#    z 0.000000 0.000000 1.740350 
# 
# From -- ./inp_files/23188.got.cif
#   From: 2010.03.12/outbox.cif.g09.slc.cpg/sg38_12_cif.got.tgz:23188.got - 2010.04.14 02:38:36.
