data_PCOD8179724
_publ_section_title
;
Structure prediction by ZEFSAII (Michael W. Deem and Ramdas Pophale) SiO2 
 PCOD8179724
Probable space group: A M M 2
;
_chemical_formula_sum "Si O2"
_cell_formula_units_Z 56
_cell_length_a 16.346281
_cell_length_b 9.298989
_cell_length_c 19.071134
_cell_angle_alpha 90.000000
_cell_angle_beta 90.000000
_cell_angle_gamma 90.000000
_cell_volume 2898.886502
_symmetry_space_group_name_H-M "A M M 2"
_symmetry_group_IT_number 38
_symmetry_cell_setting 'orthorhombic'
loop_
_space_group_symop_operation_xyz
x,y,z
-x,-y,z
-x,y,z
x,-y,z
x,1/2+y,1/2+z
-x,1/2-y,1/2+z
-x,1/2+y,1/2+z
x,1/2-y,1/2+z
loop_
_atom_site_type_symbol
_atom_site_label
_atom_site_fract_x
_atom_site_fract_y
_atom_site_fract_z
Si Si1 0.593433 0.164749 0.735900
Si Si2 0.327587 0.833219 0.357611
Si Si3 0.855297 0.167001 0.334071
Si Si4 0.000000 0.827709 0.432185
Si Si5 0.593184 0.338388 0.478566
Si Si6 0.151015 0.829502 0.176471
Si Si7 0.673104 0.334934 0.623523
Si Si8 0.000000 0.328722 0.581256
O O1 0.500000 0.179004 0.760256
O O2 0.651704 0.252927 0.786486
O O3 0.605355 0.234715 0.659806
O O4 0.621321 0.000000 0.734335
O O5 0.231871 0.805486 0.370981
O O6 0.382795 0.774644 0.419836
O O7 0.347420 0.000000 0.347646
O O8 0.922378 0.229410 0.387483
O O9 0.859766 0.235313 0.255402
O O10 0.873457 0.000000 0.324509
O O11 0.000000 0.751326 0.507167
O O12 0.000000 0.000000 0.443274
O O13 0.500000 0.309050 0.503184
O O14 0.600336 0.500000 0.447644
O O15 0.657161 0.319049 0.541233
O O16 0.236429 0.777453 0.142474
O O17 0.078545 0.777050 0.125782
O O18 0.150790 0.000000 0.181194
O O19 0.661409 0.500000 0.647754
O O20 0.000000 0.500000 0.568749
#
# Coordination Sequence:
#
# PCOD8179724 Si02
#       8
#     8   8   8   4   8   8   8   4
#     4  11  23  38  57  84 117 149 186 238 293 341
#     4  11  22  37  59  85 112 148 197 240 280 340
#     4   9  18  35  59  85 110 143 189 233 275 329
#     4  10  21  37  59  85 117 152 182 224 280 336
#     4  10  22  38  55  80 116 155 192 235 291 344
#     4   9  17  34  59  86 113 143 187 234 275 327
#     4  10  20  37  61  85 112 151 196 236 280 340
#     4  10  21  35  59  91 117 146 184 228 276 334
#
# _framework density 19.317761999999998
#
# number of rings (size 3 to 8) (size 9 to 14) (size 15 to 20)
#    0.000    2.000    1.429    2.143    2.000    6.000 
#    0.000    1.429    0.000    0.857    0.000    0.000 
#    0.000    0.000    0.000    0.000    0.000    0.000 
#
# Total GULP energy -347190.058515 kJ/mol
# GULP energy per Si atom -12399.644947 kJ/mol
# Density = 1.927379 g / cm^3
# Si number density = 19.317762 Si / 1000 Ang^3
#
#
#
# Elastic Constant Matrix: (Units=GPa)
#
#
# Indices 1 2 3 4 5 6 
#
# 1 97.1790 35.5714 43.0931 0.0000 0.0000 0.0000
# 2 35.5714 76.0463 36.8105 0.0000 0.0000 0.0000
# 3 43.0931 36.8105 106.4514 0.0000 0.0000 0.0000
# 4 0.0000 0.0000 0.0000 33.7861 0.0000 0.0000
# 5 0.0000 0.0000 0.0000 0.0000 39.2488 0.0000
# 6 0.0000 0.0000 0.0000 0.0000 0.0000 18.7334
#
#
#
# Elastic Compliance Matrix: (Units=1/GPa)
#
#
# Indices 1 2 3 4 5 6 
#
# 1 0.013701 -0.004473 -0.004000 0.000000 0.000000 0.000000
# 2 -0.004473 0.017254 -0.004156 0.000000 0.000000 0.000000
# 3 -0.004000 -0.004156 0.012450 0.000000 0.000000 0.000000
# 4 0.000000 0.000000 0.000000 0.029598 0.000000 0.000000
# 5 0.000000 0.000000 0.000000 0.000000 0.025478 0.000000
# 6 0.000000 0.000000 0.000000 0.000000 0.000000 0.053381
#
#
# Mechanical properties :
#
#
# Convention : Reuss Voigt Hill
#
# Bulk Modulus (GPa) = 55.10057 56.73631 55.91844
# Shear Modulus (GPa) = 27.29737 29.30042 28.29890
#
# Velocity S-wave (km/s) = 3.76316 3.89879 3.83157
# Velocity P-wave (km/s) = 6.88963 7.04990 6.97023
#
# Compressibility (1/GPa) = 0.01814863
#
# Stress axis : x y z
#
# Youngs Moduli (GPa) = 72.98649 57.95889 80.32047
#
# Poissons Ratio (x) = 0.25924 0.32126
# Poissons Ratio (y) = 0.32645 0.33378
# Poissons Ratio (z) = 0.29193 0.24085
#
# Static dielectric constant tensor:
#      x y z
#    x 3.686440 0.000000 0.000000 
#    y 0.000000 3.265260 0.000000 
#    z 0.000000 0.000000 3.597190 
# 
# 
# High freq. dielectric constant tensor:
#      x y z
#    x 1.764260 0.000000 0.000000 
#    y 0.000000 1.718560 0.000000 
#    z 0.000000 0.000000 1.757730 
# 
# From -- ./inp_files/21147.got.cif
#   From: 2010.03.12/outbox.cif.g09.slc.cpg/sg38_11_cif.got.tgz:21147.got - 2010.04.14 02:38:36.
