data_PCOD8179947
_publ_section_title
;
Structure prediction by ZEFSAII (Michael W. Deem and Ramdas Pophale) SiO2 
 PCOD8179947
Probable space group: A M M 2
;
_chemical_formula_sum "Si O2"
_cell_formula_units_Z 64
_cell_length_a 13.709022
_cell_length_b 9.150109
_cell_length_c 26.175899
_cell_angle_alpha 90.000000
_cell_angle_beta 90.000000
_cell_angle_gamma 90.000000
_cell_volume 3283.479788
_symmetry_space_group_name_H-M "A M M 2"
_symmetry_group_IT_number 38
_symmetry_cell_setting 'orthorhombic'
loop_
_space_group_symop_operation_xyz
x,y,z
-x,-y,z
-x,y,z
x,-y,z
x,1/2+y,1/2+z
-x,1/2-y,1/2+z
-x,1/2+y,1/2+z
x,1/2-y,1/2+z
loop_
_atom_site_type_symbol
_atom_site_label
_atom_site_fract_x
_atom_site_fract_y
_atom_site_fract_z
Si Si1 0.886864 0.327450 0.701970
Si Si2 0.884364 0.666221 0.912775
Si Si3 0.200817 0.669092 0.106689
Si Si4 0.608269 0.669468 0.853494
Si Si5 0.884372 0.835304 0.011296
Si Si6 0.616076 0.335680 0.452889
Si Si7 0.802522 0.170055 0.307120
Si Si8 0.609494 0.166933 0.551260
O O1 0.868378 0.500000 0.697747
O O2 0.824993 0.248956 0.658758
O O3 0.849070 0.261872 0.756040
O O4 0.000000 0.288784 0.695495
O O5 0.845389 0.500000 0.918981
O O6 0.850030 0.735613 0.858722
O O7 0.000000 0.668832 0.914351
O O8 0.840974 0.762982 0.959382
O O9 0.170212 0.500000 0.109993
O O10 0.143080 0.740194 0.060118
O O11 0.317633 0.686769 0.098940
O O12 0.500000 0.727214 0.837843
O O13 0.603033 0.500000 0.867455
O O14 0.652398 0.748814 0.903227
O O15 0.685115 0.697877 0.807678
O O16 0.000000 0.838683 0.007753
O O17 0.842939 0.000000 0.016524
O O18 0.500000 0.328861 0.453625
O O19 0.655800 0.500000 0.450111
O O20 0.654029 0.262548 0.505053
O O21 0.828502 0.000000 0.306471
O O22 0.500000 0.217017 0.567323
O O23 0.607779 0.000000 0.532367
#
# Coordination Sequence:
#
# PCOD8179947 Si02
#       8
#     8   8   8   8   8   8   8   8
#     4  10  21  39  61  82 106 139 181 231 283 332
#     4   9  17  31  52  77 104 135 174 220 267 318
#     4  11  23  37  57  82 107 139 182 227 273 326
#     4   9  17  30  49  74 107 145 182 219 261 316
#     4  10  21  36  53  77 111 146 177 216 272 332
#     4   9  17  29  47  74 108 143 178 219 265 311
#     4   9  18  33  55  79 103 137 183 224 265 322
#     4   9  19  36  55  75 104 143 184 222 264 320
#
# _framework density 19.491517000000002
#
# number of rings (size 3 to 8) (size 9 to 14) (size 15 to 20)
#    0.000    2.500    0.000    1.875    1.750    6.500 
#    0.000    1.875    0.000    2.250    0.000    0.000 
#    0.000    0.000    0.000    0.000    0.000    0.000 
#
# Total GULP energy -396747.747989 kJ/mol
# GULP energy per Si atom -12398.367125 kJ/mol
# Density = 1.944715 g / cm^3
# Si number density = 19.491517 Si / 1000 Ang^3
#
#
#
# Elastic Constant Matrix: (Units=GPa)
#
#
# Indices 1 2 3 4 5 6 
#
# 1 56.1492 32.2420 44.6325 0.0000 0.0000 0.0000
# 2 32.2420 76.9445 50.7701 0.0000 0.0000 0.0000
# 3 44.6325 50.7701 143.1887 0.0000 0.0000 0.0000
# 4 0.0000 0.0000 0.0000 29.3885 0.0000 0.0000
# 5 0.0000 0.0000 0.0000 0.0000 32.2237 0.0000
# 6 0.0000 0.0000 0.0000 0.0000 0.0000 18.6120
#
#
#
# Elastic Compliance Matrix: (Units=1/GPa)
#
#
# Indices 1 2 3 4 5 6 
#
# 1 0.026550 -0.007395 -0.005654 0.000000 0.000000 0.000000
# 2 -0.007395 0.019025 -0.004441 0.000000 0.000000 0.000000
# 3 -0.005654 -0.004441 0.010321 0.000000 0.000000 0.000000
# 4 0.000000 0.000000 0.000000 0.034027 0.000000 0.000000
# 5 0.000000 0.000000 0.000000 0.000000 0.031033 0.000000
# 6 0.000000 0.000000 0.000000 0.000000 0.000000 0.053729
#
#
# Mechanical properties :
#
#
# Convention : Reuss Voigt Hill
#
# Bulk Modulus (GPa) = 47.80739 59.06354 53.43547
# Shear Modulus (GPa) = 23.08023 25.95402 24.51713
#
# Velocity S-wave (km/s) = 3.44483 3.65301 3.55045
# Velocity P-wave (km/s) = 6.35634 6.93978 6.65446
#
# Compressibility (1/GPa) = 0.02091727
#
# Stress axis : x y z
#
# Youngs Moduli (GPa) = 37.66468 52.56217 96.89308
#
# Poissons Ratio (x) = 0.38868 0.54782
# Poissons Ratio (y) = 0.27852 0.43028
# Poissons Ratio (z) = 0.21295 0.23341
#
# Static dielectric constant tensor:
#      x y z
#    x 3.708080 0.000000 0.000000 
#    y 0.000000 3.530740 0.000000 
#    z 0.000000 0.000000 3.516390 
# 
# 
# High freq. dielectric constant tensor:
#      x y z
#    x 1.774540 0.000000 0.000000 
#    y 0.000000 1.741180 0.000000 
#    z 0.000000 0.000000 1.740390 
# 
# From -- ./inp_files/22901.got.cif
#   From: 2010.03.12/outbox.cif.g09.slc.cpg/sg38_12_cif.got.tgz:22901.got - 2010.04.14 02:38:36.
