data_PCOD8179124
_publ_section_title
;
Structure prediction by ZEFSAII (Michael W. Deem and Ramdas Pophale) SiO2 
 PCOD8179124
Probable space group: A M M 2
;
_chemical_formula_sum "Si O2"
_cell_formula_units_Z 64
_cell_length_a 18.322802
_cell_length_b 9.094070
_cell_length_c 20.765793
_cell_angle_alpha 90.000000
_cell_angle_beta 90.000000
_cell_angle_gamma 90.000000
_cell_volume 3460.180082
_symmetry_space_group_name_H-M "A M M 2"
_symmetry_group_IT_number 38
_symmetry_cell_setting 'orthorhombic'
loop_
_space_group_symop_operation_xyz
x,y,z
-x,-y,z
-x,y,z
x,-y,z
x,1/2+y,1/2+z
-x,1/2-y,1/2+z
-x,1/2+y,1/2+z
x,1/2-y,1/2+z
loop_
_atom_site_type_symbol
_atom_site_label
_atom_site_fract_x
_atom_site_fract_y
_atom_site_fract_z
Si Si1 0.413297 0.832227 0.181360
Si Si2 0.081267 0.175070 0.185989
Si Si3 0.664671 0.174174 0.565218
Si Si4 0.819586 0.674626 0.569477
Si Si5 0.913189 0.662863 0.826265
Si Si6 0.413153 0.833591 0.807787
Si Si7 0.082511 0.172858 0.950226
Si Si8 0.415757 0.170917 0.434774
O O1 0.500000 0.825882 0.179149
O O2 0.383912 0.742959 0.121013
O O3 0.383238 0.758044 0.246861
O O4 0.385026 0.000000 0.179074
O O5 0.137372 0.230491 0.132404
O O6 0.110504 0.226971 0.256355
O O7 0.000000 0.238421 0.171726
O O8 0.076398 0.000000 0.185473
O O9 0.744756 0.239494 0.567636
O O10 0.629575 0.218608 0.497143
O O11 0.666501 0.000000 0.574611
O O12 0.805972 0.500000 0.570402
O O13 0.867071 0.724855 0.508500
O O14 0.880605 0.500000 0.836685
O O15 0.883931 0.763930 0.884003
O O16 0.000000 0.656811 0.826673
O O17 0.500000 0.829800 0.807362
O O18 0.384569 0.760832 0.873852
O O19 0.383627 0.000000 0.803483
O O20 0.000000 0.230614 0.962423
O O21 0.082285 0.000000 0.943828
O O22 0.500000 0.209637 0.448260
O O23 0.406202 0.000000 0.418662
#
# Coordination Sequence:
#
# PCOD8179124 Si02
#       8
#     8   8   8   8   8   8   8   8
#     4  10  20  35  57  82 106 134 170 211 254 304
#     4   8  14  28  52  77  97 124 167 212 251 297
#     4  11  23  37  52  73 105 142 177 215 258 304
#     4  10  20  34  51  71  98 133 172 213 254 299
#     4   8  14  26  47  74  99 122 154 200 250 300
#     4   9  17  30  52  82 110 132 160 205 257 305
#     4   9  17  30  50  75 100 127 161 203 252 304
#     4   9  18  34  55  76  99 131 171 212 254 302
#
# _framework density 18.496148000000002
#
# number of rings (size 3 to 8) (size 9 to 14) (size 15 to 20)
#    0.000    2.750    0.000    2.625    0.000    5.750 
#    0.000    3.125    0.000    6.375    0.000    0.000 
#    0.000    0.000    0.000    0.000    0.000    0.000 
#
# Total GULP energy -396733.661505 kJ/mol
# GULP energy per Si atom -12397.926922 kJ/mol
# Density = 1.845405 g / cm^3
# Si number density = 18.496148 Si / 1000 Ang^3
#
#
#
# Elastic Constant Matrix: (Units=GPa)
#
#
# Indices 1 2 3 4 5 6 
#
# 1 39.4928 23.4491 33.1864 0.0000 0.0000 0.0000
# 2 23.4491 64.8626 55.1855 0.0000 0.0000 0.0000
# 3 33.1864 55.1855 163.5635 0.0000 0.0000 0.0000
# 4 0.0000 0.0000 0.0000 35.8693 0.0000 0.0000
# 5 0.0000 0.0000 0.0000 0.0000 2.0518 0.0000
# 6 0.0000 0.0000 0.0000 0.0000 0.0000 22.9521
#
#
#
# Elastic Compliance Matrix: (Units=1/GPa)
#
#
# Indices 1 2 3 4 5 6 
#
# 1 0.033883 -0.008977 -0.003846 0.000000 0.000000 0.000000
# 2 -0.008977 0.024003 -0.006277 0.000000 0.000000 0.000000
# 3 -0.003846 -0.006277 0.009012 0.000000 0.000000 0.000000
# 4 0.000000 0.000000 0.000000 0.027879 0.000000 0.000000
# 5 0.000000 0.000000 0.000000 0.000000 0.487380 0.000000
# 6 0.000000 0.000000 0.000000 0.000000 0.000000 0.043569
#
#
# Mechanical properties :
#
#
# Convention : Reuss Voigt Hill
#
# Bulk Modulus (GPa) = 34.84584 54.61786 44.73185
# Shear Modulus (GPa) = 7.42398 22.58116 15.00257
#
# Velocity S-wave (km/s) = 2.00562 3.49787 2.85110
# Velocity P-wave (km/s) = 4.92379 6.77546 5.92244
#
# Compressibility (1/GPa) = 0.02869783
#
# Stress axis : x y z
#
# Youngs Moduli (GPa) = 29.51314 41.66086 110.96303
#
# Poissons Ratio (x) = 0.37401 0.42675
# Poissons Ratio (y) = 0.26495 0.69653
# Poissons Ratio (z) = 0.11350 0.26151
#
# Static dielectric constant tensor:
#      x y z
#    x 3.119180 0.000000 0.000000 
#    y 0.000000 3.346330 0.000000 
#    z 0.000000 0.000000 3.812230 
# 
# 
# High freq. dielectric constant tensor:
#      x y z
#    x 1.683750 0.000000 0.000000 
#    y 0.000000 1.703860 0.000000 
#    z 0.000000 0.000000 1.738250 
# 
# From -- ./inp_files/23082.got.cif
#   From: 2010.03.12/outbox.cif.g09.slc.cpg/sg38_12_cif.got.tgz:23082.got - 2010.04.14 02:38:36.
