data_PCOD8179177
_publ_section_title
;
Structure prediction by ZEFSAII (Michael W. Deem and Ramdas Pophale) SiO2 
 PCOD8179177
Probable space group: A M M 2
;
_chemical_formula_sum "Si O2"
_cell_formula_units_Z 56
_cell_length_a 21.389479
_cell_length_b 9.227272
_cell_length_c 15.325100
_cell_angle_alpha 90.000000
_cell_angle_beta 90.000000
_cell_angle_gamma 90.000000
_cell_volume 3024.661972
_symmetry_space_group_name_H-M "A M M 2"
_symmetry_group_IT_number 38
_symmetry_cell_setting 'orthorhombic'
loop_
_space_group_symop_operation_xyz
x,y,z
-x,-y,z
-x,y,z
x,-y,z
x,1/2+y,1/2+z
-x,1/2-y,1/2+z
-x,1/2+y,1/2+z
x,1/2-y,1/2+z
loop_
_atom_site_type_symbol
_atom_site_label
_atom_site_fract_x
_atom_site_fract_y
_atom_site_fract_z
Si Si1 0.850052 0.328081 0.500000
Si Si2 0.378545 0.666760 0.646520
Si Si3 0.500000 0.171703 0.599320
Si Si4 0.707967 0.670722 0.486932
Si Si5 0.930915 0.828044 0.840347
Si Si6 0.072685 0.831683 0.644729
Si Si7 0.500000 0.828901 0.400575
Si Si8 0.366571 0.332700 0.841832
O O1 0.855312 0.500000 0.506298
O O2 0.778616 0.275805 0.500193
O O3 0.881945 0.268327 0.411250
O O4 0.884515 0.262939 0.582742
O O5 0.398552 0.500000 0.631948
O O6 0.439315 0.766122 0.646208
O O7 0.330474 0.719021 0.572449
O O8 0.346320 0.685798 0.741096
O O9 0.500000 0.225686 0.499780
O O10 0.500000 0.000000 0.607509
O O11 0.704845 0.500000 0.472554
O O12 0.681263 0.744209 0.400558
O O13 0.910929 0.780495 0.743131
O O14 0.000000 0.766142 0.862544
O O15 0.933743 0.000000 0.843114
O O16 0.000000 0.802006 0.624526
O O17 0.088573 0.000000 0.631208
O O18 0.437189 0.770378 0.354144
O O19 0.500000 0.000000 0.394681
O O20 0.363872 0.500000 0.871354
#
# Coordination Sequence:
#
# PCOD8179177 Si02
#       8
#     8   8   4   8   8   8   4   8
#     4  10  20  34  53  76 106 142 178 213 257 313
#     4  10  21  37  56  77 106 142 174 211 270 325
#     4  11  20  33  57  84 105 127 170 226 265 306
#     4  10  22  37  51  76 110 140 175 221 261 302
#     4   8  15  30  52  75 100 134 172 208 254 311
#     4   9  18  33  53  78 105 132 170 219 263 307
#     4   9  17  31  53  78  99 121 164 220 257 296
#     4  10  20  37  58  76 100 139 179 212 256 319
#
# _framework density 18.514465999999999
#
# number of rings (size 3 to 8) (size 9 to 14) (size 15 to 20)
#    0.000    2.429    1.429    1.929    0.000    4.286 
#    0.000    1.071    0.000    0.857    0.000    0.000 
#    0.000    0.000    0.000    0.000    0.000    0.000 
#
# Total GULP energy -347196.038463 kJ/mol
# GULP energy per Si atom -12399.858517 kJ/mol
# Density = 1.847233 g / cm^3
# Si number density = 18.514466 Si / 1000 Ang^3
#
#
#
# Elastic Constant Matrix: (Units=GPa)
#
#
# Indices 1 2 3 4 5 6 
#
# 1 136.4393 37.6251 75.9712 0.0000 0.0000 0.0000
# 2 37.6251 33.2405 35.0319 0.0000 0.0000 0.0000
# 3 75.9712 35.0319 134.3416 0.0000 0.0000 0.0000
# 4 0.0000 0.0000 0.0000 27.9517 0.0000 0.0000
# 5 0.0000 0.0000 0.0000 0.0000 12.7133 0.0000
# 6 0.0000 0.0000 0.0000 0.0000 0.0000 17.8036
#
#
#
# Elastic Compliance Matrix: (Units=1/GPa)
#
#
# Indices 1 2 3 4 5 6 
#
# 1 0.012451 -0.009202 -0.004642 0.000000 0.000000 0.000000
# 2 -0.009202 0.048285 -0.007387 0.000000 0.000000 0.000000
# 3 -0.004642 -0.007387 0.011995 0.000000 0.000000 0.000000
# 4 0.000000 0.000000 0.000000 0.035776 0.000000 0.000000
# 5 0.000000 0.000000 0.000000 0.000000 0.078658 0.000000
# 6 0.000000 0.000000 0.000000 0.000000 0.000000 0.056169
#
#
# Mechanical properties :
#
#
# Convention : Reuss Voigt Hill
#
# Bulk Modulus (GPa) = 33.03683 66.80864 49.92273
# Shear Modulus (GPa) = 16.89841 22.05326 19.47584
#
# Velocity S-wave (km/s) = 3.02439 3.45503 3.24686
# Velocity P-wave (km/s) = 5.48438 7.21659 6.40928
#
# Compressibility (1/GPa) = 0.03026925
#
# Stress axis : x y z
#
# Youngs Moduli (GPa) = 80.31193 20.71039 83.36735
#
# Poissons Ratio (x) = 0.19057 0.38698
# Poissons Ratio (y) = 0.73902 0.61587
# Poissons Ratio (z) = 0.37280 0.15300
#
# Static dielectric constant tensor:
#      x y z
#    x 3.605780 0.000000 0.000000 
#    y 0.000000 3.090220 0.000000 
#    z 0.000000 0.000000 3.565260 
# 
# 
# High freq. dielectric constant tensor:
#      x y z
#    x 1.715760 0.000000 0.000000 
#    y 0.000000 1.688700 0.000000 
#    z 0.000000 0.000000 1.732100 
# 
# From -- ./inp_files/15591.got.cif
#   From: 2010.03.12/outbox.cif.g09.slc.cpg/sg38_8_cif.got.tgz:15591.got - 2010.04.14 02:38:36.
