data_PCOD8179577
_publ_section_title
;
Structure prediction by ZEFSAII (Michael W. Deem and Ramdas Pophale) SiO2 
 PCOD8179577
Probable space group: A M M 2
;
_chemical_formula_sum "Si O2"
_cell_formula_units_Z 64
_cell_length_a 14.469064
_cell_length_b 9.122921
_cell_length_c 24.820094
_cell_angle_alpha 90.000000
_cell_angle_beta 90.000000
_cell_angle_gamma 90.000000
_cell_volume 3276.255580
_symmetry_space_group_name_H-M "A M M 2"
_symmetry_group_IT_number 38
_symmetry_cell_setting 'orthorhombic'
loop_
_space_group_symop_operation_xyz
x,y,z
-x,-y,z
-x,y,z
x,-y,z
x,1/2+y,1/2+z
-x,1/2-y,1/2+z
-x,1/2+y,1/2+z
x,1/2-y,1/2+z
loop_
_atom_site_type_symbol
_atom_site_label
_atom_site_fract_x
_atom_site_fract_y
_atom_site_fract_z
Si Si1 0.395601 0.328761 0.390200
Si Si2 0.204727 0.672892 0.629188
Si Si3 0.362627 0.335381 0.269476
Si Si4 0.891885 0.826908 0.020492
Si Si5 0.101383 0.831987 0.843751
Si Si6 0.156963 0.162628 0.731286
Si Si7 0.779312 0.826059 0.426422
Si Si8 0.400647 0.170353 0.165200
O O1 0.500000 0.300233 0.411042
O O2 0.369662 0.500000 0.394357
O O3 0.387723 0.273986 0.328471
O O4 0.325031 0.237468 0.427777
O O5 0.200863 0.500000 0.630109
O O6 0.155269 0.730378 0.575576
O O7 0.147947 0.728236 0.681097
O O8 0.311767 0.732155 0.631990
O O9 0.401175 0.500000 0.264001
O O10 0.254147 0.328964 0.261351
O O11 0.411010 0.239016 0.224074
O O12 0.000000 0.786424 0.021610
O O13 0.877499 0.000000 0.012125
O O14 0.840947 0.741423 0.973470
O O15 0.088302 0.796309 0.780017
O O16 0.173235 0.720566 0.870403
O O17 0.000000 0.813350 0.870512
O O18 0.136568 0.000000 0.851509
O O19 0.137624 0.000000 0.708495
O O20 0.776044 0.000000 0.431891
O O21 0.500000 0.198936 0.135214
O O22 0.383407 0.000000 0.173882
#
# Coordination Sequence:
#
# PCOD8179577 Si02
#       8
#     8   8   8   8   8   8   8   8
#     4  10  20  36  59  84 113 153 197 234 274 335
#     4   9  19  35  55  80 109 142 186 236 286 340
#     4   9  16  29  50  76 109 148 189 227 261 315
#     4  10  22  42  65  83 104 144 196 246 295 350
#     4  10  20  36  58  82 112 152 193 232 282 349
#     4   9  17  31  52  80 115 150 182 225 280 336
#     4  12  25  39  58  84 117 148 184 242 298 343
#     4   9  17  29  47  75 112 148 180 220 273 332
#
# _framework density 19.534495
#
# number of rings (size 3 to 8) (size 9 to 14) (size 15 to 20)
#    0.000    2.250    1.250    1.875    0.000    5.000 
#    0.000    0.625    0.000    2.250    0.000    0.000 
#    0.000    0.000    0.000    0.000    0.000    0.000 
#
# Total GULP energy -396626.404059 kJ/mol
# GULP energy per Si atom -12394.575127 kJ/mol
# Density = 1.949003 g / cm^3
# Si number density = 19.534495 Si / 1000 Ang^3
#
#
#
# Elastic Constant Matrix: (Units=GPa)
#
#
# Indices 1 2 3 4 5 6 
#
# 1 129.9107 49.3915 56.0033 0.0000 0.0000 0.0000
# 2 49.3915 58.2406 39.9890 0.0000 0.0000 0.0000
# 3 56.0033 39.9890 98.1289 0.0000 0.0000 0.0000
# 4 0.0000 0.0000 0.0000 29.5895 0.0000 0.0000
# 5 0.0000 0.0000 0.0000 0.0000 20.6579 0.0000
# 6 0.0000 0.0000 0.0000 0.0000 0.0000 16.9282
#
#
#
# Elastic Compliance Matrix: (Units=1/GPa)
#
#
# Indices 1 2 3 4 5 6 
#
# 1 0.012328 -0.007809 -0.003853 0.000000 0.000000 0.000000
# 2 -0.007809 0.028787 -0.007275 0.000000 0.000000 0.000000
# 3 -0.003853 -0.007275 0.015354 0.000000 0.000000 0.000000
# 4 0.000000 0.000000 0.000000 0.033796 0.000000 0.000000
# 5 0.000000 0.000000 0.000000 0.000000 0.048408 0.000000
# 6 0.000000 0.000000 0.000000 0.000000 0.000000 0.059073
#
#
# Mechanical properties :
#
#
# Convention : Reuss Voigt Hill
#
# Bulk Modulus (GPa) = 53.77579 64.11642 58.94610
# Shear Modulus (GPa) = 20.67671 22.82823 21.75247
#
# Velocity S-wave (km/s) = 3.25695 3.42220 3.34060
# Velocity P-wave (km/s) = 6.46003 6.96482 6.71717
#
# Compressibility (1/GPa) = 0.01859573
#
# Stress axis : x y z
#
# Youngs Moduli (GPa) = 81.11896 34.73739 65.12811
#
# Poissons Ratio (x) = 0.27126 0.25096
# Poissons Ratio (y) = 0.63344 0.47379
# Poissons Ratio (z) = 0.31258 0.25271
#
# Static dielectric constant tensor:
#      x y z
#    x 3.901300 0.000000 0.000000 
#    y 0.000000 3.404350 0.000000 
#    z 0.000000 0.000000 3.478320 
# 
# 
# High freq. dielectric constant tensor:
#      x y z
#    x 1.778230 0.000000 0.000000 
#    y 0.000000 1.738010 0.000000 
#    z 0.000000 0.000000 1.738430 
# 
# From -- ./inp_files/22890.got.cif
#   From: 2010.03.12/outbox.cif.g09.slc.cpg/sg38_12_cif.got.tgz:22890.got - 2010.04.14 02:38:36.
