data_PCOD8179804
_publ_section_title
;
Structure prediction by ZEFSAII (Michael W. Deem and Ramdas Pophale) SiO2 
 PCOD8179804
Probable space group: A M M 2
;
_chemical_formula_sum "Si O2"
_cell_formula_units_Z 64
_cell_length_a 15.321501
_cell_length_b 24.107004
_cell_length_c 8.693500
_cell_angle_alpha 90.000000
_cell_angle_beta 90.000000
_cell_angle_gamma 90.000000
_cell_volume 3210.991917
_symmetry_space_group_name_H-M "A M M 2"
_symmetry_group_IT_number 38
_symmetry_cell_setting 'orthorhombic'
loop_
_space_group_symop_operation_xyz
x,y,z
-x,-y,z
-x,y,z
x,-y,z
x,1/2+y,1/2+z
-x,1/2-y,1/2+z
-x,1/2+y,1/2+z
x,1/2-y,1/2+z
loop_
_atom_site_type_symbol
_atom_site_label
_atom_site_fract_x
_atom_site_fract_y
_atom_site_fract_z
Si Si1 0.098458 0.714356 0.587810
Si Si2 0.400944 0.562117 0.843032
Si Si3 0.902353 0.116644 0.321546
Si Si4 0.597725 0.787627 0.072560
Si Si5 0.755770 0.842130 0.903065
Si Si6 0.758361 0.438317 0.627319
Si Si7 0.817082 0.172182 0.577683
Si Si8 0.644214 0.319899 0.920517
O O1 0.105246 0.676138 0.738133
O O2 0.162350 0.694643 0.453844
O O3 0.127205 0.775757 0.635945
O O4 0.000000 0.714688 0.522065
O O5 0.500000 0.563871 0.782001
O O6 0.382951 0.500000 0.917550
O O7 0.336921 0.571292 0.699719
O O8 0.385756 0.615863 0.953270
O O9 0.833582 0.073766 0.251692
O O10 0.881364 0.126429 0.502398
O O11 0.000000 0.092098 0.305040
O O12 0.500000 0.810808 0.045953
O O13 0.626248 0.800809 0.245938
O O14 0.663899 0.814987 0.950974
O O15 0.596396 0.721206 0.040714
O O16 0.761230 0.851216 0.720483
O O17 0.766732 0.902127 0.976400
O O18 0.770717 0.500000 0.568285
O O19 0.747778 0.186549 0.443124
#
# Coordination Sequence:
#
# PCOD8179804 Si02
#       8
#     8   8   8   8   8   8   8   8
#     4  10  21  38  61  86 119 161 204 250 304 369
#     4  10  20  38  66  91 115 155 210 264 308 360
#     4  10  21  38  60  88 120 162 208 252 307 369
#     4  12  24  39  59  86 128 171 207 253 309 375
#     4  11  23  38  60  90 127 161 205 253 315 379
#     4  10  21  41  65  89 116 156 211 265 313 367
#     4  12  22  35  57  89 128 162 197 250 308 375
#     4  12  23  39  60  92 128 165 207 256 311 376
#
# _framework density 19.931533999999999
#
# number of rings (size 3 to 8) (size 9 to 14) (size 15 to 20)
#    0.000    1.125    3.750    3.750    0.000    2.250 
#    0.000    2.500    0.000    0.000    0.000    1.750 
#    0.000    0.000    0.000    0.000    0.000    0.000 
#
# Total GULP energy -396678.420170 kJ/mol
# GULP energy per Si atom -12396.200630 kJ/mol
# Density = 1.988617 g / cm^3
# Si number density = 19.931534 Si / 1000 Ang^3
#
#
#
# Elastic Constant Matrix: (Units=GPa)
#
#
# Indices 1 2 3 4 5 6 
#
# 1 152.4331 29.6503 46.5295 0.0000 0.0000 0.0000
# 2 29.6503 116.7782 38.9882 0.0000 0.0000 0.0000
# 3 46.5295 38.9882 81.6731 0.0000 0.0000 0.0000
# 4 0.0000 0.0000 0.0000 14.0060 0.0000 0.0000
# 5 0.0000 0.0000 0.0000 0.0000 13.5692 0.0000
# 6 0.0000 0.0000 0.0000 0.0000 0.0000 21.8377
#
#
#
# Elastic Compliance Matrix: (Units=1/GPa)
#
#
# Indices 1 2 3 4 5 6 
#
# 1 0.007977 -0.000604 -0.004256 0.000000 0.000000 0.000000
# 2 -0.000604 0.010233 -0.004540 0.000000 0.000000 0.000000
# 3 -0.004256 -0.004540 0.016836 0.000000 0.000000 0.000000
# 4 0.000000 0.000000 0.000000 0.071398 0.000000 0.000000
# 5 0.000000 0.000000 0.000000 0.000000 0.073696 0.000000
# 6 0.000000 0.000000 0.000000 0.000000 0.000000 0.045792
#
#
# Mechanical properties :
#
#
# Convention : Reuss Voigt Hill
#
# Bulk Modulus (GPa) = 61.56124 64.58007 63.07066
# Shear Modulus (GPa) = 19.98815 25.59701 22.79258
#
# Velocity S-wave (km/s) = 3.17020 3.58753 3.38530
# Velocity P-wave (km/s) = 6.65985 7.04498 6.85512
#
# Compressibility (1/GPa) = 0.01624399
#
# Stress axis : x y z
#
# Youngs Moduli (GPa) = 125.36137 97.72702 59.39655
#
# Poissons Ratio (x) = 0.05907 0.25279
# Poissons Ratio (y) = 0.07578 0.26968
# Poissons Ratio (z) = 0.53353 0.44372
#
# Static dielectric constant tensor:
#      x y z
#    x 3.902500 0.000000 0.000000 
#    y 0.000000 3.774620 0.000000 
#    z 0.000000 0.000000 3.336670 
# 
# 
# High freq. dielectric constant tensor:
#      x y z
#    x 1.797930 0.000000 0.000000 
#    y 0.000000 1.767180 0.000000 
#    z 0.000000 0.000000 1.748870 
# 
# From -- ./inp_files/5908.got.cif
#   From: 2010.03.12/outbox.cif.g09.slc.cpg/sg38_3_cif.got.tgz:5908.got - 2010.04.14 02:38:36.
