data_PCOD8179689
_publ_section_title
;
Structure prediction by ZEFSAII (Michael W. Deem and Ramdas Pophale) SiO2 
 PCOD8179689
Probable space group: A M M 2
;
_chemical_formula_sum "Si O2"
_cell_formula_units_Z 40
_cell_length_a 8.939227
_cell_length_b 25.697900
_cell_length_c 9.351717
_cell_angle_alpha 90.000000
_cell_angle_beta 90.000000
_cell_angle_gamma 90.000000
_cell_volume 2148.270458
_symmetry_space_group_name_H-M "A M M 2"
_symmetry_group_IT_number 38
_symmetry_cell_setting 'orthorhombic'
loop_
_space_group_symop_operation_xyz
x,y,z
-x,-y,z
-x,y,z
x,-y,z
x,1/2+y,1/2+z
-x,1/2-y,1/2+z
-x,1/2+y,1/2+z
x,1/2-y,1/2+z
loop_
_atom_site_type_symbol
_atom_site_label
_atom_site_fract_x
_atom_site_fract_y
_atom_site_fract_z
Si Si1 0.677693 0.500000 0.582051
Si Si2 0.672341 0.298276 0.082874
Si Si3 0.824765 0.596558 0.081499
Si Si4 0.823317 0.407689 0.754908
Si Si5 0.673973 0.698513 0.751072
Si Si6 0.176914 0.000000 0.774804
O O1 0.500000 0.500000 0.587293
O O2 0.739085 0.449210 0.659304
O O3 0.731769 0.500000 0.419769
O O4 0.500000 0.305497 0.121198
O O5 0.752866 0.350200 0.138272
O O6 0.736088 0.247970 0.164393
O O7 0.700558 0.289141 0.916405
O O8 0.773618 0.550194 0.184157
O O9 0.000000 0.604645 0.084913
O O10 0.774092 0.583590 0.919551
O O11 0.771464 0.350873 0.702779
O O12 0.000000 0.414082 0.733658
O O13 0.500000 0.687288 0.717490
O O14 0.000000 0.000000 0.805842
#
# Coordination Sequence:
#
# PCOD8179689 Si02
#       6
#     4   8   8   8   8   4
#     4  12  25  38  54  80 110 140 175 218 266 320
#     4   9  18  32  51  75 107 142 177 217 261 308
#     4   9  19  36  58  80 105 139 181 222 264 316
#     4  10  20  37  59  81 106 140 179 220 264 315
#     4   9  18  33  51  75 106 141 178 217 260 309
#     4  10  21  38  56  78 108 140 175 222 272 316
#
# _framework density 18.619630000000001
#
# number of rings (size 3 to 8) (size 9 to 14) (size 15 to 20)
#    0.000    2.400    0.000    2.100    0.000    5.600 
#    0.000    3.000    0.000    0.000    0.000    0.000 
#    0.000    0.000    0.000    0.000    0.000    0.000 
#
# Total GULP energy -248052.643349 kJ/mol
# GULP energy per Si atom -12402.632167 kJ/mol
# Density = 1.857725 g / cm^3
# Si number density = 18.619630 Si / 1000 Ang^3
#
#
#
# Elastic Constant Matrix: (Units=GPa)
#
#
# Indices 1 2 3 4 5 6 
#
# 1 67.5578 65.7232 50.7742 0.0000 0.0000 0.0000
# 2 65.7232 187.9219 94.8943 0.0000 0.0000 0.0000
# 3 50.7742 94.8943 97.0959 0.0000 0.0000 0.0000
# 4 0.0000 0.0000 0.0000 39.4270 0.0000 0.0000
# 5 0.0000 0.0000 0.0000 0.0000 24.9293 0.0000
# 6 0.0000 0.0000 0.0000 0.0000 0.0000 36.8150
#
#
#
# Elastic Compliance Matrix: (Units=1/GPa)
#
#
# Indices 1 2 3 4 5 6 
#
# 1 0.026121 -0.004419 -0.009341 0.000000 0.000000 0.000000
# 2 -0.004419 0.011254 -0.008688 0.000000 0.000000 0.000000
# 3 -0.009341 -0.008688 0.023675 0.000000 0.000000 0.000000
# 4 0.000000 0.000000 0.000000 0.025363 0.000000 0.000000
# 5 0.000000 0.000000 0.000000 0.000000 0.040113 0.000000
# 6 0.000000 0.000000 0.000000 0.000000 0.000000 0.027163
#
#
# Mechanical properties :
#
#
# Convention : Reuss Voigt Hill
#
# Bulk Modulus (GPa) = 61.90260 86.15101 74.02681
# Shear Modulus (GPa) = 24.51337 29.64652 27.07994
#
# Velocity S-wave (km/s) = 3.63234 3.99459 3.81777
# Velocity P-wave (km/s) = 7.13512 8.22466 7.69919
#
# Compressibility (1/GPa) = 0.01615441
#
# Stress axis : x y z
#
# Youngs Moduli (GPa) = 38.28297 88.85793 42.23874
#
# Poissons Ratio (x) = 0.39263 0.39456
# Poissons Ratio (y) = 0.16916 0.36698
# Poissons Ratio (z) = 0.35761 0.77201
#
# Static dielectric constant tensor:
#      x y z
#    x 3.353420 0.000000 0.000000 
#    y 0.000000 3.678510 0.000000 
#    z 0.000000 0.000000 3.464840 
# 
# 
# High freq. dielectric constant tensor:
#      x y z
#    x 1.716310 0.000000 0.000000 
#    y 0.000000 1.737340 0.000000 
#    z 0.000000 0.000000 1.718060 
# 
# From -- ./inp_files/3504.got.cif
#   From: 2010.03.12/outbox.cif.g09.slc.cpg/sg38_2_cif.got.tgz:3504.got - 2010.04.14 02:38:36.
