data_PCOD8179894
_publ_section_title
;
Structure prediction by ZEFSAII (Michael W. Deem and Ramdas Pophale) SiO2 
 PCOD8179894
Probable space group: A M M 2
;
_chemical_formula_sum "Si O2"
_cell_formula_units_Z 64
_cell_length_a 20.236956
_cell_length_b 8.979229
_cell_length_c 18.617566
_cell_angle_alpha 90.000000
_cell_angle_beta 90.000000
_cell_angle_gamma 90.000000
_cell_volume 3383.040034
_symmetry_space_group_name_H-M "A M M 2"
_symmetry_group_IT_number 38
_symmetry_cell_setting 'orthorhombic'
loop_
_space_group_symop_operation_xyz
x,y,z
-x,-y,z
-x,y,z
x,-y,z
x,1/2+y,1/2+z
-x,1/2-y,1/2+z
-x,1/2+y,1/2+z
x,1/2-y,1/2+z
loop_
_atom_site_type_symbol
_atom_site_label
_atom_site_fract_x
_atom_site_fract_y
_atom_site_fract_z
Si Si1 0.689261 0.323585 0.899210
Si Si2 0.423841 0.172069 0.814560
Si Si3 0.076386 0.827767 0.898346
Si Si4 0.813982 0.676222 0.807518
Si Si5 0.923241 0.329684 0.562853
Si Si6 0.816718 0.175751 0.653732
Si Si7 0.427253 0.177312 0.652738
Si Si8 0.693353 0.177202 0.560560
O O1 0.687212 0.500000 0.900262
O O2 0.620436 0.266630 0.868191
O O3 0.751029 0.265930 0.852650
O O4 0.697408 0.260223 0.979847
O O5 0.500000 0.196462 0.836059
O O6 0.411043 0.230164 0.733617
O O7 0.403867 0.000000 0.821288
O O8 0.119185 0.724612 0.846843
O O9 0.000000 0.795390 0.881244
O O10 0.092990 0.000000 0.883592
O O11 0.092391 0.786444 0.980680
O O12 0.814163 0.500000 0.799672
O O13 0.809717 0.747955 0.729999
O O14 0.902392 0.500000 0.577486
O O15 0.884747 0.220854 0.615896
O O16 0.000000 0.307279 0.579339
O O17 0.756917 0.233383 0.604089
O O18 0.815206 0.000000 0.664853
O O19 0.500000 0.235882 0.629440
O O20 0.372540 0.242264 0.598584
O O21 0.427436 0.000000 0.652128
O O22 0.690982 0.000000 0.560529
#
# Coordination Sequence:
#
# PCOD8179894 Si02
#       8
#     8   8   8   8   8   8   8   8
#     4  10  21  35  52  77 107 137 172 217 268 321
#     4   9  18  33  53  77 105 138 176 215 257 311
#     4   9  19  37  60  84 109 140 180 221 263 320
#     4  11  23  37  53  77 111 146 181 224 273 322
#     4   9  19  37  59  82 110 141 172 213 267 324
#     4  11  22  36  56  79 105 140 182 226 269 319
#     4   8  14  27  49  74  99 130 168 208 249 297
#     4   9  18  32  50  75 104 132 169 217 264 310
#
# _framework density 18.917897
#
# number of rings (size 3 to 8) (size 9 to 14) (size 15 to 20)
#    0.000    2.500    0.000    3.750    0.000    5.250 
#    0.000    3.750    0.000    0.750    0.000    0.000 
#    0.000    0.000    0.000    0.000    0.000    0.000 
#
# Total GULP energy -396832.324006 kJ/mol
# GULP energy per Si atom -12401.010125 kJ/mol
# Density = 1.887484 g / cm^3
# Si number density = 18.917897 Si / 1000 Ang^3
#
#
#
# Elastic Constant Matrix: (Units=GPa)
#
#
# Indices 1 2 3 4 5 6 
#
# 1 118.6158 35.3470 85.4863 0.0000 0.0000 0.0000
# 2 35.3470 41.6956 41.7617 0.0000 0.0000 0.0000
# 3 85.4863 41.7617 158.4869 0.0000 0.0000 0.0000
# 4 0.0000 0.0000 0.0000 12.8621 0.0000 0.0000
# 5 0.0000 0.0000 0.0000 0.0000 40.4539 0.0000
# 6 0.0000 0.0000 0.0000 0.0000 0.0000 27.9075
#
#
#
# Elastic Compliance Matrix: (Units=1/GPa)
#
#
# Indices 1 2 3 4 5 6 
#
# 1 0.014892 -0.006221 -0.006393 0.000000 0.000000 0.000000
# 2 -0.006221 0.035181 -0.005915 0.000000 0.000000 0.000000
# 3 -0.006393 -0.005915 0.011317 0.000000 0.000000 0.000000
# 4 0.000000 0.000000 0.000000 0.077748 0.000000 0.000000
# 5 0.000000 0.000000 0.000000 0.000000 0.024719 0.000000
# 6 0.000000 0.000000 0.000000 0.000000 0.000000 0.035833
#
#
# Mechanical properties :
#
#
# Convention : Reuss Voigt Hill
#
# Bulk Modulus (GPa) = 41.09865 71.55427 56.32646
# Shear Modulus (GPa) = 20.41989 26.65827 23.53908
#
# Velocity S-wave (km/s) = 3.28898 3.75794 3.53126
# Velocity P-wave (km/s) = 6.01624 7.53228 6.81654
#
# Compressibility (1/GPa) = 0.02433170
#
# Stress axis : x y z
#
# Youngs Moduli (GPa) = 67.14935 28.42412 88.36442
#
# Poissons Ratio (x) = 0.17683 0.56495
# Poissons Ratio (y) = 0.41775 0.52266
# Poissons Ratio (z) = 0.42931 0.16812
#
# Static dielectric constant tensor:
#      x y z
#    x 3.615280 0.000000 0.000000 
#    y 0.000000 3.129080 0.000000 
#    z 0.000000 0.000000 3.579780 
# 
# 
# High freq. dielectric constant tensor:
#      x y z
#    x 1.747680 0.000000 0.000000 
#    y 0.000000 1.705120 0.000000 
#    z 0.000000 0.000000 1.741840 
# 
# From -- ./inp_files/18867.got.cif
#   From: 2010.03.12/outbox.cif.g09.slc.cpg/sg38_10_cif.got.tgz:18867.got - 2010.04.14 02:38:36.
