data_PCOD8179767
_publ_section_title
;
Structure prediction by ZEFSAII (Michael W. Deem and Ramdas Pophale) SiO2 
 PCOD8179767
Probable space group: A M M 2
;
_chemical_formula_sum "Si O2"
_cell_formula_units_Z 48
_cell_length_a 8.566766
_cell_length_b 27.393407
_cell_length_c 9.810312
_cell_angle_alpha 90.000000
_cell_angle_beta 90.000000
_cell_angle_gamma 90.000000
_cell_volume 2302.214443
_symmetry_space_group_name_H-M "A M M 2"
_symmetry_group_IT_number 38
_symmetry_cell_setting 'orthorhombic'
loop_
_space_group_symop_operation_xyz
x,y,z
-x,-y,z
-x,y,z
x,-y,z
x,1/2+y,1/2+z
-x,1/2-y,1/2+z
-x,1/2+y,1/2+z
x,1/2-y,1/2+z
loop_
_atom_site_type_symbol
_atom_site_label
_atom_site_fract_x
_atom_site_fract_y
_atom_site_fract_z
Si Si1 0.679184 0.108158 0.309640
Si Si2 0.818681 0.616831 0.293998
Si Si3 0.681397 0.785636 0.711346
Si Si4 0.821580 0.054342 0.537074
Si Si5 0.183354 0.443763 0.556873
Si Si6 0.818075 0.293117 0.910804
O O1 0.500000 0.124653 0.311065
O O2 0.708928 0.062251 0.408563
O O3 0.725756 0.091041 0.159991
O O4 0.786303 0.151548 0.366345
O O5 0.721618 0.666661 0.301186
O O6 0.773205 0.591792 0.153107
O O7 0.773875 0.578643 0.410860
O O8 0.000000 0.630649 0.301664
O O9 0.500000 0.784506 0.676330
O O10 0.723394 0.740036 0.805539
O O11 0.771692 0.783970 0.567741
O O12 0.000000 0.062277 0.490518
O O13 0.797288 0.000000 0.594001
O O14 0.241009 0.500000 0.562907
O O15 0.000000 0.441247 0.587500
O O16 0.000000 0.281425 0.896353
#
# Coordination Sequence:
#
# PCOD8179767 Si02
#       6
#     8   8   8   8   8   8
#     4  12  25  41  62  93 132 171 215 271 328 384
#     4  10  21  40  66  95 129 170 219 266 317 387
#     4  12  26  45  69 101 136 168 210 272 334 388
#     4  10  20  37  64  94 125 166 215 266 320 385
#     4  10  22  41  65  94 130 175 225 271 319 384
#     4  12  26  47  72  97 128 173 222 266 320 398
#
# _framework density 20.849489999999999
#
# number of rings (size 3 to 8) (size 9 to 14) (size 15 to 20)
#    0.000    1.000    1.667    5.500    2.333    5.333 
#    0.000    0.000    0.000    3.000    0.000    0.000 
#    0.000    0.000    0.000    0.000    0.000    0.000 
#
# Total GULP energy -297700.021321 kJ/mol
# GULP energy per Si atom -12404.167555 kJ/mol
# Density = 2.080204 g / cm^3
# Si number density = 20.849490 Si / 1000 Ang^3
#
#
#
# Elastic Constant Matrix: (Units=GPa)
#
#
# Indices 1 2 3 4 5 6 
#
# 1 76.4074 17.2364 25.8338 0.0000 0.0000 0.0000
# 2 17.2364 95.6733 33.7680 0.0000 0.0000 0.0000
# 3 25.8338 33.7680 96.4497 0.0000 0.0000 0.0000
# 4 0.0000 0.0000 0.0000 40.2260 0.0000 0.0000
# 5 0.0000 0.0000 0.0000 0.0000 20.4490 0.0000
# 6 0.0000 0.0000 0.0000 0.0000 0.0000 17.1819
#
#
#
# Elastic Compliance Matrix: (Units=1/GPa)
#
#
# Indices 1 2 3 4 5 6 
#
# 1 0.014559 -0.001422 -0.003402 0.000000 0.000000 0.000000
# 2 -0.001422 0.012065 -0.003843 0.000000 0.000000 0.000000
# 3 -0.003402 -0.003843 0.012625 0.000000 0.000000 0.000000
# 4 0.000000 0.000000 0.000000 0.024860 0.000000 0.000000
# 5 0.000000 0.000000 0.000000 0.000000 0.048902 0.000000
# 6 0.000000 0.000000 0.000000 0.000000 0.000000 0.058201
#
#
# Mechanical properties :
#
#
# Convention : Reuss Voigt Hill
#
# Bulk Modulus (GPa) = 45.63205 46.91186 46.27196
# Shear Modulus (GPa) = 25.52984 28.35087 26.94035
#
# Velocity S-wave (km/s) = 3.50306 3.69153 3.59853
# Velocity P-wave (km/s) = 6.18836 6.38114 6.28549
#
# Compressibility (1/GPa) = 0.02191442
#
# Stress axis : x y z
#
# Youngs Moduli (GPa) = 68.68761 82.88509 79.20987
#
# Poissons Ratio (x) = 0.11789 0.26944
# Poissons Ratio (y) = 0.09769 0.30441
# Poissons Ratio (z) = 0.23364 0.31853
#
# Static dielectric constant tensor:
#      x y z
#    x 3.687460 0.000000 0.000000 
#    y 0.000000 3.837740 0.000000 
#    z 0.000000 0.000000 3.809810 
# 
# 
# High freq. dielectric constant tensor:
#      x y z
#    x 1.807880 0.000000 0.000000 
#    y 0.000000 1.829560 0.000000 
#    z 0.000000 0.000000 1.826330 
# 
# From -- ./inp_files/3765.got.cif
#   From: 2010.03.12/outbox.cif.g09.slc.cpg/sg38_2_cif.got.tgz:3765.got - 2010.04.14 02:38:36.
