data_PCOD8179442
_publ_section_title
;
Structure prediction by ZEFSAII (Michael W. Deem and Ramdas Pophale) SiO2 
 PCOD8179442
Probable space group: A M M 2
;
_chemical_formula_sum "Si O2"
_cell_formula_units_Z 64
_cell_length_a 9.247642
_cell_length_b 17.530183
_cell_length_c 19.119767
_cell_angle_alpha 90.000000
_cell_angle_beta 90.000000
_cell_angle_gamma 90.000000
_cell_volume 3099.560045
_symmetry_space_group_name_H-M "A M M 2"
_symmetry_group_IT_number 38
_symmetry_cell_setting 'orthorhombic'
loop_
_space_group_symop_operation_xyz
x,y,z
-x,-y,z
-x,y,z
x,-y,z
x,1/2+y,1/2+z
-x,1/2-y,1/2+z
-x,1/2+y,1/2+z
x,1/2-y,1/2+z
loop_
_atom_site_type_symbol
_atom_site_label
_atom_site_fract_x
_atom_site_fract_y
_atom_site_fract_z
Si Si1 0.337275 0.182463 0.434020
Si Si2 0.170699 0.160679 0.696765
Si Si3 0.661837 0.085050 0.809141
Si Si4 0.841864 0.588710 0.570469
Si Si5 0.171266 0.306303 0.791204
Si Si6 0.329261 0.910820 0.567942
Si Si7 0.660154 0.350024 0.453276
Si Si8 0.338618 0.590376 0.697817
O O1 0.500000 0.164981 0.405927
O O2 0.228270 0.196046 0.370236
O O3 0.288772 0.117054 0.489046
O O4 0.336796 0.262064 0.476460
O O5 0.222667 0.092735 0.747190
O O6 0.219194 0.237953 0.738197
O O7 0.246855 0.145235 0.622172
O O8 0.000000 0.158197 0.685056
O O9 0.500000 0.100635 0.779618
O O10 0.698420 0.143723 0.871191
O O11 0.673435 0.000000 0.839803
O O12 0.859215 0.500000 0.584113
O O13 0.779562 0.602319 0.493962
O O14 0.732881 0.624094 0.627142
O O15 0.000000 0.627833 0.577569
O O16 0.239753 0.383972 0.761963
O O17 0.000000 0.311771 0.794177
O O18 0.500000 0.901671 0.580643
O O19 0.282733 0.000000 0.575759
O O20 0.500000 0.385015 0.466776
O O21 0.500000 0.624309 0.703810
O O22 0.343899 0.500000 0.697255
#
# Coordination Sequence:
#
# PCOD8179442 Si02
#       8
#     8   8   8   8   8   8   8   8
#     4  10  22  41  64  90 119 159 208 255 305 364
#     4  11  24  40  60  90 125 162 205 253 309 374
#     4  10  20  35  58  86 117 157 203 250 303 366
#     4  10  21  36  55  83 121 159 194 239 297 360
#     4  11  24  41  62  92 127 163 201 253 316 375
#     4  10  23  43  66  93 125 162 209 264 317 371
#     4  10  20  35  56  84 117 158 207 253 297 359
#     4  10  22  40  63  89 117 155 203 251 299 361
#
# _framework density 20.648092999999999
#
# number of rings (size 3 to 8) (size 9 to 14) (size 15 to 20)
#    0.000    1.750    1.250    2.250    1.750    7.500 
#    0.000    1.250    0.000    0.000    0.000    0.000 
#    0.000    0.000    0.000    0.000    0.000    0.000 
#
# Total GULP energy -396671.907919 kJ/mol
# GULP energy per Si atom -12395.997122 kJ/mol
# Density = 2.060110 g / cm^3
# Si number density = 20.648093 Si / 1000 Ang^3
#
#
#
# Elastic Constant Matrix: (Units=GPa)
#
#
# Indices 1 2 3 4 5 6 
#
# 1 120.3944 38.4140 71.3273 0.0000 0.0000 0.0000
# 2 38.4140 48.1451 41.7715 0.0000 0.0000 0.0000
# 3 71.3273 41.7715 114.7745 0.0000 0.0000 0.0000
# 4 0.0000 0.0000 0.0000 35.0926 0.0000 0.0000
# 5 0.0000 0.0000 0.0000 0.0000 29.9554 0.0000
# 6 0.0000 0.0000 0.0000 0.0000 0.0000 25.4577
#
#
#
# Elastic Compliance Matrix: (Units=1/GPa)
#
#
# Indices 1 2 3 4 5 6 
#
# 1 0.014014 -0.005298 -0.006781 0.000000 0.000000 0.000000
# 2 -0.005298 0.032359 -0.008484 0.000000 0.000000 0.000000
# 3 -0.006781 -0.008484 0.016014 0.000000 0.000000 0.000000
# 4 0.000000 0.000000 0.000000 0.028496 0.000000 0.000000
# 5 0.000000 0.000000 0.000000 0.000000 0.033383 0.000000
# 6 0.000000 0.000000 0.000000 0.000000 0.000000 0.039281
#
#
# Mechanical properties :
#
#
# Convention : Reuss Voigt Hill
#
# Bulk Modulus (GPa) = 47.03488 65.14885 56.09187
# Shear Modulus (GPa) = 23.61162 26.88787 25.24974
#
# Velocity S-wave (km/s) = 3.38527 3.61251 3.50074
# Velocity P-wave (km/s) = 6.17324 7.00149 6.60037
#
# Compressibility (1/GPa) = 0.02126082
#
# Stress axis : x y z
#
# Youngs Moduli (GPa) = 71.35868 30.90335 62.44384
#
# Poissons Ratio (x) = 0.16373 0.42341
# Poissons Ratio (y) = 0.37808 0.52979
# Poissons Ratio (z) = 0.48386 0.26219
#
# Static dielectric constant tensor:
#      x y z
#    x 3.820810 0.000000 0.000000 
#    y 0.000000 3.658470 0.000000 
#    z 0.000000 0.000000 3.634570 
# 
# 
# High freq. dielectric constant tensor:
#      x y z
#    x 1.806920 0.000000 0.000000 
#    y 0.000000 1.800110 0.000000 
#    z 0.000000 0.000000 1.805580 
# 
# From -- ./inp_files/20089.got.cif
#   From: 2010.03.12/outbox.cif.g09.slc.cpg/sg38_11_cif.got.tgz:20089.got - 2010.04.14 02:38:36.
