data_PCOD8179944
_publ_section_title
;
Structure prediction by ZEFSAII (Michael W. Deem and Ramdas Pophale) SiO2 
 PCOD8179944
Probable space group: A M M 2
;
_chemical_formula_sum "Si O2"
_cell_formula_units_Z 56
_cell_length_a 14.515310
_cell_length_b 9.314936
_cell_length_c 21.019423
_cell_angle_alpha 90.000000
_cell_angle_beta 90.000000
_cell_angle_gamma 90.000000
_cell_volume 2842.019025
_symmetry_space_group_name_H-M "A M M 2"
_symmetry_group_IT_number 38
_symmetry_cell_setting 'orthorhombic'
loop_
_space_group_symop_operation_xyz
x,y,z
-x,-y,z
-x,y,z
x,-y,z
x,1/2+y,1/2+z
-x,1/2-y,1/2+z
-x,1/2+y,1/2+z
x,1/2-y,1/2+z
loop_
_atom_site_type_symbol
_atom_site_label
_atom_site_fract_x
_atom_site_fract_y
_atom_site_fract_z
Si Si1 0.606881 0.331427 0.428200
Si Si2 0.608938 0.660020 0.804955
Si Si3 0.105804 0.668113 0.729139
Si Si4 0.235617 0.331134 0.982461
Si Si5 0.603090 0.662761 0.184706
Si Si6 0.897022 0.329777 0.870700
Si Si7 0.786947 0.338247 0.122993
O O1 0.500000 0.299180 0.442885
O O2 0.625431 0.500000 0.423373
O O3 0.641666 0.256467 0.363476
O O4 0.669231 0.258917 0.482491
O O5 0.500000 0.649354 0.805229
O O6 0.652885 0.500000 0.809928
O O7 0.641212 0.734472 0.740192
O O8 0.117749 0.500000 0.720767
O O9 0.139994 0.715073 0.800182
O O10 0.163461 0.738862 0.673351
O O11 0.000000 0.714220 0.721416
O O12 0.257938 0.500000 0.975043
O O13 0.169351 0.272061 0.926420
O O14 0.186554 0.300211 0.050305
O O15 0.500000 0.707556 0.161802
O O16 0.600744 0.500000 0.211170
O O17 0.675533 0.678090 0.127435
O O18 0.902512 0.500000 0.874572
O O19 0.000000 0.266962 0.881248
O O20 0.817125 0.500000 0.139047
#
# Coordination Sequence:
#
# PCOD8179944 Si02
#       7
#     8   8   8   8   8   8   8
#     4  10  21  36  53  76 111 152 188 227 278 330
#     4   9  17  30  50  76 101 131 180 235 278 318
#     4   9  19  37  60  83 108 142 184 231 283 338
#     4  10  21  36  56  84 114 147 189 232 275 327
#     4   9  18  33  50  71 107 151 187 222 274 335
#     4   8  16  34  59  84 108 138 180 228 278 331
#     4  10  22  36  53  83 117 148 184 230 283 331
#
# _framework density 19.704301999999998
#
# number of rings (size 3 to 8) (size 9 to 14) (size 15 to 20)
#    0.000    2.714    0.000    1.714    2.000    5.143 
#    0.000    2.857    0.000    3.000    0.000    0.000 
#    0.000    0.000    0.000    0.000    0.000    0.000 
#
# Total GULP energy -347071.657589 kJ/mol
# GULP energy per Si atom -12395.416342 kJ/mol
# Density = 1.965945 g / cm^3
# Si number density = 19.704302 Si / 1000 Ang^3
#
#
#
# Elastic Constant Matrix: (Units=GPa)
#
#
# Indices 1 2 3 4 5 6 
#
# 1 79.9030 35.3600 62.1803 0.0000 0.0000 0.0000
# 2 35.3600 62.2172 34.9028 0.0000 0.0000 0.0000
# 3 62.1803 34.9028 121.3677 0.0000 0.0000 0.0000
# 4 0.0000 0.0000 0.0000 27.3626 0.0000 0.0000
# 5 0.0000 0.0000 0.0000 0.0000 25.7575 0.0000
# 6 0.0000 0.0000 0.0000 0.0000 0.0000 23.1891
#
#
#
# Elastic Compliance Matrix: (Units=1/GPa)
#
#
# Indices 1 2 3 4 5 6 
#
# 1 0.023701 -0.007939 -0.009860 0.000000 0.000000 0.000000
# 2 -0.007939 0.021824 -0.002209 0.000000 0.000000 0.000000
# 3 -0.009860 -0.002209 0.013926 0.000000 0.000000 0.000000
# 4 0.000000 0.000000 0.000000 0.036546 0.000000 0.000000
# 5 0.000000 0.000000 0.000000 0.000000 0.038824 0.000000
# 6 0.000000 0.000000 0.000000 0.000000 0.000000 0.043124
#
#
# Mechanical properties :
#
#
# Convention : Reuss Voigt Hill
#
# Bulk Modulus (GPa) = 51.45047 58.70824 55.07935
# Shear Modulus (GPa) = 22.27782 23.99816 23.13799
#
# Velocity S-wave (km/s) = 3.36610 3.49365 3.43047
# Velocity P-wave (km/s) = 6.42460 6.79216 6.61093
#
# Compressibility (1/GPa) = 0.01943617
#
# Stress axis : x y z
#
# Youngs Moduli (GPa) = 42.19171 45.82170 71.80786
#
# Poissons Ratio (x) = 0.36378 0.70801
# Poissons Ratio (y) = 0.33496 0.15860
# Poissons Ratio (z) = 0.41600 0.10120
#
# Static dielectric constant tensor:
#      x y z
#    x 3.669690 0.000000 0.000000 
#    y 0.000000 3.453560 0.000000 
#    z 0.000000 0.000000 3.587760 
# 
# 
# High freq. dielectric constant tensor:
#      x y z
#    x 1.766120 0.000000 0.000000 
#    y 0.000000 1.746300 0.000000 
#    z 0.000000 0.000000 1.762470 
# 
# From -- ./inp_files/21012.got.cif
#   From: 2010.03.12/outbox.cif.g09.slc.cpg/sg38_11_cif.got.tgz:21012.got - 2010.04.14 02:38:36.
