data_PCOD8179343
_publ_section_title
;
Structure prediction by ZEFSAII (Michael W. Deem and Ramdas Pophale) SiO2 
 PCOD8179343
Probable space group: A M M 2
;
_chemical_formula_sum "Si O2"
_cell_formula_units_Z 48
_cell_length_a 9.002614
_cell_length_b 27.642962
_cell_length_c 10.059884
_cell_angle_alpha 90.000000
_cell_angle_beta 90.000000
_cell_angle_gamma 90.000000
_cell_volume 2503.491834
_symmetry_space_group_name_H-M "A M M 2"
_symmetry_group_IT_number 38
_symmetry_cell_setting 'orthorhombic'
loop_
_space_group_symop_operation_xyz
x,y,z
-x,-y,z
-x,y,z
x,-y,z
x,1/2+y,1/2+z
-x,1/2-y,1/2+z
-x,1/2+y,1/2+z
x,1/2-y,1/2+z
loop_
_atom_site_type_symbol
_atom_site_label
_atom_site_fract_x
_atom_site_fract_y
_atom_site_fract_z
Si Si1 0.329103 0.355223 0.700240
Si Si2 0.669744 0.794196 0.459309
Si Si3 0.668903 0.554176 0.065098
Si Si4 0.175080 0.195254 0.961253
Si Si5 0.328152 0.352769 0.220897
Si Si6 0.827232 0.054736 0.291204
O O1 0.500000 0.358022 0.657811
O O2 0.307676 0.334978 0.848335
O O3 0.245737 0.319743 0.600574
O O4 0.260460 0.409012 0.694210
O O5 0.500000 0.775687 0.460040
O O6 0.775478 0.749477 0.426317
O O7 0.713426 0.817237 0.600072
O O8 0.500000 0.563456 0.014393
O O9 0.686290 0.500000 0.123471
O O10 0.707808 0.591916 0.181112
O O11 0.778026 0.562183 0.942646
O O12 0.226588 0.159042 0.846081
O O13 0.000000 0.193017 0.973691
O O14 0.500000 0.346382 0.260384
O O15 0.000000 0.066852 0.281677
O O16 0.792646 0.000000 0.244472
#
# Coordination Sequence:
#
# PCOD8179343 Si02
#       6
#     8   8   8   8   8   8
#     4  11  22  40  63  86 113 153 199 242 284 335
#     4  10  21  39  62  86 110 147 197 243 285 336
#     4   9  17  33  59  88 114 144 189 237 279 334
#     4  12  26  39  54  83 119 156 191 236 296 349
#     4  10  20  38  60  85 114 150 191 234 283 339
#     4  10  20  34  56  88 122 151 183 232 291 345
#
# _framework density 19.173219
#
# number of rings (size 3 to 8) (size 9 to 14) (size 15 to 20)
#    0.000    1.667    1.667    3.500    0.000    7.667 
#    0.000    0.833    0.000    3.000    0.000    0.000 
#    0.000    0.000    0.000    0.000    0.000    0.000 
#
# Total GULP energy -297710.649131 kJ/mol
# GULP energy per Si atom -12404.610380 kJ/mol
# Density = 1.912958 g / cm^3
# Si number density = 19.173219 Si / 1000 Ang^3
#
#
#
# Elastic Constant Matrix: (Units=GPa)
#
#
# Indices 1 2 3 4 5 6 
#
# 1 116.4636 50.8521 30.4837 0.0000 0.0000 0.0000
# 2 50.8521 113.4225 15.2800 0.0000 0.0000 0.0000
# 3 30.4837 15.2800 55.6659 0.0000 0.0000 0.0000
# 4 0.0000 0.0000 0.0000 19.4093 0.0000 0.0000
# 5 0.0000 0.0000 0.0000 0.0000 26.8843 0.0000
# 6 0.0000 0.0000 0.0000 0.0000 0.0000 24.7128
#
#
#
# Elastic Compliance Matrix: (Units=1/GPa)
#
#
# Indices 1 2 3 4 5 6 
#
# 1 0.012013 -0.004672 -0.005296 0.000000 0.000000 0.000000
# 2 -0.004672 0.010972 -0.000453 0.000000 0.000000 0.000000
# 3 -0.005296 -0.000453 0.020989 0.000000 0.000000 0.000000
# 4 0.000000 0.000000 0.000000 0.051522 0.000000 0.000000
# 5 0.000000 0.000000 0.000000 0.000000 0.037196 0.000000
# 6 0.000000 0.000000 0.000000 0.000000 0.000000 0.040465
#
#
# Mechanical properties :
#
#
# Convention : Reuss Voigt Hill
#
# Bulk Modulus (GPa) = 43.23171 53.19817 48.21494
# Shear Modulus (GPa) = 24.78806 26.79702 25.79254
#
# Velocity S-wave (km/s) = 3.59952 3.74254 3.67173
# Velocity P-wave (km/s) = 6.31445 6.81776 6.57093
#
# Compressibility (1/GPa) = 0.02313117
#
# Stress axis : x y z
#
# Youngs Moduli (GPa) = 83.24567 91.13725 47.64440
#
# Poissons Ratio (x) = 0.42582 0.25232
# Poissons Ratio (y) = 0.38895 0.02159
# Poissons Ratio (z) = 0.44085 0.04131
#
# Static dielectric constant tensor:
#      x y z
#    x 3.511740 0.000000 0.000000 
#    y 0.000000 3.718640 0.000000 
#    z 0.000000 0.000000 3.261230 
# 
# 
# High freq. dielectric constant tensor:
#      x y z
#    x 1.744360 0.000000 0.000000 
#    y 0.000000 1.760980 0.000000 
#    z 0.000000 0.000000 1.725780 
# 
# From -- ./inp_files/3729.got.cif
#   From: 2010.03.12/outbox.cif.g09.slc.cpg/sg38_2_cif.got.tgz:3729.got - 2010.04.14 02:38:36.
