data_PCOD8179622
_publ_section_title
;
Structure prediction by ZEFSAII (Michael W. Deem and Ramdas Pophale) SiO2 
 PCOD8179622
Probable space group: A M M 2
;
_chemical_formula_sum "Si O2"
_cell_formula_units_Z 48
_cell_length_a 18.969822
_cell_length_b 8.564214
_cell_length_c 15.034511
_cell_angle_alpha 90.000000
_cell_angle_beta 90.000000
_cell_angle_gamma 90.000000
_cell_volume 2442.530940
_symmetry_space_group_name_H-M "A M M 2"
_symmetry_group_IT_number 38
_symmetry_cell_setting 'orthorhombic'
loop_
_space_group_symop_operation_xyz
x,y,z
-x,-y,z
-x,y,z
x,-y,z
x,1/2+y,1/2+z
-x,1/2-y,1/2+z
-x,1/2+y,1/2+z
x,1/2-y,1/2+z
loop_
_atom_site_type_symbol
_atom_site_label
_atom_site_fract_x
_atom_site_fract_y
_atom_site_fract_z
Si Si1 0.834430 0.817209 0.625000
Si Si2 0.327103 0.316077 0.388768
Si Si3 0.169679 0.317838 0.437806
Si Si4 0.579024 0.684815 0.038493
Si Si5 0.682599 0.685622 0.189057
Si Si6 0.081232 0.819622 0.281107
O O1 0.855506 0.723383 0.536703
O O2 0.759370 0.753560 0.660127
O O3 0.892743 0.785250 0.699325
O O4 0.831523 0.000000 0.602975
O O5 0.338496 0.500000 0.393997
O O6 0.251005 0.268030 0.426780
O O7 0.387600 0.233742 0.445147
O O8 0.334553 0.253582 0.287913
O O9 0.159184 0.500000 0.417391
O O10 0.122992 0.220090 0.370155
O O11 0.500000 0.753015 0.045103
O O12 0.577812 0.500000 0.043956
O O13 0.624524 0.753093 0.120740
O O14 0.683222 0.500000 0.188940
O O15 0.000000 0.780350 0.298406
O O16 0.093009 0.000000 0.256964
#
# Coordination Sequence:
#
# PCOD8179622 Si02
#       6
#     8   8   8   8   8   8
#     4  11  21  38  64  91 120 157 200 248 299 356
#     4  10  20  36  59  87 115 149 196 245 294 349
#     4  11  22  38  62  93 122 155 202 250 297 358
#     4  10  21  37  57  84 119 156 194 241 297 355
#     4   9  18  35  58  85 113 149 196 239 287 350
#     4  11  25  43  62  89 124 159 197 247 306 360
#
# _framework density 19.651748000000001
#
# number of rings (size 3 to 8) (size 9 to 14) (size 15 to 20)
#    0.000    1.667    3.333    1.500    0.000    3.667 
#    0.000    2.500    0.000    0.000    0.000    0.000 
#    0.000    0.000    0.000    0.000    0.000    0.000 
#
# Total GULP energy -297709.267889 kJ/mol
# GULP energy per Si atom -12404.552829 kJ/mol
# Density = 1.960702 g / cm^3
# Si number density = 19.651748 Si / 1000 Ang^3
#
#
#
# Elastic Constant Matrix: (Units=GPa)
#
#
# Indices 1 2 3 4 5 6 
#
# 1 108.1038 28.4278 34.6564 0.0000 0.0000 0.0000
# 2 28.4278 29.8579 10.7124 0.0000 0.0000 0.0000
# 3 34.6564 10.7124 133.2448 0.0000 0.0000 0.0000
# 4 0.0000 0.0000 0.0000 32.9613 0.0000 0.0000
# 5 0.0000 0.0000 0.0000 0.0000 31.7032 0.0000
# 6 0.0000 0.0000 0.0000 0.0000 0.0000 26.1238
#
#
#
# Elastic Compliance Matrix: (Units=1/GPa)
#
#
# Indices 1 2 3 4 5 6 
#
# 1 0.013086 -0.011572 -0.002473 0.000000 0.000000 0.000000
# 2 -0.011572 0.044720 -0.000585 0.000000 0.000000 0.000000
# 3 -0.002473 -0.000585 0.008195 0.000000 0.000000 0.000000
# 4 0.000000 0.000000 0.000000 0.030339 0.000000 0.000000
# 5 0.000000 0.000000 0.000000 0.000000 0.031543 0.000000
# 6 0.000000 0.000000 0.000000 0.000000 0.000000 0.038279
#
#
# Mechanical properties :
#
#
# Convention : Reuss Voigt Hill
#
# Bulk Modulus (GPa) = 27.21852 46.53330 36.87591
# Shear Modulus (GPa) = 24.07656 31.31830 27.69743
#
# Velocity S-wave (km/s) = 3.50403 3.99640 3.75829
# Velocity P-wave (km/s) = 5.50013 6.71009 6.13501
#
# Compressibility (1/GPa) = 0.03673969
#
# Stress axis : x y z
#
# Youngs Moduli (GPa) = 76.41513 22.36138 122.02024
#
# Poissons Ratio (x) = 0.25877 0.30180
# Poissons Ratio (y) = 0.88429 0.07144
# Poissons Ratio (z) = 0.18900 0.01309
#
# Static dielectric constant tensor:
#      x y z
#    x 3.698040 0.000000 0.000000 
#    y 0.000000 3.325900 0.000000 
#    z 0.000000 0.000000 3.729550 
# 
# 
# High freq. dielectric constant tensor:
#      x y z
#    x 1.764040 0.000000 0.000000 
#    y 0.000000 1.747500 0.000000 
#    z 0.000000 0.000000 1.781240 
# 
# From -- ./inp_files/14971.got.cif
#   From: 2010.03.12/outbox.cif.g09.slc.cpg/sg38_8_cif.got.tgz:14971.got - 2010.04.14 02:38:36.
