data_PCOD8179126
_publ_section_title
;
Structure prediction by ZEFSAII (Michael W. Deem and Ramdas Pophale) SiO2 
 PCOD8179126
Probable space group: A M M 2
;
_chemical_formula_sum "Si O2"
_cell_formula_units_Z 56
_cell_length_a 23.414834
_cell_length_b 9.311370
_cell_length_c 14.399442
_cell_angle_alpha 90.000000
_cell_angle_beta 90.000000
_cell_angle_gamma 90.000000
_cell_volume 3139.426576
_symmetry_space_group_name_H-M "A M M 2"
_symmetry_group_IT_number 38
_symmetry_cell_setting 'orthorhombic'
loop_
_space_group_symop_operation_xyz
x,y,z
-x,-y,z
-x,y,z
x,-y,z
x,1/2+y,1/2+z
-x,1/2-y,1/2+z
-x,1/2+y,1/2+z
x,1/2-y,1/2+z
loop_
_atom_site_type_symbol
_atom_site_label
_atom_site_fract_x
_atom_site_fract_y
_atom_site_fract_z
Si Si1 0.435913 0.838944 0.154070
Si Si2 0.350555 0.665916 0.820555
Si Si3 0.765084 0.668226 0.329845
Si Si4 0.064977 0.833351 0.315126
Si Si5 0.140674 0.666741 0.178702
Si Si6 0.436584 0.669856 0.974386
Si Si7 0.157051 0.831729 0.466664
O O1 0.500000 0.812278 0.193477
O O2 0.389900 0.813753 0.232226
O O3 0.431499 0.000000 0.113858
O O4 0.420214 0.727124 0.074853
O O5 0.332102 0.500000 0.834112
O O6 0.296037 0.765377 0.808636
O O7 0.387999 0.725787 0.905530
O O8 0.759795 0.500000 0.350651
O O9 0.802573 0.698380 0.238125
O O10 0.791215 0.743734 0.420941
O O11 0.088052 0.749454 0.225408
O O12 0.099589 0.796519 0.409056
O O13 0.000000 0.786799 0.333637
O O14 0.070343 0.000000 0.290847
O O15 0.124637 0.500000 0.179360
O O16 0.149347 0.720197 0.072910
O O17 0.500000 0.725147 0.945228
O O18 0.436361 0.500000 0.976149
O O19 0.172386 0.000000 0.462791
#
# Coordination Sequence:
#
# PCOD8179126 Si02
#       7
#     8   8   8   8   8   8   8
#     4   9  18  33  52  74 100 129 162 201 246 298
#     4  10  20  34  52  72  97 132 168 200 244 301
#     4  10  21  35  50  73 102 128 164 213 255 290
#     4   9  18  32  51  78 108 133 162 202 243 287
#     4   9  19  35  54  74  98 133 171 206 246 291
#     4   9  18  33  52  73  97 126 161 201 245 296
#     4   9  18  35  56  74  98 135 172 202 241 294
#
# _framework density 17.837651999999999
#
# number of rings (size 3 to 8) (size 9 to 14) (size 15 to 20)
#    0.000    2.714    0.000    0.857    0.000    6.000 
#    0.000    5.714    0.000    4.286    0.000    0.000 
#    0.000    0.000    0.000    0.000    0.000    0.000 
#
# Total GULP energy -347187.029089 kJ/mol
# GULP energy per Si atom -12399.536753 kJ/mol
# Density = 1.779705 g / cm^3
# Si number density = 17.837652 Si / 1000 Ang^3
#
#
#
# Elastic Constant Matrix: (Units=GPa)
#
#
# Indices 1 2 3 4 5 6 
#
# 1 116.4020 44.7481 52.0332 0.0000 0.0000 0.0000
# 2 44.7481 42.4669 34.6689 0.0000 0.0000 0.0000
# 3 52.0332 34.6689 115.2819 0.0000 0.0000 0.0000
# 4 0.0000 0.0000 0.0000 30.1460 0.0000 0.0000
# 5 0.0000 0.0000 0.0000 0.0000 20.7453 0.0000
# 6 0.0000 0.0000 0.0000 0.0000 0.0000 30.8187
#
#
#
# Elastic Compliance Matrix: (Units=1/GPa)
#
#
# Indices 1 2 3 4 5 6 
#
# 1 0.015040 -0.013660 -0.002681 0.000000 0.000000 0.000000
# 2 -0.013660 0.043616 -0.006951 0.000000 0.000000 0.000000
# 3 -0.002681 -0.006951 0.011975 0.000000 0.000000 0.000000
# 4 0.000000 0.000000 0.000000 0.033172 0.000000 0.000000
# 5 0.000000 0.000000 0.000000 0.000000 0.048204 0.000000
# 6 0.000000 0.000000 0.000000 0.000000 0.000000 0.032448
#
#
# Mechanical properties :
#
#
# Convention : Reuss Voigt Hill
#
# Bulk Modulus (GPa) = 41.58381 59.67235 50.62808
# Shear Modulus (GPa) = 20.91571 25.85539 23.38555
#
# Velocity S-wave (km/s) = 3.42798 3.81134 3.62473
# Velocity P-wave (km/s) = 6.24748 7.27283 6.77957
#
# Compressibility (1/GPa) = 0.02404782
#
# Stress axis : x y z
#
# Youngs Moduli (GPa) = 66.48730 22.92712 83.50888
#
# Poissons Ratio (x) = 0.31319 0.22385
# Poissons Ratio (y) = 0.90822 0.58050
# Poissons Ratio (z) = 0.17823 0.15937
#
# Static dielectric constant tensor:
#      x y z
#    x 3.339750 0.000000 0.000000 
#    y 0.000000 3.314090 0.000000 
#    z 0.000000 0.000000 3.339290 
# 
# 
# High freq. dielectric constant tensor:
#      x y z
#    x 1.692570 0.000000 0.000000 
#    y 0.000000 1.685050 0.000000 
#    z 0.000000 0.000000 1.690470 
# 
# From -- ./inp_files/15420.got.cif
#   From: 2010.03.12/outbox.cif.g09.slc.cpg/sg38_8_cif.got.tgz:15420.got - 2010.04.14 02:38:36.
