data_PCOD8179700
_publ_section_title
;
Structure prediction by ZEFSAII (Michael W. Deem and Ramdas Pophale) SiO2 
 PCOD8179700
Probable space group: A M M 2
;
_chemical_formula_sum "Si O2"
_cell_formula_units_Z 40
_cell_length_a 9.034968
_cell_length_b 11.646281
_cell_length_c 20.059693
_cell_angle_alpha 90.000000
_cell_angle_beta 90.000000
_cell_angle_gamma 90.000000
_cell_volume 2110.756646
_symmetry_space_group_name_H-M "A M M 2"
_symmetry_group_IT_number 38
_symmetry_cell_setting 'orthorhombic'
loop_
_space_group_symop_operation_xyz
x,y,z
-x,-y,z
-x,y,z
x,-y,z
x,1/2+y,1/2+z
-x,1/2-y,1/2+z
-x,1/2+y,1/2+z
x,1/2-y,1/2+z
loop_
_atom_site_type_symbol
_atom_site_label
_atom_site_fract_x
_atom_site_fract_y
_atom_site_fract_z
Si Si1 0.675392 0.500000 0.685781
Si Si2 0.325195 0.000000 0.036237
Si Si3 0.828256 0.207360 0.257013
Si Si4 0.171646 0.629616 0.139683
Si Si5 0.673763 0.133526 0.382328
Si Si6 0.325189 0.250130 0.017463
O O1 0.500000 0.500000 0.691001
O O2 0.736260 0.500000 0.611106
O O3 0.735163 0.610985 0.721249
O O4 0.271094 0.881258 0.001717
O O5 0.500000 0.000000 0.037703
O O6 0.803881 0.323919 0.214993
O O7 0.763106 0.215912 0.331744
O O8 0.000000 0.173632 0.260595
O O9 0.233116 0.500000 0.137788
O O10 0.256144 0.706405 0.086097
O O11 0.000000 0.633835 0.120618
O O12 0.500000 0.155039 0.372405
O O13 0.724001 0.169257 0.456529
O O14 0.714579 0.000000 0.371045
O O15 0.500000 0.253638 0.028026
#
# Coordination Sequence:
#
# PCOD8179700 Si02
#       6
#     4   4   8   8   8   8
#     4  11  19  33  59  87 113 138 175 230 283 325
#     4   9  18  33  57  85 113 142 175 226 279 323
#     4  11  22  36  57  83 111 146 187 227 274 334
#     4  10  22  39  57  80 112 147 183 230 280 327
#     4  10  21  36  55  80 112 148 184 229 278 323
#     4  10  20  37  59  84 112 145 185 227 275 331
#
# _framework density 18.950548999999999
#
# number of rings (size 3 to 8) (size 9 to 14) (size 15 to 20)
#    0.000    1.800    3.000    1.500    0.000    2.800 
#    1.800    0.500    0.000    0.000    0.000    0.000 
#    0.000    0.000    0.000    0.000    0.000    0.000 
#
# Total GULP energy -247949.050292 kJ/mol
# GULP energy per Si atom -12397.452515 kJ/mol
# Density = 1.890742 g / cm^3
# Si number density = 18.950549 Si / 1000 Ang^3
#
#
#
# Elastic Constant Matrix: (Units=GPa)
#
#
# Indices 1 2 3 4 5 6 
#
# 1 54.2783 27.5957 39.0227 0.0000 0.0000 0.0000
# 2 27.5957 110.3262 40.2155 0.0000 0.0000 0.0000
# 3 39.0227 40.2155 109.9376 0.0000 0.0000 0.0000
# 4 0.0000 0.0000 0.0000 40.7134 0.0000 0.0000
# 5 0.0000 0.0000 0.0000 0.0000 26.7262 0.0000
# 6 0.0000 0.0000 0.0000 0.0000 0.0000 29.1902
#
#
#
# Elastic Compliance Matrix: (Units=1/GPa)
#
#
# Indices 1 2 3 4 5 6 
#
# 1 0.025926 -0.003612 -0.007881 0.000000 0.000000 0.000000
# 2 -0.003612 0.010962 -0.002728 0.000000 0.000000 0.000000
# 3 -0.007881 -0.002728 0.012891 0.000000 0.000000 0.000000
# 4 0.000000 0.000000 0.000000 0.024562 0.000000 0.000000
# 5 0.000000 0.000000 0.000000 0.000000 0.037416 0.000000
# 6 0.000000 0.000000 0.000000 0.000000 0.000000 0.034258
#
#
# Mechanical properties :
#
#
# Convention : Reuss Voigt Hill
#
# Bulk Modulus (GPa) = 46.86656 54.24556 50.55606
# Shear Modulus (GPa) = 27.53756 30.50651 29.02203
#
# Velocity S-wave (km/s) = 3.81613 4.01658 3.91763
# Velocity P-wave (km/s) = 6.64844 7.08502 6.87020
#
# Compressibility (1/GPa) = 0.02133718
#
# Stress axis : x y z
#
# Youngs Moduli (GPa) = 38.57120 91.22580 77.57128
#
# Poissons Ratio (x) = 0.32951 0.61136
# Poissons Ratio (y) = 0.13932 0.21160
# Poissons Ratio (z) = 0.30399 0.24884
#
# Static dielectric constant tensor:
#      x y z
#    x 3.365420 0.000000 0.000000 
#    y 0.000000 3.536090 0.000000 
#    z 0.000000 0.000000 3.653780 
# 
# 
# High freq. dielectric constant tensor:
#      x y z
#    x 1.723260 0.000000 0.000000 
#    y 0.000000 1.739010 0.000000 
#    z 0.000000 0.000000 1.738440 
# 
# From -- ./inp_files/19490.got.cif
#   From: 2010.03.12/outbox.cif.g09.slc.cpg/sg38_10_cif.got.tgz:19490.got - 2010.04.14 02:38:36.
