data_PCOD8179224
_publ_section_title
;
Structure prediction by ZEFSAII (Michael W. Deem and Ramdas Pophale) SiO2 
 PCOD8179224
Probable space group: A M M 2
;
_chemical_formula_sum "Si O2"
_cell_formula_units_Z 64
_cell_length_a 17.900416
_cell_length_b 9.211508
_cell_length_c 20.549637
_cell_angle_alpha 90.000000
_cell_angle_beta 90.000000
_cell_angle_gamma 90.000000
_cell_volume 3388.426053
_symmetry_space_group_name_H-M "A M M 2"
_symmetry_group_IT_number 38
_symmetry_cell_setting 'orthorhombic'
loop_
_space_group_symop_operation_xyz
x,y,z
-x,-y,z
-x,y,z
x,-y,z
x,1/2+y,1/2+z
-x,1/2-y,1/2+z
-x,1/2+y,1/2+z
x,1/2-y,1/2+z
loop_
_atom_site_type_symbol
_atom_site_label
_atom_site_fract_x
_atom_site_fract_y
_atom_site_fract_z
Si Si1 0.088693 0.339384 0.487660
Si Si2 0.588843 0.163975 0.516684
Si Si3 0.913927 0.829391 0.133222
Si Si4 0.334120 0.166755 0.758504
Si Si5 0.412806 0.169505 0.143662
Si Si6 0.088723 0.662593 0.866096
Si Si7 0.586351 0.668120 0.390838
Si Si8 0.840491 0.832122 0.748730
O O1 0.121478 0.500000 0.473702
O O2 0.111509 0.287722 0.559971
O O3 0.120696 0.230305 0.433270
O O4 0.000000 0.347231 0.484229
O O5 0.500000 0.168093 0.516185
O O6 0.618354 0.250784 0.579412
O O7 0.618629 0.240096 0.451237
O O8 0.619457 0.000000 0.519671
O O9 0.860820 0.739237 0.180168
O O10 0.000000 0.785996 0.145522
O O11 0.903150 0.000000 0.145800
O O12 0.368627 0.271161 0.705052
O O13 0.367052 0.213708 0.827829
O O14 0.246291 0.190531 0.761855
O O15 0.355199 0.000000 0.742331
O O16 0.500000 0.201926 0.154233
O O17 0.396864 0.000000 0.135533
O O18 0.120762 0.500000 0.859381
O O19 0.113249 0.757477 0.805496
O O20 0.000000 0.660430 0.867745
O O21 0.500000 0.704621 0.376974
O O22 0.596984 0.500000 0.408434
O O23 0.862931 0.000000 0.746834
#
# Coordination Sequence:
#
# PCOD8179224 Si02
#       8
#     8   8   8   8   8   8   8   8
#     4   8  15  30  53  79 104 129 162 208 258 307
#     4   9  17  30  51  79 108 134 163 206 257 305
#     4   9  18  34  56  80 105 135 172 213 259 311
#     4  10  22  38  53  73 104 141 178 214 256 306
#     4  10  20  34  55  82 107 133 170 213 255 304
#     4  10  20  34  54  79 105 134 170 212 258 309
#     4   9  17  32  55  78 100 130 169 212 256 303
#     4  11  23  36  51  74 105 140 178 217 255 302
#
# _framework density 18.887827000000001
#
# number of rings (size 3 to 8) (size 9 to 14) (size 15 to 20)
#    0.000    2.500    0.000    3.000    0.000    7.250 
#    0.000    3.750    0.000    1.500    0.000    0.000 
#    0.000    0.000    0.000    0.000    0.000    0.000 
#
# Total GULP energy -396836.701410 kJ/mol
# GULP energy per Si atom -12401.146919 kJ/mol
# Density = 1.884484 g / cm^3
# Si number density = 18.887827 Si / 1000 Ang^3
#
#
#
# Elastic Constant Matrix: (Units=GPa)
#
#
# Indices 1 2 3 4 5 6 
#
# 1 21.4168 22.2978 18.4314 0.0000 0.0000 0.0000
# 2 22.2978 107.3405 72.2464 0.0000 0.0000 0.0000
# 3 18.4314 72.2464 142.1677 0.0000 0.0000 0.0000
# 4 0.0000 0.0000 0.0000 42.3830 0.0000 0.0000
# 5 0.0000 0.0000 0.0000 0.0000 3.8255 0.0000
# 6 0.0000 0.0000 0.0000 0.0000 0.0000 21.3157
#
#
#
# Elastic Compliance Matrix: (Units=1/GPa)
#
#
# Indices 1 2 3 4 5 6 
#
# 1 0.060025 -0.010990 -0.002197 0.000000 0.000000 0.000000
# 2 -0.010990 0.016171 -0.006793 0.000000 0.000000 0.000000
# 3 -0.002197 -0.006793 0.010771 0.000000 0.000000 0.000000
# 4 0.000000 0.000000 0.000000 0.023594 0.000000 0.000000
# 5 0.000000 0.000000 0.000000 0.000000 0.261402 0.000000
# 6 0.000000 0.000000 0.000000 0.000000 0.000000 0.046914
#
#
# Mechanical properties :
#
#
# Convention : Reuss Voigt Hill
#
# Bulk Modulus (GPa) = 21.27350 55.20846 38.24098
# Shear Modulus (GPa) = 10.53725 24.03480 17.28602
#
# Velocity S-wave (km/s) = 2.36452 3.57108 3.02850
# Velocity P-wave (km/s) = 4.32922 6.80416 5.70258
#
# Compressibility (1/GPa) = 0.04700684
#
# Stress axis : x y z
#
# Youngs Moduli (GPa) = 16.65959 61.83800 92.84332
#
# Poissons Ratio (x) = 0.67963 0.20397
# Poissons Ratio (y) = 0.18310 0.63069
# Poissons Ratio (z) = 0.03660 0.42007
#
# Static dielectric constant tensor:
#      x y z
#    x 3.038340 0.000000 0.000000 
#    y 0.000000 3.634760 0.000000 
#    z 0.000000 0.000000 3.668860 
# 
# 
# High freq. dielectric constant tensor:
#      x y z
#    x 1.696140 0.000000 0.000000 
#    y 0.000000 1.739220 0.000000 
#    z 0.000000 0.000000 1.750550 
# 
# From -- ./inp_files/21395.got.cif
#   From: 2010.03.12/outbox.cif.g09.slc.cpg/sg38_11_cif.got.tgz:21395.got - 2010.04.14 02:38:36.
