data_PCOD8179581
_publ_section_title
;
Structure prediction by ZEFSAII (Michael W. Deem and Ramdas Pophale) SiO2 
 PCOD8179581
Probable space group: A M M 2
;
_chemical_formula_sum "Si O2"
_cell_formula_units_Z 64
_cell_length_a 15.457897
_cell_length_b 8.674207
_cell_length_c 24.040058
_cell_angle_alpha 90.000000
_cell_angle_beta 90.000000
_cell_angle_gamma 90.000000
_cell_volume 3223.411138
_symmetry_space_group_name_H-M "A M M 2"
_symmetry_group_IT_number 38
_symmetry_cell_setting 'orthorhombic'
loop_
_space_group_symop_operation_xyz
x,y,z
-x,-y,z
-x,y,z
x,-y,z
x,1/2+y,1/2+z
-x,1/2-y,1/2+z
-x,1/2+y,1/2+z
x,1/2-y,1/2+z
loop_
_atom_site_type_symbol
_atom_site_label
_atom_site_fract_x
_atom_site_fract_y
_atom_site_fract_z
Si Si1 0.404657 0.182900 0.641510
Si Si2 0.751912 0.181808 0.443746
Si Si3 0.097237 0.823671 0.873910
Si Si4 0.902257 0.677542 0.148349
Si Si5 0.596685 0.321491 0.867519
Si Si6 0.751775 0.316377 0.067925
Si Si7 0.850657 0.820094 0.262657
Si Si8 0.664169 0.819242 0.760328
O O1 0.500000 0.247380 0.625874
O O2 0.333326 0.249878 0.599009
O O3 0.382296 0.234512 0.703975
O O4 0.404781 0.000000 0.638054
O O5 0.838625 0.225176 0.411580
O O6 0.666327 0.242464 0.411980
O O7 0.753890 0.253492 0.505786
O O8 0.747498 0.000000 0.448446
O O9 0.097387 0.768369 0.810367
O O10 0.000000 0.804136 0.897269
O O11 0.127688 0.000000 0.876185
O O12 0.881044 0.500000 0.162907
O O13 0.837435 0.738889 0.100766
O O14 0.890348 0.776487 0.203521
O O15 0.000000 0.696704 0.126007
O O16 0.500000 0.301028 0.892275
O O17 0.615591 0.500000 0.853453
O O18 0.602150 0.221390 0.811535
O O19 0.748898 0.500000 0.066302
O O20 0.750834 0.777287 0.267093
O O21 0.862369 0.000000 0.272794
O O22 0.685977 0.000000 0.759270
#
# Coordination Sequence:
#
# PCOD8179581 Si02
#       8
#     8   8   8   8   8   8   8   8
#     4   9  17  30  53  85 115 143 183 233 279 328
#     4  10  21  37  59  85 115 154 196 239 284 332
#     4  11  24  41  61  85 114 150 189 234 289 345
#     4  10  20  36  58  83 113 150 189 231 280 335
#     4  10  21  36  54  83 122 157 190 234 289 343
#     4   9  18  34  55  82 114 149 192 236 278 326
#     4  12  23  36  58  87 117 148 183 230 291 349
#     4  11  20  34  58  85 115 150 190 235 286 344
#
# _framework density 19.854744
#
# number of rings (size 3 to 8) (size 9 to 14) (size 15 to 20)
#    0.000    1.750    2.500    2.625    0.000    4.500 
#    0.000    4.375    0.000    0.000    0.000    0.000 
#    0.000    0.000    0.000    0.000    0.000    0.000 
#
# Total GULP energy -396851.071585 kJ/mol
# GULP energy per Si atom -12401.595987 kJ/mol
# Density = 1.980955 g / cm^3
# Si number density = 19.854744 Si / 1000 Ang^3
#
#
#
# Elastic Constant Matrix: (Units=GPa)
#
#
# Indices 1 2 3 4 5 6 
#
# 1 142.7034 9.1406 60.2205 0.0000 0.0000 0.0000
# 2 9.1406 12.1454 5.3946 0.0000 0.0000 0.0000
# 3 60.2205 5.3946 149.2499 0.0000 0.0000 0.0000
# 4 0.0000 0.0000 0.0000 22.2680 0.0000 0.0000
# 5 0.0000 0.0000 0.0000 0.0000 18.4047 0.0000
# 6 0.0000 0.0000 0.0000 0.0000 0.0000 22.0061
#
#
#
# Elastic Compliance Matrix: (Units=1/GPa)
#
#
# Indices 1 2 3 4 5 6 
#
# 1 0.008745 -0.005096 -0.003344 0.000000 0.000000 0.000000
# 2 -0.005096 0.086649 -0.001076 0.000000 0.000000 0.000000
# 3 -0.003344 -0.001076 0.008088 0.000000 0.000000 0.000000
# 4 0.000000 0.000000 0.000000 0.044908 0.000000 0.000000
# 5 0.000000 0.000000 0.000000 0.000000 0.054334 0.000000
# 6 0.000000 0.000000 0.000000 0.000000 0.000000 0.045442
#
#
# Mechanical properties :
#
#
# Convention : Reuss Voigt Hill
#
# Bulk Modulus (GPa) = 11.84128 50.40111 31.12119
# Shear Modulus (GPa) = 16.92913 27.82530 22.37722
#
# Velocity S-wave (km/s) = 2.92318 3.74765 3.36079
# Velocity P-wave (km/s) = 4.16776 6.64579 5.54692
#
# Compressibility (1/GPa) = 0.08445035
#
# Stress axis : x y z
#
# Youngs Moduli (GPa) = 114.34699 11.54080 123.63257
#
# Poissons Ratio (x) = 0.05881 0.41348
# Poissons Ratio (y) = 0.58274 0.13298
# Poissons Ratio (z) = 0.38242 0.01241
#
# Static dielectric constant tensor:
#      x y z
#    x 3.807340 0.000000 0.000000 
#    y 0.000000 3.282650 0.000000 
#    z 0.000000 0.000000 3.771760 
# 
# 
# High freq. dielectric constant tensor:
#      x y z
#    x 1.791110 0.000000 0.000000 
#    y 0.000000 1.740940 0.000000 
#    z 0.000000 0.000000 1.770460 
# 
# From -- ./inp_files/22933.got.cif
#   From: 2010.03.12/outbox.cif.g09.slc.cpg/sg38_12_cif.got.tgz:22933.got - 2010.04.14 02:38:36.
