data_PCOD8179253
_publ_section_title
;
Structure prediction by ZEFSAII (Michael W. Deem and Ramdas Pophale) SiO2 
 PCOD8179253
Probable space group: A M M 2
;
_chemical_formula_sum "Si O2"
_cell_formula_units_Z 48
_cell_length_a 8.719511
_cell_length_b 9.095863
_cell_length_c 30.701936
_cell_angle_alpha 90.000000
_cell_angle_beta 90.000000
_cell_angle_gamma 90.000000
_cell_volume 2435.015906
_symmetry_space_group_name_H-M "A M M 2"
_symmetry_group_IT_number 38
_symmetry_cell_setting 'orthorhombic'
loop_
_space_group_symop_operation_xyz
x,y,z
-x,-y,z
-x,y,z
x,-y,z
x,1/2+y,1/2+z
-x,1/2-y,1/2+z
-x,1/2+y,1/2+z
x,1/2-y,1/2+z
loop_
_atom_site_type_symbol
_atom_site_label
_atom_site_fract_x
_atom_site_fract_y
_atom_site_fract_z
Si Si1 0.177069 0.172207 0.408520
Si Si2 0.322382 0.832244 0.829283
Si Si3 0.177945 0.670414 0.238380
Si Si4 0.817452 0.334353 0.494883
Si Si5 0.181758 0.665123 0.078883
Si Si6 0.321268 0.169715 0.159279
O O1 0.277287 0.225194 0.368195
O O2 0.240114 0.251492 0.451763
O O3 0.000000 0.213100 0.399951
O O4 0.199473 0.000000 0.415268
O O5 0.500000 0.811207 0.817766
O O6 0.223671 0.787091 0.787361
O O7 0.286336 0.000000 0.843037
O O8 0.214647 0.500000 0.229144
O O9 0.278337 0.768793 0.206424
O O10 0.000000 0.705830 0.231266
O O11 0.752838 0.500000 0.494484
O O12 0.750541 0.252174 0.537339
O O13 0.000000 0.333682 0.496474
O O14 0.248568 0.500000 0.078426
O O15 0.227936 0.743864 0.123055
O O16 0.000000 0.660980 0.076348
O O17 0.500000 0.192675 0.150938
O O18 0.273960 0.000000 0.157037
#
# Coordination Sequence:
#
# PCOD8179253 Si02
#       6
#     8   8   8   8   8   8
#     4  10  20  34  54  81 112 146 185 228 273 322
#     4  10  21  37  57  81 110 145 183 224 273 327
#     4  10  21  38  61  86 109 138 180 227 274 326
#     4   9  17  31  54  82 111 144 182 226 274 321
#     4  10  20  35  57  84 112 143 182 227 274 325
#     4  11  24  39  55  79 112 148 184 223 270 324
#
# _framework density 19.712396999999999
#
# number of rings (size 3 to 8) (size 9 to 14) (size 15 to 20)
#    0.000    2.000    0.000    3.500    0.000   10.000 
#    0.000    0.833    0.000    5.000    0.000    0.000 
#    0.000    0.000    0.000    0.000    0.000    0.000 
#
# Total GULP energy -297715.069651 kJ/mol
# GULP energy per Si atom -12404.794569 kJ/mol
# Density = 1.966753 g / cm^3
# Si number density = 19.712397 Si / 1000 Ang^3
#
#
#
# Elastic Constant Matrix: (Units=GPa)
#
#
# Indices 1 2 3 4 5 6 
#
# 1 25.9633 23.4020 11.0058 0.0000 0.0000 0.0000
# 2 23.4020 131.2506 65.1317 0.0000 0.0000 0.0000
# 3 11.0058 65.1317 120.2069 0.0000 0.0000 0.0000
# 4 0.0000 0.0000 0.0000 44.1790 0.0000 0.0000
# 5 0.0000 0.0000 0.0000 0.0000 7.3952 0.0000
# 6 0.0000 0.0000 0.0000 0.0000 0.0000 24.6104
#
#
#
# Elastic Compliance Matrix: (Units=1/GPa)
#
#
# Indices 1 2 3 4 5 6 
#
# 1 0.045900 -0.008341 0.000317 0.000000 0.000000 0.000000
# 2 -0.008341 0.011937 -0.005704 0.000000 0.000000 0.000000
# 3 0.000317 -0.005704 0.011381 0.000000 0.000000 0.000000
# 4 0.000000 0.000000 0.000000 0.022635 0.000000 0.000000
# 5 0.000000 0.000000 0.000000 0.000000 0.135223 0.000000
# 6 0.000000 0.000000 0.000000 0.000000 0.000000 0.040633
#
#
# Mechanical properties :
#
#
# Convention : Reuss Voigt Hill
#
# Bulk Modulus (GPa) = 23.94589 52.94442 38.44515
# Shear Modulus (GPa) = 16.17678 27.09568 21.63623
#
# Velocity S-wave (km/s) = 2.86779 3.71152 3.31659
# Velocity P-wave (km/s) = 4.81037 6.72933 5.84908
#
# Compressibility (1/GPa) = 0.04176082
#
# Stress axis : x y z
#
# Youngs Moduli (GPa) = 21.78654 83.77427 87.86904
#
# Poissons Ratio (x) = 0.69879 -0.02786
# Poissons Ratio (y) = 0.18173 0.50121
# Poissons Ratio (z) = -0.00691 0.47785
#
# Static dielectric constant tensor:
#      x y z
#    x 3.362200 0.000000 0.000000 
#    y 0.000000 3.752100 0.000000 
#    z 0.000000 0.000000 3.645370 
# 
# 
# High freq. dielectric constant tensor:
#      x y z
#    x 1.746250 0.000000 0.000000 
#    y 0.000000 1.776870 0.000000 
#    z 0.000000 0.000000 1.782330 
# 
# From -- ./inp_files/24263.got.cif
#   From: 2010.03.12/outbox.cif.g09.slc.cpg/sg38_13_cif.got.tgz:24263.got - 2010.04.14 02:38:36.
