data_PCOD8179642
_publ_section_title
;
Structure prediction by ZEFSAII (Michael W. Deem and Ramdas Pophale) SiO2 
 PCOD8179642
Probable space group: A M M 2
;
_chemical_formula_sum "Si O2"
_cell_formula_units_Z 48
_cell_length_a 9.065539
_cell_length_b 16.722409
_cell_length_c 16.751217
_cell_angle_alpha 90.000000
_cell_angle_beta 90.000000
_cell_angle_gamma 90.000000
_cell_volume 2539.445148
_symmetry_space_group_name_H-M "A M M 2"
_symmetry_group_IT_number 38
_symmetry_cell_setting 'orthorhombic'
loop_
_space_group_symop_operation_xyz
x,y,z
-x,-y,z
-x,y,z
x,-y,z
x,1/2+y,1/2+z
-x,1/2-y,1/2+z
-x,1/2+y,1/2+z
x,1/2-y,1/2+z
loop_
_atom_site_type_symbol
_atom_site_label
_atom_site_fract_x
_atom_site_fract_y
_atom_site_fract_z
Si Si1 0.675928 0.500000 0.859270
Si Si2 0.675214 0.652789 0.761533
Si Si3 0.666270 0.136733 0.618784
Si Si4 0.173259 0.500000 0.029479
Si Si5 0.329438 0.326870 0.300677
Si Si6 0.670070 0.680422 0.585576
Si Si7 0.173693 0.908960 0.944478
O O1 0.500000 0.500000 0.865809
O O2 0.733866 0.577873 0.811974
O O3 0.744045 0.500000 0.945874
O O4 0.500000 0.655907 0.758057
O O5 0.729679 0.735246 0.802058
O O6 0.730643 0.646540 0.670085
O O7 0.500000 0.107109 0.600140
O O8 0.783242 0.078516 0.578492
O O9 0.692722 0.136286 0.713272
O O10 0.689107 0.224406 0.582662
O O11 0.000000 0.500000 0.014422
O O12 0.500000 0.329939 0.326683
O O13 0.235024 0.379119 0.360537
O O14 0.500000 0.656357 0.572559
O O15 0.766760 0.643972 0.516142
O O16 0.000000 0.900602 0.941969
O O17 0.224162 0.000000 0.957730
#
# Coordination Sequence:
#
# PCOD8179642 Si02
#       7
#     4   8   8   4   8   8   8
#     4  10  20  36  60  87 118 149 184 233 288 337
#     4   8  17  35  61  90 112 139 184 240 291 331
#     4   9  20  40  63  86 113 146 190 245 294 333
#     4  12  26  38  54  85 122 155 194 231 276 349
#     4   9  19  38  62  86 110 143 194 243 285 335
#     4   9  19  38  64  89 111 142 191 242 285 337
#     4  11  25  39  53  82 123 157 187 228 283 344
#
# _framework density 18.901767
#
# number of rings (size 3 to 8) (size 9 to 14) (size 15 to 20)
#    0.000    2.500    0.000    3.250    4.667    2.667 
#    0.000    3.333    0.000    0.000    0.000    0.000 
#    0.000    0.000    0.000    0.000    0.000    0.000 
#
# Total GULP energy -297620.844744 kJ/mol
# GULP energy per Si atom -12400.868531 kJ/mol
# Density = 1.885875 g / cm^3
# Si number density = 18.901767 Si / 1000 Ang^3
#
#
#
# Elastic Constant Matrix: (Units=GPa)
#
#
# Indices 1 2 3 4 5 6 
#
# 1 53.4187 43.0145 41.8610 0.0000 0.0000 0.0000
# 2 43.0145 99.5944 64.7756 0.0000 0.0000 0.0000
# 3 41.8610 64.7756 111.2829 0.0000 0.0000 0.0000
# 4 0.0000 0.0000 0.0000 28.7615 0.0000 0.0000
# 5 0.0000 0.0000 0.0000 0.0000 -9.3679 0.0000
# 6 0.0000 0.0000 0.0000 0.0000 0.0000 21.3518
#
#
#
# Elastic Compliance Matrix: (Units=1/GPa)
#
#
# Indices 1 2 3 4 5 6 
#
# 1 0.031198 -0.009400 -0.006264 0.000000 0.000000 0.000000
# 2 -0.009400 0.018990 -0.007518 0.000000 0.000000 0.000000
# 3 -0.006264 -0.007518 0.015718 0.000000 0.000000 0.000000
# 4 0.000000 0.000000 0.000000 0.034769 0.000000 0.000000
# 5 0.000000 0.000000 0.000000 0.000000 -0.106748 0.000000
# 6 0.000000 0.000000 0.000000 0.000000 0.000000 0.046834
#
#
# Mechanical properties :
#
#
# Convention : Reuss Voigt Hill
#
# Bulk Modulus (GPa) = 51.17019 62.62201 56.89610
# Shear Modulus (GPa) = 53.39592 15.79208 34.59400
#
# Velocity S-wave (km/s) = 5.32076 2.89361 4.28272
# Velocity P-wave (km/s) = 8.05467 6.66079 7.39066
#
# Compressibility (1/GPa) = 0.01954263
#
# Stress axis : x y z
#
# Youngs Moduli (GPa) = 32.05315 52.65884 63.62002
#
# Poissons Ratio (x) = 0.49501 0.39851
# Poissons Ratio (y) = 0.30131 0.47828
# Poissons Ratio (z) = 0.20078 0.39587
#
# Static dielectric constant tensor:
#      x y z
#    x 3.174230 0.000000 0.000000 
#    y 0.000000 3.680120 0.000000 
#    z 0.000000 0.000000 3.506910 
# 
# 
# High freq. dielectric constant tensor:
#      x y z
#    x 1.705180 0.000000 0.000000 
#    y 0.000000 1.745440 0.000000 
#    z 0.000000 0.000000 1.745770 
# 
# From -- ./inp_files/12121.got.cif
#   From: 2010.03.12/outbox.cif.g09.slc.cpg/sg38_7_cif.got.tgz:12121.got - 2010.04.14 02:38:36.
