data_PCOD8179336
_publ_section_title
;
Structure prediction by ZEFSAII (Michael W. Deem and Ramdas Pophale) SiO2 
 PCOD8179336
Probable space group: A M M 2
;
_chemical_formula_sum "Si O2"
_cell_formula_units_Z 64
_cell_length_a 19.136424
_cell_length_b 8.633431
_cell_length_c 20.459832
_cell_angle_alpha 90.000000
_cell_angle_beta 90.000000
_cell_angle_gamma 90.000000
_cell_volume 3380.230146
_symmetry_space_group_name_H-M "A M M 2"
_symmetry_group_IT_number 38
_symmetry_cell_setting 'orthorhombic'
loop_
_space_group_symop_operation_xyz
x,y,z
-x,-y,z
-x,y,z
x,-y,z
x,1/2+y,1/2+z
-x,1/2-y,1/2+z
-x,1/2+y,1/2+z
x,1/2-y,1/2+z
loop_
_atom_site_type_symbol
_atom_site_label
_atom_site_fract_x
_atom_site_fract_y
_atom_site_fract_z
Si Si1 0.791109 0.680099 0.416810
Si Si2 0.288177 0.679524 0.796716
Si Si3 0.791019 0.179478 0.163852
Si Si4 0.920347 0.679686 0.223656
Si Si5 0.281188 0.681642 0.041073
Si Si6 0.078551 0.179015 0.363298
Si Si7 0.420825 0.320111 0.246274
Si Si8 0.576023 0.816218 0.598827
O O1 0.807140 0.500000 0.418568
O O2 0.747429 0.720758 0.352752
O O3 0.747523 0.725399 0.480078
O O4 0.865772 0.768661 0.417829
O O5 0.278918 0.500000 0.814212
O O6 0.252572 0.722959 0.728197
O O7 0.369929 0.722725 0.793148
O O8 0.872071 0.219686 0.175896
O O9 0.764189 0.284485 0.104973
O O10 0.783291 0.000000 0.145196
O O11 0.902697 0.500000 0.214595
O O12 0.906042 0.723174 0.298588
O O13 0.000000 0.717689 0.204572
O O14 0.278729 0.500000 0.025799
O O15 0.361014 0.740802 0.052664
O O16 0.000000 0.209267 0.389705
O O17 0.089647 0.000000 0.345505
O O18 0.500000 0.294733 0.270887
O O19 0.399954 0.500000 0.249847
O O20 0.412538 0.255068 0.172525
O O21 0.500000 0.757646 0.572460
O O22 0.575689 0.000000 0.602519
#
# Coordination Sequence:
#
# PCOD8179336 Si02
#       8
#     8   8   8   8   8   8   8   8
#     4  12  25  40  59  83 118 156 197 241 289 347
#     4  11  22  36  57  85 117 151 193 239 286 340
#     4  11  22  36  57  85 118 151 190 238 286 339
#     4  10  20  34  56  87 118 150 191 237 289 345
#     4  11  22  38  61  85 117 154 194 239 291 351
#     4  10  20  36  59  86 115 147 188 237 289 346
#     4   9  17  32  56  86 117 149 190 239 292 346
#     4   8  15  30  55  85 112 143 185 230 280 341
#
# _framework density 18.933623000000001
#
# number of rings (size 3 to 8) (size 9 to 14) (size 15 to 20)
#    0.000    1.750    2.500    3.750    0.000    2.750 
#    0.000    1.250    0.000    7.500    0.000    0.000 
#    0.000    0.000    0.000    0.000    0.000    0.000 
#
# Total GULP energy -396855.186737 kJ/mol
# GULP energy per Si atom -12401.724586 kJ/mol
# Density = 1.889053 g / cm^3
# Si number density = 18.933623 Si / 1000 Ang^3
#
#
#
# Elastic Constant Matrix: (Units=GPa)
#
#
# Indices 1 2 3 4 5 6 
#
# 1 144.8486 30.1950 44.8330 0.0000 0.0000 0.0000
# 2 30.1950 45.1163 23.3633 0.0000 0.0000 0.0000
# 3 44.8330 23.3633 65.6348 0.0000 0.0000 0.0000
# 4 0.0000 0.0000 0.0000 28.0678 0.0000 0.0000
# 5 0.0000 0.0000 0.0000 0.0000 26.0171 0.0000
# 6 0.0000 0.0000 0.0000 0.0000 0.0000 28.6367
#
#
#
# Elastic Compliance Matrix: (Units=1/GPa)
#
#
# Indices 1 2 3 4 5 6 
#
# 1 0.009198 -0.003558 -0.005016 0.000000 0.000000 0.000000
# 2 -0.003558 0.028551 -0.007732 0.000000 0.000000 0.000000
# 3 -0.005016 -0.007732 0.021415 0.000000 0.000000 0.000000
# 4 0.000000 0.000000 0.000000 0.035628 0.000000 0.000000
# 5 0.000000 0.000000 0.000000 0.000000 0.038436 0.000000
# 6 0.000000 0.000000 0.000000 0.000000 0.000000 0.034920
#
#
# Mechanical properties :
#
#
# Convention : Reuss Voigt Hill
#
# Bulk Modulus (GPa) = 37.66546 50.26471 43.96508
# Shear Modulus (GPa) = 23.85364 27.02487 25.43926
#
# Velocity S-wave (km/s) = 3.55330 3.78212 3.66949
# Velocity P-wave (km/s) = 6.06392 6.75856 6.42064
#
# Compressibility (1/GPa) = 0.02654952
#
# Stress axis : x y z
#
# Youngs Moduli (GPa) = 108.71721 35.02562 46.69699
#
# Poissons Ratio (x) = 0.12463 0.23425
# Poissons Ratio (y) = 0.38686 0.36107
# Poissons Ratio (z) = 0.54536 0.27083
#
# Static dielectric constant tensor:
#      x y z
#    x 3.881530 0.000000 0.000000 
#    y 0.000000 3.344920 0.000000 
#    z 0.000000 0.000000 3.329080 
# 
# 
# High freq. dielectric constant tensor:
#      x y z
#    x 1.755280 0.000000 0.000000 
#    y 0.000000 1.733140 0.000000 
#    z 0.000000 0.000000 1.701390 
# 
# From -- ./inp_files/21364.got.cif
#   From: 2010.03.12/outbox.cif.g09.slc.cpg/sg38_11_cif.got.tgz:21364.got - 2010.04.14 02:38:36.
