data_PCOD8179009
_publ_section_title
;
Structure prediction by ZEFSAII (Michael W. Deem and Ramdas Pophale) SiO2 
 PCOD8179009
Probable space group: A M M 2
;
_chemical_formula_sum "Si O2"
_cell_formula_units_Z 56
_cell_length_a 9.113391
_cell_length_b 16.651682
_cell_length_c 19.549338
_cell_angle_alpha 90.000000
_cell_angle_beta 90.000000
_cell_angle_gamma 90.000000
_cell_volume 2966.676337
_symmetry_space_group_name_H-M "A M M 2"
_symmetry_group_IT_number 38
_symmetry_cell_setting 'orthorhombic'
loop_
_space_group_symop_operation_xyz
x,y,z
-x,-y,z
-x,y,z
x,-y,z
x,1/2+y,1/2+z
-x,1/2-y,1/2+z
-x,1/2+y,1/2+z
x,1/2-y,1/2+z
loop_
_atom_site_type_symbol
_atom_site_label
_atom_site_fract_x
_atom_site_fract_y
_atom_site_fract_z
Si Si1 0.166596 0.410545 0.240190
Si Si2 0.829508 0.165973 0.204540
Si Si3 0.329244 0.729721 0.310171
Si Si4 0.174367 0.000000 0.138416
Si Si5 0.666216 0.500000 0.494549
Si Si6 0.169419 0.236017 0.569370
Si Si7 0.332124 0.412109 0.099243
Si Si8 0.332742 0.673820 0.458018
O O1 0.170761 0.500000 0.271568
O O2 0.264686 0.354376 0.286287
O O3 0.229882 0.411762 0.164757
O O4 0.000000 0.377478 0.236968
O O5 0.746318 0.193992 0.273425
O O6 0.800556 0.232790 0.146269
O O7 0.000000 0.159753 0.222441
O O8 0.770978 0.079110 0.179538
O O9 0.500000 0.732671 0.292479
O O10 0.300697 0.728391 0.391468
O O11 0.000000 0.000000 0.131886
O O12 0.234023 0.000000 0.061836
O O13 0.500000 0.500000 0.521978
O O14 0.694435 0.421689 0.446917
O O15 0.266380 0.157283 0.551172
O O16 0.219125 0.303832 0.517040
O O17 0.000000 0.216290 0.557763
O O18 0.500000 0.392466 0.118839
O O19 0.322368 0.500000 0.063388
O O20 0.500000 0.688858 0.482059
#
# Coordination Sequence:
#
# PCOD8179009 Si02
#       8
#     8   8   8   4   4   8   8   8
#     4  10  20  33  50  77 112 146 182 224 268 322
#     4  10  21  37  59  86 116 148 190 242 294 350
#     4  11  23  37  57  82 114 156 195 236 287 347
#     4  10  20  38  62  88 116 147 190 245 298 351
#     4  10  20  36  58  86 120 155 192 241 292 349
#     4  11  21  35  59  86 114 149 187 237 291 347
#     4  10  20  34  55  82 110 143 183 229 279 333
#     4  10  23  39  56  82 118 156 196 238 290 356
#
# _framework density 18.876342999999999
#
# number of rings (size 3 to 8) (size 9 to 14) (size 15 to 20)
#    0.000    1.714    2.857    1.714    1.000    4.000 
#    0.000    0.000    1.571    0.000    0.000    0.000 
#    0.000    0.000    0.000    0.000    0.000    0.000 
#
# Total GULP energy -347129.256305 kJ/mol
# GULP energy per Si atom -12397.473439 kJ/mol
# Density = 1.883338 g / cm^3
# Si number density = 18.876343 Si / 1000 Ang^3
#
#
#
# Elastic Constant Matrix: (Units=GPa)
#
#
# Indices 1 2 3 4 5 6 
#
# 1 71.2923 40.5309 39.7255 0.0000 0.0000 0.0000
# 2 40.5309 108.2308 27.6321 0.0000 0.0000 0.0000
# 3 39.7255 27.6321 66.7165 0.0000 0.0000 0.0000
# 4 0.0000 0.0000 0.0000 26.0835 0.0000 0.0000
# 5 0.0000 0.0000 0.0000 0.0000 14.2074 0.0000
# 6 0.0000 0.0000 0.0000 0.0000 0.0000 32.3839
#
#
#
# Elastic Compliance Matrix: (Units=1/GPa)
#
#
# Indices 1 2 3 4 5 6 
#
# 1 0.024011 -0.005973 -0.011823 0.000000 0.000000 0.000000
# 2 -0.005973 0.011818 -0.001338 0.000000 0.000000 0.000000
# 3 -0.011823 -0.001338 0.022583 0.000000 0.000000 0.000000
# 4 0.000000 0.000000 0.000000 0.038338 0.000000 0.000000
# 5 0.000000 0.000000 0.000000 0.000000 0.070386 0.000000
# 6 0.000000 0.000000 0.000000 0.000000 0.000000 0.030880
#
#
# Mechanical properties :
#
#
# Convention : Reuss Voigt Hill
#
# Bulk Modulus (GPa) = 49.64463 51.33518 50.48991
# Shear Modulus (GPa) = 20.57632 23.75836 22.16734
#
# Velocity S-wave (km/s) = 3.30519 3.55157 3.43059
# Velocity P-wave (km/s) = 6.39708 6.63873 6.51903
#
# Compressibility (1/GPa) = 0.02014316
#
# Stress axis : x y z
#
# Youngs Moduli (GPa) = 41.64832 84.61677 44.28159
#
# Poissons Ratio (x) = 0.50543 0.52354
# Poissons Ratio (y) = 0.24877 0.05925
# Poissons Ratio (z) = 0.49240 0.11322
#
# Static dielectric constant tensor:
#      x y z
#    x 3.552900 0.000000 0.000000 
#    y 0.000000 3.864250 0.000000 
#    z 0.000000 0.000000 3.144750 
# 
# 
# High freq. dielectric constant tensor:
#      x y z
#    x 1.742300 0.000000 0.000000 
#    y 0.000000 1.743280 0.000000 
#    z 0.000000 0.000000 1.697990 
# 
# From -- ./inp_files/19842.got.cif
#   From: 2010.03.12/outbox.cif.g09.slc.cpg/sg38_10_cif.got.tgz:19842.got - 2010.04.14 02:38:36.
