data_PCOD8179419
_publ_section_title
;
Structure prediction by ZEFSAII (Michael W. Deem and Ramdas Pophale) SiO2 
 PCOD8179419
Probable space group: A M M 2
;
_chemical_formula_sum "Si O2"
_cell_formula_units_Z 64
_cell_length_a 9.058319
_cell_length_b 18.444482
_cell_length_c 20.787326
_cell_angle_alpha 90.000000
_cell_angle_beta 90.000000
_cell_angle_gamma 90.000000
_cell_volume 3473.063315
_symmetry_space_group_name_H-M "A M M 2"
_symmetry_group_IT_number 38
_symmetry_cell_setting 'orthorhombic'
loop_
_space_group_symop_operation_xyz
x,y,z
-x,-y,z
-x,y,z
x,-y,z
x,1/2+y,1/2+z
-x,1/2-y,1/2+z
-x,1/2+y,1/2+z
x,1/2-y,1/2+z
loop_
_atom_site_type_symbol
_atom_site_label
_atom_site_fract_x
_atom_site_fract_y
_atom_site_fract_z
Si Si1 0.675733 0.171102 0.418750
Si Si2 0.333747 0.086061 0.661356
Si Si3 0.828365 0.916595 0.788200
Si Si4 0.826476 0.581728 0.533963
Si Si5 0.675762 0.419352 0.797760
Si Si6 0.172830 0.915000 0.532987
Si Si7 0.826467 0.324218 0.412973
Si Si8 0.664118 0.586420 0.658086
O O1 0.500000 0.168249 0.425332
O O2 0.733005 0.133191 0.353510
O O3 0.746000 0.129296 0.478070
O O4 0.730342 0.252622 0.415531
O O5 0.500000 0.116668 0.655575
O O6 0.261411 0.114673 0.727358
O O7 0.237958 0.112736 0.600803
O O8 0.333532 0.000000 0.662886
O O9 0.785174 0.868874 0.849462
O O10 0.000000 0.910042 0.771350
O O11 0.786953 0.000000 0.803423
O O12 0.766908 0.500000 0.523766
O O13 0.774926 0.628598 0.473661
O O14 0.762976 0.616378 0.599718
O O15 0.000000 0.581624 0.540551
O O16 0.500000 0.423200 0.796575
O O17 0.739620 0.500000 0.810808
O O18 0.728897 0.389153 0.727826
O O19 0.000000 0.897542 0.531887
O O20 0.204352 0.000000 0.522489
O O21 0.000000 0.305887 0.415684
O O22 0.500000 0.617758 0.647943
O O23 0.661386 0.500000 0.658266
#
# Coordination Sequence:
#
# PCOD8179419 Si02
#       8
#     8   8   8   8   8   8   8   8
#     4  11  22  35  52  74 102 137 175 214 255 302
#     4   9  17  30  51  80 109 133 163 209 260 308
#     4   9  17  32  55  78  99 131 176 220 263 312
#     4   9  17  31  52  76 100 129 167 209 252 298
#     4   8  15  30  52  75  98 126 160 198 243 295
#     4  10  20  35  56  80 105 134 169 210 257 310
#     4  10  21  36  51  70 102 140 174 212 258 308
#     4   8  14  27  49  75  99 123 156 201 250 298
#
# _framework density 18.427537000000001
#
# number of rings (size 3 to 8) (size 9 to 14) (size 15 to 20)
#    0.000    2.750    0.000    2.625    0.000    5.250 
#    0.000    2.500    0.000   12.750    0.000    0.000 
#    0.000    0.000    0.000    0.000    0.000    0.000 
#
# Total GULP energy -396726.239098 kJ/mol
# GULP energy per Si atom -12397.694972 kJ/mol
# Density = 1.838559 g / cm^3
# Si number density = 18.427537 Si / 1000 Ang^3
#
#
#
# Elastic Constant Matrix: (Units=GPa)
#
#
# Indices 1 2 3 4 5 6 
#
# 1 70.5129 43.6747 67.3799 0.0000 0.0000 0.0000
# 2 43.6747 77.4358 72.5689 0.0000 0.0000 0.0000
# 3 67.3799 72.5689 200.2661 0.0000 0.0000 0.0000
# 4 0.0000 0.0000 0.0000 -0.2149 0.0000 0.0000
# 5 0.0000 0.0000 0.0000 0.0000 34.8755 0.0000
# 6 0.0000 0.0000 0.0000 0.0000 0.0000 22.9466
#
#
#
# Elastic Compliance Matrix: (Units=1/GPa)
#
#
# Indices 1 2 3 4 5 6 
#
# 1 0.024637 -0.009278 -0.004927 0.000000 0.000000 0.000000
# 2 -0.009278 0.023048 -0.005230 0.000000 0.000000 0.000000
# 3 -0.004927 -0.005230 0.008546 0.000000 0.000000 0.000000
# 4 0.000000 0.000000 0.000000 -4.652294 0.000000 0.000000
# 5 0.000000 0.000000 0.000000 0.000000 0.028673 0.000000
# 6 0.000000 0.000000 0.000000 0.000000 0.000000 0.043579
#
#
# Mechanical properties :
#
#
# Convention : Reuss Voigt Hill
#
# Bulk Modulus (GPa) = 57.60131 79.49574 68.54853
# Shear Modulus (GPa) = -1.11628 22.49419 10.68896
#
# Velocity S-wave (km/s) = -0.77916 3.49762 2.41104
# Velocity P-wave (km/s) = 5.52419 7.71650 6.71048
#
# Compressibility (1/GPa) = 0.01736072
#
# Stress axis : x y z
#
# Youngs Moduli (GPa) = 40.59013 43.38708 117.00946
#
# Poissons Ratio (x) = 0.40254 0.57651
# Poissons Ratio (y) = 0.37659 0.61199
# Poissons Ratio (z) = 0.19999 0.22693
#
# Static dielectric constant tensor:
#      x y z
#    x 3.328170 0.000000 0.000000 
#    y 0.000000 3.143300 0.000000 
#    z 0.000000 0.000000 3.776790 
# 
# 
# High freq. dielectric constant tensor:
#      x y z
#    x 1.702450 0.000000 0.000000 
#    y 0.000000 1.681090 0.000000 
#    z 0.000000 0.000000 1.735980 
# 
# From -- ./inp_files/20092.got.cif
#   From: 2010.03.12/outbox.cif.g09.slc.cpg/sg38_11_cif.got.tgz:20092.got - 2010.04.14 02:38:36.
