data_PCOD8179138
_publ_section_title
;
Structure prediction by ZEFSAII (Michael W. Deem and Ramdas Pophale) SiO2 
 PCOD8179138
Probable space group: A M M 2
;
_chemical_formula_sum "Si O2"
_cell_formula_units_Z 40
_cell_length_a 21.295775
_cell_length_b 10.892778
_cell_length_c 8.842584
_cell_angle_alpha 90.000000
_cell_angle_beta 90.000000
_cell_angle_gamma 90.000000
_cell_volume 2051.215532
_symmetry_space_group_name_H-M "A M M 2"
_symmetry_group_IT_number 38
_symmetry_cell_setting 'orthorhombic'
loop_
_space_group_symop_operation_xyz
x,y,z
-x,-y,z
-x,y,z
x,-y,z
x,1/2+y,1/2+z
-x,1/2-y,1/2+z
-x,1/2+y,1/2+z
x,1/2-y,1/2+z
loop_
_atom_site_type_symbol
_atom_site_label
_atom_site_fract_x
_atom_site_fract_y
_atom_site_fract_z
Si Si1 0.872262 0.140736 0.500000
Si Si2 0.730609 0.635407 0.993977
Si Si3 0.430904 0.862049 0.030353
Si Si4 0.071845 0.363465 0.678778
Si Si5 0.349263 0.213970 0.761779
O O1 0.800641 0.179684 0.534375
O O2 0.915149 0.247038 0.571800
O O3 0.882785 0.145847 0.321604
O O4 0.886795 0.000000 0.558952
O O5 0.734187 0.500000 0.924503
O O6 0.701277 0.718355 0.864976
O O7 0.689189 0.629264 0.146460
O O8 0.500000 0.798733 0.015273
O O9 0.395721 0.861235 0.869316
O O10 0.440585 0.000000 0.080880
O O11 0.391217 0.804702 0.164239
O O12 0.082524 0.500000 0.602364
O O13 0.000000 0.353694 0.733136
#
# Coordination Sequence:
#
# PCOD8179138 Si02
#       5
#     8   8   8   8   8
#     4  10  21  37  57  81 109 142 180 222 268 318
#     4  10  20  35  54  77 105 136 173 216 261 311
#     4  10  20  34  52  75 103 135 172 213 257 307
#     4  10  21  37  56  80 110 142 178 221 268 318
#     4  10  20  34  53  76 103 136 172 212 260 310
#
# _framework density 19.500632
#
# number of rings (size 3 to 8) (size 9 to 14) (size 15 to 20)
#    0.000    2.000    0.000    3.600    0.000    2.000 
#    0.000    5.000    0.000    9.600    0.000    0.000 
#    0.000    0.000    0.000    0.000    0.000    0.000 
#
# Total GULP energy -247864.952969 kJ/mol
# GULP energy per Si atom -12393.247648 kJ/mol
# Density = 1.945625 g / cm^3
# Si number density = 19.500632 Si / 1000 Ang^3
#
#
#
# Elastic Constant Matrix: (Units=GPa)
#
#
# Indices 1 2 3 4 5 6 
#
# 1 98.1795 38.7525 19.7962 0.0000 0.0000 0.0000
# 2 38.7525 105.1012 33.8540 0.0000 0.0000 0.0000
# 3 19.7962 33.8540 65.3441 0.0000 0.0000 0.0000
# 4 0.0000 0.0000 0.0000 19.6387 0.0000 0.0000
# 5 0.0000 0.0000 0.0000 0.0000 12.8791 0.0000
# 6 0.0000 0.0000 0.0000 0.0000 0.0000 29.6115
#
#
#
# Elastic Compliance Matrix: (Units=1/GPa)
#
#
# Indices 1 2 3 4 5 6 
#
# 1 0.012062 -0.003925 -0.001620 0.000000 0.000000 0.000000
# 2 -0.003925 0.012698 -0.005389 0.000000 0.000000 0.000000
# 3 -0.001620 -0.005389 0.018587 0.000000 0.000000 0.000000
# 4 0.000000 0.000000 0.000000 0.050920 0.000000 0.000000
# 5 0.000000 0.000000 0.000000 0.000000 0.077645 0.000000
# 6 0.000000 0.000000 0.000000 0.000000 0.000000 0.033771
#
#
# Mechanical properties :
#
#
# Convention : Reuss Voigt Hill
#
# Bulk Modulus (GPa) = 46.56407 50.38115 48.47261
# Shear Modulus (GPa) = 21.30281 24.17400 22.73841
#
# Velocity S-wave (km/s) = 3.30876 3.52469 3.41843
# Velocity P-wave (km/s) = 6.20703 6.51585 6.36332
#
# Compressibility (1/GPa) = 0.02147579
#
# Stress axis : x y z
#
# Youngs Moduli (GPa) = 82.90828 78.75279 53.80180
#
# Poissons Ratio (x) = 0.30913 0.08718
# Poissons Ratio (y) = 0.32544 0.28996
# Poissons Ratio (z) = 0.13435 0.42444
#
# Static dielectric constant tensor:
#      x y z
#    x 3.911970 0.000000 0.000000 
#    y 0.000000 3.562930 0.000000 
#    z 0.000000 0.000000 3.369000 
# 
# 
# High freq. dielectric constant tensor:
#      x y z
#    x 1.778080 0.000000 0.000000 
#    y 0.000000 1.760530 0.000000 
#    z 0.000000 0.000000 1.746790 
# 
# From -- ./inp_files/6065.got.cif
#   From: 2010.03.12/outbox.cif.g09.slc.cpg/sg38_4_cif.got.tgz:6065.got - 2010.04.14 02:38:36.
