data_PCOD8179946
_publ_section_title
;
Structure prediction by ZEFSAII (Michael W. Deem and Ramdas Pophale) SiO2 
 PCOD8179946
Probable space group: A M M 2
;
_chemical_formula_sum "Si O2"
_cell_formula_units_Z 48
_cell_length_a 9.134066
_cell_length_b 7.572989
_cell_length_c 34.689699
_cell_angle_alpha 90.000000
_cell_angle_beta 90.000000
_cell_angle_gamma 90.000000
_cell_volume 2399.562150
_symmetry_space_group_name_H-M "A M M 2"
_symmetry_group_IT_number 38
_symmetry_cell_setting 'orthorhombic'
loop_
_space_group_symop_operation_xyz
x,y,z
-x,-y,z
-x,y,z
x,-y,z
x,1/2+y,1/2+z
-x,1/2-y,1/2+z
-x,1/2+y,1/2+z
x,1/2-y,1/2+z
loop_
_atom_site_type_symbol
_atom_site_label
_atom_site_fract_x
_atom_site_fract_y
_atom_site_fract_z
Si Si1 0.162712 0.209403 0.177180
Si Si2 0.828886 0.708671 0.944787
Si Si3 0.673389 0.500000 0.307684
Si Si4 0.673014 0.699674 0.751710
Si Si5 0.165942 0.291663 0.592225
Si Si6 0.340058 0.299318 0.018672
Si Si7 0.324586 0.000000 0.895577
O O1 0.268444 0.276296 0.211033
O O2 0.215830 0.274317 0.134844
O O3 0.000000 0.282598 0.185349
O O4 0.159708 0.000000 0.176271
O O5 0.802210 0.500000 0.937532
O O6 0.000000 0.754545 0.942924
O O7 0.741321 0.820637 0.913138
O O8 0.769359 0.777388 0.986295
O O9 0.500000 0.500000 0.306284
O O10 0.731879 0.324271 0.286021
O O11 0.727996 0.500000 0.351317
O O12 0.500000 0.703983 0.748975
O O13 0.729517 0.500000 0.759569
O O14 0.176358 0.500000 0.588902
O O15 0.272905 0.209115 0.561055
O O16 0.000000 0.228391 0.584275
O O17 0.500000 0.203826 0.017630
O O18 0.364929 0.500000 0.007606
O O19 0.500000 0.000000 0.900181
#
# Coordination Sequence:
#
# PCOD8179946 Si02
#       7
#     8   8   4   8   8   8   4
#     4   8  15  30  50  73 103 139 181 225 271 324
#     4  10  22  41  63  85 114 154 194 235 289 352
#     4   9  20  37  55  83 115 141 179 229 279 341
#     4   9  17  32  55  78 104 143 183 221 272 330
#     4   9  18  32  51  75 105 143 184 227 275 331
#     4  10  21  36  53  77 109 143 184 231 279 332
#     4  11  23  39  63  91 119 151 191 241 295 351
#
# _framework density 20.00365
#
# number of rings (size 3 to 8) (size 9 to 14) (size 15 to 20)
#    0.000    2.667    0.000    2.250    1.167    3.667 
#    1.500    5.417    0.000    2.000    0.000    0.000 
#    0.000    0.000    0.000    0.000    0.000    0.000 
#
# Total GULP energy -297450.112858 kJ/mol
# GULP energy per Si atom -12393.754702 kJ/mol
# Density = 1.995812 g / cm^3
# Si number density = 20.003650 Si / 1000 Ang^3
#
#
#
# Elastic Constant Matrix: (Units=GPa)
#
#
# Indices 1 2 3 4 5 6 
#
# 1 98.6384 35.7639 67.0937 0.0000 0.0000 0.0000
# 2 35.7639 70.4744 53.4821 0.0000 0.0000 0.0000
# 3 67.0937 53.4821 180.6348 0.0000 0.0000 0.0000
# 4 0.0000 0.0000 0.0000 21.1228 0.0000 0.0000
# 5 0.0000 0.0000 0.0000 0.0000 25.4820 0.0000
# 6 0.0000 0.0000 0.0000 0.0000 0.0000 20.4079
#
#
#
# Elastic Compliance Matrix: (Units=1/GPa)
#
#
# Indices 1 2 3 4 5 6 
#
# 1 0.014474 -0.004211 -0.004129 0.000000 0.000000 0.000000
# 2 -0.004211 0.019527 -0.004217 0.000000 0.000000 0.000000
# 3 -0.004129 -0.004217 0.008318 0.000000 0.000000 0.000000
# 4 0.000000 0.000000 0.000000 0.047342 0.000000 0.000000
# 5 0.000000 0.000000 0.000000 0.000000 0.039243 0.000000
# 6 0.000000 0.000000 0.000000 0.000000 0.000000 0.049001
#
#
# Mechanical properties :
#
#
# Convention : Reuss Voigt Hill
#
# Bulk Modulus (GPa) = 58.12772 73.60300 65.86536
# Shear Modulus (GPa) = 23.95144 26.29639 25.12392
#
# Velocity S-wave (km/s) = 3.46403 3.62965 3.54781
# Velocity P-wave (km/s) = 6.71722 7.37838 7.05555
#
# Compressibility (1/GPa) = 0.01720350
#
# Stress axis : x y z
#
# Youngs Moduli (GPa) = 69.09140 51.21050 120.21621
#
# Poissons Ratio (x) = 0.21567 0.49638
# Poissons Ratio (y) = 0.29098 0.50699
# Poissons Ratio (z) = 0.28528 0.21597
#
# Static dielectric constant tensor:
#      x y z
#    x 3.797830 0.000000 0.000000 
#    y 0.000000 3.683790 0.000000 
#    z 0.000000 0.000000 3.984520 
# 
# 
# High freq. dielectric constant tensor:
#      x y z
#    x 1.769190 0.000000 0.000000 
#    y 0.000000 1.772910 0.000000 
#    z 0.000000 0.000000 1.781700 
# 
# From -- ./inp_files/24395.got.cif
#   From: 2010.03.12/outbox.cif.g09.slc.cpg/sg38_13_cif.got.tgz:24395.got - 2010.04.14 02:38:36.
