data_PCOD8179239
_publ_section_title
;
Structure prediction by ZEFSAII (Michael W. Deem and Ramdas Pophale) SiO2 
 PCOD8179239
Probable space group: A M M 2
;
_chemical_formula_sum "Si O2"
_cell_formula_units_Z 64
_cell_length_a 17.726462
_cell_length_b 8.941827
_cell_length_c 20.551195
_cell_angle_alpha 90.000000
_cell_angle_beta 90.000000
_cell_angle_gamma 90.000000
_cell_volume 3257.507372
_symmetry_space_group_name_H-M "A M M 2"
_symmetry_group_IT_number 38
_symmetry_cell_setting 'orthorhombic'
loop_
_space_group_symop_operation_xyz
x,y,z
-x,-y,z
-x,y,z
x,-y,z
x,1/2+y,1/2+z
-x,1/2-y,1/2+z
-x,1/2+y,1/2+z
x,1/2-y,1/2+z
loop_
_atom_site_type_symbol
_atom_site_label
_atom_site_fract_x
_atom_site_fract_y
_atom_site_fract_z
Si Si1 0.335404 0.676673 0.094680
Si Si2 0.084964 0.178282 0.451518
Si Si3 0.412398 0.824568 0.973415
Si Si4 0.163904 0.323154 0.081540
Si Si5 0.342717 0.676898 0.847928
Si Si6 0.827126 0.322330 0.827106
Si Si7 0.087189 0.326091 0.701053
Si Si8 0.413351 0.671034 0.227556
O O1 0.343296 0.500000 0.082923
O O2 0.249545 0.732973 0.088884
O O3 0.363600 0.722816 0.166296
O O4 0.386056 0.760291 0.042170
O O5 0.131751 0.236753 0.513338
O O6 0.125838 0.243137 0.387680
O O7 0.000000 0.241444 0.454489
O O8 0.083941 0.000000 0.450248
O O9 0.500000 0.787131 0.963859
O O10 0.366358 0.748329 0.915775
O O11 0.396888 0.000000 0.971835
O O12 0.160592 0.500000 0.085513
O O13 0.110303 0.260308 0.136887
O O14 0.346782 0.500000 0.855908
O O15 0.258690 0.733109 0.831283
O O16 0.396988 0.726824 0.789738
O O17 0.831568 0.500000 0.828540
O O18 0.864014 0.261238 0.760879
O O19 0.103769 0.500000 0.690182
O O20 0.000000 0.296592 0.716824
O O21 0.500000 0.690890 0.207473
O O22 0.395336 0.500000 0.246476
#
# Coordination Sequence:
#
# PCOD8179239 Si02
#       8
#     8   8   8   8   8   8   8   8
#     4  10  21  38  60  84 111 146 187 230 278 334
#     4   9  16  28  49  75 102 134 172 213 256 303
#     4  11  24  40  58  82 113 147 183 228 282 338
#     4  10  20  34  54  81 111 141 176 221 271 323
#     4  11  22  36  57  82 109 144 186 231 277 329
#     4   9  18  33  52  76 105 136 176 224 267 311
#     4  10  20  34  54  80 110 145 183 224 272 325
#     4  10  21  37  56  79 109 143 179 223 275 329
#
# _framework density 19.646923999999999
#
# number of rings (size 3 to 8) (size 9 to 14) (size 15 to 20)
#    0.000    2.000    0.000    3.750    0.000    8.500 
#    0.000    0.625    0.000    0.750    0.000    0.000 
#    0.000    0.000    0.000    0.000    0.000    0.000 
#
# Total GULP energy -396932.023953 kJ/mol
# GULP energy per Si atom -12404.125749 kJ/mol
# Density = 1.960221 g / cm^3
# Si number density = 19.646924 Si / 1000 Ang^3
#
#
#
# Elastic Constant Matrix: (Units=GPa)
#
#
# Indices 1 2 3 4 5 6 
#
# 1 80.8557 18.8870 17.5170 0.0000 0.0000 0.0000
# 2 18.8870 35.9249 21.5622 0.0000 0.0000 0.0000
# 3 17.5170 21.5622 109.1223 0.0000 0.0000 0.0000
# 4 0.0000 0.0000 0.0000 27.9278 0.0000 0.0000
# 5 0.0000 0.0000 0.0000 0.0000 46.4639 0.0000
# 6 0.0000 0.0000 0.0000 0.0000 0.0000 23.2188
#
#
#
# Elastic Compliance Matrix: (Units=1/GPa)
#
#
# Indices 1 2 3 4 5 6 
#
# 1 0.014179 -0.006907 -0.000911 0.000000 0.000000 0.000000
# 2 -0.006907 0.034946 -0.005796 0.000000 0.000000 0.000000
# 3 -0.000911 -0.005796 0.010456 0.000000 0.000000 0.000000
# 4 0.000000 0.000000 0.000000 0.035807 0.000000 0.000000
# 5 0.000000 0.000000 0.000000 0.000000 0.021522 0.000000
# 6 0.000000 0.000000 0.000000 0.000000 0.000000 0.043068
#
#
# Mechanical properties :
#
#
# Convention : Reuss Voigt Hill
#
# Bulk Modulus (GPa) = 30.91126 37.98171 34.44648
# Shear Modulus (GPa) = 25.25363 30.71787 27.98575
#
# Velocity S-wave (km/s) = 3.58910 3.95840 3.77826
# Velocity P-wave (km/s) = 5.73960 6.34555 6.05017
#
# Compressibility (1/GPa) = 0.03235067
#
# Stress axis : x y z
#
# Youngs Moduli (GPa) = 70.52896 28.61529 95.64192
#
# Poissons Ratio (x) = 0.19765 0.08715
# Poissons Ratio (y) = 0.48716 0.55439
# Poissons Ratio (z) = 0.06426 0.16587
#
# Static dielectric constant tensor:
#      x y z
#    x 3.822010 0.000000 0.000000 
#    y 0.000000 3.252910 0.000000 
#    z 0.000000 0.000000 3.686950 
# 
# 
# High freq. dielectric constant tensor:
#      x y z
#    x 1.783730 0.000000 0.000000 
#    y 0.000000 1.731700 0.000000 
#    z 0.000000 0.000000 1.782520 
# 
# From -- ./inp_files/21437.got.cif
#   From: 2010.03.12/outbox.cif.g09.slc.cpg/sg38_11_cif.got.tgz:21437.got - 2010.04.14 02:38:36.
