data_PCOD8179501
_publ_section_title
;
Structure prediction by ZEFSAII (Michael W. Deem and Ramdas Pophale) SiO2 
 PCOD8179501
Probable space group: A M M 2
;
_chemical_formula_sum "Si O2"
_cell_formula_units_Z 48
_cell_length_a 9.122373
_cell_length_b 22.689752
_cell_length_c 11.696777
_cell_angle_alpha 90.000000
_cell_angle_beta 90.000000
_cell_angle_gamma 90.000000
_cell_volume 2421.050147
_symmetry_space_group_name_H-M "A M M 2"
_symmetry_group_IT_number 38
_symmetry_cell_setting 'orthorhombic'
loop_
_space_group_symop_operation_xyz
x,y,z
-x,-y,z
-x,y,z
x,-y,z
x,1/2+y,1/2+z
-x,1/2-y,1/2+z
-x,1/2+y,1/2+z
x,1/2-y,1/2+z
loop_
_atom_site_type_symbol
_atom_site_label
_atom_site_fract_x
_atom_site_fract_y
_atom_site_fract_z
Si Si1 0.669510 0.841902 0.733770
Si Si2 0.167215 0.644209 0.466320
Si Si3 0.166025 0.231392 0.173036
Si Si4 0.660467 0.932528 0.127253
Si Si5 0.670205 0.431635 0.038357
Si Si6 0.172310 0.378008 0.826403
O O1 0.500000 0.835933 0.767791
O O2 0.770901 0.839105 0.844038
O O3 0.719692 0.784709 0.662531
O O4 0.695501 0.901893 0.662111
O O5 0.180197 0.698737 0.552425
O O6 0.261804 0.590700 0.513917
O O7 0.000000 0.623713 0.453856
O O8 0.206234 0.187792 0.279129
O O9 0.000000 0.254791 0.189759
O O10 0.500000 0.902329 0.143879
O O11 0.759504 0.924377 0.238619
O O12 0.636289 0.000000 0.104781
O O13 0.500000 0.429131 0.003552
O O14 0.724026 0.500000 0.041457
O O15 0.759456 0.391263 0.949718
O O16 0.000000 0.388992 0.832489
#
# Coordination Sequence:
#
# PCOD8179501 Si02
#       6
#     8   8   8   8   8   8
#     4  11  24  39  60  88 117 156 201 248 300 362
#     4  10  22  40  60  85 117 154 196 243 298 357
#     4   9  21  40  60  85 118 154 192 245 306 360
#     4  10  20  35  58  87 119 155 194 242 297 348
#     4  10  23  42  60  84 122 164 204 249 303 359
#     4  10  21  37  60  90 120 155 199 248 301 356
#
# _framework density 19.826105999999999
#
# number of rings (size 3 to 8) (size 9 to 14) (size 15 to 20)
#    0.000    2.000    0.000    3.500    2.333    9.667 
#    0.000    1.667    0.000    0.000    0.000    0.000 
#    0.000    0.000    0.000    0.000    0.000    0.000 
#
# Total GULP energy -297587.489595 kJ/mol
# GULP energy per Si atom -12399.478733 kJ/mol
# Density = 1.978098 g / cm^3
# Si number density = 19.826106 Si / 1000 Ang^3
#
#
#
# Elastic Constant Matrix: (Units=GPa)
#
#
# Indices 1 2 3 4 5 6 
#
# 1 110.2143 44.3242 45.4246 0.0000 0.0000 0.0000
# 2 44.3242 84.2522 30.6379 0.0000 0.0000 0.0000
# 3 45.4246 30.6379 94.2154 0.0000 0.0000 0.0000
# 4 0.0000 0.0000 0.0000 19.9713 0.0000 0.0000
# 5 0.0000 0.0000 0.0000 0.0000 32.1495 0.0000
# 6 0.0000 0.0000 0.0000 0.0000 0.0000 21.4848
#
#
#
# Elastic Compliance Matrix: (Units=1/GPa)
#
#
# Indices 1 2 3 4 5 6 
#
# 1 0.013062 -0.005196 -0.004608 0.000000 0.000000 0.000000
# 2 -0.005196 0.015528 -0.002544 0.000000 0.000000 0.000000
# 3 -0.004608 -0.002544 0.013663 0.000000 0.000000 0.000000
# 4 0.000000 0.000000 0.000000 0.050072 0.000000 0.000000
# 5 0.000000 0.000000 0.000000 0.000000 0.031105 0.000000
# 6 0.000000 0.000000 0.000000 0.000000 0.000000 0.046544
#
#
# Mechanical properties :
#
#
# Convention : Reuss Voigt Hill
#
# Bulk Modulus (GPa) = 56.95972 58.82838 57.89405
# Shear Modulus (GPa) = 24.93478 25.94079 25.43778
#
# Velocity S-wave (km/s) = 3.55022 3.62113 3.58585
# Velocity P-wave (km/s) = 6.75259 6.87168 6.81239
#
# Compressibility (1/GPa) = 0.01755627
#
# Stress axis : x y z
#
# Youngs Moduli (GPa) = 76.55728 64.39977 73.19020
#
# Poissons Ratio (x) = 0.33463 0.33726
# Poissons Ratio (y) = 0.39781 0.18622
# Poissons Ratio (z) = 0.35277 0.16385
#
# Static dielectric constant tensor:
#      x y z
#    x 5.780330 0.000000 0.000000 
#    y 0.000000 3.546960 0.000000 
#    z 0.000000 0.000000 3.557410 
# 
# 
# High freq. dielectric constant tensor:
#      x y z
#    x 1.785870 0.000000 0.000000 
#    y 0.000000 1.767090 0.000000 
#    z 0.000000 0.000000 1.771810 
# 
# From -- ./inp_files/8134.got.cif
#   From: 2010.03.12/outbox.cif.g09.slc.cpg/sg38_5_cif.got.tgz:8134.got - 2010.04.14 02:38:36.
