data_PCOD8179190
_publ_section_title
;
Structure prediction by ZEFSAII (Michael W. Deem and Ramdas Pophale) SiO2 
 PCOD8179190
Probable space group: A M M 2
;
_chemical_formula_sum "Si O2"
_cell_formula_units_Z 56
_cell_length_a 14.163126
_cell_length_b 8.928109
_cell_length_c 25.303414
_cell_angle_alpha 90.000000
_cell_angle_beta 90.000000
_cell_angle_gamma 90.000000
_cell_volume 3199.614998
_symmetry_space_group_name_H-M "A M M 2"
_symmetry_group_IT_number 38
_symmetry_cell_setting 'orthorhombic'
loop_
_space_group_symop_operation_xyz
x,y,z
-x,-y,z
-x,y,z
x,-y,z
x,1/2+y,1/2+z
-x,1/2-y,1/2+z
-x,1/2+y,1/2+z
x,1/2-y,1/2+z
loop_
_atom_site_type_symbol
_atom_site_label
_atom_site_fract_x
_atom_site_fract_y
_atom_site_fract_z
Si Si1 0.891183 0.328216 0.765470
Si Si2 0.223907 0.174998 0.853786
Si Si3 0.890866 0.671424 0.643944
Si Si4 0.217429 0.176029 0.553424
Si Si5 0.607188 0.826365 0.400670
Si Si6 0.606911 0.324324 0.511878
Si Si7 0.890793 0.174866 0.957721
O O1 0.873084 0.500000 0.781821
O O2 0.827731 0.218746 0.799998
O O3 0.863194 0.302736 0.704690
O O4 0.000000 0.285752 0.774542
O O5 0.322917 0.264005 0.855928
O O6 0.158839 0.221677 0.903208
O O7 0.245534 0.000000 0.853207
O O8 0.871291 0.500000 0.627358
O O9 0.828468 0.781801 0.609099
O O10 0.000000 0.710441 0.634442
O O11 0.322206 0.246534 0.552669
O O12 0.153970 0.234929 0.505650
O O13 0.226467 0.000000 0.548661
O O14 0.500000 0.800045 0.381401
O O15 0.629038 0.735538 0.453673
O O16 0.626903 0.000000 0.411895
O O17 0.500000 0.285491 0.529009
O O18 0.625771 0.500000 0.511401
O O19 0.000000 0.218919 0.952750
O O20 0.877476 0.000000 0.969582
#
# Coordination Sequence:
#
# PCOD8179190 Si02
#       7
#     8   8   8   8   8   8   8
#     4   9  19  36  57  79 104 139 182 224 265 310
#     4  11  21  33  53  79 108 143 178 214 263 317
#     4   9  19  37  58  77 102 141 184 222 262 312
#     4  12  23  33  51  79 109 140 174 217 268 315
#     4  10  20  34  53  78 107 138 175 219 264 311
#     4  10  20  35  55  77 103 138 178 216 259 316
#     4  10  21  35  49  70 105 146 180 210 253 312
#
# _framework density 17.502106000000001
#
# number of rings (size 3 to 8) (size 9 to 14) (size 15 to 20)
#    0.000    1.857    1.429    4.286    0.000    6.000 
#    0.000    1.429    0.000    0.857    0.000    6.000 
#    0.000    0.000    0.000    0.000    0.000    0.000 
#
# Total GULP energy -347311.862433 kJ/mol
# GULP energy per Si atom -12403.995087 kJ/mol
# Density = 1.746227 g / cm^3
# Si number density = 17.502106 Si / 1000 Ang^3
#
#
#
# Elastic Constant Matrix: (Units=GPa)
#
#
# Indices 1 2 3 4 5 6 
#
# 1 114.7642 54.9832 50.7192 0.0000 0.0000 0.0000
# 2 54.9832 86.8840 40.5297 0.0000 0.0000 0.0000
# 3 50.7192 40.5297 81.5389 0.0000 0.0000 0.0000
# 4 0.0000 0.0000 0.0000 30.7346 0.0000 0.0000
# 5 0.0000 0.0000 0.0000 0.0000 23.3201 0.0000
# 6 0.0000 0.0000 0.0000 0.0000 0.0000 28.4051
#
#
#
# Elastic Compliance Matrix: (Units=1/GPa)
#
#
# Indices 1 2 3 4 5 6 
#
# 1 0.014299 -0.006379 -0.005724 0.000000 0.000000 0.000000
# 2 -0.006379 0.017830 -0.004894 0.000000 0.000000 0.000000
# 3 -0.005724 -0.004894 0.018257 0.000000 0.000000 0.000000
# 4 0.000000 0.000000 0.000000 0.032537 0.000000 0.000000
# 5 0.000000 0.000000 0.000000 0.000000 0.042881 0.000000
# 6 0.000000 0.000000 0.000000 0.000000 0.000000 0.035205
#
#
# Mechanical properties :
#
#
# Convention : Reuss Voigt Hill
#
# Bulk Modulus (GPa) = 61.00670 63.96126 62.48398
# Shear Modulus (GPa) = 24.94169 25.62230 25.28200
#
# Velocity S-wave (km/s) = 3.77910 3.83032 3.80480
# Velocity P-wave (km/s) = 7.34674 7.49573 7.42161
#
# Compressibility (1/GPa) = 0.01639164
#
# Stress axis : x y z
#
# Youngs Moduli (GPa) = 69.93363 56.08631 54.77280
#
# Poissons Ratio (x) = 0.35778 0.31350
# Poissons Ratio (y) = 0.44611 0.26808
# Poissons Ratio (z) = 0.40028 0.27451
#
# Static dielectric constant tensor:
#      x y z
#    x 3.409290 0.000000 0.000000 
#    y 0.000000 3.255000 0.000000 
#    z 0.000000 0.000000 3.071890 
# 
# 
# High freq. dielectric constant tensor:
#      x y z
#    x 1.681960 0.000000 0.000000 
#    y 0.000000 1.683090 0.000000 
#    z 0.000000 0.000000 1.656070 
# 
# From -- ./inp_files/21102.got.cif
#   From: 2010.03.12/outbox.cif.g09.slc.cpg/sg38_11_cif.got.tgz:21102.got - 2010.04.14 02:38:36.
