data_PCOD8179414
_publ_section_title
;
Structure prediction by ZEFSAII (Michael W. Deem and Ramdas Pophale) SiO2 
 PCOD8179414
Probable space group: A M M 2
;
_chemical_formula_sum "Si O2"
_cell_formula_units_Z 48
_cell_length_a 14.452301
_cell_length_b 7.633661
_cell_length_c 20.527725
_cell_angle_alpha 90.000000
_cell_angle_beta 90.000000
_cell_angle_gamma 90.000000
_cell_volume 2264.700045
_symmetry_space_group_name_H-M "A M M 2"
_symmetry_group_IT_number 38
_symmetry_cell_setting 'orthorhombic'
loop_
_space_group_symop_operation_xyz
x,y,z
-x,-y,z
-x,y,z
x,-y,z
x,1/2+y,1/2+z
-x,1/2-y,1/2+z
-x,1/2+y,1/2+z
x,1/2-y,1/2+z
loop_
_atom_site_type_symbol
_atom_site_label
_atom_site_fract_x
_atom_site_fract_y
_atom_site_fract_z
Si Si1 0.269608 0.201320 0.151590
Si Si2 0.756982 0.198560 0.511816
Si Si3 0.110809 0.000000 0.979263
Si Si4 0.604336 0.707168 0.766324
Si Si5 0.396448 0.291806 0.910958
Si Si6 0.105303 0.802981 0.239556
Si Si7 0.890592 0.000000 0.831814
O O1 0.284888 0.305315 0.084711
O O2 0.331237 0.286486 0.209504
O O3 0.162763 0.219760 0.173338
O O4 0.297077 0.000000 0.139469
O O5 0.846642 0.324845 0.511541
O O6 0.678409 0.275390 0.463349
O O7 0.785641 0.000000 0.492321
O O8 0.145405 0.000000 0.904970
O O9 0.000000 0.000000 0.988492
O O10 0.500000 0.762469 0.749895
O O11 0.616780 0.500000 0.766663
O O12 0.631283 0.777603 0.838541
O O13 0.500000 0.222950 0.928779
O O14 0.398465 0.500000 0.911069
O O15 0.144447 0.674655 0.295295
O O16 0.000000 0.758630 0.221019
O O17 0.116111 0.000000 0.267428
O O18 0.000000 0.000000 0.833375
#
# Coordination Sequence:
#
# PCOD8179414 Si02
#       7
#     8   8   4   8   8   8   4
#     4  10  20  35  55  86 123 157 200 251 302 360
#     4  11  24  41  62  91 123 167 218 253 309 377
#     4  11  26  46  63  87 129 164 204 267 318 369
#     4   8  15  30  56  88 119 157 202 247 305 367
#     4   8  16  34  60  90 124 162 206 255 310 373
#     4   9  19  35  57  86 116 147 190 243 301 362
#     4   9  20  38  60  87 113 146 189 241 305 361
#
# _framework density 21.194861
#
# number of rings (size 3 to 8) (size 9 to 14) (size 15 to 20)
#    0.000    2.667    0.833    1.000    3.500    2.333 
#    0.000    2.083    0.000    0.000    0.000    0.000 
#    0.000    0.000    0.000    0.000    0.000    0.000 
#
# Total GULP energy -297491.590159 kJ/mol
# GULP energy per Si atom -12395.482923 kJ/mol
# Density = 2.114662 g / cm^3
# Si number density = 21.194861 Si / 1000 Ang^3
#
#
#
# Elastic Constant Matrix: (Units=GPa)
#
#
# Indices 1 2 3 4 5 6 
#
# 1 119.8917 28.7913 69.4692 0.0000 0.0000 0.0000
# 2 28.7913 77.3447 30.8688 0.0000 0.0000 0.0000
# 3 69.4692 30.8688 152.6413 0.0000 0.0000 0.0000
# 4 0.0000 0.0000 0.0000 18.6240 0.0000 0.0000
# 5 0.0000 0.0000 0.0000 0.0000 29.4954 0.0000
# 6 0.0000 0.0000 0.0000 0.0000 0.0000 6.7781
#
#
#
# Elastic Compliance Matrix: (Units=1/GPa)
#
#
# Indices 1 2 3 4 5 6 
#
# 1 0.011735 -0.002433 -0.004849 0.000000 0.000000 0.000000
# 2 -0.002433 0.014569 -0.001839 0.000000 0.000000 0.000000
# 3 -0.004849 -0.001839 0.009130 0.000000 0.000000 0.000000
# 4 0.000000 0.000000 0.000000 0.053694 0.000000 0.000000
# 5 0.000000 0.000000 0.000000 0.000000 0.033904 0.000000
# 6 0.000000 0.000000 0.000000 0.000000 0.000000 0.147534
#
#
# Mechanical properties :
#
#
# Convention : Reuss Voigt Hill
#
# Bulk Modulus (GPa) = 58.16627 67.57073 62.86850
# Shear Modulus (GPa) = 16.97580 25.69605 21.33593
#
# Velocity S-wave (km/s) = 2.83316 3.48569 3.17623
# Velocity P-wave (km/s) = 6.18106 6.93902 6.57098
#
# Compressibility (1/GPa) = 0.01719209
#
# Stress axis : x y z
#
# Youngs Moduli (GPa) = 85.21857 68.63997 109.53117
#
# Poissons Ratio (x) = 0.16701 0.53106
# Poissons Ratio (y) = 0.20734 0.20142
# Poissons Ratio (z) = 0.41318 0.12622
#
# Static dielectric constant tensor:
#      x y z
#    x 3.861340 0.000000 0.000000 
#    y 0.000000 3.639110 0.000000 
#    z 0.000000 0.000000 4.091600 
# 
# 
# High freq. dielectric constant tensor:
#      x y z
#    x 1.824350 0.000000 0.000000 
#    y 0.000000 1.812060 0.000000 
#    z 0.000000 0.000000 1.828600 
# 
# From -- ./inp_files/18200.got.cif
#   From: 2010.03.12/outbox.cif.g09.slc.cpg/sg38_10_cif.got.tgz:18200.got - 2010.04.14 02:38:36.
