data_PCOD8179670
_publ_section_title
;
Structure prediction by ZEFSAII (Michael W. Deem and Ramdas Pophale) SiO2 
 PCOD8179670
Probable space group: A M M 2
;
_chemical_formula_sum "Si O2"
_cell_formula_units_Z 64
_cell_length_a 8.872030
_cell_length_b 23.549805
_cell_length_c 15.271818
_cell_angle_alpha 90.000000
_cell_angle_beta 90.000000
_cell_angle_gamma 90.000000
_cell_volume 3190.810826
_symmetry_space_group_name_H-M "A M M 2"
_symmetry_group_IT_number 38
_symmetry_cell_setting 'orthorhombic'
loop_
_space_group_symop_operation_xyz
x,y,z
-x,-y,z
-x,y,z
x,-y,z
x,1/2+y,1/2+z
-x,1/2-y,1/2+z
-x,1/2+y,1/2+z
x,1/2-y,1/2+z
loop_
_atom_site_type_symbol
_atom_site_label
_atom_site_fract_x
_atom_site_fract_y
_atom_site_fract_z
Si Si1 0.173192 0.865729 0.508570
Si Si2 0.827847 0.129342 0.707028
Si Si3 0.675110 0.133333 0.190770
Si Si4 0.675934 0.934211 0.859992
Si Si5 0.324790 0.749101 0.958674
Si Si6 0.822417 0.863211 0.013653
Si Si7 0.672711 0.757629 0.754968
Si Si8 0.325814 0.066269 0.360799
O O1 0.191362 0.889779 0.606667
O O2 0.274360 0.810067 0.499432
O O3 0.228993 0.914860 0.443978
O O4 0.000000 0.850452 0.488122
O O5 0.724265 0.088925 0.765506
O O6 0.781239 0.194907 0.716070
O O7 0.000000 0.123225 0.738224
O O8 0.500000 0.120509 0.175510
O O9 0.764972 0.111702 0.105896
O O10 0.706356 0.199860 0.203852
O O11 0.733910 0.098810 0.274892
O O12 0.500000 0.922740 0.872241
O O13 0.717381 0.000000 0.865912
O O14 0.762291 0.901488 0.935472
O O15 0.500000 0.758496 0.979161
O O16 0.233614 0.799065 0.004413
O O17 0.290336 0.747955 0.856195
O O18 0.000000 0.864571 0.011420
O O19 0.500000 0.776855 0.742738
O O20 0.500000 0.082163 0.378198
O O21 0.302776 0.000000 0.345150
#
# Coordination Sequence:
#
# PCOD8179670 Si02
#       8
#     8   8   8   8   8   8   8   8
#     4  11  24  40  61  93 130 164 201 249 309 371
#     4  11  24  40  61  91 126 162 199 247 308 368
#     4  10  21  40  63  91 124 162 207 255 302 354
#     4  11  25  45  67  89 116 158 211 260 304 356
#     4  11  21  38  64  93 125 162 205 250 300 362
#     4  12  25  40  62  95 129 162 198 245 309 373
#     4  10  20  36  62  91 122 160 202 249 302 360
#     4  10  22  42  66  90 119 161 214 262 303 355
#
# _framework density 20.057596
#
# number of rings (size 3 to 8) (size 9 to 14) (size 15 to 20)
#    0.000    1.250    2.500    3.375    0.000    7.750 
#    0.000    3.750    0.000    0.000    0.000    0.000 
#    0.000    0.000    0.000    0.000    0.000    0.000 
#
# Total GULP energy -397013.426057 kJ/mol
# GULP energy per Si atom -12406.669564 kJ/mol
# Density = 2.001194 g / cm^3
# Si number density = 20.057596 Si / 1000 Ang^3
#
#
#
# Elastic Constant Matrix: (Units=GPa)
#
#
# Indices 1 2 3 4 5 6 
#
# 1 77.9978 31.4028 48.4984 0.0000 0.0000 0.0000
# 2 31.4028 73.0314 28.7976 0.0000 0.0000 0.0000
# 3 48.4984 28.7976 125.6572 0.0000 0.0000 0.0000
# 4 0.0000 0.0000 0.0000 3.8864 0.0000 0.0000
# 5 0.0000 0.0000 0.0000 0.0000 32.5438 0.0000
# 6 0.0000 0.0000 0.0000 0.0000 0.0000 9.9363
#
#
#
# Elastic Compliance Matrix: (Units=1/GPa)
#
#
# Indices 1 2 3 4 5 6 
#
# 1 0.018838 -0.005753 -0.005952 0.000000 0.000000 0.000000
# 2 -0.005753 0.016810 -0.001632 0.000000 0.000000 0.000000
# 3 -0.005952 -0.001632 0.010629 0.000000 0.000000 0.000000
# 4 0.000000 0.000000 0.000000 0.257307 0.000000 0.000000
# 5 0.000000 0.000000 0.000000 0.000000 0.030728 0.000000
# 6 0.000000 0.000000 0.000000 0.000000 0.000000 0.100641
#
#
# Mechanical properties :
#
#
# Convention : Reuss Voigt Hill
#
# Bulk Modulus (GPa) = 51.01276 54.89824 52.95550
# Shear Modulus (GPa) = 10.68005 20.47247 15.57626
#
# Velocity S-wave (km/s) = 2.31003 3.19828 2.78974
# Velocity P-wave (km/s) = 5.70993 6.40846 6.06926
#
# Compressibility (1/GPa) = 0.01960294
#
# Stress axis : x y z
#
# Youngs Moduli (GPa) = 53.08348 59.48813 94.07780
#
# Poissons Ratio (x) = 0.34225 0.55998
# Poissons Ratio (y) = 0.30540 0.15353
# Poissons Ratio (z) = 0.31597 0.09708
#
# Static dielectric constant tensor:
#      x y z
#    x 3.687090 0.000000 0.000000 
#    y 0.000000 3.571720 0.000000 
#    z 0.000000 0.000000 3.859880 
# 
# 
# High freq. dielectric constant tensor:
#      x y z
#    x 1.784220 0.000000 0.000000 
#    y 0.000000 1.777190 0.000000 
#    z 0.000000 0.000000 1.800040 
# 
# From -- ./inp_files/12766.got.cif
#   From: 2010.03.12/outbox.cif.g09.slc.cpg/sg38_7_cif.got.tgz:12766.got - 2010.04.14 02:38:36.
