data_PCOD8179606
_publ_section_title
;
Structure prediction by ZEFSAII (Michael W. Deem and Ramdas Pophale) SiO2 
 PCOD8179606
Probable space group: A M M 2
;
_chemical_formula_sum "Si O2"
_cell_formula_units_Z 48
_cell_length_a 10.056651
_cell_length_b 9.026314
_cell_length_c 27.443693
_cell_angle_alpha 90.000000
_cell_angle_beta 90.000000
_cell_angle_gamma 90.000000
_cell_volume 2491.187228
_symmetry_space_group_name_H-M "A M M 2"
_symmetry_group_IT_number 38
_symmetry_cell_setting 'orthorhombic'
loop_
_space_group_symop_operation_xyz
x,y,z
-x,-y,z
-x,y,z
x,-y,z
x,1/2+y,1/2+z
-x,1/2-y,1/2+z
-x,1/2+y,1/2+z
x,1/2-y,1/2+z
loop_
_atom_site_type_symbol
_atom_site_label
_atom_site_fract_x
_atom_site_fract_y
_atom_site_fract_z
Si Si1 0.274190 0.675673 0.535440
Si Si2 0.000000 0.176533 0.188068
Si Si3 0.217898 0.826531 0.752190
Si Si4 0.500000 0.174798 0.107640
Si Si5 0.847730 0.170673 0.351474
Si Si6 0.651289 0.329188 0.936314
Si Si7 0.000000 0.824014 0.077144
Si Si8 0.500000 0.670439 0.210366
O O1 0.276816 0.500000 0.531636
O O2 0.370902 0.730801 0.578400
O O3 0.322125 0.736821 0.484362
O O4 0.128252 0.736860 0.548547
O O5 0.867845 0.238866 0.212740
O O6 0.000000 0.232530 0.132544
O O7 0.000000 0.000000 0.192838
O O8 0.179458 0.773530 0.805615
O O9 0.372023 0.789829 0.742768
O O10 0.186559 0.000000 0.747735
O O11 0.500000 0.237571 0.161322
O O12 0.500000 0.000000 0.112424
O O13 0.751192 0.225821 0.394414
O O14 0.000000 0.190044 0.368740
O O15 0.818109 0.000000 0.337571
O O16 0.500000 0.302950 0.918588
O O17 0.677847 0.500000 0.948560
O O18 0.000000 0.000000 0.077812
O O19 0.500000 0.500000 0.194913
#
# Coordination Sequence:
#
# PCOD8179606 Si02
#       8
#     8   4   8   4   8   8   4   4
#     4  10  20  37  58  84 116 150 191 238 285 337
#     4  11  21  39  64  87 116 157 200 243 292 345
#     4  11  23  40  60  87 122 155 194 243 295 350
#     4  10  20  36  59  84 113 153 200 243 285 342
#     4  10  22  40  61  85 114 149 192 238 289 350
#     4  10  22  39  59  85 116 149 188 236 289 343
#     4   9  20  35  56  85 116 149 190 237 280 333
#     4  10  24  40  57  86 123 159 194 241 293 348
#
# _framework density 19.267921000000001
#
# number of rings (size 3 to 8) (size 9 to 14) (size 15 to 20)
#    0.000    1.833    1.667    1.750    2.333    4.000 
#    0.000    1.667    0.000    0.000    0.000    0.000 
#    0.000    0.000    0.000    0.000    0.000    0.000 
#
# Total GULP energy -297682.002283 kJ/mol
# GULP energy per Si atom -12403.416762 kJ/mol
# Density = 1.922407 g / cm^3
# Si number density = 19.267921 Si / 1000 Ang^3
#
#
#
# Elastic Constant Matrix: (Units=GPa)
#
#
# Indices 1 2 3 4 5 6 
#
# 1 149.3651 30.8381 42.2429 0.0000 0.0000 0.0000
# 2 30.8381 47.8195 25.5655 0.0000 0.0000 0.0000
# 3 42.2429 25.5655 93.2358 0.0000 0.0000 0.0000
# 4 0.0000 0.0000 0.0000 26.5858 0.0000 0.0000
# 5 0.0000 0.0000 0.0000 0.0000 40.6029 0.0000
# 6 0.0000 0.0000 0.0000 0.0000 0.0000 31.0645
#
#
#
# Elastic Compliance Matrix: (Units=1/GPa)
#
#
# Indices 1 2 3 4 5 6 
#
# 1 0.008255 -0.003895 -0.002672 0.000000 0.000000 0.000000
# 2 -0.003895 0.026342 -0.005458 0.000000 0.000000 0.000000
# 3 -0.002672 -0.005458 0.013433 0.000000 0.000000 0.000000
# 4 0.000000 0.000000 0.000000 0.037614 0.000000 0.000000
# 5 0.000000 0.000000 0.000000 0.000000 0.024629 0.000000
# 6 0.000000 0.000000 0.000000 0.000000 0.000000 0.032191
#
#
# Mechanical properties :
#
#
# Convention : Reuss Voigt Hill
#
# Bulk Modulus (GPa) = 41.70319 54.19039 47.94679
# Shear Modulus (GPa) = 28.65213 32.43556 30.54384
#
# Velocity S-wave (km/s) = 3.86040 4.10737 3.98580
# Velocity P-wave (km/s) = 6.44679 7.11897 6.79120
#
# Compressibility (1/GPa) = 0.02397898
#
# Stress axis : x y z
#
# Youngs Moduli (GPa) = 121.14081 37.96237 74.44434
#
# Poissons Ratio (x) = 0.14786 0.19892
# Poissons Ratio (y) = 0.47183 0.40634
# Poissons Ratio (z) = 0.32370 0.20721
#
# Static dielectric constant tensor:
#      x y z
#    x 4.237130 0.000000 0.000000 
#    y 0.000000 3.383090 0.000000 
#    z 0.000000 0.000000 3.481880 
# 
# 
# High freq. dielectric constant tensor:
#      x y z
#    x 1.772020 0.000000 0.000000 
#    y 0.000000 1.736240 0.000000 
#    z 0.000000 0.000000 1.752840 
# 
# From -- ./inp_files/24477.got.cif
#   From: 2010.03.12/outbox.cif.g09.slc.cpg/sg38_13_cif.got.tgz:24477.got - 2010.04.14 02:38:36.
