data_PCOD8179905
_publ_section_title
;
Structure prediction by ZEFSAII (Michael W. Deem and Ramdas Pophale) SiO2 
 PCOD8179905
Probable space group: A M M 2
;
_chemical_formula_sum "Si O2"
_cell_formula_units_Z 56
_cell_length_a 21.789675
_cell_length_b 12.865556
_cell_length_c 9.201248
_cell_angle_alpha 90.000000
_cell_angle_beta 90.000000
_cell_angle_gamma 90.000000
_cell_volume 2579.443672
_symmetry_space_group_name_H-M "A M M 2"
_symmetry_group_IT_number 38
_symmetry_cell_setting 'orthorhombic'
loop_
_space_group_symop_operation_xyz
x,y,z
-x,-y,z
-x,y,z
x,-y,z
x,1/2+y,1/2+z
-x,1/2-y,1/2+z
-x,1/2+y,1/2+z
x,1/2-y,1/2+z
loop_
_atom_site_type_symbol
_atom_site_label
_atom_site_fract_x
_atom_site_fract_y
_atom_site_fract_z
Si Si1 0.931159 0.618322 0.510400
Si Si2 0.636564 0.754572 0.180065
Si Si3 0.279830 0.799925 0.930108
Si Si4 0.167810 0.615852 0.306672
Si Si5 0.427731 0.120755 0.429684
Si Si6 0.932876 0.622635 0.829186
Si Si7 0.808775 0.122337 0.492308
O O1 0.907153 0.500000 0.520091
O O2 0.888663 0.674800 0.388450
O O3 0.923988 0.671377 0.667951
O O4 0.000000 0.623589 0.452283
O O5 0.683886 0.819710 0.079806
O O6 0.674124 0.685148 0.294702
O O7 0.594429 0.832269 0.274924
O O8 0.599198 0.679535 0.070848
O O9 0.247471 0.685102 0.919243
O O10 0.225949 0.884501 0.916047
O O11 0.147371 0.500000 0.265393
O O12 0.186865 0.668597 0.155682
O O13 0.500000 0.134622 0.435917
O O14 0.408317 0.000000 0.437151
O O15 0.937967 0.500000 0.809321
O O16 0.000000 0.661198 0.893409
O O17 0.874811 0.651410 0.926230
O O18 0.793152 0.000000 0.481057
#
# Coordination Sequence:
#
# PCOD8179905 Si02
#       7
#     8   8   8   8   8   8   8
#     4   8  15  29  49  74 104 140 188 249 318 383
#     4  10  23  40  65  96 135 174 212 260 310 373
#     4  11  22  39  56  86 125 164 204 251 305 368
#     4  10  21  35  53  78 110 150 197 252 310 371
#     4  10  22  44  74 105 137 175 217 262 314 369
#     4   8  15  29  50  77 105 139 192 257 324 390
#     4  10  21  36  56  79 110 155 203 259 319 380
#
# _framework density 21.710108000000002
#
# number of rings (size 3 to 8) (size 9 to 14) (size 15 to 20)
#    0.000    2.429    1.429    1.286    2.000    4.000 
#    0.000    5.714    0.000    7.714    0.000    0.000 
#    0.000    0.000    0.000    0.000    0.000    0.000 
#
# Total GULP energy -346909.310820 kJ/mol
# GULP energy per Si atom -12389.618244 kJ/mol
# Density = 2.166070 g / cm^3
# Si number density = 21.710108 Si / 1000 Ang^3
#
#
#
# Elastic Constant Matrix: (Units=GPa)
#
#
# Indices 1 2 3 4 5 6 
#
# 1 117.1023 20.9319 56.2113 0.0000 0.0000 0.0000
# 2 20.9319 71.4056 36.6229 0.0000 0.0000 0.0000
# 3 56.2113 36.6229 132.2646 0.0000 0.0000 0.0000
# 4 0.0000 0.0000 0.0000 24.3303 0.0000 0.0000
# 5 0.0000 0.0000 0.0000 0.0000 40.2615 0.0000
# 6 0.0000 0.0000 0.0000 0.0000 0.0000 32.2515
#
#
#
# Elastic Compliance Matrix: (Units=1/GPa)
#
#
# Indices 1 2 3 4 5 6 
#
# 1 0.010783 -0.000945 -0.004321 0.000000 0.000000 0.000000
# 2 -0.000945 0.016405 -0.004141 0.000000 0.000000 0.000000
# 3 -0.004321 -0.004141 0.010544 0.000000 0.000000 0.000000
# 4 0.000000 0.000000 0.000000 0.041101 0.000000 0.000000
# 5 0.000000 0.000000 0.000000 0.000000 0.024838 0.000000
# 6 0.000000 0.000000 0.000000 0.000000 0.000000 0.031006
#
#
# Mechanical properties :
#
#
# Convention : Reuss Voigt Hill
#
# Bulk Modulus (GPa) = 52.85913 60.92276 56.89094
# Shear Modulus (GPa) = 31.28999 33.16909 32.22954
#
# Velocity S-wave (km/s) = 3.80052 3.91297 3.85715
# Velocity P-wave (km/s) = 6.60751 6.96692 6.78959
#
# Compressibility (1/GPa) = 0.01891821
#
# Stress axis : x y z
#
# Youngs Moduli (GPa) = 92.74272 60.95591 94.84456
#
# Poissons Ratio (x) = 0.05758 0.40981
# Poissons Ratio (y) = 0.08761 0.39275
# Poissons Ratio (z) = 0.40073 0.25242
#
# Static dielectric constant tensor:
#      x y z
#    x 4.165340 0.000000 0.000000 
#    y 0.000000 3.643980 0.000000 
#    z 0.000000 0.000000 4.140540 
# 
# 
# High freq. dielectric constant tensor:
#      x y z
#    x 1.857070 0.000000 0.000000 
#    y 0.000000 1.838140 0.000000 
#    z 0.000000 0.000000 1.861350 
# 
# From -- ./inp_files/6752.got.cif
#   From: 2010.03.12/outbox.cif.g09.slc.cpg/sg38_4_cif.got.tgz:6752.got - 2010.04.14 02:38:36.
