data_PCOD8179598
_publ_section_title
;
Structure prediction by ZEFSAII (Michael W. Deem and Ramdas Pophale) SiO2 
 PCOD8179598
Probable space group: A M M 2
;
_chemical_formula_sum "Si O2"
_cell_formula_units_Z 48
_cell_length_a 9.225687
_cell_length_b 27.614053
_cell_length_c 9.787964
_cell_angle_alpha 90.000000
_cell_angle_beta 90.000000
_cell_angle_gamma 90.000000
_cell_volume 2493.568101
_symmetry_space_group_name_H-M "A M M 2"
_symmetry_group_IT_number 38
_symmetry_cell_setting 'orthorhombic'
loop_
_space_group_symop_operation_xyz
x,y,z
-x,-y,z
-x,y,z
x,-y,z
x,1/2+y,1/2+z
-x,1/2-y,1/2+z
-x,1/2+y,1/2+z
x,1/2-y,1/2+z
loop_
_atom_site_type_symbol
_atom_site_label
_atom_site_fract_x
_atom_site_fract_y
_atom_site_fract_z
Si Si1 0.671704 0.100850 0.214620
Si Si2 0.832543 0.615086 0.202974
Si Si3 0.327691 0.791068 0.641553
Si Si4 0.835495 0.054326 0.444474
Si Si5 0.831641 0.444166 0.469920
Si Si6 0.671795 0.296502 0.830066
O O1 0.500000 0.098840 0.203885
O O2 0.728636 0.059790 0.316914
O O3 0.727952 0.152631 0.270036
O O4 0.738294 0.090083 0.067567
O O5 0.735862 0.662682 0.220512
O O6 0.801573 0.575968 0.319572
O O7 0.000000 0.630555 0.201904
O O8 0.784977 0.590393 0.062199
O O9 0.500000 0.794889 0.644426
O O10 0.271566 0.744825 0.726996
O O11 0.269768 0.788030 0.484806
O O12 0.000000 0.065371 0.397661
O O13 0.823134 0.000000 0.501159
O O14 0.780171 0.500000 0.476935
O O15 0.000000 0.440187 0.510040
O O16 0.500000 0.296106 0.834347
#
# Coordination Sequence:
#
# PCOD8179598 Si02
#       6
#     8   8   8   8   8   8
#     4  11  22  37  57  86 117 146 187 239 284 330
#     4  10  21  38  59  85 114 146 189 240 283 329
#     4  10  20  38  60  83 112 149 189 230 280 343
#     4  10  20  36  59  83 110 149 189 227 281 345
#     4  10  22  40  59  81 114 156 195 230 278 340
#     4   9  20  36  58  84 111 146 187 228 280 340
#
# _framework density 19.249524000000001
#
# number of rings (size 3 to 8) (size 9 to 14) (size 15 to 20)
#    0.000    2.000    1.667    1.500    2.333    5.333 
#    0.000    2.500    0.000    3.000    0.000    0.000 
#    0.000    0.000    0.000    0.000    0.000    0.000 
#
# Total GULP energy -297644.051663 kJ/mol
# GULP energy per Si atom -12401.835486 kJ/mol
# Density = 1.920571 g / cm^3
# Si number density = 19.249524 Si / 1000 Ang^3
#
#
#
# Elastic Constant Matrix: (Units=GPa)
#
#
# Indices 1 2 3 4 5 6 
#
# 1 46.9058 31.1818 33.6749 0.0000 0.0000 0.0000
# 2 31.1818 119.3083 42.4397 0.0000 0.0000 0.0000
# 3 33.6749 42.4397 98.0552 0.0000 0.0000 0.0000
# 4 0.0000 0.0000 0.0000 38.7556 0.0000 0.0000
# 5 0.0000 0.0000 0.0000 0.0000 28.5456 0.0000
# 6 0.0000 0.0000 0.0000 0.0000 0.0000 27.6527
#
#
#
# Elastic Compliance Matrix: (Units=1/GPa)
#
#
# Indices 1 2 3 4 5 6 
#
# 1 0.030667 -0.005045 -0.008348 0.000000 0.000000 0.000000
# 2 -0.005045 0.010737 -0.002914 0.000000 0.000000 0.000000
# 3 -0.008348 -0.002914 0.014327 0.000000 0.000000 0.000000
# 4 0.000000 0.000000 0.000000 0.025803 0.000000 0.000000
# 5 0.000000 0.000000 0.000000 0.000000 0.035032 0.000000
# 6 0.000000 0.000000 0.000000 0.000000 0.000000 0.036163
#
#
# Mechanical properties :
#
#
# Convention : Reuss Voigt Hill
#
# Bulk Modulus (GPa) = 43.26259 53.20687 48.23473
# Shear Modulus (GPa) = 25.90029 29.45565 27.67797
#
# Velocity S-wave (km/s) = 3.67209 3.91602 3.79602
# Velocity P-wave (km/s) = 6.36415 6.93885 6.65770
#
# Compressibility (1/GPa) = 0.02311466
#
# Stress axis : x y z
#
# Youngs Moduli (GPa) = 32.60874 93.13621 69.79978
#
# Poissons Ratio (x) = 0.46990 0.58269
# Poissons Ratio (y) = 0.16452 0.20342
# Poissons Ratio (z) = 0.27222 0.27144
#
# Static dielectric constant tensor:
#      x y z
#    x 3.262650 0.000000 0.000000 
#    y 0.000000 3.604600 0.000000 
#    z 0.000000 0.000000 3.606730 
# 
# 
# High freq. dielectric constant tensor:
#      x y z
#    x 1.723880 0.000000 0.000000 
#    y 0.000000 1.758660 0.000000 
#    z 0.000000 0.000000 1.758700 
# 
# From -- ./inp_files/3750.got.cif
#   From: 2010.03.12/outbox.cif.g09.slc.cpg/sg38_2_cif.got.tgz:3750.got - 2010.04.14 02:38:36.
