data_PCOD8179515
_publ_section_title
;
Structure prediction by ZEFSAII (Michael W. Deem and Ramdas Pophale) SiO2 
 PCOD8179515
Probable space group: A M M 2
;
_chemical_formula_sum "Si O2"
_cell_formula_units_Z 40
_cell_length_a 11.543027
_cell_length_b 8.800435
_cell_length_c 20.405219
_cell_angle_alpha 90.000000
_cell_angle_beta 90.000000
_cell_angle_gamma 90.000000
_cell_volume 2072.836805
_symmetry_space_group_name_H-M "A M M 2"
_symmetry_group_IT_number 38
_symmetry_cell_setting 'orthorhombic'
loop_
_space_group_symop_operation_xyz
x,y,z
-x,-y,z
-x,y,z
x,-y,z
x,1/2+y,1/2+z
-x,1/2-y,1/2+z
-x,1/2+y,1/2+z
x,1/2-y,1/2+z
loop_
_atom_site_type_symbol
_atom_site_label
_atom_site_fract_x
_atom_site_fract_y
_atom_site_fract_z
Si Si1 0.868029 0.320438 0.581050
Si Si2 0.730372 0.680163 0.452402
Si Si3 0.500000 0.178975 0.764679
Si Si4 0.740530 0.679082 0.202082
Si Si5 0.500000 0.820386 0.409647
Si Si6 0.872516 0.180597 0.828915
O O1 0.872931 0.500000 0.585927
O O2 0.810167 0.269078 0.513008
O O3 0.783505 0.259475 0.636906
O O4 0.000000 0.255248 0.585963
O O5 0.709992 0.500000 0.451672
O O6 0.607892 0.764036 0.452979
O O7 0.793762 0.740592 0.387473
O O8 0.610191 0.227622 0.721171
O O9 0.500000 0.255718 0.835850
O O10 0.500000 0.000000 0.779258
O O11 0.749534 0.500000 0.191582
O O12 0.822492 0.737383 0.260234
O O13 0.500000 0.000000 0.404997
O O14 0.000000 0.250131 0.837080
O O15 0.876132 0.000000 0.831167
#
# Coordination Sequence:
#
# PCOD8179515 Si02
#       6
#     8   8   4   8   4   8
#     4  10  22  39  59  86 120 155 191 237 290 342
#     4  10  20  38  61  82 113 156 197 233 280 345
#     4  10  20  39  62  85 113 153 201 239 278 342
#     4  10  20  35  59  86 115 153 195 239 286 338
#     4  12  24  37  58  89 121 147 185 245 302 340
#     4   9  16  29  55  86 108 139 195 245 277 326
#
# _framework density 19.297226999999999
#
# number of rings (size 3 to 8) (size 9 to 14) (size 15 to 20)
#    0.000    2.000    2.000    2.100    0.000    6.000 
#    0.000    2.000    0.000    1.800    0.000    0.000 
#    0.000    0.000    0.000    0.000    0.000    0.000 
#
# Total GULP energy -247990.682281 kJ/mol
# GULP energy per Si atom -12399.534114 kJ/mol
# Density = 1.925331 g / cm^3
# Si number density = 19.297227 Si / 1000 Ang^3
#
#
#
# Elastic Constant Matrix: (Units=GPa)
#
#
# Indices 1 2 3 4 5 6 
#
# 1 153.2174 34.7232 40.3399 0.0000 0.0000 0.0000
# 2 34.7232 34.7046 31.2423 0.0000 0.0000 0.0000
# 3 40.3399 31.2423 107.3690 0.0000 0.0000 0.0000
# 4 0.0000 0.0000 0.0000 30.3111 0.0000 0.0000
# 5 0.0000 0.0000 0.0000 0.0000 34.9280 0.0000
# 6 0.0000 0.0000 0.0000 0.0000 0.0000 18.1700
#
#
#
# Elastic Compliance Matrix: (Units=1/GPa)
#
#
# Indices 1 2 3 4 5 6 
#
# 1 0.008515 -0.007641 -0.000976 0.000000 0.000000 0.000000
# 2 -0.007641 0.045899 -0.010485 0.000000 0.000000 0.000000
# 3 -0.000976 -0.010485 0.012731 0.000000 0.000000 0.000000
# 4 0.000000 0.000000 0.000000 0.032991 0.000000 0.000000
# 5 0.000000 0.000000 0.000000 0.000000 0.028630 0.000000
# 6 0.000000 0.000000 0.000000 0.000000 0.000000 0.055036
#
#
# Mechanical properties :
#
#
# Convention : Reuss Voigt Hill
#
# Bulk Modulus (GPa) = 34.55255 56.43354 45.49305
# Shear Modulus (GPa) = 21.58396 29.28088 25.43242
#
# Velocity S-wave (km/s) = 3.34803 3.89956 3.63427
# Velocity P-wave (km/s) = 5.73498 7.04154 6.42158
#
# Compressibility (1/GPa) = 0.02894142
#
# Stress axis : x y z
#
# Youngs Moduli (GPa) = 117.43505 21.78705 78.54755
#
# Poissons Ratio (x) = 0.16648 0.07665
# Poissons Ratio (y) = 0.89737 0.82355
# Poissons Ratio (z) = 0.11459 0.22843
#
# Static dielectric constant tensor:
#      x y z
#    x 3.912090 0.000000 0.000000 
#    y 0.000000 3.137530 0.000000 
#    z 0.000000 0.000000 3.559060 
# 
# 
# High freq. dielectric constant tensor:
#      x y z
#    x 1.773160 0.000000 0.000000 
#    y 0.000000 1.713040 0.000000 
#    z 0.000000 0.000000 1.757100 
# 
# From -- ./inp_files/20484.got.cif
#   From: 2010.03.12/outbox.cif.g09.slc.cpg/sg38_11_cif.got.tgz:20484.got - 2010.04.14 02:38:36.
