data_PCOD8179205
_publ_section_title
;
Structure prediction by ZEFSAII (Michael W. Deem and Ramdas Pophale) SiO2 
 PCOD8179205
Probable space group: A M M 2
;
_chemical_formula_sum "Si O2"
_cell_formula_units_Z 64
_cell_length_a 14.588454
_cell_length_b 9.115672
_cell_length_c 24.474327
_cell_angle_alpha 90.000000
_cell_angle_beta 90.000000
_cell_angle_gamma 90.000000
_cell_volume 3254.683173
_symmetry_space_group_name_H-M "A M M 2"
_symmetry_group_IT_number 38
_symmetry_cell_setting 'orthorhombic'
loop_
_space_group_symop_operation_xyz
x,y,z
-x,-y,z
-x,y,z
x,-y,z
x,1/2+y,1/2+z
-x,1/2-y,1/2+z
-x,1/2+y,1/2+z
x,1/2-y,1/2+z
loop_
_atom_site_type_symbol
_atom_site_label
_atom_site_fract_x
_atom_site_fract_y
_atom_site_fract_z
Si Si1 0.332033 0.830386 0.192000
Si Si2 0.898316 0.168510 0.544312
Si Si3 0.278313 0.172914 0.013289
Si Si4 0.393422 0.327633 0.407449
Si Si5 0.282608 0.328141 0.813372
Si Si6 0.101166 0.168502 0.784585
Si Si7 0.600666 0.833620 0.599043
Si Si8 0.156359 0.333496 0.164821
O O1 0.331783 0.793471 0.256006
O O2 0.407201 0.732495 0.160464
O O3 0.235988 0.786127 0.165001
O O4 0.352348 0.000000 0.181376
O O5 0.825245 0.266211 0.511103
O O6 0.900221 0.195498 0.609682
O O7 0.000000 0.209187 0.522806
O O8 0.874784 0.000000 0.531514
O O9 0.327324 0.238805 0.065844
O O10 0.274991 0.000000 0.019277
O O11 0.336446 0.221076 0.960600
O O12 0.500000 0.282022 0.414398
O O13 0.384554 0.500000 0.396931
O O14 0.348861 0.243445 0.357260
O O15 0.274146 0.500000 0.824556
O O16 0.179467 0.263926 0.814107
O O17 0.096331 0.191686 0.719126
O O18 0.000000 0.213245 0.806910
O O19 0.122720 0.000000 0.798887
O O20 0.500000 0.824886 0.572193
O O21 0.636232 0.000000 0.600964
O O22 0.195923 0.500000 0.165197
#
# Coordination Sequence:
#
# PCOD8179205 Si02
#       8
#     8   8   8   8   8   8   8   8
#     4  10  20  34  53  81 119 156 188 231 288 344
#     4  10  20  34  55  85 121 159 197 236 282 338
#     4  11  23  40  62  87 117 149 189 244 297 345
#     4  10  23  44  67  87 108 144 196 247 296 352
#     4  10  22  38  58  87 120 151 189 240 297 348
#     4   9  17  31  54  84 118 159 202 238 279 335
#     4  11  23  37  56  84 116 153 194 234 285 351
#     4   9  16  29  51  79 115 156 197 236 276 330
#
# _framework density 19.663972999999999
#
# number of rings (size 3 to 8) (size 9 to 14) (size 15 to 20)
#    0.000    2.000    1.250    2.250    0.000    6.750 
#    0.000    3.125    0.000    3.000    0.000    0.000 
#    0.000    0.000    0.000    0.000    0.000    0.000 
#
# Total GULP energy -396700.919974 kJ/mol
# GULP energy per Si atom -12396.903749 kJ/mol
# Density = 1.961922 g / cm^3
# Si number density = 19.663973 Si / 1000 Ang^3
#
#
#
# Elastic Constant Matrix: (Units=GPa)
#
#
# Indices 1 2 3 4 5 6 
#
# 1 139.1042 57.3699 60.2844 0.0000 0.0000 0.0000
# 2 57.3699 82.0319 56.0951 0.0000 0.0000 0.0000
# 3 60.2844 56.0951 94.1659 0.0000 0.0000 0.0000
# 4 0.0000 0.0000 0.0000 28.3324 0.0000 0.0000
# 5 0.0000 0.0000 0.0000 0.0000 25.9010 0.0000
# 6 0.0000 0.0000 0.0000 0.0000 0.0000 7.8315
#
#
#
# Elastic Compliance Matrix: (Units=1/GPa)
#
#
# Indices 1 2 3 4 5 6 
#
# 1 0.010984 -0.004848 -0.004144 0.000000 0.000000 0.000000
# 2 -0.004848 0.022709 -0.010424 0.000000 0.000000 0.000000
# 3 -0.004144 -0.010424 0.019482 0.000000 0.000000 0.000000
# 4 0.000000 0.000000 0.000000 0.035295 0.000000 0.000000
# 5 0.000000 0.000000 0.000000 0.000000 0.038609 0.000000
# 6 0.000000 0.000000 0.000000 0.000000 0.000000 0.127689
#
#
# Mechanical properties :
#
#
# Convention : Reuss Voigt Hill
#
# Bulk Modulus (GPa) = 69.72041 73.64453 71.68247
# Shear Modulus (GPa) = 16.75700 21.84982 19.30341
#
# Velocity S-wave (km/s) = 2.92236 3.33702 3.13655
# Velocity P-wave (km/s) = 6.84980 7.23743 7.04628
#
# Compressibility (1/GPa) = 0.01434300
#
# Stress axis : x y z
#
# Youngs Moduli (GPa) = 91.03917 44.03452 51.32872
#
# Poissons Ratio (x) = 0.21349 0.21270
# Poissons Ratio (y) = 0.44138 0.53507
# Poissons Ratio (z) = 0.37726 0.45903
#
# Static dielectric constant tensor:
#      x y z
#    x 3.718480 0.000000 0.000000 
#    y 0.000000 3.553350 0.000000 
#    z 0.000000 0.000000 3.532590 
# 
# 
# High freq. dielectric constant tensor:
#      x y z
#    x 1.771440 0.000000 0.000000 
#    y 0.000000 1.764370 0.000000 
#    z 0.000000 0.000000 1.749580 
# 
# From -- ./inp_files/22891.got.cif
#   From: 2010.03.12/outbox.cif.g09.slc.cpg/sg38_12_cif.got.tgz:22891.got - 2010.04.14 02:38:36.
