data_PCOD8179564
_publ_section_title
;
Structure prediction by ZEFSAII (Michael W. Deem and Ramdas Pophale) SiO2 
 PCOD8179564
Probable space group: A M M 2
;
_chemical_formula_sum "Si O2"
_cell_formula_units_Z 64
_cell_length_a 18.903408
_cell_length_b 8.913794
_cell_length_c 19.784131
_cell_angle_alpha 90.000000
_cell_angle_beta 90.000000
_cell_angle_gamma 90.000000
_cell_volume 3333.647536
_symmetry_space_group_name_H-M "A M M 2"
_symmetry_group_IT_number 38
_symmetry_cell_setting 'orthorhombic'
loop_
_space_group_symop_operation_xyz
x,y,z
-x,-y,z
-x,y,z
x,-y,z
x,1/2+y,1/2+z
-x,1/2-y,1/2+z
-x,1/2+y,1/2+z
x,1/2-y,1/2+z
loop_
_atom_site_type_symbol
_atom_site_label
_atom_site_fract_x
_atom_site_fract_y
_atom_site_fract_z
Si Si1 0.663589 0.673934 0.816950
Si Si2 0.668076 0.322943 0.568432
Si Si3 0.921393 0.678507 0.364807
Si Si4 0.802297 0.177924 0.763834
Si Si5 0.422946 0.323030 0.690709
Si Si6 0.916816 0.171761 0.016230
Si Si7 0.807576 0.322578 0.109111
Si Si8 0.582104 0.326014 0.952817
O O1 0.683842 0.500000 0.809117
O O2 0.733144 0.769568 0.803490
O O3 0.603275 0.721937 0.764453
O O4 0.629923 0.711511 0.888532
O O5 0.679857 0.500000 0.567350
O O6 0.632985 0.261232 0.637065
O O7 0.743974 0.244018 0.563984
O O8 0.614095 0.278234 0.510150
O O9 0.923480 0.500000 0.364135
O O10 0.868745 0.740729 0.307143
O O11 0.897263 0.728808 0.440319
O O12 0.000000 0.741397 0.348960
O O13 0.805849 0.239077 0.686643
O O14 0.803198 0.000000 0.763082
O O15 0.500000 0.249239 0.678968
O O16 0.429282 0.500000 0.682183
O O17 0.879514 0.273171 0.072747
O O18 0.000000 0.187693 0.027981
O O19 0.892384 0.000000 0.025741
O O20 0.802044 0.500000 0.108834
O O21 0.500000 0.284069 0.939952
O O22 0.588840 0.500000 0.972964
#
# Coordination Sequence:
#
# PCOD8179564 Si02
#       8
#     8   8   8   8   8   8   8   8
#     4  10  20  36  57  81 111 148 186 227 277 337
#     4  11  22  37  58  82 111 149 193 239 280 332
#     4   8  16  34  59  84 109 142 185 227 270 325
#     4  10  21  36  56  83 114 148 187 232 278 330
#     4   9  17  32  56  81 103 137 187 232 271 323
#     4   9  19  37  61  87 114 147 190 235 278 332
#     4  11  23  37  55  83 120 154 188 235 288 338
#     4  10  22  39  58  83 116 149 182 230 293 349
#
# _framework density 19.19819
#
# number of rings (size 3 to 8) (size 9 to 14) (size 15 to 20)
#    0.000    2.250    1.250    2.250    1.750    4.000 
#    0.000    1.250    0.000    3.000    0.000    0.000 
#    0.000    0.000    0.000    0.000    0.000    0.000 
#
# Total GULP energy -396756.989613 kJ/mol
# GULP energy per Si atom -12398.655925 kJ/mol
# Density = 1.915449 g / cm^3
# Si number density = 19.198190 Si / 1000 Ang^3
#
#
#
# Elastic Constant Matrix: (Units=GPa)
#
#
# Indices 1 2 3 4 5 6 
#
# 1 106.5052 25.7783 43.8663 0.0000 0.0000 0.0000
# 2 25.7783 39.1281 27.6989 0.0000 0.0000 0.0000
# 3 43.8663 27.6989 94.3515 0.0000 0.0000 0.0000
# 4 0.0000 0.0000 0.0000 23.3854 0.0000 0.0000
# 5 0.0000 0.0000 0.0000 0.0000 21.7660 0.0000
# 6 0.0000 0.0000 0.0000 0.0000 0.0000 29.4772
#
#
#
# Elastic Compliance Matrix: (Units=1/GPa)
#
#
# Indices 1 2 3 4 5 6 
#
# 1 0.012385 -0.005155 -0.004245 0.000000 0.000000 0.000000
# 2 -0.005155 0.034407 -0.007704 0.000000 0.000000 0.000000
# 3 -0.004245 -0.007704 0.014834 0.000000 0.000000 0.000000
# 4 0.000000 0.000000 0.000000 0.042762 0.000000 0.000000
# 5 0.000000 0.000000 0.000000 0.000000 0.045943 0.000000
# 6 0.000000 0.000000 0.000000 0.000000 0.000000 0.033925
#
#
# Mechanical properties :
#
#
# Convention : Reuss Voigt Hill
#
# Bulk Modulus (GPa) = 36.47192 48.29687 42.38439
# Shear Modulus (GPa) = 21.96808 24.43514 23.20161
#
# Velocity S-wave (km/s) = 3.38639 3.57148 3.48016
# Velocity P-wave (km/s) = 5.85909 6.49761 6.18659
#
# Compressibility (1/GPa) = 0.02741836
#
# Stress axis : x y z
#
# Youngs Moduli (GPa) = 80.74172 29.06386 67.41252
#
# Poissons Ratio (x) = 0.14981 0.28616
# Poissons Ratio (y) = 0.41619 0.51937
# Poissons Ratio (z) = 0.34274 0.22392
#
# Static dielectric constant tensor:
#      x y z
#    x 3.734470 0.000000 0.000000 
#    y 0.000000 3.175880 0.000000 
#    z 0.000000 0.000000 3.717280 
# 
# 
# High freq. dielectric constant tensor:
#      x y z
#    x 1.758630 0.000000 0.000000 
#    y 0.000000 1.714390 0.000000 
#    z 0.000000 0.000000 1.756250 
# 
# From -- ./inp_files/18987.got.cif
#   From: 2010.03.12/outbox.cif.g09.slc.cpg/sg38_10_cif.got.tgz:18987.got - 2010.04.14 02:38:36.
