data_PCOD8179684
_publ_section_title
;
Structure prediction by ZEFSAII (Michael W. Deem and Ramdas Pophale) SiO2 
 PCOD8179684
Probable space group: A M M 2
;
_chemical_formula_sum "Si O2"
_cell_formula_units_Z 64
_cell_length_a 18.811974
_cell_length_b 9.001757
_cell_length_c 19.588235
_cell_angle_alpha 90.000000
_cell_angle_beta 90.000000
_cell_angle_gamma 90.000000
_cell_volume 3317.087751
_symmetry_space_group_name_H-M "A M M 2"
_symmetry_group_IT_number 38
_symmetry_cell_setting 'orthorhombic'
loop_
_space_group_symop_operation_xyz
x,y,z
-x,-y,z
-x,y,z
x,-y,z
x,1/2+y,1/2+z
-x,1/2-y,1/2+z
-x,1/2+y,1/2+z
x,1/2-y,1/2+z
loop_
_atom_site_type_symbol
_atom_site_label
_atom_site_fract_x
_atom_site_fract_y
_atom_site_fract_z
Si Si1 0.202531 0.174834 0.848840
Si Si2 0.649228 0.827998 0.038477
Si Si3 0.919510 0.672195 0.246107
Si Si4 0.663124 0.329262 0.783760
Si Si5 0.919175 0.175783 0.107558
Si Si6 0.805332 0.326430 0.501999
Si Si7 0.581527 0.824879 0.664011
Si Si8 0.581885 0.831530 0.418795
O O1 0.128818 0.211748 0.810973
O O2 0.264619 0.254433 0.807838
O O3 0.219135 0.000000 0.850032
O O4 0.196830 0.242180 0.925587
O O5 0.733118 0.794737 0.043784
O O6 0.604168 0.725803 0.088820
O O7 0.632334 0.000000 0.052697
O O8 0.626680 0.786255 0.961873
O O9 0.914153 0.500000 0.227527
O O10 0.892667 0.760077 0.179617
O O11 0.000000 0.718159 0.265261
O O12 0.679121 0.500000 0.766584
O O13 0.634765 0.252143 0.716028
O O14 0.602295 0.311523 0.840197
O O15 0.869934 0.240762 0.046694
O O16 0.000000 0.225349 0.092284
O O17 0.911707 0.000000 0.112009
O O18 0.817917 0.500000 0.492248
O O19 0.500000 0.776843 0.677210
O O20 0.590217 0.000000 0.669914
O O21 0.500000 0.791851 0.427145
O O22 0.598085 0.000000 0.443057
#
# Coordination Sequence:
#
# PCOD8179684 Si02
#       8
#     8   8   8   8   8   8   8   8
#     4  10  20  37  58  82 116 154 191 235 283 337
#     4  11  22  37  58  85 117 151 189 236 284 340
#     4   9  19  35  56  84 115 149 189 233 282 335
#     4  11  23  39  60  86 116 150 191 239 286 342
#     4   9  18  34  57  83 112 149 191 234 280 331
#     4   9  19  35  55  82 115 147 187 234 278 330
#     4  11  25  43  61  83 114 150 191 240 292 347
#     4  10  21  38  59  82 111 147 187 233 285 340
#
# _framework density 19.294032000000001
#
# number of rings (size 3 to 8) (size 9 to 14) (size 15 to 20)
#    0.000    2.000    1.250    1.875    1.750    4.750 
#    0.000    3.750    0.000    0.000    0.000    3.500 
#    0.000    0.000    0.000    0.000    0.000    0.000 
#
# Total GULP energy -396876.289045 kJ/mol
# GULP energy per Si atom -12402.384033 kJ/mol
# Density = 1.925012 g / cm^3
# Si number density = 19.294032 Si / 1000 Ang^3
#
#
#
# Elastic Constant Matrix: (Units=GPa)
#
#
# Indices 1 2 3 4 5 6 
#
# 1 94.3684 40.2537 39.4978 0.0000 0.0000 0.0000
# 2 40.2537 52.6922 35.1637 0.0000 0.0000 0.0000
# 3 39.4978 35.1637 89.2840 0.0000 0.0000 0.0000
# 4 0.0000 0.0000 0.0000 31.7867 0.0000 0.0000
# 5 0.0000 0.0000 0.0000 0.0000 39.5256 0.0000
# 6 0.0000 0.0000 0.0000 0.0000 0.0000 25.9698
#
#
#
# Elastic Compliance Matrix: (Units=1/GPa)
#
#
# Indices 1 2 3 4 5 6 
#
# 1 0.016342 -0.010391 -0.003137 0.000000 0.000000 0.000000
# 2 -0.010391 0.032351 -0.008145 0.000000 0.000000 0.000000
# 3 -0.003137 -0.008145 0.015796 0.000000 0.000000 0.000000
# 4 0.000000 0.000000 0.000000 0.031460 0.000000 0.000000
# 5 0.000000 0.000000 0.000000 0.000000 0.025300 0.000000
# 6 0.000000 0.000000 0.000000 0.000000 0.000000 0.038506
#
#
# Mechanical properties :
#
#
# Convention : Reuss Voigt Hill
#
# Bulk Modulus (GPa) = 47.29458 51.79721 49.54589
# Shear Modulus (GPa) = 23.79271 27.55171 25.67221
#
# Velocity S-wave (km/s) = 3.51545 3.78298 3.65167
# Velocity P-wave (km/s) = 6.40653 6.78128 6.59657
#
# Compressibility (1/GPa) = 0.02114407
#
# Stress axis : x y z
#
# Youngs Moduli (GPa) = 61.19155 30.91059 63.30836
#
# Poissons Ratio (x) = 0.32119 0.19861
# Poissons Ratio (y) = 0.63583 0.51562
# Poissons Ratio (z) = 0.19197 0.25175
#
# Static dielectric constant tensor:
#      x y z
#    x 3.697690 0.000000 0.000000 
#    y 0.000000 3.410910 0.000000 
#    z 0.000000 0.000000 3.617670 
# 
# 
# High freq. dielectric constant tensor:
#      x y z
#    x 1.759880 0.000000 0.000000 
#    y 0.000000 1.735880 0.000000 
#    z 0.000000 0.000000 1.756910 
# 
# From -- ./inp_files/18842.got.cif
#   From: 2010.03.12/outbox.cif.g09.slc.cpg/sg38_10_cif.got.tgz:18842.got - 2010.04.14 02:38:36.
