data_PCOD8179204
_publ_section_title
;
Structure prediction by ZEFSAII (Michael W. Deem and Ramdas Pophale) SiO2 
 PCOD8179204
Probable space group: A M M 2
;
_chemical_formula_sum "Si O2"
_cell_formula_units_Z 56
_cell_length_a 19.498063
_cell_length_b 8.829888
_cell_length_c 15.912828
_cell_angle_alpha 90.000000
_cell_angle_beta 90.000000
_cell_angle_gamma 90.000000
_cell_volume 2739.643371
_symmetry_space_group_name_H-M "A M M 2"
_symmetry_group_IT_number 38
_symmetry_cell_setting 'orthorhombic'
loop_
_space_group_symop_operation_xyz
x,y,z
-x,-y,z
-x,y,z
x,-y,z
x,1/2+y,1/2+z
-x,1/2-y,1/2+z
-x,1/2+y,1/2+z
x,1/2-y,1/2+z
loop_
_atom_site_type_symbol
_atom_site_label
_atom_site_fract_x
_atom_site_fract_y
_atom_site_fract_z
Si Si1 0.574141 0.319740 0.561940
Si Si2 0.850080 0.179923 0.381114
Si Si3 0.854909 0.181129 0.056198
Si Si4 0.919207 0.826792 0.718943
Si Si5 0.425776 0.821846 0.871680
Si Si6 0.285494 0.325577 0.626073
Si Si7 0.292235 0.172089 0.314283
O O1 0.500000 0.260052 0.597169
O O2 0.573626 0.500000 0.568362
O O3 0.582313 0.264606 0.466588
O O4 0.639915 0.247937 0.610112
O O5 0.880197 0.252453 0.466726
O O6 0.888013 0.245207 0.300151
O O7 0.768862 0.222716 0.376321
O O8 0.860730 0.000000 0.382163
O O9 0.900740 0.243482 0.132032
O O10 0.776355 0.238886 0.069479
O O11 0.860746 0.000000 0.055415
O O12 0.000000 0.819990 0.729545
O O13 0.892840 0.000000 0.715387
O O14 0.500000 0.764325 0.836191
O O15 0.362007 0.764831 0.818593
O O16 0.424275 0.000000 0.868925
O O17 0.294599 0.500000 0.602500
O O18 0.261903 0.303230 0.721480
O O19 0.313038 0.000000 0.330703
#
# Coordination Sequence:
#
# PCOD8179204 Si02
#       7
#     8   8   8   8   8   8   8
#     4   8  14  26  46  71 101 140 188 240 289 342
#     4  11  23  41  64  94 130 166 208 257 308 367
#     4  11  22  40  66  94 126 166 209 255 308 367
#     4  11  25  45  68  96 128 162 204 252 306 371
#     4   9  18  32  49  73 106 146 196 251 305 362
#     4   9  17  31  51  79 113 148 193 246 298 355
#     4  10  20  34  53  81 116 151 194 250 307 361
#
# _framework density 20.440618000000001
#
# number of rings (size 3 to 8) (size 9 to 14) (size 15 to 20)
#    0.000    2.143    1.429    3.000    0.000    4.857 
#    0.000    1.429    0.000    0.857    0.000    0.000 
#    0.000    0.000    0.000    0.000    0.000    0.000 
#
# Total GULP energy -346987.494829 kJ/mol
# GULP energy per Si atom -12392.410530 kJ/mol
# Density = 2.039409 g / cm^3
# Si number density = 20.440618 Si / 1000 Ang^3
#
#
#
# Elastic Constant Matrix: (Units=GPa)
#
#
# Indices 1 2 3 4 5 6 
#
# 1 91.9429 39.1584 43.6363 0.0000 0.0000 0.0000
# 2 39.1584 76.1926 40.3152 0.0000 0.0000 0.0000
# 3 43.6363 40.3152 98.3515 0.0000 0.0000 0.0000
# 4 0.0000 0.0000 0.0000 27.9024 0.0000 0.0000
# 5 0.0000 0.0000 0.0000 0.0000 25.4123 0.0000
# 6 0.0000 0.0000 0.0000 0.0000 0.0000 27.4964
#
#
#
# Elastic Compliance Matrix: (Units=1/GPa)
#
#
# Indices 1 2 3 4 5 6 
#
# 1 0.015385 -0.005485 -0.004578 0.000000 0.000000 0.000000
# 2 -0.005485 0.018715 -0.005238 0.000000 0.000000 0.000000
# 3 -0.004578 -0.005238 0.014346 0.000000 0.000000 0.000000
# 4 0.000000 0.000000 0.000000 0.035839 0.000000 0.000000
# 5 0.000000 0.000000 0.000000 0.000000 0.039351 0.000000
# 6 0.000000 0.000000 0.000000 0.000000 0.000000 0.036368
#
#
# Mechanical properties :
#
#
# Convention : Reuss Voigt Hill
#
# Bulk Modulus (GPa) = 56.03884 56.96743 56.50313
# Shear Modulus (GPa) = 25.43839 25.72068 25.57954
#
# Velocity S-wave (km/s) = 3.53158 3.55112 3.54136
# Velocity P-wave (km/s) = 6.64111 6.68911 6.66515
#
# Compressibility (1/GPa) = 0.01784477
#
# Stress axis : x y z
#
# Youngs Moduli (GPa) = 64.99910 53.43300 69.70726
#
# Poissons Ratio (x) = 0.29307 0.31909
# Poissons Ratio (y) = 0.35650 0.36513
# Poissons Ratio (z) = 0.29754 0.27988
#
# Static dielectric constant tensor:
#      x y z
#    x 4.059560 0.000000 0.000000 
#    y 0.000000 3.419170 0.000000 
#    z 0.000000 0.000000 3.695110 
# 
# 
# High freq. dielectric constant tensor:
#      x y z
#    x 1.812400 0.000000 0.000000 
#    y 0.000000 1.766820 0.000000 
#    z 0.000000 0.000000 1.798360 
# 
# From -- ./inp_files/15472.got.cif
#   From: 2010.03.12/outbox.cif.g09.slc.cpg/sg38_8_cif.got.tgz:15472.got - 2010.04.14 02:38:36.
