data_PCOD8179853
_publ_section_title
;
Structure prediction by ZEFSAII (Michael W. Deem and Ramdas Pophale) SiO2 
 PCOD8179853
Probable space group: A M M 2
;
_chemical_formula_sum "Si O2"
_cell_formula_units_Z 64
_cell_length_a 8.825908
_cell_length_b 33.400653
_cell_length_c 11.650384
_cell_angle_alpha 90.000000
_cell_angle_beta 90.000000
_cell_angle_gamma 90.000000
_cell_volume 3434.429404
_symmetry_space_group_name_H-M "A M M 2"
_symmetry_group_IT_number 38
_symmetry_cell_setting 'orthorhombic'
loop_
_space_group_symop_operation_xyz
x,y,z
-x,-y,z
-x,y,z
x,-y,z
x,1/2+y,1/2+z
-x,1/2-y,1/2+z
-x,1/2+y,1/2+z
x,1/2-y,1/2+z
loop_
_atom_site_type_symbol
_atom_site_label
_atom_site_fract_x
_atom_site_fract_y
_atom_site_fract_z
Si Si1 0.179251 0.120540 0.860020
Si Si2 0.174506 0.394544 0.895874
Si Si3 0.819689 0.650838 0.111851
Si Si4 0.176709 0.954096 0.214982
Si Si5 0.331238 0.671881 0.774573
Si Si6 0.325309 0.812261 0.012374
Si Si7 0.672978 0.223608 0.489342
Si Si8 0.679137 0.046218 0.976472
O O1 0.236531 0.136280 0.736081
O O2 0.249956 0.076623 0.883693
O O3 0.000000 0.115703 0.862223
O O4 0.228609 0.152960 0.953664
O O5 0.241306 0.433703 0.831908
O O6 0.201388 0.359617 0.804110
O O7 0.000000 0.401846 0.918412
O O8 0.246641 0.381581 0.018520
O O9 0.758964 0.694956 0.080041
O O10 0.000000 0.652920 0.105531
O O11 0.000000 0.943858 0.195291
O O12 0.206971 0.000000 0.236261
O O13 0.266305 0.939618 0.102290
O O14 0.500000 0.653081 0.789884
O O15 0.304144 0.686015 0.647394
O O16 0.312572 0.709267 0.858998
O O17 0.500000 0.817504 0.974434
O O18 0.259558 0.768425 0.982562
O O19 0.500000 0.225419 0.532578
O O20 0.500000 0.050028 0.970985
O O21 0.730374 0.000000 0.951635
#
# Coordination Sequence:
#
# PCOD8179853 Si02
#       8
#     8   8   8   8   8   8   8   8
#     4  11  23  37  54  79 109 144 184 224 268 321
#     4   9  17  32  52  72  98 133 169 208 255 310
#     4   9  20  37  53  73 105 142 180 221 265 315
#     4   9  17  30  52  81 108 133 166 212 265 322
#     4   9  18  32  48  72  99 126 165 211 258 307
#     4  10  21  34  53  78 105 136 174 223 268 315
#     4   9  19  34  54  76 100 135 175 217 267 318
#     4  10  21  37  57  81 110 143 178 221 272 321
#
# _framework density 18.634827999999999
#
# number of rings (size 3 to 8) (size 9 to 14) (size 15 to 20)
#    0.000    2.500    0.000    1.500    1.750    5.250 
#    0.000    0.625    0.000    2.250    0.000    1.750 
#    0.000    0.000    0.000    0.000    0.000    0.000 
#
# Total GULP energy -396598.089608 kJ/mol
# GULP energy per Si atom -12393.690300 kJ/mol
# Density = 1.859241 g / cm^3
# Si number density = 18.634828 Si / 1000 Ang^3
#
#
#
# Elastic Constant Matrix: (Units=GPa)
#
#
# Indices 1 2 3 4 5 6 
#
# 1 37.0246 25.7615 29.1627 0.0000 0.0000 0.0000
# 2 25.7615 109.1382 60.0799 0.0000 0.0000 0.0000
# 3 29.1627 60.0799 102.6753 0.0000 0.0000 0.0000
# 4 0.0000 0.0000 0.0000 24.8716 0.0000 0.0000
# 5 0.0000 0.0000 0.0000 0.0000 20.2545 0.0000
# 6 0.0000 0.0000 0.0000 0.0000 0.0000 28.2529
#
#
#
# Elastic Compliance Matrix: (Units=1/GPa)
#
#
# Indices 1 2 3 4 5 6 
#
# 1 0.036076 -0.004241 -0.007765 0.000000 0.000000 0.000000
# 2 -0.004241 0.014015 -0.006996 0.000000 0.000000 0.000000
# 3 -0.007765 -0.006996 0.016039 0.000000 0.000000 0.000000
# 4 0.000000 0.000000 0.000000 0.040207 0.000000 0.000000
# 5 0.000000 0.000000 0.000000 0.000000 0.049372 0.000000
# 6 0.000000 0.000000 0.000000 0.000000 0.000000 0.035395
#
#
# Mechanical properties :
#
#
# Convention : Reuss Voigt Hill
#
# Bulk Modulus (GPa) = 35.55511 53.20517 44.38014
# Shear Modulus (GPa) = 20.96585 23.59805 22.28195
#
# Velocity S-wave (km/s) = 3.35787 3.56243 3.46166
# Velocity P-wave (km/s) = 5.84424 6.74794 6.31228
#
# Compressibility (1/GPa) = 0.02812535
#
# Stress axis : x y z
#
# Youngs Moduli (GPa) = 27.71916 71.35104 62.34863
#
# Poissons Ratio (x) = 0.30260 0.48414
# Poissons Ratio (y) = 0.11756 0.43621
# Poissons Ratio (z) = 0.21524 0.49920
#
# Static dielectric constant tensor:
#      x y z
#    x 3.356120 0.000000 0.000000 
#    y 0.000000 3.569420 0.000000 
#    z 0.000000 0.000000 3.613100 
# 
# 
# High freq. dielectric constant tensor:
#      x y z
#    x 1.710570 0.000000 0.000000 
#    y 0.000000 1.725520 0.000000 
#    z 0.000000 0.000000 1.723510 
# 
# From -- ./inp_files/8577.got.cif
#   From: 2010.03.12/outbox.cif.g09.slc.cpg/sg38_5_cif.got.tgz:8577.got - 2010.04.14 02:38:36.
