data_PCOD8179157
_publ_section_title
;
Structure prediction by ZEFSAII (Michael W. Deem and Ramdas Pophale) SiO2 
 PCOD8179157
Probable space group: A M M 2
;
_chemical_formula_sum "Si O2"
_cell_formula_units_Z 64
_cell_length_a 20.394978
_cell_length_b 9.029572
_cell_length_c 18.735593
_cell_angle_alpha 90.000000
_cell_angle_beta 90.000000
_cell_angle_gamma 90.000000
_cell_volume 3450.307880
_symmetry_space_group_name_H-M "A M M 2"
_symmetry_group_IT_number 38
_symmetry_cell_setting 'orthorhombic'
loop_
_space_group_symop_operation_xyz
x,y,z
-x,-y,z
-x,y,z
x,-y,z
x,1/2+y,1/2+z
-x,1/2-y,1/2+z
-x,1/2+y,1/2+z
x,1/2-y,1/2+z
loop_
_atom_site_type_symbol
_atom_site_label
_atom_site_fract_x
_atom_site_fract_y
_atom_site_fract_z
Si Si1 0.688646 0.324279 0.907330
Si Si2 0.423896 0.171462 0.824911
Si Si3 0.074024 0.827902 0.918119
Si Si4 0.805373 0.825506 0.822047
Si Si5 0.926381 0.174772 0.563272
Si Si6 0.811289 0.176058 0.661127
Si Si7 0.427931 0.176011 0.663516
Si Si8 0.689904 0.176342 0.569646
O O1 0.692671 0.500000 0.902865
O O2 0.619137 0.271539 0.876982
O O3 0.748478 0.255999 0.864219
O O4 0.693488 0.267148 0.988708
O O5 0.500000 0.197521 0.843463
O O6 0.408741 0.222526 0.743933
O O7 0.404766 0.000000 0.835304
O O8 0.123615 0.786519 0.854748
O O9 0.000000 0.782165 0.895098
O O10 0.077408 0.000000 0.936550
O O11 0.096898 0.741888 0.988444
O O12 0.805750 0.763427 0.741442
O O13 0.791141 0.000000 0.824610
O O14 0.879193 0.232125 0.626198
O O15 0.000000 0.226215 0.582412
O O16 0.921492 0.000000 0.554751
O O17 0.751880 0.238624 0.613431
O O18 0.809687 0.000000 0.662743
O O19 0.500000 0.239198 0.643729
O O20 0.375470 0.240509 0.607555
O O21 0.429965 0.000000 0.660365
O O22 0.689106 0.000000 0.572121
#
# Coordination Sequence:
#
# PCOD8179157 Si02
#       8
#     8   8   8   8   8   8   8   8
#     4  11  22  33  49  75 105 133 162 203 252 299
#     4   9  18  34  56  78 100 130 167 204 243 292
#     4   9  18  32  50  74 103 132 162 199 247 303
#     4  10  20  34  53  73  96 131 170 208 250 295
#     4   9  17  30  50  74  98 126 161 202 247 293
#     4   9  17  30  49  71  93 121 163 210 246 280
#     4   8  14  27  49  73  93 118 157 199 234 276
#     4   9  17  28  44  68  96 124 156 198 243 284
#
# _framework density 18.549068999999999
#
# number of rings (size 3 to 8) (size 9 to 14) (size 15 to 20)
#    0.000    2.750    0.000    2.625    0.000    4.750 
#    0.000    4.375    0.000    7.500    0.000    3.500 
#    0.000    0.000    0.000    0.000    0.000    0.000 
#
# Total GULP energy -396754.287792 kJ/mol
# GULP energy per Si atom -12398.571494 kJ/mol
# Density = 1.850685 g / cm^3
# Si number density = 18.549069 Si / 1000 Ang^3
#
#
#
# Elastic Constant Matrix: (Units=GPa)
#
#
# Indices 1 2 3 4 5 6 
#
# 1 140.5071 29.4358 103.1872 0.0000 0.0000 0.0000
# 2 29.4358 26.3532 32.4213 0.0000 0.0000 0.0000
# 3 103.1872 32.4213 178.4666 0.0000 0.0000 0.0000
# 4 0.0000 0.0000 0.0000 24.0856 0.0000 0.0000
# 5 0.0000 0.0000 0.0000 0.0000 40.4837 0.0000
# 6 0.0000 0.0000 0.0000 0.0000 0.0000 20.7936
#
#
#
# Elastic Compliance Matrix: (Units=1/GPa)
#
#
# Indices 1 2 3 4 5 6 
#
# 1 0.013287 -0.006941 -0.006421 0.000000 0.000000 0.000000
# 2 -0.006941 0.052494 -0.005523 0.000000 0.000000 0.000000
# 3 -0.006421 -0.005523 0.010319 0.000000 0.000000 0.000000
# 4 0.000000 0.000000 0.000000 0.041519 0.000000 0.000000
# 5 0.000000 0.000000 0.000000 0.000000 0.024701 0.000000
# 6 0.000000 0.000000 0.000000 0.000000 0.000000 0.048092
#
#
# Mechanical properties :
#
#
# Convention : Reuss Voigt Hill
#
# Bulk Modulus (GPa) = 26.08987 75.04616 50.56801
# Shear Modulus (GPa) = 20.75034 29.09143 24.92089
#
# Velocity S-wave (km/s) = 3.34829 3.96454 3.66937
# Velocity P-wave (km/s) = 5.38924 7.84237 6.72854
#
# Compressibility (1/GPa) = 0.03832905
#
# Stress axis : x y z
#
# Youngs Moduli (GPa) = 75.26096 19.04981 96.90455
#
# Poissons Ratio (x) = 0.13223 0.62227
# Poissons Ratio (y) = 0.52241 0.53521
# Poissons Ratio (z) = 0.48328 0.10521
#
# Static dielectric constant tensor:
#      x y z
#    x 3.749000 0.000000 0.000000 
#    y 0.000000 2.984360 0.000000 
#    z 0.000000 0.000000 3.591980 
# 
# 
# High freq. dielectric constant tensor:
#      x y z
#    x 1.737210 0.000000 0.000000 
#    y 0.000000 1.672390 0.000000 
#    z 0.000000 0.000000 1.723520 
# 
# From -- ./inp_files/18876.got.cif
#   From: 2010.03.12/outbox.cif.g09.slc.cpg/sg38_10_cif.got.tgz:18876.got - 2010.04.14 02:38:36.
