data_PCOD8179182
_publ_section_title
;
Structure prediction by ZEFSAII (Michael W. Deem and Ramdas Pophale) SiO2 
 PCOD8179182
Probable space group: A M M 2
;
_chemical_formula_sum "Si O2"
_cell_formula_units_Z 48
_cell_length_a 8.730182
_cell_length_b 18.952367
_cell_length_c 15.290943
_cell_angle_alpha 90.000000
_cell_angle_beta 90.000000
_cell_angle_gamma 90.000000
_cell_volume 2530.002933
_symmetry_space_group_name_H-M "A M M 2"
_symmetry_group_IT_number 38
_symmetry_cell_setting 'orthorhombic'
loop_
_space_group_symop_operation_xyz
x,y,z
-x,-y,z
-x,y,z
x,-y,z
x,1/2+y,1/2+z
-x,1/2-y,1/2+z
-x,1/2+y,1/2+z
x,1/2-y,1/2+z
loop_
_atom_site_type_symbol
_atom_site_label
_atom_site_fract_x
_atom_site_fract_y
_atom_site_fract_z
Si Si1 0.678238 0.322167 0.858550
Si Si2 0.180087 0.166071 0.665387
Si Si3 0.682725 0.315907 0.664599
Si Si4 0.679110 0.338020 0.349963
Si Si5 0.682316 0.921150 0.017798
Si Si6 0.679983 0.081575 0.513051
O O1 0.500000 0.338575 0.855509
O O2 0.744788 0.336779 0.761219
O O3 0.711708 0.241200 0.883844
O O4 0.750142 0.373900 0.931335
O O5 0.256450 0.239531 0.636421
O O6 0.228121 0.143847 0.762936
O O7 0.234914 0.104621 0.600950
O O8 0.000000 0.174521 0.660549
O O9 0.500000 0.311178 0.663613
O O10 0.746370 0.373882 0.597130
O O11 0.500000 0.347687 0.329089
O O12 0.738058 0.390275 0.425303
O O13 0.500000 0.920695 0.020621
O O14 0.747698 0.000000 0.028353
O O15 0.500000 0.095946 0.525040
O O16 0.714843 0.000000 0.494689
#
# Coordination Sequence:
#
# PCOD8179182 Si02
#       6
#     8   8   8   8   8   8
#     4   8  15  29  51  76  99 129 168 207 246 292
#     4  11  22  35  52  74 101 134 176 219 254 293
#     4   9  17  33  56  79 105 134 166 206 252 303
#     4   9  17  32  53  75 102 135 171 210 252 299
#     4   9  17  29  51  83 110 132 163 206 254 303
#     4  10  20  34  53  77 105 136 168 204 252 308
#
# _framework density 18.972311000000001
#
# number of rings (size 3 to 8) (size 9 to 14) (size 15 to 20)
#    0.000    2.667    0.000    3.500    0.000    4.333 
#    0.000   12.500    0.000    1.500    0.000    0.000 
#    0.000    0.000    0.000    0.000    0.000    0.000 
#
# Total GULP energy -297574.714369 kJ/mol
# GULP energy per Si atom -12398.946432 kJ/mol
# Density = 1.892913 g / cm^3
# Si number density = 18.972311 Si / 1000 Ang^3
#
#
#
# Elastic Constant Matrix: (Units=GPa)
#
#
# Indices 1 2 3 4 5 6 
#
# 1 37.4603 19.4082 21.9588 0.0000 0.0000 0.0000
# 2 19.4082 94.6967 54.8063 0.0000 0.0000 0.0000
# 3 21.9588 54.8063 100.9254 0.0000 0.0000 0.0000
# 4 0.0000 0.0000 0.0000 24.9687 0.0000 0.0000
# 5 0.0000 0.0000 0.0000 0.0000 4.4099 0.0000
# 6 0.0000 0.0000 0.0000 0.0000 0.0000 6.2622
#
#
#
# Elastic Compliance Matrix: (Units=1/GPa)
#
#
# Indices 1 2 3 4 5 6 
#
# 1 0.031427 -0.003622 -0.004871 0.000000 0.000000 0.000000
# 2 -0.003622 0.015817 -0.007801 0.000000 0.000000 0.000000
# 3 -0.004871 -0.007801 0.015205 0.000000 0.000000 0.000000
# 4 0.000000 0.000000 0.000000 0.040050 0.000000 0.000000
# 5 0.000000 0.000000 0.000000 0.000000 0.226763 0.000000
# 6 0.000000 0.000000 0.000000 0.000000 0.000000 0.159688
#
#
# Mechanical properties :
#
#
# Convention : Reuss Voigt Hill
#
# Bulk Modulus (GPa) = 33.48925 47.26989 40.37957
# Shear Modulus (GPa) = 9.40747 16.25543 12.83145
#
# Velocity S-wave (km/s) = 2.22919 2.93029 2.60345
# Velocity P-wave (km/s) = 4.93109 6.03474 5.51061
#
# Compressibility (1/GPa) = 0.02986033
#
# Stress axis : x y z
#
# Youngs Moduli (GPa) = 31.82012 63.22116 65.76982
#
# Poissons Ratio (x) = 0.22898 0.32035
# Poissons Ratio (y) = 0.11525 0.51310
# Poissons Ratio (z) = 0.15499 0.49322
#
# Static dielectric constant tensor:
#      x y z
#    x 2.983420 0.000000 0.000000 
#    y 0.000000 3.538650 0.000000 
#    z 0.000000 0.000000 3.798490 
# 
# 
# High freq. dielectric constant tensor:
#      x y z
#    x 1.686610 0.000000 0.000000 
#    y 0.000000 1.734890 0.000000 
#    z 0.000000 0.000000 1.752330 
# 
# From -- ./inp_files/12017.got.cif
#   From: 2010.03.12/outbox.cif.g09.slc.cpg/sg38_7_cif.got.tgz:12017.got - 2010.04.14 02:38:36.
