data_PCOD8179818
_publ_section_title
;
Structure prediction by ZEFSAII (Michael W. Deem and Ramdas Pophale) SiO2 
 PCOD8179818
Probable space group: A M M 2
;
_chemical_formula_sum "Si O2"
_cell_formula_units_Z 48
_cell_length_a 13.943335
_cell_length_b 8.897216
_cell_length_c 19.654335
_cell_angle_alpha 90.000000
_cell_angle_beta 90.000000
_cell_angle_gamma 90.000000
_cell_volume 2438.255149
_symmetry_space_group_name_H-M "A M M 2"
_symmetry_group_IT_number 38
_symmetry_cell_setting 'orthorhombic'
loop_
_space_group_symop_operation_xyz
x,y,z
-x,-y,z
-x,y,z
x,-y,z
x,1/2+y,1/2+z
-x,1/2-y,1/2+z
-x,1/2+y,1/2+z
x,1/2-y,1/2+z
loop_
_atom_site_type_symbol
_atom_site_label
_atom_site_fract_x
_atom_site_fract_y
_atom_site_fract_z
Si Si1 0.500000 0.676835 0.408051
Si Si2 0.686194 0.673427 0.877756
Si Si3 0.000000 0.325432 0.429341
Si Si4 0.793915 0.673667 0.740507
Si Si5 0.500000 0.175422 0.555516
Si Si6 0.000000 0.823859 0.282873
Si Si7 0.295578 0.676151 0.115777
Si Si8 0.198712 0.676732 0.494437
O O1 0.500000 0.500000 0.411628
O O2 0.410092 0.733958 0.364379
O O3 0.500000 0.737604 0.484789
O O4 0.659656 0.500000 0.886619
O O5 0.760135 0.701672 0.817355
O O6 0.729119 0.731505 0.947866
O O7 0.909141 0.279075 0.474706
O O8 0.000000 0.500000 0.412707
O O9 0.000000 0.246107 0.357220
O O10 0.780955 0.500000 0.719077
O O11 0.729052 0.777878 0.692796
O O12 0.905980 0.722660 0.739411
O O13 0.405691 0.220053 0.599019
O O14 0.500000 0.000000 0.538353
O O15 0.000000 0.000000 0.296319
O O16 0.278286 0.500000 0.105429
O O17 0.220115 0.770196 0.070763
O O18 0.217766 0.500000 0.486638
#
# Coordination Sequence:
#
# PCOD8179818 Si02
#       8
#     4   8   4   8   4   4   8   8
#     4  12  24  37  62  95 125 163 205 253 308 367
#     4  11  22  39  63  91 123 160 205 255 304 359
#     4  10  22  37  60  93 127 161 203 259 306 357
#     4  10  23  41  63  90 124 163 204 254 308 367
#     4  10  22  41  62  85 119 161 205 255 312 367
#     4  10  20  39  64  89 119 163 207 249 310 373
#     4  11  24  41  63  89 123 164 205 257 311 367
#     4  11  22  38  61  91 124 160 205 254 306 363
#
# _framework density 19.686208000000001
#
# number of rings (size 3 to 8) (size 9 to 14) (size 15 to 20)
#    0.000    1.333    3.333    2.250    0.000    4.667 
#    0.000    5.000    0.000    0.000    0.000    0.000 
#    0.000    0.000    0.000    0.000    0.000    0.000 
#
# Total GULP energy -297690.538665 kJ/mol
# GULP energy per Si atom -12403.772444 kJ/mol
# Density = 1.964140 g / cm^3
# Si number density = 19.686208 Si / 1000 Ang^3
#
#
#
# Elastic Constant Matrix: (Units=GPa)
#
#
# Indices 1 2 3 4 5 6 
#
# 1 131.2468 45.3196 19.8719 0.0000 0.0000 0.0000
# 2 45.3196 78.1823 25.3752 0.0000 0.0000 0.0000
# 3 19.8719 25.3752 57.4451 0.0000 0.0000 0.0000
# 4 0.0000 0.0000 0.0000 37.6997 0.0000 0.0000
# 5 0.0000 0.0000 0.0000 0.0000 37.2008 0.0000
# 6 0.0000 0.0000 0.0000 0.0000 0.0000 29.3068
#
#
#
# Elastic Compliance Matrix: (Units=1/GPa)
#
#
# Indices 1 2 3 4 5 6 
#
# 1 0.009575 -0.005224 -0.001005 0.000000 0.000000 0.000000
# 2 -0.005224 0.017782 -0.006048 0.000000 0.000000 0.000000
# 3 -0.001005 -0.006048 0.020427 0.000000 0.000000 0.000000
# 4 0.000000 0.000000 0.000000 0.026525 0.000000 0.000000
# 5 0.000000 0.000000 0.000000 0.000000 0.026881 0.000000
# 6 0.000000 0.000000 0.000000 0.000000 0.000000 0.034122
#
#
# Mechanical properties :
#
#
# Convention : Reuss Voigt Hill
#
# Bulk Modulus (GPa) = 43.04603 49.77863 46.41233
# Shear Modulus (GPa) = 29.83132 32.59529 31.21330
#
# Velocity S-wave (km/s) = 3.89696 4.07350 3.98621
# Velocity P-wave (km/s) = 6.49322 6.88952 6.69430
#
# Compressibility (1/GPa) = 0.02323095
#
# Stress axis : x y z
#
# Youngs Moduli (GPa) = 104.43488 56.23703 48.95523
#
# Poissons Ratio (x) = 0.29381 0.04918
# Poissons Ratio (y) = 0.54561 0.29606
# Poissons Ratio (z) = 0.10491 0.34009
#
# Static dielectric constant tensor:
#      x y z
#    x 3.700570 0.000000 0.000000 
#    y 0.000000 3.572100 0.000000 
#    z 0.000000 0.000000 3.386940 
# 
# 
# High freq. dielectric constant tensor:
#      x y z
#    x 1.784410 0.000000 0.000000 
#    y 0.000000 1.769650 0.000000 
#    z 0.000000 0.000000 1.758260 
# 
# From -- ./inp_files/18239.got.cif
#   From: 2010.03.12/outbox.cif.g09.slc.cpg/sg38_10_cif.got.tgz:18239.got - 2010.04.14 02:38:36.
