data_PCOD8179713
_publ_section_title
;
Structure prediction by ZEFSAII (Michael W. Deem and Ramdas Pophale) SiO2 
 PCOD8179713
Probable space group: A M M 2
;
_chemical_formula_sum "Si O2"
_cell_formula_units_Z 64
_cell_length_a 8.850467
_cell_length_b 28.609023
_cell_length_c 12.560529
_cell_angle_alpha 90.000000
_cell_angle_beta 90.000000
_cell_angle_gamma 90.000000
_cell_volume 3180.366312
_symmetry_space_group_name_H-M "A M M 2"
_symmetry_group_IT_number 38
_symmetry_cell_setting 'orthorhombic'
loop_
_space_group_symop_operation_xyz
x,y,z
-x,-y,z
-x,y,z
x,-y,z
x,1/2+y,1/2+z
-x,1/2-y,1/2+z
-x,1/2+y,1/2+z
x,1/2-y,1/2+z
loop_
_atom_site_type_symbol
_atom_site_label
_atom_site_fract_x
_atom_site_fract_y
_atom_site_fract_z
Si Si1 0.831022 0.948806 0.599810
Si Si2 0.825560 0.672304 0.952419
Si Si3 0.326014 0.077389 0.402519
Si Si4 0.178404 0.553446 0.466171
Si Si5 0.327444 0.199734 0.255711
Si Si6 0.326102 0.391506 0.274487
Si Si7 0.671309 0.699982 0.159134
Si Si8 0.324805 0.900002 0.168610
O O1 0.776135 0.955251 0.477602
O O2 0.718695 0.915429 0.663146
O O3 0.000000 0.927422 0.602172
O O4 0.831696 0.000000 0.653294
O O5 0.712029 0.629658 0.937041
O O6 0.782402 0.707338 0.856867
O O7 0.000000 0.657404 0.945036
O O8 0.793282 0.694333 0.066561
O O9 0.500000 0.066209 0.425412
O O10 0.290743 0.071034 0.277161
O O11 0.241295 0.500000 0.455869
O O12 0.231687 0.586657 0.370423
O O13 0.227833 0.576513 0.576611
O O14 0.000000 0.552221 0.462327
O O15 0.500000 0.192131 0.294057
O O16 0.309597 0.246551 0.189945
O O17 0.278905 0.154526 0.185036
O O18 0.500000 0.401658 0.299577
O O19 0.295362 0.335934 0.257461
O O20 0.500000 0.690520 0.119134
O O21 0.500000 0.903688 0.136790
#
# Coordination Sequence:
#
# PCOD8179713 Si02
#       8
#     8   8   8   8   8   8   8   8
#     4  11  23  37  56  86 122 155 189 239 303 361
#     4  11  21  34  56  84 118 154 189 243 305 358
#     4  10  20  37  60  85 114 152 197 242 294 358
#     4  11  25  43  62  85 120 165 206 254 318 378
#     4   9  20  39  61  86 119 160 203 249 303 367
#     4  11  23  39  62  88 116 156 207 255 298 358
#     4  10  21  38  61  87 117 158 204 249 301 366
#     4   9  20  39  63  88 116 153 201 252 299 356
#
# _framework density 20.123467999999999
#
# number of rings (size 3 to 8) (size 9 to 14) (size 15 to 20)
#    0.000    1.750    1.250    3.750    0.000    8.500 
#    0.000    7.500    0.000    0.000    0.000    0.000 
#    0.000    0.000    0.000    0.000    0.000    0.000 
#
# Total GULP energy -396690.701245 kJ/mol
# GULP energy per Si atom -12396.584414 kJ/mol
# Density = 2.007767 g / cm^3
# Si number density = 20.123468 Si / 1000 Ang^3
#
#
#
# Elastic Constant Matrix: (Units=GPa)
#
#
# Indices 1 2 3 4 5 6 
#
# 1 69.8454 27.9612 40.2949 0.0000 0.0000 0.0000
# 2 27.9612 83.1383 35.2995 0.0000 0.0000 0.0000
# 3 40.2949 35.2995 108.8684 0.0000 0.0000 0.0000
# 4 0.0000 0.0000 0.0000 20.6767 0.0000 0.0000
# 5 0.0000 0.0000 0.0000 0.0000 29.2787 0.0000
# 6 0.0000 0.0000 0.0000 0.0000 0.0000 -45.3166
#
#
#
# Elastic Compliance Matrix: (Units=1/GPa)
#
#
# Indices 1 2 3 4 5 6 
#
# 1 0.019292 -0.004008 -0.005841 0.000000 0.000000 0.000000
# 2 -0.004008 0.014781 -0.003309 0.000000 0.000000 0.000000
# 3 -0.005841 -0.003309 0.012420 0.000000 0.000000 0.000000
# 4 0.000000 0.000000 0.000000 0.048364 0.000000 0.000000
# 5 0.000000 0.000000 0.000000 0.000000 0.034154 0.000000
# 6 0.000000 0.000000 0.000000 0.000000 0.000000 -0.022067
#
#
# Mechanical properties :
#
#
# Convention : Reuss Voigt Hill
#
# Bulk Modulus (GPa) = 49.56181 52.10704 50.83442
# Shear Modulus (GPa) = 35.71793 11.48086 23.59939
#
# Velocity S-wave (km/s) = 4.21757 2.39115 3.42823
# Velocity P-wave (km/s) = 6.95698 5.79425 6.40207
#
# Compressibility (1/GPa) = 0.02017683
#
# Stress axis : x y z
#
# Youngs Moduli (GPa) = 51.83621 67.65336 80.51464
#
# Poissons Ratio (x) = 0.27117 0.47026
# Poissons Ratio (y) = 0.20777 0.26643
# Poissons Ratio (z) = 0.30276 0.22387
#
# Static dielectric constant tensor:
#      x y z
#    x 3.649980 0.000000 0.000000 
#    y 0.000000 3.709570 0.000000 
#    z 0.000000 0.000000 3.827290 
# 
# 
# High freq. dielectric constant tensor:
#      x y z
#    x 1.784660 0.000000 0.000000 
#    y 0.000000 1.785540 0.000000 
#    z 0.000000 0.000000 1.784400 
# 
# From -- ./inp_files/8656.got.cif
#   From: 2010.03.12/outbox.cif.g09.slc.cpg/sg38_5_cif.got.tgz:8656.got - 2010.04.14 02:38:36.
