data_PCOD8179083
_publ_section_title
;
Structure prediction by ZEFSAII (Michael W. Deem and Ramdas Pophale) SiO2 
 PCOD8179083
Probable space group: A M M 2
;
_chemical_formula_sum "Si O2"
_cell_formula_units_Z 34
_cell_length_a 7.915071
_cell_length_b 7.860753
_cell_length_c 26.729573
_cell_angle_alpha 90.000000
_cell_angle_beta 90.000000
_cell_angle_gamma 90.000000
_cell_volume 1663.071749
_symmetry_space_group_name_H-M "A M M 2"
_symmetry_group_IT_number 38
_symmetry_cell_setting 'orthorhombic'
loop_
_space_group_symop_operation_xyz
x,y,z
-x,-y,z
-x,y,z
x,-y,z
x,1/2+y,1/2+z
-x,1/2-y,1/2+z
-x,1/2+y,1/2+z
x,1/2-y,1/2+z
loop_
_atom_site_type_symbol
_atom_site_label
_atom_site_fract_x
_atom_site_fract_y
_atom_site_fract_z
Si Si1 0.313501 0.000000 0.220361
Si Si2 0.000000 0.310579 0.551489
Si Si3 0.192375 0.690058 0.281781
Si Si4 0.313788 0.197304 0.994515
Si Si5 0.000000 0.500000 0.646990
Si Si6 0.302788 0.695188 0.884952
O O1 0.303888 0.167722 0.254656
O O2 0.170477 0.000000 0.178514
O O3 0.500000 0.000000 0.195288
O O4 0.172182 0.219550 0.531625
O O5 0.000000 0.500000 0.526809
O O6 0.000000 0.329601 0.612024
O O7 0.252698 0.500000 0.266414
O O8 0.203515 0.707150 0.341566
O O9 0.000000 0.718483 0.264782
O O10 0.500000 0.283781 0.002663
O O11 0.252117 0.223772 0.937850
O O12 0.333302 0.000000 0.006719
O O13 0.500000 0.717639 0.874410
O O14 0.246832 0.500000 0.884891
#
# Coordination Sequence:
#
# PCOD8179083 Si02
#       6
#     4   4   8   8   2   8
#     4  12  24  42  68  94 128 166 210 266 325 382
#     4   8  18  34  56  81 110 141 191 260 301 358
#     4  11  23  39  61  90 130 172 209 258 312 376
#     4   9  17  31  52  79 112 152 199 241 290 356
#     4  10  22  42  62  92 120 146 214 276 324 382
#     4  10  20  33  52  84 127 170 207 249 300 366
#
# _framework density 20.444098
#
# number of rings (size 3 to 8) (size 9 to 14) (size 15 to 20)
#    0.353    1.647    2.353    1.412    1.647    3.765 
#    0.000    0.000    0.000    2.824    0.000    3.294 
#    0.000    0.000    0.000    0.000    0.000    0.000 
#
# Total GULP energy -210704.640840 kJ/mol
# GULP energy per Si atom -12394.390638 kJ/mol
# Density = 2.039757 g / cm^3
# Si number density = 20.444098 Si / 1000 Ang^3
#
#
#
# Elastic Constant Matrix: (Units=GPa)
#
#
# Indices 1 2 3 4 5 6 
#
# 1 132.5972 32.9462 66.0364 0.0000 0.0000 0.0000
# 2 32.9462 80.2947 18.5090 0.0000 0.0000 0.0000
# 3 66.0364 18.5090 116.0972 0.0000 0.0000 0.0000
# 4 0.0000 0.0000 0.0000 -2.3191 0.0000 0.0000
# 5 0.0000 0.0000 0.0000 0.0000 23.8618 0.0000
# 6 0.0000 0.0000 0.0000 0.0000 0.0000 8.8350
#
#
#
# Elastic Compliance Matrix: (Units=1/GPa)
#
#
# Indices 1 2 3 4 5 6 
#
# 1 0.011295 -0.003274 -0.005902 0.000000 0.000000 0.000000
# 2 -0.003274 0.013878 -0.000350 0.000000 0.000000 0.000000
# 3 -0.005902 -0.000350 0.012027 0.000000 0.000000 0.000000
# 4 0.000000 0.000000 0.000000 -0.431196 0.000000 0.000000
# 5 0.000000 0.000000 0.000000 0.000000 0.041908 0.000000
# 6 0.000000 0.000000 0.000000 0.000000 0.000000 0.113187
#
#
# Mechanical properties :
#
#
# Convention : Reuss Voigt Hill
#
# Bulk Modulus (GPa) = 55.10815 62.66358 58.88587
# Shear Modulus (GPa) = -23.38637 20.17535 -1.60551
#
# Velocity S-wave (km/s) = -3.38586 3.14483 -0.88714
# Velocity P-wave (km/s) = 3.42472 6.62604 5.27414
#
# Compressibility (1/GPa) = 0.01814614
#
# Stress axis : x y z
#
# Youngs Moduli (GPa) = 88.53754 72.05557 83.14836
#
# Poissons Ratio (x) = 0.23589 0.49078
# Poissons Ratio (y) = 0.28985 0.02914
# Poissons Ratio (z) = 0.52259 0.02525
#
# Static dielectric constant tensor:
#      x y z
#    x 4.038760 0.000000 0.000000 
#    y 0.000000 3.504100 0.000000 
#    z 0.000000 0.000000 3.421800 
# 
# 
# High freq. dielectric constant tensor:
#      x y z
#    x 1.810500 0.000000 0.000000 
#    y 0.000000 1.775460 0.000000 
#    z 0.000000 0.000000 1.772140 
# 
# From -- ./inp_files/23179.got.cif
#   From: 2010.03.12/outbox.cif.g09.slc.cpg/sg38_12_cif.got.tgz:23179.got - 2010.04.14 02:38:36.
