data_PCOD8179103
_publ_section_title
;
Structure prediction by ZEFSAII (Michael W. Deem and Ramdas Pophale) SiO2 
 PCOD8179103
Probable space group: A M M 2
;
_chemical_formula_sum "Si O2"
_cell_formula_units_Z 64
_cell_length_a 19.189325
_cell_length_b 8.915548
_cell_length_c 20.476082
_cell_angle_alpha 90.000000
_cell_angle_beta 90.000000
_cell_angle_gamma 90.000000
_cell_volume 3503.116665
_symmetry_space_group_name_H-M "A M M 2"
_symmetry_group_IT_number 38
_symmetry_cell_setting 'orthorhombic'
loop_
_space_group_symop_operation_xyz
x,y,z
-x,-y,z
-x,y,z
x,-y,z
x,1/2+y,1/2+z
-x,1/2-y,1/2+z
-x,1/2+y,1/2+z
x,1/2-y,1/2+z
loop_
_atom_site_type_symbol
_atom_site_label
_atom_site_fract_x
_atom_site_fract_y
_atom_site_fract_z
Si Si1 0.208886 0.326274 0.630090
Si Si2 0.921167 0.174495 0.672530
Si Si3 0.780328 0.173960 0.368750
Si Si4 0.291830 0.322872 0.247196
Si Si5 0.420605 0.173417 0.193801
Si Si6 0.575873 0.678010 0.546432
Si Si7 0.281008 0.325732 0.492794
Si Si8 0.077399 0.171388 0.307946
O O1 0.209906 0.500000 0.648695
O O2 0.129642 0.267254 0.625147
O O3 0.247700 0.238139 0.686937
O O4 0.245230 0.295306 0.561750
O O5 0.907986 0.220774 0.747236
O O6 0.000000 0.211686 0.651227
O O7 0.904351 0.000000 0.665947
O O8 0.738031 0.265368 0.315246
O O9 0.758130 0.226597 0.440069
O O10 0.863575 0.203396 0.362095
O O11 0.762422 0.000000 0.360234
O O12 0.288596 0.500000 0.247089
O O13 0.371697 0.269103 0.241459
O O14 0.500000 0.193578 0.217438
O O15 0.411491 0.236264 0.120084
O O16 0.397651 0.000000 0.197186
O O17 0.500000 0.735607 0.520638
O O18 0.575154 0.500000 0.550934
O O19 0.638242 0.729325 0.498640
O O20 0.276639 0.500000 0.473019
O O21 0.000000 0.202497 0.337523
O O22 0.082734 0.000000 0.282931
#
# Coordination Sequence:
#
# PCOD8179103 Si02
#       8
#     8   8   8   8   8   8   8   8
#     4  11  21  36  58  83 112 148 190 231 279 337
#     4  10  20  33  53  84 116 145 182 233 287 334
#     4  11  23  38  57  81 113 150 190 233 284 342
#     4  12  23  35  56  84 116 148 186 234 281 332
#     4   9  17  33  58  85 113 146 186 232 283 337
#     4   8  14  29  55  82 107 140 182 226 275 331
#     4  10  21  37  57  82 113 147 188 233 281 339
#     4   9  18  34  56  79 104 141 187 232 280 339
#
# _framework density 18.269445000000001
#
# number of rings (size 3 to 8) (size 9 to 14) (size 15 to 20)
#    0.000    2.000    2.500    3.000    0.000    2.500 
#    0.000    1.250    0.000    4.875    0.000    0.000 
#    0.000    0.000    0.000    0.000    0.000    0.000 
#
# Total GULP energy -396764.223927 kJ/mol
# GULP energy per Si atom -12398.881998 kJ/mol
# Density = 1.822786 g / cm^3
# Si number density = 18.269445 Si / 1000 Ang^3
#
#
#
# Elastic Constant Matrix: (Units=GPa)
#
#
# Indices 1 2 3 4 5 6 
#
# 1 143.0433 51.3663 45.3724 0.0000 0.0000 0.0000
# 2 51.3663 92.7654 38.3923 0.0000 0.0000 0.0000
# 3 45.3724 38.3923 56.2167 0.0000 0.0000 0.0000
# 4 0.0000 0.0000 0.0000 28.5849 0.0000 0.0000
# 5 0.0000 0.0000 0.0000 0.0000 26.8385 0.0000
# 6 0.0000 0.0000 0.0000 0.0000 0.0000 27.1224
#
#
#
# Elastic Compliance Matrix: (Units=1/GPa)
#
#
# Indices 1 2 3 4 5 6 
#
# 1 0.009982 -0.003057 -0.005969 0.000000 0.000000 0.000000
# 2 -0.003057 0.015963 -0.008435 0.000000 0.000000 0.000000
# 3 -0.005969 -0.008435 0.028366 0.000000 0.000000 0.000000
# 4 0.000000 0.000000 0.000000 0.034984 0.000000 0.000000
# 5 0.000000 0.000000 0.000000 0.000000 0.037260 0.000000
# 6 0.000000 0.000000 0.000000 0.000000 0.000000 0.036870
#
#
# Mechanical properties :
#
#
# Convention : Reuss Voigt Hill
#
# Bulk Modulus (GPa) = 51.57134 62.47639 57.02387
# Shear Modulus (GPa) = 24.41302 26.96877 25.69090
#
# Velocity S-wave (km/s) = 3.65948 3.84626 3.75403
# Velocity P-wave (km/s) = 6.79302 7.34822 7.07607
#
# Compressibility (1/GPa) = 0.01939061
#
# Stress axis : x y z
#
# Youngs Moduli (GPa) = 100.18181 62.64316 35.25353
#
# Poissons Ratio (x) = 0.19150 0.21042
# Poissons Ratio (y) = 0.30625 0.29735
# Poissons Ratio (z) = 0.59795 0.52838
#
# Static dielectric constant tensor:
#      x y z
#    x 3.934330 0.000000 0.000000 
#    y 0.000000 3.295150 0.000000 
#    z 0.000000 0.000000 3.105930 
# 
# 
# High freq. dielectric constant tensor:
#      x y z
#    x 1.731070 0.000000 0.000000 
#    y 0.000000 1.699730 0.000000 
#    z 0.000000 0.000000 1.672580 
# 
# From -- ./inp_files/18896.got.cif
#   From: 2010.03.12/outbox.cif.g09.slc.cpg/sg38_10_cif.got.tgz:18896.got - 2010.04.14 02:38:36.
