data_PCOD8179060
_publ_section_title
;
Structure prediction by ZEFSAII (Michael W. Deem and Ramdas Pophale) SiO2 
 PCOD8179060
Probable space group: A M M 2
;
_chemical_formula_sum "Si O2"
_cell_formula_units_Z 48
_cell_length_a 9.137242
_cell_length_b 7.662377
_cell_length_c 34.656306
_cell_angle_alpha 90.000000
_cell_angle_beta 90.000000
_cell_angle_gamma 90.000000
_cell_volume 2426.391707
_symmetry_space_group_name_H-M "A M M 2"
_symmetry_group_IT_number 38
_symmetry_cell_setting 'orthorhombic'
loop_
_space_group_symop_operation_xyz
x,y,z
-x,-y,z
-x,y,z
x,-y,z
x,1/2+y,1/2+z
-x,1/2-y,1/2+z
-x,1/2+y,1/2+z
x,1/2-y,1/2+z
loop_
_atom_site_type_symbol
_atom_site_label
_atom_site_fract_x
_atom_site_fract_y
_atom_site_fract_z
Si Si1 0.828164 0.199559 0.059220
Si Si2 0.826807 0.500000 0.201511
Si Si3 0.826634 0.000000 0.615765
Si Si4 0.828666 0.800106 0.258215
Si Si5 0.336339 0.792747 0.982290
Si Si6 0.161051 0.699894 0.410381
Si Si7 0.665999 0.294759 0.835758
O O1 0.774938 0.324719 0.093822
O O2 0.000000 0.218694 0.051393
O O3 0.787350 0.000000 0.070066
O O4 0.747156 0.264395 0.020862
O O5 0.756964 0.500000 0.158670
O O6 0.775659 0.675176 0.223590
O O7 0.000000 0.500000 0.198276
O O8 0.000000 0.000000 0.618800
O O9 0.742245 0.739268 0.296038
O O10 0.000000 0.776680 0.266922
O O11 0.791933 0.000000 0.246845
O O12 0.500000 0.714597 0.983022
O O13 0.252425 0.711526 0.945209
O O14 0.342812 0.000000 0.979275
O O15 0.138778 0.500000 0.421427
O O16 0.247549 0.708908 0.370583
O O17 0.000000 0.788677 0.406577
O O18 0.500000 0.224769 0.835567
O O19 0.671589 0.500000 0.841280
#
# Coordination Sequence:
#
# PCOD8179060 Si02
#       7
#     8   4   4   8   8   8   8
#     4   9  17  31  52  75 102 138 176 216 265 319
#     4   9  18  32  53  81 109 135 173 223 271 323
#     4   9  18  32  51  81 111 133 171 225 271 319
#     4   9  18  33  53  76 104 139 177 219 267 320
#     4   9  17  31  51  74 102 137 177 217 260 312
#     4  10  20  33  52  78 106 137 176 221 265 315
#     4  10  21  36  52  73 104 139 177 220 266 318
#
# _framework density 19.78246
#
# number of rings (size 3 to 8) (size 9 to 14) (size 15 to 20)
#    0.000    2.667    0.000    1.500    1.167    4.667 
#    1.500    3.750    0.000    2.000    0.000    4.667 
#    0.000    0.000    0.000    0.000    0.000    0.000 
#
# Total GULP energy -297561.450050 kJ/mol
# GULP energy per Si atom -12398.393752 kJ/mol
# Density = 1.973743 g / cm^3
# Si number density = 19.782460 Si / 1000 Ang^3
#
#
#
# Elastic Constant Matrix: (Units=GPa)
#
#
# Indices 1 2 3 4 5 6 
#
# 1 105.0398 28.9313 71.2260 0.0000 0.0000 0.0000
# 2 28.9313 75.4929 63.8234 0.0000 0.0000 0.0000
# 3 71.2260 63.8234 191.2770 0.0000 0.0000 0.0000
# 4 0.0000 0.0000 0.0000 11.3760 0.0000 0.0000
# 5 0.0000 0.0000 0.0000 0.0000 4.7464 0.0000
# 6 0.0000 0.0000 0.0000 0.0000 0.0000 11.7850
#
#
#
# Elastic Compliance Matrix: (Units=1/GPa)
#
#
# Indices 1 2 3 4 5 6 
#
# 1 0.012816 -0.001221 -0.004365 0.000000 0.000000 0.000000
# 2 -0.001221 0.018568 -0.005741 0.000000 0.000000 0.000000
# 3 -0.004365 -0.005741 0.008769 0.000000 0.000000 0.000000
# 4 0.000000 0.000000 0.000000 0.087904 0.000000 0.000000
# 5 0.000000 0.000000 0.000000 0.000000 0.210687 0.000000
# 6 0.000000 0.000000 0.000000 0.000000 0.000000 0.084854
#
#
# Mechanical properties :
#
#
# Convention : Reuss Voigt Hill
#
# Bulk Modulus (GPa) = 57.14641 77.75235 67.44938
# Shear Modulus (GPa) = 11.05987 19.43672 15.24830
#
# Velocity S-wave (km/s) = 2.36704 3.13792 2.77934
# Velocity P-wave (km/s) = 6.03495 7.24691 6.66852
#
# Compressibility (1/GPa) = 0.01749891
#
# Stress axis : x y z
#
# Youngs Moduli (GPa) = 78.02498 53.85712 114.04003
#
# Poissons Ratio (x) = 0.06579 0.49777
# Poissons Ratio (y) = 0.09531 0.65466
# Poissons Ratio (z) = 0.34057 0.30917
#
# Static dielectric constant tensor:
#      x y z
#    x 3.644380 0.000000 0.000000 
#    y 0.000000 3.510970 0.000000 
#    z 0.000000 0.000000 3.733130 
# 
# 
# High freq. dielectric constant tensor:
#      x y z
#    x 1.755720 0.000000 0.000000 
#    y 0.000000 1.762130 0.000000 
#    z 0.000000 0.000000 1.769640 
# 
# From -- ./inp_files/24368.got.cif
#   From: 2010.03.12/outbox.cif.g09.slc.cpg/sg38_13_cif.got.tgz:24368.got - 2010.04.14 02:38:36.
