data_PCOD8179638
_publ_section_title
;
Structure prediction by ZEFSAII (Michael W. Deem and Ramdas Pophale) SiO2 
 PCOD8179638
Probable space group: A M M 2
;
_chemical_formula_sum "Si O2"
_cell_formula_units_Z 64
_cell_length_a 8.728878
_cell_length_b 28.415994
_cell_length_c 12.907552
_cell_angle_alpha 90.000000
_cell_angle_beta 90.000000
_cell_angle_gamma 90.000000
_cell_volume 3201.585905
_symmetry_space_group_name_H-M "A M M 2"
_symmetry_group_IT_number 38
_symmetry_cell_setting 'orthorhombic'
loop_
_space_group_symop_operation_xyz
x,y,z
-x,-y,z
-x,y,z
x,-y,z
x,1/2+y,1/2+z
-x,1/2-y,1/2+z
-x,1/2+y,1/2+z
x,1/2-y,1/2+z
loop_
_atom_site_type_symbol
_atom_site_label
_atom_site_fract_x
_atom_site_fract_y
_atom_site_fract_z
Si Si1 0.178700 0.051274 0.078470
Si Si2 0.819034 0.613592 0.761067
Si Si3 0.833175 0.683140 0.422097
Si Si4 0.833643 0.076027 0.866029
Si Si5 0.318722 0.554455 0.946555
Si Si6 0.183448 0.101283 0.649222
Si Si7 0.322431 0.802512 0.716085
Si Si8 0.179353 0.707416 0.651628
O O1 0.249674 0.087482 0.159841
O O2 0.000000 0.063818 0.062359
O O3 0.202700 0.000000 0.127467
O O4 0.257056 0.052503 0.963130
O O5 0.738095 0.591248 0.860339
O O6 0.782736 0.668767 0.741668
O O7 0.000000 0.604695 0.772852
O O8 0.855615 0.629242 0.398662
O O9 0.717077 0.703970 0.337565
O O10 0.772363 0.688073 0.538929
O O11 0.000000 0.708293 0.410270
O O12 0.753014 0.074375 0.753172
O O13 0.000000 0.051594 0.853523
O O14 0.500000 0.556864 0.951451
O O15 0.265594 0.500000 0.926521
O O16 0.251548 0.572926 0.053991
O O17 0.234197 0.155769 0.655659
O O18 0.000000 0.100662 0.644435
O O19 0.500000 0.813152 0.703309
O O20 0.280161 0.753486 0.663992
O O21 0.000000 0.719797 0.656405
#
# Coordination Sequence:
#
# PCOD8179638 Si02
#       8
#     8   8   8   8   8   8   8   8
#     4   9  15  25  48  84 118 141 170 224 289 343
#     4  10  20  36  60  88 116 153 203 254 300 354
#     4   9  17  34  57  78 108 147 189 236 291 351
#     4   8  14  28  51  81 111 138 173 228 289 342
#     4  11  25  43  61  84 123 170 209 254 314 377
#     4  10  21  39  64  87 114 153 204 255 301 356
#     4  11  23  37  56  86 122 158 198 244 305 372
#     4  10  20  36  60  86 116 155 203 256 306 355
#
# _framework density 19.990093000000002
#
# number of rings (size 3 to 8) (size 9 to 14) (size 15 to 20)
#    0.000    2.250    1.250    3.000    0.000    4.000 
#    0.000    2.500    0.000    0.000    0.000    1.750 
#    0.000    0.000    0.000    0.000    0.000    0.000 
#
# Total GULP energy -396434.961722 kJ/mol
# GULP energy per Si atom -12388.592554 kJ/mol
# Density = 1.994459 g / cm^3
# Si number density = 19.990093 Si / 1000 Ang^3
#
#
#
# Elastic Constant Matrix: (Units=GPa)
#
#
# Indices 1 2 3 4 5 6 
#
# 1 58.8842 24.1075 27.0748 0.0000 0.0000 0.0000
# 2 24.1075 65.9616 36.7451 0.0000 0.0000 0.0000
# 3 27.0748 36.7451 118.4403 0.0000 0.0000 0.0000
# 4 0.0000 0.0000 0.0000 26.0577 0.0000 0.0000
# 5 0.0000 0.0000 0.0000 0.0000 57.7676 0.0000
# 6 0.0000 0.0000 0.0000 0.0000 0.0000 21.3425
#
#
#
# Elastic Compliance Matrix: (Units=1/GPa)
#
#
# Indices 1 2 3 4 5 6 
#
# 1 0.020759 -0.005976 -0.002891 0.000000 0.000000 0.000000
# 2 -0.005976 0.020048 -0.004854 0.000000 0.000000 0.000000
# 3 -0.002891 -0.004854 0.010610 0.000000 0.000000 0.000000
# 4 0.000000 0.000000 0.000000 0.038376 0.000000 0.000000
# 5 0.000000 0.000000 0.000000 0.000000 0.017311 0.000000
# 6 0.000000 0.000000 0.000000 0.000000 0.000000 0.046855
#
#
# Mechanical properties :
#
#
# Convention : Reuss Voigt Hill
#
# Bulk Modulus (GPa) = 41.71102 46.57119 44.14110
# Shear Modulus (GPa) = 26.40021 31.39080 28.89550
#
# Velocity S-wave (km/s) = 3.63804 3.96702 3.80609
# Velocity P-wave (km/s) = 6.20953 6.65813 6.43774
#
# Compressibility (1/GPa) = 0.02397448
#
# Stress axis : x y z
#
# Youngs Moduli (GPa) = 48.17291 49.87940 94.25238
#
# Poissons Ratio (x) = 0.29809 0.27250
# Poissons Ratio (y) = 0.28789 0.45747
# Poissons Ratio (z) = 0.13928 0.24210
#
# Static dielectric constant tensor:
#      x y z
#    x 3.266880 0.000000 0.000000 
#    y 0.000000 3.627310 0.000000 
#    z 0.000000 0.000000 4.057720 
# 
# 
# High freq. dielectric constant tensor:
#      x y z
#    x 1.737220 0.000000 0.000000 
#    y 0.000000 1.779880 0.000000 
#    z 0.000000 0.000000 1.793730 
# 
# From -- ./inp_files/8667.got.cif
#   From: 2010.03.12/outbox.cif.g09.slc.cpg/sg38_5_cif.got.tgz:8667.got - 2010.04.14 02:38:36.
