data_PCOD8179926
_publ_section_title
;
Structure prediction by ZEFSAII (Michael W. Deem and Ramdas Pophale) SiO2 
 PCOD8179926
Probable space group: A M M 2
;
_chemical_formula_sum "Si O2"
_cell_formula_units_Z 64
_cell_length_a 24.176410
_cell_length_b 8.943216
_cell_length_c 15.419823
_cell_angle_alpha 90.000000
_cell_angle_beta 90.000000
_cell_angle_gamma 90.000000
_cell_volume 3333.994821
_symmetry_space_group_name_H-M "A M M 2"
_symmetry_group_IT_number 38
_symmetry_cell_setting 'orthorhombic'
loop_
_space_group_symop_operation_xyz
x,y,z
-x,-y,z
-x,y,z
x,-y,z
x,1/2+y,1/2+z
-x,1/2-y,1/2+z
-x,1/2+y,1/2+z
x,1/2-y,1/2+z
loop_
_atom_site_type_symbol
_atom_site_label
_atom_site_fract_x
_atom_site_fract_y
_atom_site_fract_z
Si Si1 0.760845 0.668680 0.099150
Si Si2 0.865099 0.824008 0.861814
Si Si3 0.751611 0.167793 0.802325
Si Si4 0.869483 0.673533 0.554971
Si Si5 0.563657 0.675880 0.937598
Si Si6 0.369480 0.321125 0.288701
Si Si7 0.062382 0.677685 0.204461
Si Si8 0.637606 0.177497 0.594691
O O1 0.770528 0.500000 0.064146
O O2 0.767233 0.668892 0.201866
O O3 0.805435 0.780420 0.059197
O O4 0.700098 0.729719 0.072767
O O5 0.803094 0.752016 0.851666
O O6 0.906585 0.757409 0.789557
O O7 0.858843 0.000000 0.844629
O O8 0.889702 0.792569 0.956859
O O9 0.691269 0.242778 0.817456
O O10 0.745999 0.000000 0.837218
O O11 0.875226 0.500000 0.578514
O O12 0.907608 0.768804 0.617849
O O13 0.500000 0.716929 0.951868
O O14 0.572971 0.500000 0.927661
O O15 0.583885 0.754182 0.850098
O O16 0.596636 0.740147 0.020923
O O17 0.370498 0.500000 0.292960
O O18 0.381328 0.266131 0.190025
O O19 0.062657 0.500000 0.204502
O O20 0.000000 0.740144 0.205534
O O21 0.636853 0.000000 0.596671
#
# Coordination Sequence:
#
# PCOD8179926 Si02
#       8
#     8   8   8   8   8   8   8   8
#     4   9  16  32  57  78 105 143 182 218 257 318
#     4   9  18  33  54  80 109 142 178 212 258 322
#     4   8  14  29  54  78 103 137 174 215 261 311
#     4  11  22  33  53  86 116 140 170 219 278 320
#     4  10  21  36  52  74 109 147 178 214 270 332
#     4   9  18  33  56  81 102 133 181 228 264 307
#     4  10  21  40  63  79 100 145 194 223 251 310
#     4   8  17  34  55  78 103 140 183 221 264 314
#
# _framework density 19.196192
#
# number of rings (size 3 to 8) (size 9 to 14) (size 15 to 20)
#    0.000    2.750    1.250    1.875    1.750    1.500 
#    0.000    6.875    0.000    0.000    0.000    0.000 
#    0.000    0.000    0.000    0.000    0.000    0.000 
#
# Total GULP energy -396621.939980 kJ/mol
# GULP energy per Si atom -12394.435624 kJ/mol
# Density = 1.915250 g / cm^3
# Si number density = 19.196192 Si / 1000 Ang^3
#
#
#
# Elastic Constant Matrix: (Units=GPa)
#
#
# Indices 1 2 3 4 5 6 
#
# 1 126.8907 19.0669 63.4952 0.0000 0.0000 0.0000
# 2 19.0669 16.2391 15.6149 0.0000 0.0000 0.0000
# 3 63.4952 15.6149 105.0326 0.0000 0.0000 0.0000
# 4 0.0000 0.0000 0.0000 23.9237 0.0000 0.0000
# 5 0.0000 0.0000 0.0000 0.0000 24.9791 0.0000
# 6 0.0000 0.0000 0.0000 0.0000 0.0000 19.9956
#
#
#
# Elastic Compliance Matrix: (Units=1/GPa)
#
#
# Indices 1 2 3 4 5 6 
#
# 1 0.012218 -0.008452 -0.006130 0.000000 0.000000 0.000000
# 2 -0.008452 0.077697 -0.006442 0.000000 0.000000 0.000000
# 3 -0.006130 -0.006442 0.014184 0.000000 0.000000 0.000000
# 4 0.000000 0.000000 0.000000 0.041800 0.000000 0.000000
# 5 0.000000 0.000000 0.000000 0.000000 0.040034 0.000000
# 6 0.000000 0.000000 0.000000 0.000000 0.000000 0.050011
#
#
# Mechanical properties :
#
#
# Convention : Reuss Voigt Hill
#
# Bulk Modulus (GPa) = 16.11516 49.39070 32.75293
# Shear Modulus (GPa) = 16.74065 23.77869 20.25967
#
# Velocity S-wave (km/s) = 2.95631 3.52336 3.25222
# Velocity P-wave (km/s) = 4.47953 6.50672 5.58586
#
# Compressibility (1/GPa) = 0.06205338
#
# Stress axis : x y z
#
# Youngs Moduli (GPa) = 81.84667 12.87045 70.50153
#
# Poissons Ratio (x) = 0.10877 0.43215
# Poissons Ratio (y) = 0.69173 0.45416
# Poissons Ratio (z) = 0.50169 0.08291
#
# Static dielectric constant tensor:
#      x y z
#    x 3.752720 0.000000 0.000000 
#    y 0.000000 3.030190 0.000000 
#    z 0.000000 0.000000 3.576050 
# 
# 
# High freq. dielectric constant tensor:
#      x y z
#    x 1.752370 0.000000 0.000000 
#    y 0.000000 1.696050 0.000000 
#    z 0.000000 0.000000 1.751840 
# 
# From -- ./inp_files/15822.got.cif
#   From: 2010.03.12/outbox.cif.g09.slc.cpg/sg38_8_cif.got.tgz:15822.got - 2010.04.14 02:38:36.
