data_PCOD8179882
_publ_section_title
;
Structure prediction by ZEFSAII (Michael W. Deem and Ramdas Pophale) SiO2 
 PCOD8179882
Probable space group: A M M 2
;
_chemical_formula_sum "Si O2"
_cell_formula_units_Z 48
_cell_length_a 14.322311
_cell_length_b 13.458025
_cell_length_c 13.636083
_cell_angle_alpha 90.000000
_cell_angle_beta 90.000000
_cell_angle_gamma 90.000000
_cell_volume 2628.355264
_symmetry_space_group_name_H-M "A M M 2"
_symmetry_group_IT_number 38
_symmetry_cell_setting 'orthorhombic'
loop_
_space_group_symop_operation_xyz
x,y,z
-x,-y,z
-x,y,z
x,-y,z
x,1/2+y,1/2+z
-x,1/2-y,1/2+z
-x,1/2+y,1/2+z
x,1/2-y,1/2+z
loop_
_atom_site_type_symbol
_atom_site_label
_atom_site_fract_x
_atom_site_fract_y
_atom_site_fract_z
Si Si1 0.290733 0.799825 0.401540
Si Si2 0.105019 0.116363 0.339616
Si Si3 0.393077 0.389065 0.079116
Si Si4 0.390795 0.799907 0.198386
Si Si5 0.288370 0.385785 0.520886
Si Si6 0.899235 0.382363 0.617989
O O1 0.179683 0.819989 0.400925
O O2 0.332706 0.873284 0.482148
O O3 0.335329 0.825310 0.296837
O O4 0.315840 0.685654 0.430456
O O5 0.112097 0.156491 0.228516
O O6 0.000000 0.135158 0.380186
O O7 0.130109 0.000000 0.346264
O O8 0.500000 0.372191 0.048240
O O9 0.375395 0.500000 0.119614
O O10 0.366174 0.312484 0.165284
O O11 0.500000 0.815342 0.217957
O O12 0.358872 0.874853 0.112306
O O13 0.289148 0.500000 0.485441
O O14 0.185909 0.345455 0.551699
O O15 0.896798 0.500000 0.622160
O O16 0.000000 0.346266 0.575449
#
# Coordination Sequence:
#
# PCOD8179882 Si02
#       6
#     8   8   8   8   8   8
#     4  11  20  32  54  79 104 131 171 213 254 302
#     4   9  17  30  51  78 104 131 168 213 257 302
#     4   9  19  35  53  74 100 131 168 208 252 305
#     4  10  21  36  52  72 101 136 171 211 256 303
#     4  10  21  35  51  77 108 136 170 210 254 304
#     4   8  14  28  50  72  97 130 165 202 246 297
#
# _framework density 18.262371000000002
#
# number of rings (size 3 to 8) (size 9 to 14) (size 15 to 20)
#    0.000    2.500    1.667    2.000    0.000    3.000 
#    0.000    0.000    0.000    0.000    0.000    0.000 
#    0.000    0.000    0.000    0.000    0.000    0.000 
#
# Total GULP energy -297509.605178 kJ/mol
# GULP energy per Si atom -12396.233549 kJ/mol
# Density = 1.822081 g / cm^3
# Si number density = 18.262371 Si / 1000 Ang^3
#
#
#
# Elastic Constant Matrix: (Units=GPa)
#
#
# Indices 1 2 3 4 5 6 
#
# 1 86.6150 11.6021 17.6334 0.0000 0.0000 0.0000
# 2 11.6021 60.8501 1.6646 0.0000 0.0000 0.0000
# 3 17.6334 1.6646 43.6164 0.0000 0.0000 0.0000
# 4 0.0000 0.0000 0.0000 11.7206 0.0000 0.0000
# 5 0.0000 0.0000 0.0000 0.0000 18.9658 0.0000
# 6 0.0000 0.0000 0.0000 0.0000 0.0000 25.0938
#
#
#
# Elastic Compliance Matrix: (Units=1/GPa)
#
#
# Indices 1 2 3 4 5 6 
#
# 1 0.012900 -0.002319 -0.005127 0.000000 0.000000 0.000000
# 2 -0.002319 0.016868 0.000294 0.000000 0.000000 0.000000
# 3 -0.005127 0.000294 0.024989 0.000000 0.000000 0.000000
# 4 0.000000 0.000000 0.000000 0.085320 0.000000 0.000000
# 5 0.000000 0.000000 0.000000 0.000000 0.052727 0.000000
# 6 0.000000 0.000000 0.000000 0.000000 0.000000 0.039850
#
#
# Mechanical properties :
#
#
# Convention : Reuss Voigt Hill
#
# Bulk Modulus (GPa) = 24.72052 28.09797 26.40925
# Shear Modulus (GPa) = 19.19817 21.83479 20.51648
#
# Velocity S-wave (km/s) = 3.24580 3.46152 3.35540
# Velocity P-wave (km/s) = 5.25478 5.60315 5.43176
#
# Compressibility (1/GPa) = 0.04045222
#
# Stress axis : x y z
#
# Youngs Moduli (GPa) = 77.52103 59.28379 40.01827
#
# Poissons Ratio (x) = 0.13750 0.20516
# Poissons Ratio (y) = 0.17980 -0.01176
# Poissons Ratio (z) = 0.39742 -0.01742
#
# Static dielectric constant tensor:
#      x y z
#    x 3.924090 0.000000 0.000000 
#    y 0.000000 3.145500 0.000000 
#    z 0.000000 0.000000 3.102290 
# 
# 
# High freq. dielectric constant tensor:
#      x y z
#    x 1.721470 0.000000 0.000000 
#    y 0.000000 1.689590 0.000000 
#    z 0.000000 0.000000 1.683880 
# 
# From -- ./inp_files/10005.got.cif
#   From: 2010.03.12/outbox.cif.g09.slc.cpg/sg38_6_cif.got.tgz:10005.got - 2010.04.14 02:38:36.
