data_PCOD8179790
_publ_section_title
;
Structure prediction by ZEFSAII (Michael W. Deem and Ramdas Pophale) SiO2 
 PCOD8179790
Probable space group: A M M 2
;
_chemical_formula_sum "Si O2"
_cell_formula_units_Z 56
_cell_length_a 15.442934
_cell_length_b 8.941042
_cell_length_c 20.120577
_cell_angle_alpha 90.000000
_cell_angle_beta 90.000000
_cell_angle_gamma 90.000000
_cell_volume 2778.167210
_symmetry_space_group_name_H-M "A M M 2"
_symmetry_group_IT_number 38
_symmetry_cell_setting 'orthorhombic'
loop_
_space_group_symop_operation_xyz
x,y,z
-x,-y,z
-x,y,z
x,-y,z
x,1/2+y,1/2+z
-x,1/2-y,1/2+z
-x,1/2+y,1/2+z
x,1/2-y,1/2+z
loop_
_atom_site_type_symbol
_atom_site_label
_atom_site_fract_x
_atom_site_fract_y
_atom_site_fract_z
Si Si1 0.177483 0.323781 0.049340
Si Si2 0.222069 0.825708 0.328702
Si Si3 0.593760 0.169850 0.639821
Si Si4 0.097487 0.172809 0.934144
Si Si5 0.773573 0.326557 0.195449
Si Si6 0.595225 0.828579 0.385060
Si Si7 0.647177 0.324794 0.513706
O O1 0.168902 0.500000 0.041209
O O2 0.176947 0.279299 0.127522
O O3 0.264920 0.269475 0.014407
O O4 0.101018 0.243933 0.008399
O O5 0.165532 0.749743 0.385507
O O6 0.189886 0.767046 0.257069
O O7 0.324359 0.786611 0.336994
O O8 0.203692 0.000000 0.332399
O O9 0.500000 0.182596 0.676039
O O10 0.671313 0.212315 0.689322
O O11 0.590747 0.281424 0.577636
O O12 0.610214 0.000000 0.614072
O O13 0.000000 0.194929 0.907061
O O14 0.122451 0.000000 0.939165
O O15 0.788878 0.500000 0.210889
O O16 0.500000 0.807391 0.350360
O O17 0.595057 0.719620 0.448169
O O18 0.606222 0.000000 0.408713
O O19 0.667503 0.500000 0.514113
#
# Coordination Sequence:
#
# PCOD8179790 Si02
#       7
#     8   8   8   8   8   8   8
#     4  10  20  38  63  89 117 154 196 240 298 362
#     4  11  23  39  61  88 122 165 207 247 296 356
#     4   9  18  33  52  75 109 156 205 251 301 357
#     4  11  24  42  67  97 125 153 190 245 307 361
#     4   9  20  37  58  83 117 159 200 245 300 354
#     4  10  21  36  53  77 115 162 206 249 299 353
#     4  11  20  30  50  81 115 151 195 251 305 350
#
# _framework density 20.157173
#
# number of rings (size 3 to 8) (size 9 to 14) (size 15 to 20)
#    0.000    1.857    1.429    3.857    0.000    7.429 
#    0.000    0.714    0.000    0.857    0.000    0.000 
#    0.000    0.000    0.000    0.000    0.000    0.000 
#
# Total GULP energy -347103.672800 kJ/mol
# GULP energy per Si atom -12396.559743 kJ/mol
# Density = 2.011129 g / cm^3
# Si number density = 20.157173 Si / 1000 Ang^3
#
#
#
# Elastic Constant Matrix: (Units=GPa)
#
#
# Indices 1 2 3 4 5 6 
#
# 1 81.3436 39.2197 41.7311 0.0000 0.0000 0.0000
# 2 39.2197 102.3556 60.4655 0.0000 0.0000 0.0000
# 3 41.7311 60.4655 119.4655 0.0000 0.0000 0.0000
# 4 0.0000 0.0000 0.0000 32.9750 0.0000 0.0000
# 5 0.0000 0.0000 0.0000 0.0000 9.7723 0.0000
# 6 0.0000 0.0000 0.0000 0.0000 0.0000 23.9952
#
#
#
# Elastic Compliance Matrix: (Units=1/GPa)
#
#
# Indices 1 2 3 4 5 6 
#
# 1 0.016077 -0.004055 -0.003563 0.000000 0.000000 0.000000
# 2 -0.004055 0.014960 -0.006155 0.000000 0.000000 0.000000
# 3 -0.003563 -0.006155 0.012731 0.000000 0.000000 0.000000
# 4 0.000000 0.000000 0.000000 0.030326 0.000000 0.000000
# 5 0.000000 0.000000 0.000000 0.000000 0.102330 0.000000
# 6 0.000000 0.000000 0.000000 0.000000 0.000000 0.041675
#
#
# Mechanical properties :
#
#
# Convention : Reuss Voigt Hill
#
# Bulk Modulus (GPa) = 61.65260 65.11080 63.38170
# Shear Modulus (GPa) = 19.91617 24.13172 22.02395
#
# Velocity S-wave (km/s) = 3.14673 3.46378 3.30905
# Velocity P-wave (km/s) = 6.62230 6.95476 6.79057
#
# Compressibility (1/GPa) = 0.01621992
#
# Stress axis : x y z
#
# Youngs Moduli (GPa) = 62.20139 66.84614 78.55034
#
# Poissons Ratio (x) = 0.27107 0.27991
# Poissons Ratio (y) = 0.25223 0.48349
# Poissons Ratio (z) = 0.22165 0.41145
#
# Static dielectric constant tensor:
#      x y z
#    x 3.606940 0.000000 0.000000 
#    y 0.000000 3.635120 0.000000 
#    z 0.000000 0.000000 3.510840 
# 
# 
# High freq. dielectric constant tensor:
#      x y z
#    x 1.775210 0.000000 0.000000 
#    y 0.000000 1.788160 0.000000 
#    z 0.000000 0.000000 1.771560 
# 
# From -- ./inp_files/21070.got.cif
#   From: 2010.03.12/outbox.cif.g09.slc.cpg/sg38_11_cif.got.tgz:21070.got - 2010.04.14 02:38:36.
