data_PCOD8179830
_publ_section_title
;
Structure prediction by ZEFSAII (Michael W. Deem and Ramdas Pophale) SiO2 
 PCOD8179830
Probable space group: A M M 2
;
_chemical_formula_sum "Si O2"
_cell_formula_units_Z 64
_cell_length_a 12.995629
_cell_length_b 14.471513
_cell_length_c 20.160547
_cell_angle_alpha 90.000000
_cell_angle_beta 90.000000
_cell_angle_gamma 90.000000
_cell_volume 3791.521779
_symmetry_space_group_name_H-M "A M M 2"
_symmetry_group_IT_number 38
_symmetry_cell_setting 'orthorhombic'
loop_
_space_group_symop_operation_xyz
x,y,z
-x,-y,z
-x,y,z
x,-y,z
x,1/2+y,1/2+z
-x,1/2-y,1/2+z
-x,1/2+y,1/2+z
x,1/2-y,1/2+z
loop_
_atom_site_type_symbol
_atom_site_label
_atom_site_fract_x
_atom_site_fract_y
_atom_site_fract_z
Si Si1 0.884962 0.396926 0.061830
Si Si2 0.263954 0.603307 0.939059
Si Si3 0.621906 0.607412 0.234158
Si Si4 0.619195 0.740574 0.496037
Si Si5 0.111177 0.608084 0.835042
Si Si6 0.883136 0.106856 0.181250
Si Si7 0.740875 0.735905 0.130780
Si Si8 0.377811 0.396992 0.384250
O O1 0.885108 0.500000 0.091291
O O2 0.834051 0.332779 0.116572
O O3 0.000000 0.361799 0.047618
O O4 0.823497 0.393317 0.994110
O O5 0.304270 0.500000 0.925592
O O6 0.363640 0.660283 0.961414
O O7 0.208422 0.649668 0.874977
O O8 0.500000 0.618586 0.226524
O O9 0.651551 0.500000 0.216571
O O10 0.672951 0.683961 0.186317
O O11 0.657755 0.630953 0.309663
O O12 0.500000 0.723448 0.508943
O O13 0.673971 0.737692 0.566767
O O14 0.666478 0.666821 0.443499
O O15 0.108801 0.500000 0.851972
O O16 0.127523 0.626195 0.758526
O O17 0.000000 0.650462 0.856773
O O18 0.792818 0.167612 0.150208
O O19 0.000000 0.132065 0.157808
O O20 0.860653 0.000000 0.164166
O O21 0.500000 0.391885 0.385591
O O22 0.338679 0.500000 0.399786
#
# Coordination Sequence:
#
# PCOD8179830 Si02
#       8
#     8   8   8   8   8   8   8   8
#     4   9  17  29  44  66  97 127 157 198 246 296
#     4   9  17  28  46  70  96 128 161 191 236 297
#     4   9  18  33  53  75  99 130 169 212 254 299
#     4  10  21  33  46  70 101 130 163 205 251 297
#     4   8  14  27  47  69  93 121 156 197 237 285
#     4   9  19  34  50  71 100 133 168 205 249 301
#     4  11  20  30  49  75 100 128 168 207 257 301
#     4   8  16  33  53  68  86 120 166 209 244 281
#
# _framework density 16.879767000000001
#
# number of rings (size 3 to 8) (size 9 to 14) (size 15 to 20)
#    0.000    2.875    0.000    3.000    1.750    2.750 
#    0.000    0.000    0.000    1.125    0.000    0.000 
#    0.000    0.000    0.000    0.000    0.000    0.000 
#
# Total GULP energy -396456.885213 kJ/mol
# GULP energy per Si atom -12389.277663 kJ/mol
# Density = 1.684135 g / cm^3
# Si number density = 16.879767 Si / 1000 Ang^3
#
#
#
# Elastic Constant Matrix: (Units=GPa)
#
#
# Indices 1 2 3 4 5 6 
#
# 1 52.6346 40.6118 29.6221 0.0000 0.0000 0.0000
# 2 40.6118 86.0724 57.1445 0.0000 0.0000 0.0000
# 3 29.6221 57.1445 91.7289 0.0000 0.0000 0.0000
# 4 0.0000 0.0000 0.0000 30.0485 0.0000 0.0000
# 5 0.0000 0.0000 0.0000 0.0000 23.9088 0.0000
# 6 0.0000 0.0000 0.0000 0.0000 0.0000 23.6562
#
#
#
# Elastic Compliance Matrix: (Units=1/GPa)
#
#
# Indices 1 2 3 4 5 6 
#
# 1 0.029993 -0.013167 -0.001483 0.000000 0.000000 0.000000
# 2 -0.013167 0.025593 -0.011692 0.000000 0.000000 0.000000
# 3 -0.001483 -0.011692 0.018664 0.000000 0.000000 0.000000
# 4 0.000000 0.000000 0.000000 0.033280 0.000000 0.000000
# 5 0.000000 0.000000 0.000000 0.000000 0.041826 0.000000
# 6 0.000000 0.000000 0.000000 0.000000 0.000000 0.042272
#
#
# Mechanical properties :
#
#
# Convention : Reuss Voigt Hill
#
# Bulk Modulus (GPa) = 46.36770 53.91031 50.13901
# Shear Modulus (GPa) = 19.88072 22.39320 21.13696
#
# Velocity S-wave (km/s) = 3.43561 3.64624 3.54249
# Velocity P-wave (km/s) = 6.57776 7.05223 6.81912
#
# Compressibility (1/GPa) = 0.02156674
#
# Stress axis : x y z
#
# Youngs Moduli (GPa) = 33.34109 39.07309 53.57866
#
# Poissons Ratio (x) = 0.51448 0.07945
# Poissons Ratio (y) = 0.43901 0.62642
# Poissons Ratio (z) = 0.04944 0.45683
#
# Static dielectric constant tensor:
#      x y z
#    x 2.997000 0.000000 0.000000 
#    y 0.000000 3.230170 0.000000 
#    z 0.000000 0.000000 3.280180 
# 
# 
# High freq. dielectric constant tensor:
#      x y z
#    x 1.637270 0.000000 0.000000 
#    y 0.000000 1.637670 0.000000 
#    z 0.000000 0.000000 1.652620 
# 
# From -- ./inp_files/22613.got.cif
#   From: 2010.03.12/outbox.cif.g09.slc.cpg/sg38_12_cif.got.tgz:22613.got - 2010.04.14 02:38:36.
