data_PCOD8179500
_publ_section_title
;
Structure prediction by ZEFSAII (Michael W. Deem and Ramdas Pophale) SiO2 
 PCOD8179500
Probable space group: A M M 2
;
_chemical_formula_sum "Si O2"
_cell_formula_units_Z 64
_cell_length_a 15.364786
_cell_length_b 9.198600
_cell_length_c 23.658999
_cell_angle_alpha 90.000000
_cell_angle_beta 90.000000
_cell_angle_gamma 90.000000
_cell_volume 3343.833279
_symmetry_space_group_name_H-M "A M M 2"
_symmetry_group_IT_number 38
_symmetry_cell_setting 'orthorhombic'
loop_
_space_group_symop_operation_xyz
x,y,z
-x,-y,z
-x,y,z
x,-y,z
x,1/2+y,1/2+z
-x,1/2-y,1/2+z
-x,1/2+y,1/2+z
x,1/2-y,1/2+z
loop_
_atom_site_type_symbol
_atom_site_label
_atom_site_fract_x
_atom_site_fract_y
_atom_site_fract_z
Si Si1 0.902768 0.666575 0.067460
Si Si2 0.254149 0.672055 0.987856
Si Si3 0.749532 0.329290 0.369662
Si Si4 0.902701 0.835180 0.786662
Si Si5 0.348317 0.330496 0.679580
Si Si6 0.599134 0.167305 0.055307
Si Si7 0.850932 0.828308 0.177339
Si Si8 0.597266 0.666386 0.288190
O O1 0.884008 0.500000 0.084327
O O2 0.898293 0.762973 0.123255
O O3 0.000000 0.683658 0.041601
O O4 0.832042 0.720471 0.021981
O O5 0.261419 0.500000 0.982710
O O6 0.247115 0.739384 0.926457
O O7 0.340191 0.730604 0.018164
O O8 0.743904 0.500000 0.383637
O O9 0.835899 0.287770 0.335113
O O10 0.665650 0.275091 0.334247
O O11 0.896189 0.730108 0.733398
O O12 0.000000 0.822667 0.811812
O O13 0.882211 0.000000 0.767028
O O14 0.355524 0.500000 0.692057
O O15 0.393895 0.288325 0.620866
O O16 0.248968 0.278452 0.677031
O O17 0.397824 0.251041 0.729644
O O18 0.500000 0.189434 0.035175
O O19 0.628731 0.000000 0.047310
O O20 0.861543 0.000000 0.175183
O O21 0.500000 0.684389 0.313196
O O22 0.619569 0.500000 0.274523
#
# Coordination Sequence:
#
# PCOD8179500 Si02
#       8
#     8   8   8   8   8   8   8   8
#     4  10  22  40  60  83 115 155 192 230 285 349
#     4  11  24  40  60  85 114 148 194 246 291 334
#     4  10  22  40  59  80 112 151 194 238 282 335
#     4  10  21  38  60  85 115 153 192 230 280 342
#     4  10  20  35  58  87 119 151 184 226 283 341
#     4  10  21  39  62  86 116 155 192 229 283 347
#     4  11  21  34  58  90 120 149 186 234 285 337
#     4  10  21  37  59  86 113 147 190 231 277 335
#
# _framework density 19.139709
#
# number of rings (size 3 to 8) (size 9 to 14) (size 15 to 20)
#    0.000    1.750    2.500    1.500    0.000    6.500 
#    0.000    1.250    0.000    0.000    0.000    0.000 
#    0.000    0.000    0.000    0.000    0.000    0.000 
#
# Total GULP energy -396924.756974 kJ/mol
# GULP energy per Si atom -12403.898655 kJ/mol
# Density = 1.909615 g / cm^3
# Si number density = 19.139709 Si / 1000 Ang^3
#
#
#
# Elastic Constant Matrix: (Units=GPa)
#
#
# Indices 1 2 3 4 5 6 
#
# 1 140.0917 42.9187 64.5777 0.0000 0.0000 0.0000
# 2 42.9187 64.2227 56.9846 0.0000 0.0000 0.0000
# 3 64.5777 56.9846 136.2066 0.0000 0.0000 0.0000
# 4 0.0000 0.0000 0.0000 16.4608 0.0000 0.0000
# 5 0.0000 0.0000 0.0000 0.0000 7.0100 0.0000
# 6 0.0000 0.0000 0.0000 0.0000 0.0000 36.3260
#
#
#
# Elastic Compliance Matrix: (Units=1/GPa)
#
#
# Indices 1 2 3 4 5 6 
#
# 1 0.009689 -0.003815 -0.002997 0.000000 0.000000 0.000000
# 2 -0.003815 0.026266 -0.009180 0.000000 0.000000 0.000000
# 3 -0.002997 -0.009180 0.012604 0.000000 0.000000 0.000000
# 4 0.000000 0.000000 0.000000 0.060751 0.000000 0.000000
# 5 0.000000 0.000000 0.000000 0.000000 0.142653 0.000000
# 6 0.000000 0.000000 0.000000 0.000000 0.000000 0.027528
#
#
# Mechanical properties :
#
#
# Convention : Reuss Voigt Hill
#
# Bulk Modulus (GPa) = 60.33939 74.38700 67.36319
# Shear Modulus (GPa) = 15.77289 23.69535 19.73412
#
# Velocity S-wave (km/s) = 2.87382 3.52237 3.21449
# Velocity P-wave (km/s) = 6.52732 7.44932 7.00351
#
# Compressibility (1/GPa) = 0.01657292
#
# Stress axis : x y z
#
# Youngs Moduli (GPa) = 103.21284 38.07231 79.34283
#
# Poissons Ratio (x) = 0.14525 0.23782
# Poissons Ratio (y) = 0.39377 0.72837
# Poissons Ratio (z) = 0.30937 0.34950
#
# Static dielectric constant tensor:
#      x y z
#    x 3.786650 0.000000 0.000000 
#    y 0.000000 3.454250 0.000000 
#    z 0.000000 0.000000 3.357350 
# 
# 
# High freq. dielectric constant tensor:
#      x y z
#    x 1.763510 0.000000 0.000000 
#    y 0.000000 1.739240 0.000000 
#    z 0.000000 0.000000 1.734870 
# 
# From -- ./inp_files/22883.got.cif
#   From: 2010.03.12/outbox.cif.g09.slc.cpg/sg38_12_cif.got.tgz:22883.got - 2010.04.14 02:38:36.
