data_PCOD8179415
_publ_section_title
;
Structure prediction by ZEFSAII (Michael W. Deem and Ramdas Pophale) SiO2 
 PCOD8179415
Probable space group: A M M 2
;
_chemical_formula_sum "Si O2"
_cell_formula_units_Z 48
_cell_length_a 15.686667
_cell_length_b 17.765625
_cell_length_c 9.128084
_cell_angle_alpha 90.000000
_cell_angle_beta 90.000000
_cell_angle_gamma 90.000000
_cell_volume 2543.845881
_symmetry_space_group_name_H-M "A M M 2"
_symmetry_group_IT_number 38
_symmetry_cell_setting 'orthorhombic'
loop_
_space_group_symop_operation_xyz
x,y,z
-x,-y,z
-x,y,z
x,-y,z
x,1/2+y,1/2+z
-x,1/2-y,1/2+z
-x,1/2+y,1/2+z
x,1/2-y,1/2+z
loop_
_atom_site_type_symbol
_atom_site_label
_atom_site_fract_x
_atom_site_fract_y
_atom_site_fract_z
Si Si1 0.747637 0.850736 0.496950
Si Si2 0.653013 0.205436 0.995697
Si Si3 0.092538 0.410908 0.492977
Si Si4 0.901284 0.087883 0.323188
Si Si5 0.593098 0.667038 0.814466
Si Si6 0.747949 0.912551 0.815681
O O1 0.734286 0.761207 0.528226
O O2 0.840276 0.863158 0.426838
O O3 0.670993 0.880161 0.388623
O O4 0.740694 0.898029 0.644438
O O5 0.587042 0.251738 0.894759
O O6 0.676820 0.131408 0.905613
O O7 0.609870 0.178595 0.143876
O O8 0.085070 0.500000 0.492468
O O9 0.118863 0.386469 0.657173
O O10 0.160320 0.383331 0.373480
O O11 0.000000 0.376291 0.451888
O O12 0.000000 0.104300 0.362901
O O13 0.880805 0.000000 0.347143
O O14 0.500000 0.627634 0.833401
O O15 0.734570 0.000000 0.849242
#
# Coordination Sequence:
#
# PCOD8179415 Si02
#       6
#     8   8   8   8   8   8
#     4  10  20  35  55  89 117 149 200 251 291 346
#     4  10  20  37  58  88 114 147 200 242 295 357
#     4   8  16  30  49  75 108 152 202 238 275 344
#     4   9  17  32  56  85 121 165 205 244 299 364
#     4  10  20  37  65  86 110 152 202 246 296 365
#     4  11  21  35  57  84 119 158 194 242 306 358
#
# _framework density 18.869067999999999
#
# number of rings (size 3 to 8) (size 9 to 14) (size 15 to 20)
#    1.000    1.333    1.667    3.000    0.000    0.667 
#    0.000    3.333    0.000    9.000    0.000    0.000 
#    0.000    0.000    0.000    0.000    0.000    0.000 
#
# Total GULP energy -297380.615120 kJ/mol
# GULP energy per Si atom -12390.858963 kJ/mol
# Density = 1.882612 g / cm^3
# Si number density = 18.869068 Si / 1000 Ang^3
#
#
#
# Elastic Constant Matrix: (Units=GPa)
#
#
# Indices 1 2 3 4 5 6 
#
# 1 116.6257 22.2181 54.5445 0.0000 0.0000 0.0000
# 2 22.2181 39.0106 6.5964 0.0000 0.0000 0.0000
# 3 54.5445 6.5964 115.4754 0.0000 0.0000 0.0000
# 4 0.0000 0.0000 0.0000 24.2636 0.0000 0.0000
# 5 0.0000 0.0000 0.0000 0.0000 25.6023 0.0000
# 6 0.0000 0.0000 0.0000 0.0000 0.0000 18.8001
#
#
#
# Elastic Compliance Matrix: (Units=1/GPa)
#
#
# Indices 1 2 3 4 5 6 
#
# 1 0.012282 -0.006073 -0.005455 0.000000 0.000000 0.000000
# 2 -0.006073 0.028887 0.001218 0.000000 0.000000 0.000000
# 3 -0.005455 0.001218 0.011167 0.000000 0.000000 0.000000
# 4 0.000000 0.000000 0.000000 0.041214 0.000000 0.000000
# 5 0.000000 0.000000 0.000000 0.000000 0.039059 0.000000
# 6 0.000000 0.000000 0.000000 0.000000 0.000000 0.053191
#
#
# Mechanical properties :
#
#
# Convention : Reuss Voigt Hill
#
# Bulk Modulus (GPa) = 31.52828 48.64775 40.08801
# Shear Modulus (GPa) = 23.04238 26.25003 24.64621
#
# Velocity S-wave (km/s) = 3.49832 3.73388 3.61802
# Velocity P-wave (km/s) = 5.75003 6.66535 6.22454
#
# Compressibility (1/GPa) = 0.03171756
#
# Stress axis : x y z
#
# Youngs Moduli (GPa) = 81.41666 34.61783 89.55152
#
# Poissons Ratio (x) = 0.21024 0.48848
# Poissons Ratio (y) = 0.49445 -0.10911
# Poissons Ratio (z) = 0.44410 -0.04218
#
# Static dielectric constant tensor:
#      x y z
#    x 3.628640 0.000000 0.000000 
#    y 0.000000 3.066400 0.000000 
#    z 0.000000 0.000000 3.457000 
# 
# 
# High freq. dielectric constant tensor:
#      x y z
#    x 1.730870 0.000000 0.000000 
#    y 0.000000 1.692770 0.000000 
#    z 0.000000 0.000000 1.741920 
# 
# From -- ./inp_files/5584.got.cif
#   From: 2010.03.12/outbox.cif.g09.slc.cpg/sg38_3_cif.got.tgz:5584.got - 2010.04.14 02:38:36.
