data_PCOD8179599
_publ_section_title
;
Structure prediction by ZEFSAII (Michael W. Deem and Ramdas Pophale) SiO2 
 PCOD8179599
Probable space group: A M M 2
;
_chemical_formula_sum "Si O2"
_cell_formula_units_Z 48
_cell_length_a 8.647806
_cell_length_b 16.315955
_cell_length_c 18.378081
_cell_angle_alpha 90.000000
_cell_angle_beta 90.000000
_cell_angle_gamma 90.000000
_cell_volume 2593.096019
_symmetry_space_group_name_H-M "A M M 2"
_symmetry_group_IT_number 38
_symmetry_cell_setting 'orthorhombic'
loop_
_space_group_symop_operation_xyz
x,y,z
-x,-y,z
-x,y,z
x,-y,z
x,1/2+y,1/2+z
-x,1/2-y,1/2+z
-x,1/2+y,1/2+z
x,1/2-y,1/2+z
loop_
_atom_site_type_symbol
_atom_site_label
_atom_site_fract_x
_atom_site_fract_y
_atom_site_fract_z
Si Si1 0.820814 0.815809 0.528450
Si Si2 0.181344 0.500000 0.247009
Si Si3 0.322728 0.000000 0.902186
Si Si4 0.320925 0.594610 0.895217
Si Si5 0.680803 0.664142 0.182657
Si Si6 0.823303 0.659472 0.437269
Si Si7 0.180494 0.271165 0.801566
O O1 0.777549 0.880087 0.465693
O O2 0.713601 0.830042 0.597436
O O3 0.789347 0.723768 0.501035
O O4 0.000000 0.828856 0.548748
O O5 0.211969 0.500000 0.332585
O O6 0.253937 0.420932 0.210664
O O7 0.000000 0.500000 0.232601
O O8 0.285861 0.919141 0.949548
O O9 0.500000 0.000000 0.877777
O O10 0.500000 0.611774 0.911735
O O11 0.289230 0.500000 0.877595
O O12 0.268590 0.646090 0.824626
O O13 0.500000 0.667599 0.197800
O O14 0.760554 0.740650 0.223419
O O15 0.783977 0.699812 0.359564
O O16 0.000000 0.630382 0.439095
O O17 0.000000 0.291429 0.798028
#
# Coordination Sequence:
#
# PCOD8179599 Si02
#       7
#     8   4   4   8   8   8   8
#     4  10  22  39  59  82 113 153 192 229 281 342
#     4  12  24  38  56  82 118 153 188 227 276 338
#     4  12  22  32  56  88 116 145 184 233 282 328
#     4  10  21  37  58  85 116 148 189 239 285 329
#     4  12  24  38  58  85 118 150 186 233 288 338
#     4   9  19  36  57  80 110 149 190 230 273 330
#     4  10  20  36  59  83 111 150 192 231 280 338
#
# _framework density 18.51069
#
# number of rings (size 3 to 8) (size 9 to 14) (size 15 to 20)
#    0.000    1.500    1.667    5.500    1.167    4.667 
#    0.000    0.000    1.833    0.000    0.000    0.000 
#    0.000    0.000    0.000    0.000    0.000    0.000 
#
# Total GULP energy -297719.064773 kJ/mol
# GULP energy per Si atom -12404.961032 kJ/mol
# Density = 1.846856 g / cm^3
# Si number density = 18.510690 Si / 1000 Ang^3
#
#
#
# Elastic Constant Matrix: (Units=GPa)
#
#
# Indices 1 2 3 4 5 6 
#
# 1 85.2092 47.8622 10.9657 0.0000 0.0000 0.0000
# 2 47.8622 124.5521 36.6852 0.0000 0.0000 0.0000
# 3 10.9657 36.6852 64.6567 0.0000 0.0000 0.0000
# 4 0.0000 0.0000 0.0000 11.3263 0.0000 0.0000
# 5 0.0000 0.0000 0.0000 0.0000 30.1853 0.0000
# 6 0.0000 0.0000 0.0000 0.0000 0.0000 32.3515
#
#
#
# Elastic Compliance Matrix: (Units=1/GPa)
#
#
# Indices 1 2 3 4 5 6 
#
# 1 0.015007 -0.006024 0.000873 0.000000 0.000000 0.000000
# 2 -0.006024 0.012058 -0.005820 0.000000 0.000000 0.000000
# 3 0.000873 -0.005820 0.018620 0.000000 0.000000 0.000000
# 4 0.000000 0.000000 0.000000 0.088290 0.000000 0.000000
# 5 0.000000 0.000000 0.000000 0.000000 0.033129 0.000000
# 6 0.000000 0.000000 0.000000 0.000000 0.000000 0.030911
#
#
# Mechanical properties :
#
#
# Convention : Reuss Voigt Hill
#
# Bulk Modulus (GPa) = 42.11713 51.71601 46.91657
# Shear Modulus (GPa) = 21.94222 26.69960 24.32091
#
# Velocity S-wave (km/s) = 3.44667 3.80200 3.62869
# Velocity P-wave (km/s) = 6.21624 6.87551 6.55417
#
# Compressibility (1/GPa) = 0.02374331
#
# Stress axis : x y z
#
# Youngs Moduli (GPa) = 66.63487 82.93435 53.70477
#
# Poissons Ratio (x) = 0.49959 -0.04687
# Poissons Ratio (y) = 0.40140 0.31255
# Poissons Ratio (z) = -0.05815 0.48266
#
# Static dielectric constant tensor:
#      x y z
#    x 3.490990 0.000000 0.000000 
#    y 0.000000 3.664240 0.000000 
#    z 0.000000 0.000000 3.264420 
# 
# 
# High freq. dielectric constant tensor:
#      x y z
#    x 1.733000 0.000000 0.000000 
#    y 0.000000 1.721480 0.000000 
#    z 0.000000 0.000000 1.697610 
# 
# From -- ./inp_files/16691.got.cif
#   From: 2010.03.12/outbox.cif.g09.slc.cpg/sg38_9_cif.got.tgz:16691.got - 2010.04.14 02:38:36.
