data_PCOD8179186
_publ_section_title
;
Structure prediction by ZEFSAII (Michael W. Deem and Ramdas Pophale) SiO2 
 PCOD8179186
Probable space group: A M M 2
;
_chemical_formula_sum "Si O2"
_cell_formula_units_Z 48
_cell_length_a 9.150142
_cell_length_b 18.615195
_cell_length_c 15.360989
_cell_angle_alpha 90.000000
_cell_angle_beta 90.000000
_cell_angle_gamma 90.000000
_cell_volume 2616.463026
_symmetry_space_group_name_H-M "A M M 2"
_symmetry_group_IT_number 38
_symmetry_cell_setting 'orthorhombic'
loop_
_space_group_symop_operation_xyz
x,y,z
-x,-y,z
-x,y,z
x,-y,z
x,1/2+y,1/2+z
-x,1/2-y,1/2+z
-x,1/2+y,1/2+z
x,1/2-y,1/2+z
loop_
_atom_site_type_symbol
_atom_site_label
_atom_site_fract_x
_atom_site_fract_y
_atom_site_fract_z
Si Si1 0.327403 0.579345 0.091050
Si Si2 0.828498 0.082013 0.083699
Si Si3 0.332862 0.415512 0.895111
Si Si4 0.673146 0.176956 0.746585
Si Si5 0.827003 0.828693 0.250534
Si Si6 0.329497 0.582132 0.410853
O O1 0.500000 0.573103 0.101637
O O2 0.260063 0.500000 0.108652
O O3 0.266733 0.636063 0.160925
O O4 0.288546 0.605287 0.993773
O O5 0.774760 0.130088 0.163969
O O6 0.000000 0.088391 0.069718
O O7 0.781319 0.000000 0.102824
O O8 0.752147 0.110958 0.996473
O O9 0.500000 0.392384 0.875982
O O10 0.313934 0.500000 0.880207
O O11 0.222809 0.373681 0.833650
O O12 0.500000 0.189379 0.742620
O O13 0.753267 0.251883 0.752503
O O14 0.718942 0.130130 0.829757
O O15 0.000000 0.820264 0.253653
O O16 0.500000 0.589143 0.429228
O O17 0.285388 0.500000 0.390209
#
# Coordination Sequence:
#
# PCOD8179186 Si02
#       6
#     8   8   8   8   8   8
#     4   8  15  31  56  81 102 128 165 210 258 305
#     4   9  19  36  55  73  97 133 173 211 253 300
#     4   9  18  34  57  82 104 129 167 213 257 302
#     4  10  20  34  53  77 106 137 168 205 252 306
#     4  11  23  36  50  72 106 143 175 208 250 301
#     4   9  18  33  55  81 103 127 166 214 258 301
#
# _framework density 18.345378
#
# number of rings (size 3 to 8) (size 9 to 14) (size 15 to 20)
#    0.000    2.667    0.000    2.500    0.000    6.333 
#    0.000    7.500    0.000    2.500    0.000    0.000 
#    0.000    0.000    0.000    0.000    0.000    0.000 
#
# Total GULP energy -297608.934734 kJ/mol
# GULP energy per Si atom -12400.372281 kJ/mol
# Density = 1.830362 g / cm^3
# Si number density = 18.345378 Si / 1000 Ang^3
#
#
#
# Elastic Constant Matrix: (Units=GPa)
#
#
# Indices 1 2 3 4 5 6 
#
# 1 38.6663 40.0024 49.9093 0.0000 0.0000 0.0000
# 2 40.0024 104.7719 87.8068 0.0000 0.0000 0.0000
# 3 49.9093 87.8068 167.4162 0.0000 0.0000 0.0000
# 4 0.0000 0.0000 0.0000 13.4442 0.0000 0.0000
# 5 0.0000 0.0000 0.0000 0.0000 18.0614 0.0000
# 6 0.0000 0.0000 0.0000 0.0000 0.0000 14.1297
#
#
#
# Elastic Compliance Matrix: (Units=1/GPa)
#
#
# Indices 1 2 3 4 5 6 
#
# 1 0.048704 -0.011468 -0.008505 0.000000 0.000000 0.000000
# 2 -0.011468 0.019731 -0.006930 0.000000 0.000000 0.000000
# 3 -0.008505 -0.006930 0.012143 0.000000 0.000000 0.000000
# 4 0.000000 0.000000 0.000000 0.074382 0.000000 0.000000
# 5 0.000000 0.000000 0.000000 0.000000 0.055367 0.000000
# 6 0.000000 0.000000 0.000000 0.000000 0.000000 0.070773
#
#
# Mechanical properties :
#
#
# Convention : Reuss Voigt Hill
#
# Bulk Modulus (GPa) = 37.35064 74.03238 55.69151
# Shear Modulus (GPa) = 14.54218 18.00278 16.27248
#
# Velocity S-wave (km/s) = 2.81853 3.13601 2.98150
# Velocity P-wave (km/s) = 5.56741 7.31814 6.50197
#
# Compressibility (1/GPa) = 0.02677330
#
# Stress axis : x y z
#
# Youngs Moduli (GPa) = 20.53215 50.68294 82.35200
#
# Poissons Ratio (x) = 0.58122 0.70039
# Poissons Ratio (y) = 0.23546 0.57067
# Poissons Ratio (z) = 0.17462 0.35121
#
# Static dielectric constant tensor:
#      x y z
#    x 3.121430 0.000000 0.000000 
#    y 0.000000 3.455890 0.000000 
#    z 0.000000 0.000000 3.630240 
# 
# 
# High freq. dielectric constant tensor:
#      x y z
#    x 1.685740 0.000000 0.000000 
#    y 0.000000 1.710360 0.000000 
#    z 0.000000 0.000000 1.726020 
# 
# From -- ./inp_files/12009.got.cif
#   From: 2010.03.12/outbox.cif.g09.slc.cpg/sg38_7_cif.got.tgz:12009.got - 2010.04.14 02:38:36.
