data_PCOD8179960
_publ_section_title
;
Structure prediction by ZEFSAII (Michael W. Deem and Ramdas Pophale) SiO2 
 PCOD8179960
Probable space group: A M M 2
;
_chemical_formula_sum "Si O2"
_cell_formula_units_Z 64
_cell_length_a 8.891254
_cell_length_b 19.503229
_cell_length_c 20.017446
_cell_angle_alpha 90.000000
_cell_angle_beta 90.000000
_cell_angle_gamma 90.000000
_cell_volume 3471.188536
_symmetry_space_group_name_H-M "A M M 2"
_symmetry_group_IT_number 38
_symmetry_cell_setting 'orthorhombic'
loop_
_space_group_symop_operation_xyz
x,y,z
-x,-y,z
-x,y,z
x,-y,z
x,1/2+y,1/2+z
-x,1/2-y,1/2+z
-x,1/2+y,1/2+z
x,1/2-y,1/2+z
loop_
_atom_site_type_symbol
_atom_site_label
_atom_site_fract_x
_atom_site_fract_y
_atom_site_fract_z
Si Si1 0.171658 0.669471 0.121610
Si Si2 0.677527 0.821457 0.271902
Si Si3 0.174032 0.920905 0.012101
Si Si4 0.824058 0.321448 0.274282
Si Si5 0.174599 0.080188 0.377011
Si Si6 0.674491 0.921260 0.514005
Si Si7 0.826233 0.325541 0.632147
Si Si8 0.673035 0.919675 0.876211
O O1 0.214999 0.657293 0.198694
O O2 0.281625 0.623953 0.077476
O O3 0.197045 0.749090 0.104008
O O4 0.000000 0.647464 0.107610
O O5 0.500000 0.818212 0.275144
O O6 0.741763 0.748362 0.295243
O O7 0.734809 0.880310 0.320631
O O8 0.727941 0.840021 0.197211
O O9 0.228612 0.877677 0.075499
O O10 0.000000 0.906584 0.995569
O O11 0.203019 0.000000 0.029274
O O12 0.271559 0.896702 0.949146
O O13 0.771698 0.382908 0.320694
O O14 0.000000 0.308040 0.282543
O O15 0.231917 0.103430 0.449797
O O16 0.000000 0.098677 0.371433
O O17 0.205511 0.000000 0.366204
O O18 0.500000 0.910715 0.497886
O O19 0.711382 0.000000 0.531393
O O20 0.000000 0.337343 0.651819
O O21 0.500000 0.898774 0.868106
O O22 0.699262 0.000000 0.866264
#
# Coordination Sequence:
#
# PCOD8179960 Si02
#       8
#     8   8   8   8   8   8   8   8
#     4   9  19  35  54  76 104 139 177 219 266 317
#     4  11  22  36  56  82 112 142 175 221 274 324
#     4   9  18  34  56  79 105 141 183 223 263 313
#     4  10  21  38  58  79 107 143 184 226 265 316
#     4  10  21  38  59  80 106 143 184 223 263 314
#     4  10  21  36  54  78 108 139 174 221 272 319
#     4   9  19  36  55  78 108 141 180 222 262 311
#     4  10  21  36  54  79 112 145 179 224 275 323
#
# _framework density 18.437488999999999
#
# number of rings (size 3 to 8) (size 9 to 14) (size 15 to 20)
#    0.000    2.250    0.000    3.375    0.000    7.250 
#    0.000    7.500    0.000    0.000    0.000    0.000 
#    0.000    0.000    0.000    0.000    0.000    0.000 
#
# Total GULP energy -396943.825711 kJ/mol
# GULP energy per Si atom -12404.494553 kJ/mol
# Density = 1.839552 g / cm^3
# Si number density = 18.437489 Si / 1000 Ang^3
#
#
#
# Elastic Constant Matrix: (Units=GPa)
#
#
# Indices 1 2 3 4 5 6 
#
# 1 105.4499 46.5050 58.8333 0.0000 0.0000 0.0000
# 2 46.5050 74.4648 67.1774 0.0000 0.0000 0.0000
# 3 58.8333 67.1774 109.5149 0.0000 0.0000 0.0000
# 4 0.0000 0.0000 0.0000 65.6252 0.0000 0.0000
# 5 0.0000 0.0000 0.0000 0.0000 18.1645 0.0000
# 6 0.0000 0.0000 0.0000 0.0000 0.0000 30.3238
#
#
#
# Elastic Compliance Matrix: (Units=1/GPa)
#
#
# Indices 1 2 3 4 5 6 
#
# 1 0.014168 -0.004437 -0.004889 0.000000 0.000000 0.000000
# 2 -0.004437 0.031458 -0.016913 0.000000 0.000000 0.000000
# 3 -0.004889 -0.016913 0.022132 0.000000 0.000000 0.000000
# 4 0.000000 0.000000 0.000000 0.015238 0.000000 0.000000
# 5 0.000000 0.000000 0.000000 0.000000 0.055052 0.000000
# 6 0.000000 0.000000 0.000000 0.000000 0.000000 0.032977
#
#
# Mechanical properties :
#
#
# Convention : Reuss Voigt Hill
#
# Bulk Modulus (GPa) = 65.44822 70.49568 67.97195
# Shear Modulus (GPa) = 21.87237 30.61695 26.24466
#
# Velocity S-wave (km/s) = 3.44801 4.07944 3.77694
# Velocity P-wave (km/s) = 7.17120 7.77863 7.48108
#
# Compressibility (1/GPa) = 0.01527925
#
# Stress axis : x y z
#
# Youngs Moduli (GPa) = 70.58129 31.78827 45.18269
#
# Poissons Ratio (x) = 0.14106 0.22092
# Poissons Ratio (y) = 0.31320 0.76417
# Poissons Ratio (z) = 0.34510 0.53763
#
# Static dielectric constant tensor:
#      x y z
#    x 3.426610 0.000000 0.000000 
#    y 0.000000 3.372430 0.000000 
#    z 0.000000 0.000000 3.399200 
# 
# 
# High freq. dielectric constant tensor:
#      x y z
#    x 1.721460 0.000000 0.000000 
#    y 0.000000 1.713990 0.000000 
#    z 0.000000 0.000000 1.718820 
# 
# From -- ./inp_files/17230.got.cif
#   From: 2010.03.12/outbox.cif.g09.slc.cpg/sg38_9_cif.got.tgz:17230.got - 2010.04.14 02:38:36.
