data_PCOD8179891
_publ_section_title
;
Structure prediction by ZEFSAII (Michael W. Deem and Ramdas Pophale) SiO2 
 PCOD8179891
Probable space group: A M M 2
;
_chemical_formula_sum "Si O2"
_cell_formula_units_Z 64
_cell_length_a 9.089116
_cell_length_b 27.771256
_cell_length_c 14.052472
_cell_angle_alpha 90.000000
_cell_angle_beta 90.000000
_cell_angle_gamma 90.000000
_cell_volume 3547.071123
_symmetry_space_group_name_H-M "A M M 2"
_symmetry_group_IT_number 38
_symmetry_cell_setting 'orthorhombic'
loop_
_space_group_symop_operation_xyz
x,y,z
-x,-y,z
-x,y,z
x,-y,z
x,1/2+y,1/2+z
-x,1/2-y,1/2+z
-x,1/2+y,1/2+z
x,1/2-y,1/2+z
loop_
_atom_site_type_symbol
_atom_site_label
_atom_site_fract_x
_atom_site_fract_y
_atom_site_fract_z
Si Si1 0.329407 0.444801 0.229720
Si Si2 0.170944 0.199429 0.756980
Si Si3 0.329088 0.875769 0.398011
Si Si4 0.170912 0.943442 0.256056
Si Si5 0.172145 0.376389 0.095508
Si Si6 0.671511 0.617253 0.604069
Si Si7 0.328452 0.369986 0.389758
Si Si8 0.333639 0.297324 0.741546
O O1 0.500000 0.438162 0.202987
O O2 0.288013 0.500000 0.247678
O O3 0.233003 0.425368 0.142245
O O4 0.290004 0.416451 0.326168
O O5 0.208815 0.168166 0.664176
O O6 0.249479 0.177357 0.849425
O O7 0.222502 0.253330 0.738224
O O8 0.000000 0.199622 0.779189
O O9 0.500000 0.888327 0.411347
O O10 0.253029 0.920773 0.346452
O O11 0.254501 0.865718 0.498226
O O12 0.307454 0.827523 0.337184
O O13 0.236415 0.923682 0.157445
O O14 0.000000 0.929744 0.261719
O O15 0.197081 0.000000 0.259462
O O16 0.000000 0.382532 0.076410
O O17 0.500000 0.603238 0.611768
O O18 0.727761 0.619197 0.495856
O O19 0.699766 0.669229 0.650832
O O20 0.500000 0.358250 0.390585
O O21 0.500000 0.277573 0.737562
#
# Coordination Sequence:
#
# PCOD8179891 Si02
#       8
#     8   8   8   8   8   8   8   8
#     4   9  18  33  53  77 104 136 175 216 258 305
#     4  10  21  35  52  76 105 138 174 211 256 309
#     4  10  21  37  57  79 102 134 175 216 259 306
#     4  10  21  36  54  78 108 140 172 209 256 307
#     4  10  21  36  53  76 106 138 172 212 259 309
#     4   9  19  35  55  79 105 136 174 214 257 304
#     4   9  18  34  55  78 105 136 172 216 260 302
#     4   9  19  35  53  75 103 134 170 212 259 308
#
# _framework density 18.043056
#
# number of rings (size 3 to 8) (size 9 to 14) (size 15 to 20)
#    0.000    2.500    0.000    2.250    0.000    7.750 
#    0.000    5.000    0.000    0.000    0.000    0.000 
#    0.000    0.000    0.000    0.000    0.000    0.000 
#
# Total GULP energy -396915.976940 kJ/mol
# GULP energy per Si atom -12403.624279 kJ/mol
# Density = 1.800199 g / cm^3
# Si number density = 18.043056 Si / 1000 Ang^3
#
#
#
# Elastic Constant Matrix: (Units=GPa)
#
#
# Indices 1 2 3 4 5 6 
#
# 1 90.6618 51.1762 58.9372 0.0000 0.0000 0.0000
# 2 51.1762 100.6672 41.3349 0.0000 0.0000 0.0000
# 3 58.9372 41.3349 128.8102 0.0000 0.0000 0.0000
# 4 0.0000 0.0000 0.0000 12.5855 0.0000 0.0000
# 5 0.0000 0.0000 0.0000 0.0000 27.2765 0.0000
# 6 0.0000 0.0000 0.0000 0.0000 0.0000 31.4874
#
#
#
# Elastic Compliance Matrix: (Units=1/GPa)
#
#
# Indices 1 2 3 4 5 6 
#
# 1 0.019310 -0.007128 -0.006548 0.000000 0.000000 0.000000
# 2 -0.007128 0.014072 -0.001254 0.000000 0.000000 0.000000
# 3 -0.006548 -0.001254 0.011162 0.000000 0.000000 0.000000
# 4 0.000000 0.000000 0.000000 0.079456 0.000000 0.000000
# 5 0.000000 0.000000 0.000000 0.000000 0.036662 0.000000
# 6 0.000000 0.000000 0.000000 0.000000 0.000000 0.031759
#
#
# Mechanical properties :
#
#
# Convention : Reuss Voigt Hill
#
# Bulk Modulus (GPa) = 68.10261 69.22621 68.66441
# Shear Modulus (GPa) = 22.00924 25.51594 23.76259
#
# Velocity S-wave (km/s) = 3.49638 3.76462 3.63298
# Velocity P-wave (km/s) = 7.35704 7.57278 7.46569
#
# Compressibility (1/GPa) = 0.01468373
#
# Stress axis : x y z
#
# Youngs Moduli (GPa) = 51.78552 71.06060 89.58996
#
# Poissons Ratio (x) = 0.50653 0.58664
# Poissons Ratio (y) = 0.36913 0.11238
# Poissons Ratio (z) = 0.33910 0.08914
#
# Static dielectric constant tensor:
#      x y z
#    x 3.383020 0.000000 0.000000 
#    y 0.000000 3.237850 0.000000 
#    z 0.000000 0.000000 3.435410 
# 
# 
# High freq. dielectric constant tensor:
#      x y z
#    x 1.703670 0.000000 0.000000 
#    y 0.000000 1.695960 0.000000 
#    z 0.000000 0.000000 1.702710 
# 
# From -- ./inp_files/12786.got.cif
#   From: 2010.03.12/outbox.cif.g09.slc.cpg/sg38_7_cif.got.tgz:12786.got - 2010.04.14 02:38:36.
