data_PCOD8179534
_publ_section_title
;
Structure prediction by ZEFSAII (Michael W. Deem and Ramdas Pophale) SiO2 
 PCOD8179534
Probable space group: A M M 2
;
_chemical_formula_sum "Si O2"
_cell_formula_units_Z 64
_cell_length_a 18.856254
_cell_length_b 13.189514
_cell_length_c 12.609310
_cell_angle_alpha 90.000000
_cell_angle_beta 90.000000
_cell_angle_gamma 90.000000
_cell_volume 3135.996251
_symmetry_space_group_name_H-M "A M M 2"
_symmetry_group_IT_number 38
_symmetry_cell_setting 'orthorhombic'
loop_
_space_group_symop_operation_xyz
x,y,z
-x,-y,z
-x,y,z
x,-y,z
x,1/2+y,1/2+z
-x,1/2-y,1/2+z
-x,1/2+y,1/2+z
x,1/2-y,1/2+z
loop_
_atom_site_type_symbol
_atom_site_label
_atom_site_fract_x
_atom_site_fract_y
_atom_site_fract_z
Si Si1 0.387092 0.111168 0.846340
Si Si2 0.730263 0.611584 0.525649
Si Si3 0.421987 0.319458 0.911555
Si Si4 0.917163 0.118326 0.762273
Si Si5 0.822631 0.882513 0.572598
Si Si6 0.664321 0.381967 0.110339
Si Si7 0.295641 0.616966 0.764551
Si Si8 0.181733 0.742461 0.891548
O O1 0.437824 0.201777 0.882326
O O2 0.356975 0.139799 0.730839
O O3 0.425077 0.000000 0.842524
O O4 0.324635 0.106930 0.930321
O O5 0.765331 0.500000 0.537903
O O6 0.694613 0.640601 0.639293
O O7 0.788265 0.691643 0.489593
O O8 0.500000 0.372320 0.911593
O O9 0.370630 0.369967 0.824348
O O10 0.387205 0.324350 0.028186
O O11 0.881912 0.156075 0.653655
O O12 0.881906 0.191016 0.847860
O O13 0.000000 0.140202 0.757261
O O14 0.901501 0.000000 0.787834
O O15 0.743638 0.838900 0.595081
O O16 0.849055 0.854633 0.454348
O O17 0.816236 0.000000 0.586367
O O18 0.659030 0.500000 0.081694
O O19 0.270666 0.500000 0.783358
O O20 0.239213 0.699755 0.808237
#
# Coordination Sequence:
#
# PCOD8179534 Si02
#       8
#     8   8   8   8   8   8   8   8
#     4  10  22  40  61  85 118 158 206 261 314 376
#     4  10  21  37  60  90 121 155 200 255 311 364
#     4  12  26  40  62  90 124 165 211 266 330 383
#     4  10  23  41  61  93 133 165 201 255 316 374
#     4  10  20  35  61  93 124 161 205 259 311 365
#     4  10  21  40  65  92 122 161 215 266 314 377
#     4  11  24  41  61  91 128 162 207 263 314 373
#     4  12  20  35  65  93 121 163 213 251 301 369
#
# _framework density 20.408187999999999
#
# number of rings (size 3 to 8) (size 9 to 14) (size 15 to 20)
#    0.000    1.375    2.500    2.625    3.500    4.250 
#    0.000    1.250    0.000    3.375    0.000    0.000 
#    0.000    0.000    0.000    0.000    0.000    0.000 
#
# Total GULP energy -396498.878276 kJ/mol
# GULP energy per Si atom -12390.589946 kJ/mol
# Density = 2.036174 g / cm^3
# Si number density = 20.408188 Si / 1000 Ang^3
#
#
#
# Elastic Constant Matrix: (Units=GPa)
#
#
# Indices 1 2 3 4 5 6 
#
# 1 131.8529 34.1771 58.0851 0.0000 0.0000 0.0000
# 2 34.1771 51.1252 36.1430 0.0000 0.0000 0.0000
# 3 58.0851 36.1430 162.8760 0.0000 0.0000 0.0000
# 4 0.0000 0.0000 0.0000 40.5593 0.0000 0.0000
# 5 0.0000 0.0000 0.0000 0.0000 14.1440 0.0000
# 6 0.0000 0.0000 0.0000 0.0000 0.0000 11.9414
#
#
#
# Elastic Compliance Matrix: (Units=1/GPa)
#
#
# Indices 1 2 3 4 5 6 
#
# 1 0.009938 -0.004908 -0.002455 0.000000 0.000000 0.000000
# 2 -0.004908 0.025623 -0.003936 0.000000 0.000000 0.000000
# 3 -0.002455 -0.003936 0.007888 0.000000 0.000000 0.000000
# 4 0.000000 0.000000 0.000000 0.024655 0.000000 0.000000
# 5 0.000000 0.000000 0.000000 0.000000 0.070701 0.000000
# 6 0.000000 0.000000 0.000000 0.000000 0.000000 0.083742
#
#
# Mechanical properties :
#
#
# Convention : Reuss Voigt Hill
#
# Bulk Modulus (GPa) = 47.95615 66.96272 57.45944
# Shear Modulus (GPa) = 19.83375 27.82556 23.82965
#
# Velocity S-wave (km/s) = 3.12084 3.69650 3.42080
# Velocity P-wave (km/s) = 6.04447 7.14855 6.61957
#
# Compressibility (1/GPa) = 0.02085238
#
# Stress axis : x y z
#
# Youngs Moduli (GPa) = 100.62533 39.02743 126.76742
#
# Poissons Ratio (x) = 0.19154 0.31121
# Poissons Ratio (y) = 0.49386 0.49891
# Poissons Ratio (z) = 0.24703 0.15360
#
# Static dielectric constant tensor:
#      x y z
#    x 3.435560 0.000000 0.000000 
#    y 0.000000 4.288830 0.000000 
#    z 0.000000 0.000000 3.867150 
# 
# 
# High freq. dielectric constant tensor:
#      x y z
#    x 1.756540 0.000000 0.000000 
#    y 0.000000 1.821800 0.000000 
#    z 0.000000 0.000000 1.811640 
# 
# From -- ./inp_files/10624.got.cif
#   From: 2010.03.12/outbox.cif.g09.slc.cpg/sg38_6_cif.got.tgz:10624.got - 2010.04.14 02:38:36.
