data_PCOD8179392
_publ_section_title
;
Structure prediction by ZEFSAII (Michael W. Deem and Ramdas Pophale) SiO2 
 PCOD8179392
Probable space group: A M M 2
;
_chemical_formula_sum "Si O2"
_cell_formula_units_Z 64
_cell_length_a 18.687711
_cell_length_b 8.956430
_cell_length_c 20.045508
_cell_angle_alpha 90.000000
_cell_angle_beta 90.000000
_cell_angle_gamma 90.000000
_cell_volume 3355.120418
_symmetry_space_group_name_H-M "A M M 2"
_symmetry_group_IT_number 38
_symmetry_cell_setting 'orthorhombic'
loop_
_space_group_symop_operation_xyz
x,y,z
-x,-y,z
-x,y,z
x,-y,z
x,1/2+y,1/2+z
-x,1/2-y,1/2+z
-x,1/2+y,1/2+z
x,1/2-y,1/2+z
loop_
_atom_site_type_symbol
_atom_site_label
_atom_site_fract_x
_atom_site_fract_y
_atom_site_fract_z
Si Si1 0.836837 0.824713 0.186740
Si Si2 0.416069 0.673144 0.138513
Si Si3 0.317215 0.324258 0.743174
Si Si4 0.081927 0.822655 0.568210
Si Si5 0.078991 0.822271 0.314380
Si Si6 0.681694 0.823336 0.398092
Si Si7 0.836509 0.822652 0.438621
Si Si8 0.415805 0.172226 0.002862
O O1 0.756445 0.780470 0.206604
O O2 0.864216 0.734607 0.123839
O O3 0.888204 0.769967 0.245286
O O4 0.843559 0.000000 0.172710
O O5 0.500000 0.700979 0.146662
O O6 0.396527 0.500000 0.133482
O O7 0.380340 0.741810 0.204229
O O8 0.387411 0.750242 0.070680
O O9 0.330422 0.500000 0.739388
O O10 0.316345 0.272384 0.820546
O O11 0.118841 0.761010 0.501069
O O12 0.000000 0.761459 0.574621
O O13 0.080285 0.000000 0.569373
O O14 0.126012 0.754333 0.373540
O O15 0.000000 0.755243 0.320133
O O16 0.078482 0.000000 0.318817
O O17 0.753937 0.771710 0.436332
O O18 0.617144 0.744808 0.436604
O O19 0.671295 0.000000 0.402068
O O20 0.839893 0.000000 0.436993
O O21 0.500000 0.195131 0.996190
O O22 0.393802 0.000000 0.006717
#
# Coordination Sequence:
#
# PCOD8179392 Si02
#       8
#     8   8   8   8   8   8   8   8
#     4  10  20  35  54  80 111 143 184 231 277 331
#     4  10  22  40  62  87 114 147 190 235 279 335
#     4  10  21  37  57  84 119 153 188 235 286 337
#     4  10  21  35  52  78 111 145 184 233 288 340
#     4   9  15  27  52  79 102 136 182 227 269 315
#     4  10  20  36  58  84 116 151 190 235 280 334
#     4   9  17  32  52  77 108 141 182 230 274 322
#     4  10  22  40  61  86 117 150 186 230 279 334
#
# _framework density 19.075320999999999
#
# number of rings (size 3 to 8) (size 9 to 14) (size 15 to 20)
#    0.000    2.250    1.250    1.500    1.750    5.250 
#    0.000    2.500    0.000    0.750    0.000    0.000 
#    0.000    0.000    0.000    0.000    0.000    0.000 
#
# Total GULP energy -396758.902787 kJ/mol
# GULP energy per Si atom -12398.715712 kJ/mol
# Density = 1.903191 g / cm^3
# Si number density = 19.075321 Si / 1000 Ang^3
#
#
#
# Elastic Constant Matrix: (Units=GPa)
#
#
# Indices 1 2 3 4 5 6 
#
# 1 79.3456 35.5798 51.7169 0.0000 0.0000 0.0000
# 2 35.5798 45.3399 40.0106 0.0000 0.0000 0.0000
# 3 51.7169 40.0106 129.8318 0.0000 0.0000 0.0000
# 4 0.0000 0.0000 0.0000 29.4007 0.0000 0.0000
# 5 0.0000 0.0000 0.0000 0.0000 43.2226 0.0000
# 6 0.0000 0.0000 0.0000 0.0000 0.0000 21.7026
#
#
#
# Elastic Compliance Matrix: (Units=1/GPa)
#
#
# Indices 1 2 3 4 5 6 
#
# 1 0.021251 -0.012645 -0.004568 0.000000 0.000000 0.000000
# 2 -0.012645 0.037818 -0.006618 0.000000 0.000000 0.000000
# 3 -0.004568 -0.006618 0.011561 0.000000 0.000000 0.000000
# 4 0.000000 0.000000 0.000000 0.034013 0.000000 0.000000
# 5 0.000000 0.000000 0.000000 0.000000 0.023136 0.000000
# 6 0.000000 0.000000 0.000000 0.000000 0.000000 0.046077
#
#
# Mechanical properties :
#
#
# Convention : Reuss Voigt Hill
#
# Bulk Modulus (GPa) = 43.53704 56.57021 50.05362
# Shear Modulus (GPa) = 21.81742 27.34585 24.58164
#
# Velocity S-wave (km/s) = 3.38561 3.79036 3.59369
# Velocity P-wave (km/s) = 6.17709 6.99117 6.59670
#
# Compressibility (1/GPa) = 0.02296895
#
# Stress axis : x y z
#
# Youngs Moduli (GPa) = 47.05704 26.44215 86.49542
#
# Poissons Ratio (x) = 0.33436 0.39512
# Poissons Ratio (y) = 0.59504 0.57239
# Poissons Ratio (z) = 0.21496 0.17498
#
# Static dielectric constant tensor:
#      x y z
#    x 3.619690 0.000000 0.000000 
#    y 0.000000 3.148220 0.000000 
#    z 0.000000 0.000000 3.651750 
# 
# 
# High freq. dielectric constant tensor:
#      x y z
#    x 1.752040 0.000000 0.000000 
#    y 0.000000 1.707250 0.000000 
#    z 0.000000 0.000000 1.755330 
# 
# From -- ./inp_files/18906.got.cif
#   From: 2010.03.12/outbox.cif.g09.slc.cpg/sg38_10_cif.got.tgz:18906.got - 2010.04.14 02:38:36.
