data_PCOD8179176
_publ_section_title
;
Structure prediction by ZEFSAII (Michael W. Deem and Ramdas Pophale) SiO2 
 PCOD8179176
Probable space group: A M M 2
;
_chemical_formula_sum "Si O2"
_cell_formula_units_Z 48
_cell_length_a 9.747425
_cell_length_b 7.924055
_cell_length_c 33.822012
_cell_angle_alpha 90.000000
_cell_angle_beta 90.000000
_cell_angle_gamma 90.000000
_cell_volume 2612.382843
_symmetry_space_group_name_H-M "A M M 2"
_symmetry_group_IT_number 38
_symmetry_cell_setting 'orthorhombic'
loop_
_space_group_symop_operation_xyz
x,y,z
-x,-y,z
-x,y,z
x,-y,z
x,1/2+y,1/2+z
-x,1/2-y,1/2+z
-x,1/2+y,1/2+z
x,1/2-y,1/2+z
loop_
_atom_site_type_symbol
_atom_site_label
_atom_site_fract_x
_atom_site_fract_y
_atom_site_fract_z
Si Si1 0.157345 0.308168 0.181560
Si Si2 0.663293 0.687273 0.941134
Si Si3 0.662474 0.500000 0.301568
Si Si4 0.658192 0.688921 0.748929
Si Si5 0.152179 0.307789 0.597816
Si Si6 0.345577 0.303426 0.029882
Si Si7 0.335958 0.000000 0.890292
O O1 0.172791 0.500000 0.195681
O O2 0.254114 0.195021 0.208928
O O3 0.205735 0.295028 0.135950
O O4 0.000000 0.245636 0.185459
O O5 0.500000 0.683568 0.940427
O O6 0.717654 0.500000 0.928636
O O7 0.720737 0.831295 0.911861
O O8 0.710926 0.730938 0.985695
O O9 0.500000 0.500000 0.304187
O O10 0.713353 0.329297 0.279798
O O11 0.723156 0.500000 0.345860
O O12 0.500000 0.726581 0.738190
O O13 0.673483 0.500000 0.767164
O O14 0.147285 0.500000 0.611431
O O15 0.250537 0.291940 0.560581
O O16 0.000000 0.243658 0.585700
O O17 0.500000 0.232813 0.034140
O O18 0.342434 0.500000 0.039551
O O19 0.500000 0.000000 0.891103
#
# Coordination Sequence:
#
# PCOD8179176 Si02
#       7
#     8   8   4   8   8   8   4
#     4  10  20  35  55  75  97 131 174 215 257 304
#     4   8  15  27  43  68 100 131 167 208 247 297
#     4   9  18  32  47  73 107 135 171 213 253 309
#     4  10  20  34  53  76 105 139 169 206 258 308
#     4  10  21  34  48  71 101 131 168 213 255 301
#     4   9  18  32  49  71  99 131 169 211 254 298
#     4   9  16  26  46  71  99 137 169 201 255 303
#
# _framework density 18.374030000000001
#
# number of rings (size 3 to 8) (size 9 to 14) (size 15 to 20)
#    0.000    2.667    0.833    2.000    1.167    3.667 
#    0.000    3.333    0.000    0.000    0.000    2.333 
#    0.000    2.667    0.000    0.000    0.000    0.000 
#
# Total GULP energy -297522.382268 kJ/mol
# GULP energy per Si atom -12396.765928 kJ/mol
# Density = 1.833221 g / cm^3
# Si number density = 18.374030 Si / 1000 Ang^3
#
#
#
# Elastic Constant Matrix: (Units=GPa)
#
#
# Indices 1 2 3 4 5 6 
#
# 1 41.4038 27.0734 40.8933 0.0000 0.0000 0.0000
# 2 27.0734 113.7399 63.7218 0.0000 0.0000 0.0000
# 3 40.8933 63.7218 129.6398 0.0000 0.0000 0.0000
# 4 0.0000 0.0000 0.0000 28.9582 0.0000 0.0000
# 5 0.0000 0.0000 0.0000 0.0000 -0.3585 0.0000
# 6 0.0000 0.0000 0.0000 0.0000 0.0000 16.3749
#
#
#
# Elastic Compliance Matrix: (Units=1/GPa)
#
#
# Indices 1 2 3 4 5 6 
#
# 1 0.035824 -0.003031 -0.009810 0.000000 0.000000 0.000000
# 2 -0.003031 0.012390 -0.005134 0.000000 0.000000 0.000000
# 3 -0.009810 -0.005134 0.013332 0.000000 0.000000 0.000000
# 4 0.000000 0.000000 0.000000 0.034533 0.000000 0.000000
# 5 0.000000 0.000000 0.000000 0.000000 -2.789250 0.000000
# 6 0.000000 0.000000 0.000000 0.000000 0.000000 0.061069
#
#
# Mechanical properties :
#
#
# Convention : Reuss Voigt Hill
#
# Bulk Modulus (GPa) = 39.07049 60.90675 49.98862
# Shear Modulus (GPa) = -1.93228 19.20124 8.63448
#
# Velocity S-wave (km/s) = -1.02660 3.23618 2.17014
# Velocity P-wave (km/s) = 4.46149 6.86907 5.79176
#
# Compressibility (1/GPa) = 0.02559476
#
# Stress axis : x y z
#
# Youngs Moduli (GPa) = 27.91455 80.71287 75.00949
#
# Poissons Ratio (x) = 0.24463 0.73587
# Poissons Ratio (y) = 0.08461 0.38508
# Poissons Ratio (z) = 0.27385 0.41436
#
# Static dielectric constant tensor:
#      x y z
#    x 3.007720 0.000000 0.000000 
#    y 0.000000 3.567840 0.000000 
#    z 0.000000 0.000000 3.373620 
# 
# 
# High freq. dielectric constant tensor:
#      x y z
#    x 1.663520 0.000000 0.000000 
#    y 0.000000 1.726270 0.000000 
#    z 0.000000 0.000000 1.705930 
# 
# From -- ./inp_files/24334.got.cif
#   From: 2010.03.12/outbox.cif.g09.slc.cpg/sg38_13_cif.got.tgz:24334.got - 2010.04.14 02:38:36.
