data_PCOD8179353
_publ_section_title
;
Structure prediction by ZEFSAII (Michael W. Deem and Ramdas Pophale) SiO2 
 PCOD8179353
Probable space group: A M M 2
;
_chemical_formula_sum "Si O2"
_cell_formula_units_Z 64
_cell_length_a 23.585891
_cell_length_b 8.828905
_cell_length_c 15.552206
_cell_angle_alpha 90.000000
_cell_angle_beta 90.000000
_cell_angle_gamma 90.000000
_cell_volume 3238.553912
_symmetry_space_group_name_H-M "A M M 2"
_symmetry_group_IT_number 38
_symmetry_cell_setting 'orthorhombic'
loop_
_space_group_symop_operation_xyz
x,y,z
-x,-y,z
-x,y,z
x,-y,z
x,1/2+y,1/2+z
-x,1/2-y,1/2+z
-x,1/2+y,1/2+z
x,1/2-y,1/2+z
loop_
_atom_site_type_symbol
_atom_site_label
_atom_site_fract_x
_atom_site_fract_y
_atom_site_fract_z
Si Si1 0.564108 0.176260 0.480550
Si Si2 0.864806 0.320162 0.385266
Si Si3 0.257562 0.177737 0.386450
Si Si4 0.935350 0.321066 0.223489
Si Si5 0.563390 0.673561 0.300017
Si Si6 0.334285 0.174375 0.227049
Si Si7 0.672794 0.174032 0.035887
Si Si8 0.935286 0.678795 0.547175
O O1 0.500000 0.212270 0.510687
O O2 0.572415 0.218356 0.381253
O O3 0.606897 0.276912 0.536292
O O4 0.578679 0.000000 0.491964
O O5 0.865547 0.500000 0.385533
O O6 0.801235 0.263809 0.385877
O O7 0.897066 0.257992 0.301091
O O8 0.897240 0.258223 0.469356
O O9 0.291317 0.228773 0.301171
O O10 0.291834 0.221456 0.471798
O O11 0.246313 0.000000 0.386961
O O12 0.931006 0.500000 0.216331
O O13 0.912029 0.250459 0.135219
O O14 0.000000 0.269506 0.240441
O O15 0.500000 0.692725 0.261820
O O16 0.573992 0.500000 0.327542
O O17 0.608830 0.724277 0.229066
O O18 0.305085 0.196528 0.133678
O O19 0.351383 0.000000 0.241029
O O20 0.678753 0.000000 0.006806
O O21 0.930338 0.500000 0.555150
O O22 0.000000 0.729133 0.530027
#
# Coordination Sequence:
#
# PCOD8179353 Si02
#       8
#     8   8   8   8   8   8   8   8
#     4  10  20  35  57  85 118 152 184 227 286 344
#     4  10  21  37  58  82 112 152 193 233 280 338
#     4  11  24  42  60  81 112 150 193 242 290 338
#     4   9  18  34  57  86 119 152 188 232 280 331
#     4  10  20  34  57  88 117 147 186 232 282 341
#     4  10  23  41  60  82 112 149 188 234 292 347
#     4  11  23  40  62  86 112 148 192 238 289 347
#     4   9  18  34  57  85 117 152 188 228 279 337
#
# _framework density 19.761906
#
# number of rings (size 3 to 8) (size 9 to 14) (size 15 to 20)
#    0.000    2.000    1.250    1.875    0.000    7.000 
#    0.000    6.250    0.000    3.750    0.000    0.000 
#    0.000    0.000    0.000    0.000    0.000    0.000 
#
# Total GULP energy -396866.065146 kJ/mol
# GULP energy per Si atom -12402.064536 kJ/mol
# Density = 1.971693 g / cm^3
# Si number density = 19.761906 Si / 1000 Ang^3
#
#
#
# Elastic Constant Matrix: (Units=GPa)
#
#
# Indices 1 2 3 4 5 6 
#
# 1 103.9885 13.3573 64.3348 0.0000 0.0000 0.0000
# 2 13.3573 23.5973 22.0200 0.0000 0.0000 0.0000
# 3 64.3348 22.0200 142.2288 0.0000 0.0000 0.0000
# 4 0.0000 0.0000 0.0000 30.0742 0.0000 0.0000
# 5 0.0000 0.0000 0.0000 0.0000 12.8555 0.0000
# 6 0.0000 0.0000 0.0000 0.0000 0.0000 31.8420
#
#
#
# Elastic Compliance Matrix: (Units=1/GPa)
#
#
# Indices 1 2 3 4 5 6 
#
# 1 0.013456 -0.002264 -0.005736 0.000000 0.000000 0.000000
# 2 -0.002264 0.049915 -0.006704 0.000000 0.000000 0.000000
# 3 -0.005736 -0.006704 0.010663 0.000000 0.000000 0.000000
# 4 0.000000 0.000000 0.000000 0.033251 0.000000 0.000000
# 5 0.000000 0.000000 0.000000 0.000000 0.077787 0.000000
# 6 0.000000 0.000000 0.000000 0.000000 0.000000 0.031405
#
#
# Mechanical properties :
#
#
# Convention : Reuss Voigt Hill
#
# Bulk Modulus (GPa) = 22.40816 52.13763 37.27290
# Shear Modulus (GPa) = 19.17460 26.29452 22.73456
#
# Velocity S-wave (km/s) = 3.11831 3.65165 3.39547
# Velocity P-wave (km/s) = 4.93243 6.64978 5.85442
#
# Compressibility (1/GPa) = 0.04462660
#
# Stress axis : x y z
#
# Youngs Moduli (GPa) = 74.31619 20.03402 93.77861
#
# Poissons Ratio (x) = 0.04536 0.53792
# Poissons Ratio (y) = 0.16826 0.62867
# Poissons Ratio (z) = 0.42628 0.13430
#
# Static dielectric constant tensor:
#      x y z
#    x 3.611990 0.000000 0.000000 
#    y 0.000000 3.487520 0.000000 
#    z 0.000000 0.000000 3.677470 
# 
# 
# High freq. dielectric constant tensor:
#      x y z
#    x 1.765070 0.000000 0.000000 
#    y 0.000000 1.766210 0.000000 
#    z 0.000000 0.000000 1.774090 
# 
# From -- ./inp_files/15758.got.cif
#   From: 2010.03.12/outbox.cif.g09.slc.cpg/sg38_8_cif.got.tgz:15758.got - 2010.04.14 02:38:36.
