data_PCOD8179499
_publ_section_title
;
Structure prediction by ZEFSAII (Michael W. Deem and Ramdas Pophale) SiO2 
 PCOD8179499
Probable space group: A M M 2
;
_chemical_formula_sum "Si O2"
_cell_formula_units_Z 56
_cell_length_a 19.877799
_cell_length_b 8.980918
_cell_length_c 15.719015
_cell_angle_alpha 90.000000
_cell_angle_beta 90.000000
_cell_angle_gamma 90.000000
_cell_volume 2806.172435
_symmetry_space_group_name_H-M "A M M 2"
_symmetry_group_IT_number 38
_symmetry_cell_setting 'orthorhombic'
loop_
_space_group_symop_operation_xyz
x,y,z
-x,-y,z
-x,y,z
x,-y,z
x,1/2+y,1/2+z
-x,1/2-y,1/2+z
-x,1/2+y,1/2+z
x,1/2-y,1/2+z
loop_
_atom_site_type_symbol
_atom_site_label
_atom_site_fract_x
_atom_site_fract_y
_atom_site_fract_z
Si Si1 0.297849 0.662302 0.781330
Si Si2 0.574125 0.169770 0.044482
Si Si3 0.424931 0.827078 0.719941
Si Si4 0.161690 0.676377 0.974149
Si Si5 0.924238 0.676791 0.133478
Si Si6 0.307790 0.160756 0.475785
Si Si7 0.165425 0.323358 0.291240
O O1 0.295412 0.500000 0.734859
O O2 0.370605 0.735596 0.771500
O O3 0.287974 0.634675 0.879558
O O4 0.236870 0.767665 0.752210
O O5 0.500000 0.187112 0.001549
O O6 0.580465 0.281168 0.122370
O O7 0.584898 0.000000 0.074036
O O8 0.633575 0.216200 0.981132
O O9 0.500000 0.790569 0.754654
O O10 0.408787 0.000000 0.728954
O O11 0.154069 0.500000 0.959162
O O12 0.236111 0.714188 0.013908
O O13 0.146901 0.756483 0.883813
O O14 0.111176 0.736496 0.047062
O O15 0.922834 0.500000 0.130733
O O16 0.888862 0.729496 0.221074
O O17 0.000000 0.739511 0.134577
O O18 0.330536 0.000000 0.514936
O O19 0.168834 0.500000 0.300673
#
# Coordination Sequence:
#
# PCOD8179499 Si02
#       7
#     8   8   8   8   8   8   8
#     4  10  21  37  56  80 109 144 185 231 281 336
#     4  10  21  35  51  75 107 142 182 229 278 328
#     4  10  21  36  54  77 107 144 185 229 279 334
#     4   9  19  37  58  82 115 153 191 235 285 344
#     4   9  19  36  59  87 117 153 193 229 281 352
#     4   9  19  34  53  76 104 139 182 228 276 330
#     4  10  20  35  58  87 117 151 192 241 289 340
#
# _framework density 19.956008000000001
#
# number of rings (size 3 to 8) (size 9 to 14) (size 15 to 20)
#    0.000    2.429    0.000    2.571    2.000    5.714 
#    0.000    4.286    0.000    3.000    0.000    0.000 
#    0.000    0.000    0.000    0.000    0.000    0.000 
#
# Total GULP energy -346954.112247 kJ/mol
# GULP energy per Si atom -12391.218295 kJ/mol
# Density = 1.991059 g / cm^3
# Si number density = 19.956008 Si / 1000 Ang^3
#
#
#
# Elastic Constant Matrix: (Units=GPa)
#
#
# Indices 1 2 3 4 5 6 
#
# 1 167.7365 58.3168 60.1118 0.0000 0.0000 0.0000
# 2 58.3168 86.4178 33.5839 0.0000 0.0000 0.0000
# 3 60.1118 33.5839 81.2566 0.0000 0.0000 0.0000
# 4 0.0000 0.0000 0.0000 17.4651 0.0000 0.0000
# 5 0.0000 0.0000 0.0000 0.0000 32.5693 0.0000
# 6 0.0000 0.0000 0.0000 0.0000 0.0000 22.3052
#
#
#
# Elastic Compliance Matrix: (Units=1/GPa)
#
#
# Indices 1 2 3 4 5 6 
#
# 1 0.009275 -0.004280 -0.005092 0.000000 0.000000 0.000000
# 2 -0.004280 0.015761 -0.003348 0.000000 0.000000 0.000000
# 3 -0.005092 -0.003348 0.017458 0.000000 0.000000 0.000000
# 4 0.000000 0.000000 0.000000 0.057257 0.000000 0.000000
# 5 0.000000 0.000000 0.000000 0.000000 0.030704 0.000000
# 6 0.000000 0.000000 0.000000 0.000000 0.000000 0.044833
#
#
# Mechanical properties :
#
#
# Convention : Reuss Voigt Hill
#
# Bulk Modulus (GPa) = 58.64079 71.04844 64.84461
# Shear Modulus (GPa) = 24.22354 26.69449 25.45902
#
# Velocity S-wave (km/s) = 3.48781 3.66138 3.57565
# Velocity P-wave (km/s) = 6.75785 7.31807 7.04353
#
# Compressibility (1/GPa) = 0.01705298
#
# Stress axis : x y z
#
# Youngs Moduli (GPa) = 107.82148 63.44825 57.28158
#
# Poissons Ratio (x) = 0.27154 0.29169
# Poissons Ratio (y) = 0.46145 0.19178
# Poissons Ratio (z) = 0.54906 0.21243
#
# Static dielectric constant tensor:
#      x y z
#    x 3.975410 0.000000 0.000000 
#    y 0.000000 3.607550 0.000000 
#    z 0.000000 0.000000 3.422160 
# 
# 
# High freq. dielectric constant tensor:
#      x y z
#    x 1.786680 0.000000 0.000000 
#    y 0.000000 1.769110 0.000000 
#    z 0.000000 0.000000 1.762550 
# 
# From -- ./inp_files/15458.got.cif
#   From: 2010.03.12/outbox.cif.g09.slc.cpg/sg38_8_cif.got.tgz:15458.got - 2010.04.14 02:38:36.
