data_PCOD8179998
_publ_section_title
;
Structure prediction by ZEFSAII (Michael W. Deem and Ramdas Pophale) SiO2 
 PCOD8179998
Probable space group: A M M 2
;
_chemical_formula_sum "Si O2"
_cell_formula_units_Z 56
_cell_length_a 9.076029
_cell_length_b 23.591713
_cell_length_c 13.726353
_cell_angle_alpha 90.000000
_cell_angle_beta 90.000000
_cell_angle_gamma 90.000000
_cell_volume 2939.073957
_symmetry_space_group_name_H-M "A M M 2"
_symmetry_group_IT_number 38
_symmetry_cell_setting 'orthorhombic'
loop_
_space_group_symop_operation_xyz
x,y,z
-x,-y,z
-x,y,z
x,-y,z
x,1/2+y,1/2+z
-x,1/2-y,1/2+z
-x,1/2+y,1/2+z
x,1/2-y,1/2+z
loop_
_atom_site_type_symbol
_atom_site_label
_atom_site_fract_x
_atom_site_fract_y
_atom_site_fract_z
Si Si1 0.675162 0.173461 0.680860
Si Si2 0.673387 0.435745 0.700190
Si Si3 0.172402 0.935860 0.003383
Si Si4 0.327742 0.561592 0.080567
Si Si5 0.170146 0.776139 0.502007
Si Si6 0.831270 0.668290 0.377989
Si Si7 0.672438 0.628089 0.891393
O O1 0.500000 0.178865 0.674164
O O2 0.732358 0.110135 0.653093
O O3 0.743451 0.217563 0.603811
O O4 0.728776 0.187415 0.788920
O O5 0.500000 0.431922 0.686283
O O6 0.721815 0.500000 0.724729
O O7 0.747963 0.414979 0.601053
O O8 0.725762 0.394727 0.786982
O O9 0.000000 0.931911 0.024044
O O10 0.220184 0.000000 0.974930
O O11 0.217498 0.893880 0.915799
O O12 0.500000 0.556039 0.097301
O O13 0.253381 0.500000 0.101572
O O14 0.294372 0.578919 0.969585
O O15 0.189773 0.711795 0.466784
O O16 0.235788 0.816199 0.417702
O O17 0.000000 0.791836 0.518525
O O18 0.000000 0.667898 0.341888
O O19 0.500000 0.643903 0.891869
#
# Coordination Sequence:
#
# PCOD8179998 Si02
#       7
#     8   8   8   8   8   8   8
#     4  10  21  36  56  81 106 133 169 215 259 300
#     4   9  17  30  50  77 108 140 173 213 262 310
#     4   9  19  36  55  75 102 135 172 215 258 304
#     4   8  14  27  48  74 104 136 168 204 252 307
#     4  10  21  37  55  75 104 140 174 210 253 306
#     4  10  22  39  57  76 101 137 174 207 254 311
#     4   9  17  30  50  77 107 139 176 217 258 300
#
# _framework density 19.053619999999999
#
# number of rings (size 3 to 8) (size 9 to 14) (size 15 to 20)
#    0.000    2.714    0.000    2.143    0.000    5.714 
#    0.000    4.286    0.000   13.714    0.000    0.000 
#    0.000    0.000    0.000    0.000    0.000    0.000 
#
# Total GULP energy -347166.714311 kJ/mol
# GULP energy per Si atom -12398.811225 kJ/mol
# Density = 1.901025 g / cm^3
# Si number density = 19.053620 Si / 1000 Ang^3
#
#
#
# Elastic Constant Matrix: (Units=GPa)
#
#
# Indices 1 2 3 4 5 6 
#
# 1 64.0534 32.5812 46.8429 0.0000 0.0000 0.0000
# 2 32.5812 85.2403 41.4370 0.0000 0.0000 0.0000
# 3 46.8429 41.4370 118.9114 0.0000 0.0000 0.0000
# 4 0.0000 0.0000 0.0000 27.2078 0.0000 0.0000
# 5 0.0000 0.0000 0.0000 0.0000 33.3335 0.0000
# 6 0.0000 0.0000 0.0000 0.0000 0.0000 23.4277
#
#
#
# Elastic Compliance Matrix: (Units=1/GPa)
#
#
# Indices 1 2 3 4 5 6 
#
# 1 0.023885 -0.005485 -0.007498 0.000000 0.000000 0.000000
# 2 -0.005485 0.015384 -0.003200 0.000000 0.000000 0.000000
# 3 -0.007498 -0.003200 0.012478 0.000000 0.000000 0.000000
# 4 0.000000 0.000000 0.000000 0.036754 0.000000 0.000000
# 5 0.000000 0.000000 0.000000 0.000000 0.030000 0.000000
# 6 0.000000 0.000000 0.000000 0.000000 0.000000 0.042684
#
#
# Mechanical properties :
#
#
# Convention : Reuss Voigt Hill
#
# Bulk Modulus (GPa) = 51.59490 56.65858 54.12674
# Shear Modulus (GPa) = 24.99859 26.61674 25.80767
#
# Velocity S-wave (km/s) = 3.62610 3.74162 3.68431
# Velocity P-wave (km/s) = 6.68349 6.96184 6.82409
#
# Compressibility (1/GPa) = 0.01938176
#
# Stress axis : x y z
#
# Youngs Moduli (GPa) = 41.86728 65.00439 80.13854
#
# Poissons Ratio (x) = 0.35653 0.60086
# Poissons Ratio (y) = 0.22963 0.25645
# Poissons Ratio (z) = 0.31391 0.20802
#
# Static dielectric constant tensor:
#      x y z
#    x 3.316270 0.000000 0.000000 
#    y 0.000000 3.688010 0.000000 
#    z 0.000000 0.000000 3.407700 
# 
# 
# High freq. dielectric constant tensor:
#      x y z
#    x 1.723140 0.000000 0.000000 
#    y 0.000000 1.742040 0.000000 
#    z 0.000000 0.000000 1.735890 
# 
# From -- ./inp_files/12422.got.cif
#   From: 2010.03.12/outbox.cif.g09.slc.cpg/sg38_7_cif.got.tgz:12422.got - 2010.04.14 02:38:36.
