data_PCOD8179641
_publ_section_title
;
Structure prediction by ZEFSAII (Michael W. Deem and Ramdas Pophale) SiO2 
 PCOD8179641
Probable space group: A M M 2
;
_chemical_formula_sum "Si O2"
_cell_formula_units_Z 48
_cell_length_a 8.510485
_cell_length_b 17.024840
_cell_length_c 16.694207
_cell_angle_alpha 90.000000
_cell_angle_beta 90.000000
_cell_angle_gamma 90.000000
_cell_volume 2418.817733
_symmetry_space_group_name_H-M "A M M 2"
_symmetry_group_IT_number 38
_symmetry_cell_setting 'orthorhombic'
loop_
_space_group_symop_operation_xyz
x,y,z
-x,-y,z
-x,y,z
x,-y,z
x,1/2+y,1/2+z
-x,1/2-y,1/2+z
-x,1/2+y,1/2+z
x,1/2-y,1/2+z
loop_
_atom_site_type_symbol
_atom_site_label
_atom_site_fract_x
_atom_site_fract_y
_atom_site_fract_z
Si Si1 0.682821 0.500000 0.267601
Si Si2 0.183513 0.690435 0.704978
Si Si3 0.317155 0.649933 0.164192
Si Si4 0.815084 0.500000 0.441237
Si Si5 0.816419 0.176437 0.494522
Si Si6 0.682233 0.409499 0.845717
Si Si7 0.185602 0.349066 0.530078
O O1 0.500000 0.500000 0.289754
O O2 0.731063 0.423756 0.217739
O O3 0.782143 0.500000 0.347973
O O4 0.276789 0.772029 0.714826
O O5 0.216382 0.634067 0.778927
O O6 0.239327 0.648159 0.622908
O O7 0.000000 0.710690 0.701167
O O8 0.500000 0.648352 0.141619
O O9 0.215910 0.644681 0.083414
O O10 0.739120 0.577383 0.482805
O O11 0.000000 0.500000 0.455839
O O12 0.715777 0.126703 0.432297
O O13 0.760318 0.267329 0.489381
O O14 0.000000 0.167340 0.474845
O O15 0.500000 0.399887 0.825017
O O16 0.733738 0.500000 0.846786
O O17 0.000000 0.353913 0.525409
#
# Coordination Sequence:
#
# PCOD8179641 Si02
#       7
#     4   8   8   4   8   8   8
#     4  10  24  40  56  85 120 155 198 243 288 349
#     4  10  21  39  63  89 118 153 200 249 298 356
#     4  10  21  40  62  85 120 161 198 242 302 358
#     4  10  20  36  60  87 116 151 192 239 294 349
#     4  10  21  39  61  89 119 152 201 249 298 357
#     4  11  25  41  59  87 122 158 199 245 302 366
#     4   8  18  36  59  87 116 148 187 239 294 346
#
# _framework density 19.844405999999999
#
# number of rings (size 3 to 8) (size 9 to 14) (size 15 to 20)
#    0.000    2.167    0.000    3.000    4.667    2.667 
#    0.000    4.167    0.000    0.000    0.000    0.000 
#    0.000    0.000    0.000    0.000    0.000    0.000 
#
# Total GULP energy -297662.740400 kJ/mol
# GULP energy per Si atom -12402.614183 kJ/mol
# Density = 1.979924 g / cm^3
# Si number density = 19.844406 Si / 1000 Ang^3
#
#
#
# Elastic Constant Matrix: (Units=GPa)
#
#
# Indices 1 2 3 4 5 6 
#
# 1 33.2316 21.0231 13.8278 0.0000 0.0000 0.0000
# 2 21.0231 157.1564 80.7452 0.0000 0.0000 0.0000
# 3 13.8278 80.7452 104.6143 0.0000 0.0000 0.0000
# 4 0.0000 0.0000 0.0000 34.8402 0.0000 0.0000
# 5 0.0000 0.0000 0.0000 0.0000 28.6110 0.0000
# 6 0.0000 0.0000 0.0000 0.0000 0.0000 25.9514
#
#
#
# Elastic Compliance Matrix: (Units=1/GPa)
#
#
# Indices 1 2 3 4 5 6 
#
# 1 0.033031 -0.003605 -0.001584 0.000000 0.000000 0.000000
# 2 -0.003605 0.010938 -0.007966 0.000000 0.000000 0.000000
# 3 -0.001584 -0.007966 0.015917 0.000000 0.000000 0.000000
# 4 0.000000 0.000000 0.000000 0.028702 0.000000 0.000000
# 5 0.000000 0.000000 0.000000 0.000000 0.034952 0.000000
# 6 0.000000 0.000000 0.000000 0.000000 0.000000 0.038534
#
#
# Mechanical properties :
#
#
# Convention : Reuss Voigt Hill
#
# Bulk Modulus (GPa) = 29.78217 58.46605 44.12411
# Shear Modulus (GPa) = 25.05318 29.84093 27.44705
#
# Velocity S-wave (km/s) = 3.55699 3.88202 3.72306
# Velocity P-wave (km/s) = 5.64890 7.04412 6.38474
#
# Compressibility (1/GPa) = 0.03357713
#
# Stress axis : x y z
#
# Youngs Moduli (GPa) = 30.27419 91.42292 62.82721
#
# Poissons Ratio (x) = 0.32959 0.09949
# Poissons Ratio (y) = 0.10914 0.50048
# Poissons Ratio (z) = 0.04794 0.72827
#
# Static dielectric constant tensor:
#      x y z
#    x 3.408670 0.000000 0.000000 
#    y 0.000000 3.966290 0.000000 
#    z 0.000000 0.000000 3.549010 
# 
# 
# High freq. dielectric constant tensor:
#      x y z
#    x 1.760950 0.000000 0.000000 
#    y 0.000000 1.785050 0.000000 
#    z 0.000000 0.000000 1.777280 
# 
# From -- ./inp_files/12056.got.cif
#   From: 2010.03.12/outbox.cif.g09.slc.cpg/sg38_7_cif.got.tgz:12056.got - 2010.04.14 02:38:36.
