data_PCOD8179148
_publ_section_title
;
Structure prediction by ZEFSAII (Michael W. Deem and Ramdas Pophale) SiO2 
 PCOD8179148
Probable space group: A M M 2
;
_chemical_formula_sum "Si O2"
_cell_formula_units_Z 64
_cell_length_a 8.874434
_cell_length_b 19.889736
_cell_length_c 20.005657
_cell_angle_alpha 90.000000
_cell_angle_beta 90.000000
_cell_angle_gamma 90.000000
_cell_volume 3531.201506
_symmetry_space_group_name_H-M "A M M 2"
_symmetry_group_IT_number 38
_symmetry_cell_setting 'orthorhombic'
loop_
_space_group_symop_operation_xyz
x,y,z
-x,-y,z
-x,y,z
x,-y,z
x,1/2+y,1/2+z
-x,1/2-y,1/2+z
-x,1/2+y,1/2+z
x,1/2-y,1/2+z
loop_
_atom_site_type_symbol
_atom_site_label
_atom_site_fract_x
_atom_site_fract_y
_atom_site_fract_z
Si Si1 0.676660 0.828525 0.232720
Si Si2 0.677411 0.322030 0.228904
Si Si3 0.672935 0.578720 0.972600
Si Si4 0.174505 0.577191 0.474443
Si Si5 0.172295 0.922206 0.128324
Si Si6 0.679166 0.925716 0.623145
Si Si7 0.677700 0.817504 0.878573
Si Si8 0.177090 0.323368 0.872304
O O1 0.500000 0.831952 0.247469
O O2 0.725831 0.753708 0.210115
O O3 0.717434 0.879386 0.174120
O O4 0.760489 0.847538 0.300891
O O5 0.500000 0.329826 0.223771
O O6 0.752258 0.373486 0.176049
O O7 0.730610 0.339275 0.304172
O O8 0.500000 0.600552 0.960281
O O9 0.692319 0.500000 0.958174
O O10 0.783470 0.619104 0.924859
O O11 0.723566 0.595824 0.048239
O O12 0.214331 0.500000 0.457832
O O13 0.211645 0.592830 0.551453
O O14 0.276820 0.624654 0.429590
O O15 0.000000 0.591454 0.459343
O O16 0.000000 0.902435 0.143450
O O17 0.199683 0.000000 0.144688
O O18 0.500000 0.927491 0.628435
O O19 0.743198 0.000000 0.639515
O O20 0.500000 0.806480 0.881204
O O21 0.753138 0.746831 0.897534
O O22 0.000000 0.314567 0.867157
#
# Coordination Sequence:
#
# PCOD8179148 Si02
#       8
#     8   8   8   8   8   8   8   8
#     4  10  20  34  52  76 105 134 168 214 261 305
#     4   8  16  30  47  72 104 132 162 204 252 300
#     4   9  18  33  53  77 104 133 167 210 258 307
#     4   9  19  36  55  76 107 144 178 214 259 314
#     4   9  19  36  55  75 102 136 173 213 258 312
#     4   8  14  27  49  75 102 131 161 197 246 300
#     4  10  20  34  53  78 107 137 174 221 265 307
#     4  11  22  36  54  74 101 139 177 214 261 316
#
# _framework density 18.124141999999999
#
# number of rings (size 3 to 8) (size 9 to 14) (size 15 to 20)
#    0.000    2.750    0.000    4.125    0.000    3.250 
#    0.000    3.750    0.000    3.750    0.000    0.000 
#    0.000    0.000    0.000    0.000    0.000    0.000 
#
# Total GULP energy -396768.652256 kJ/mol
# GULP energy per Si atom -12399.020383 kJ/mol
# Density = 1.808289 g / cm^3
# Si number density = 18.124142 Si / 1000 Ang^3
#
#
#
# Elastic Constant Matrix: (Units=GPa)
#
#
# Indices 1 2 3 4 5 6 
#
# 1 78.1193 43.7032 44.1394 0.0000 0.0000 0.0000
# 2 43.7032 101.2327 81.3825 0.0000 0.0000 0.0000
# 3 44.1394 81.3825 112.2427 0.0000 0.0000 0.0000
# 4 0.0000 0.0000 0.0000 40.3402 0.0000 0.0000
# 5 0.0000 0.0000 0.0000 0.0000 24.2810 0.0000
# 6 0.0000 0.0000 0.0000 0.0000 0.0000 26.2736
#
#
#
# Elastic Compliance Matrix: (Units=1/GPa)
#
#
# Indices 1 2 3 4 5 6 
#
# 1 0.017385 -0.004817 -0.003344 0.000000 0.000000 0.000000
# 2 -0.004817 0.025017 -0.016244 0.000000 0.000000 0.000000
# 3 -0.003344 -0.016244 0.022003 0.000000 0.000000 0.000000
# 4 0.000000 0.000000 0.000000 0.024789 0.000000 0.000000
# 5 0.000000 0.000000 0.000000 0.000000 0.041184 0.000000
# 6 0.000000 0.000000 0.000000 0.000000 0.000000 0.038061
#
#
# Mechanical properties :
#
#
# Convention : Reuss Voigt Hill
#
# Bulk Modulus (GPa) = 64.12908 70.00499 67.06703
# Shear Modulus (GPa) = 22.47711 26.33693 24.40702
#
# Velocity S-wave (km/s) = 3.52543 3.81614 3.67367
# Velocity P-wave (km/s) = 7.21329 7.62407 7.42152
#
# Compressibility (1/GPa) = 0.01559355
#
# Stress axis : x y z
#
# Youngs Moduli (GPa) = 57.51980 39.97292 45.44933
#
# Poissons Ratio (x) = 0.19255 0.15199
# Poissons Ratio (y) = 0.27707 0.73830
# Poissons Ratio (z) = 0.19236 0.64934
#
# Static dielectric constant tensor:
#      x y z
#    x 3.064030 0.000000 0.000000 
#    y 0.000000 3.644580 0.000000 
#    z 0.000000 0.000000 3.490230 
# 
# 
# High freq. dielectric constant tensor:
#      x y z
#    x 1.679410 0.000000 0.000000 
#    y 0.000000 1.705320 0.000000 
#    z 0.000000 0.000000 1.706660 
# 
# From -- ./inp_files/17167.got.cif
#   From: 2010.03.12/outbox.cif.g09.slc.cpg/sg38_9_cif.got.tgz:17167.got - 2010.04.14 02:38:36.
