data_PCOD8179726
_publ_section_title
;
Structure prediction by ZEFSAII (Michael W. Deem and Ramdas Pophale) SiO2 
 PCOD8179726
Probable space group: A M M 2
;
_chemical_formula_sum "Si O2"
_cell_formula_units_Z 40
_cell_length_a 8.936054
_cell_length_b 20.213689
_cell_length_c 11.876643
_cell_angle_alpha 90.000000
_cell_angle_beta 90.000000
_cell_angle_gamma 90.000000
_cell_volume 2145.285346
_symmetry_space_group_name_H-M "A M M 2"
_symmetry_group_IT_number 38
_symmetry_cell_setting 'orthorhombic'
loop_
_space_group_symop_operation_xyz
x,y,z
-x,-y,z
-x,y,z
x,-y,z
x,1/2+y,1/2+z
-x,1/2-y,1/2+z
-x,1/2+y,1/2+z
x,1/2-y,1/2+z
loop_
_atom_site_type_symbol
_atom_site_label
_atom_site_fract_x
_atom_site_fract_y
_atom_site_fract_z
Si Si1 0.177533 0.000000 0.964320
Si Si2 0.823659 0.370008 0.845919
Si Si3 0.823684 0.144057 0.602389
Si Si4 0.330196 0.243364 0.741994
Si Si5 0.669653 0.603358 0.310345
Si Si6 0.177494 0.000000 0.220775
O O1 0.239754 0.933896 0.906886
O O2 0.000000 0.000000 0.956362
O O3 0.234083 0.000000 0.092656
O O4 0.747285 0.306729 0.792628
O O5 0.760950 0.434952 0.783540
O O6 0.000000 0.361859 0.830227
O O7 0.779905 0.376145 0.976455
O O8 0.758223 0.217570 0.630486
O O9 0.747906 0.090877 0.688072
O O10 0.000000 0.144098 0.621623
O O11 0.500000 0.260575 0.708015
O O12 0.326362 0.182784 0.833376
O O13 0.500000 0.576523 0.306613
O O14 0.000000 0.000000 0.226903
#
# Coordination Sequence:
#
# PCOD8179726 Si02
#       6
#     4   8   8   8   8   4
#     4  11  21  36  61  84 114 153 194 241 284 347
#     4  10  20  37  61  85 118 152 191 243 287 343
#     4   9  18  34  58  88 113 146 193 235 285 342
#     4   9  20  36  56  84 117 152 189 233 286 341
#     4   9  20  37  56  83 117 151 187 234 289 340
#     4   9  22  40  55  84 116 151 192 237 296 339
#
# _framework density 18.645538999999999
#
# number of rings (size 3 to 8) (size 9 to 14) (size 15 to 20)
#    1.200    1.400    0.000    1.500    0.000    4.000 
#    0.000   10.500    0.000    0.000    0.000    0.000 
#    0.000    0.000    0.000    0.000    0.000    0.000 
#
# Total GULP energy -247835.938225 kJ/mol
# GULP energy per Si atom -12391.796911 kJ/mol
# Density = 1.860310 g / cm^3
# Si number density = 18.645539 Si / 1000 Ang^3
#
#
#
# Elastic Constant Matrix: (Units=GPa)
#
#
# Indices 1 2 3 4 5 6 
#
# 1 87.4674 45.1216 68.4979 0.0000 0.0000 0.0000
# 2 45.1216 124.4477 76.1267 0.0000 0.0000 0.0000
# 3 68.4979 76.1267 160.0664 0.0000 0.0000 0.0000
# 4 0.0000 0.0000 0.0000 32.2452 0.0000 0.0000
# 5 0.0000 0.0000 0.0000 0.0000 5.5795 0.0000
# 6 0.0000 0.0000 0.0000 0.0000 0.0000 24.4084
#
#
#
# Elastic Compliance Matrix: (Units=1/GPa)
#
#
# Indices 1 2 3 4 5 6 
#
# 1 0.017739 -0.002522 -0.006392 0.000000 0.000000 0.000000
# 2 -0.002522 0.011691 -0.004481 0.000000 0.000000 0.000000
# 3 -0.006392 -0.004481 0.011114 0.000000 0.000000 0.000000
# 4 0.000000 0.000000 0.000000 0.031012 0.000000 0.000000
# 5 0.000000 0.000000 0.000000 0.000000 0.179228 0.000000
# 6 0.000000 0.000000 0.000000 0.000000 0.000000 0.040970
#
#
# Mechanical properties :
#
#
# Convention : Reuss Voigt Hill
#
# Bulk Modulus (GPa) = 72.70205 83.49710 78.09958
# Shear Modulus (GPa) = 15.47373 24.59564 20.03469
#
# Velocity S-wave (km/s) = 2.88390 3.63590 3.28152
# Velocity P-wave (km/s) = 7.08276 7.90600 7.50568
#
# Compressibility (1/GPa) = 0.01375477
#
# Stress axis : x y z
#
# Youngs Moduli (GPa) = 56.37154 85.53633 89.97766
#
# Poissons Ratio (x) = 0.21571 0.57513
# Poissons Ratio (y) = 0.14216 0.40319
# Poissons Ratio (z) = 0.36032 0.38329
#
# Static dielectric constant tensor:
#      x y z
#    x 3.378400 0.000000 0.000000 
#    y 0.000000 3.322040 0.000000 
#    z 0.000000 0.000000 3.365680 
# 
# 
# High freq. dielectric constant tensor:
#      x y z
#    x 1.725480 0.000000 0.000000 
#    y 0.000000 1.717090 0.000000 
#    z 0.000000 0.000000 1.712460 
# 
# From -- ./inp_files/3342.got.cif
#   From: 2010.03.12/outbox.cif.g09.slc.cpg/sg38_2_cif.got.tgz:3342.got - 2010.04.14 02:38:36.
