data_PCOD8179632
_publ_section_title
;
Structure prediction by ZEFSAII (Michael W. Deem and Ramdas Pophale) SiO2 
 PCOD8179632
Probable space group: A M M 2
;
_chemical_formula_sum "Si O2"
_cell_formula_units_Z 64
_cell_length_a 8.915206
_cell_length_b 24.087551
_cell_length_c 14.881670
_cell_angle_alpha 90.000000
_cell_angle_beta 90.000000
_cell_angle_gamma 90.000000
_cell_volume 3195.771355
_symmetry_space_group_name_H-M "A M M 2"
_symmetry_group_IT_number 38
_symmetry_cell_setting 'orthorhombic'
loop_
_space_group_symop_operation_xyz
x,y,z
-x,-y,z
-x,y,z
x,-y,z
x,1/2+y,1/2+z
-x,1/2-y,1/2+z
-x,1/2+y,1/2+z
x,1/2-y,1/2+z
loop_
_atom_site_type_symbol
_atom_site_label
_atom_site_fract_x
_atom_site_fract_y
_atom_site_fract_z
Si Si1 0.172406 0.564068 0.055760
Si Si2 0.677071 0.649458 0.186831
Si Si3 0.330613 0.765375 0.372659
Si Si4 0.171809 0.740679 0.691388
Si Si5 0.327643 0.113300 0.390434
Si Si6 0.672262 0.854224 0.890669
Si Si7 0.674077 0.563297 0.537351
Si Si8 0.175808 0.118081 0.198143
O O1 0.193321 0.500000 0.081354
O O2 0.259993 0.599409 0.128972
O O3 0.000000 0.581995 0.056341
O O4 0.236484 0.573688 0.956269
O O5 0.500000 0.647719 0.180771
O O6 0.730380 0.709561 0.148288
O O7 0.737997 0.642410 0.289246
O O8 0.500000 0.762973 0.330013
O O9 0.204770 0.764626 0.296855
O O10 0.313437 0.822806 0.427682
O O11 0.306881 0.708793 0.430294
O O12 0.208647 0.678951 0.653803
O O13 0.000000 0.756581 0.675546
O O14 0.500000 0.094155 0.389663
O O15 0.264131 0.108624 0.290445
O O16 0.500000 0.871267 0.883823
O O17 0.746826 0.898220 0.958733
O O18 0.500000 0.578107 0.555238
O O19 0.693622 0.500000 0.506549
O O20 0.766240 0.572499 0.628397
O O21 0.000000 0.110318 0.217371
#
# Coordination Sequence:
#
# PCOD8179632 Si02
#       8
#     8   8   8   8   8   8   8   8
#     4  11  25  42  57  78 112 151 190 233 281 335
#     4  10  20  36  60  86 112 145 184 229 279 330
#     4   8  15  30  53  82 111 139 176 222 274 330
#     4   9  17  31  53  82 114 145 178 219 273 336
#     4  10  20  36  60  86 110 140 182 231 280 333
#     4   8  16  33  56  81 110 142 177 221 273 326
#     4  10  21  36  54  78 108 145 190 234 275 324
#     4  10  21  37  57  82 113 149 185 226 281 336
#
# _framework density 20.026463
#
# number of rings (size 3 to 8) (size 9 to 14) (size 15 to 20)
#    0.000    2.500    0.000    2.625    0.000    5.250 
#    0.000    5.625    0.000    0.000    0.000    0.000 
#    0.000    0.000    0.000    0.000    0.000    0.000 
#
# Total GULP energy -396599.481115 kJ/mol
# GULP energy per Si atom -12393.733785 kJ/mol
# Density = 1.998088 g / cm^3
# Si number density = 20.026463 Si / 1000 Ang^3
#
#
#
# Elastic Constant Matrix: (Units=GPa)
#
#
# Indices 1 2 3 4 5 6 
#
# 1 80.3908 31.2663 19.6940 0.0000 0.0000 0.0000
# 2 31.2663 74.6391 17.2471 0.0000 0.0000 0.0000
# 3 19.6940 17.2471 52.5330 0.0000 0.0000 0.0000
# 4 0.0000 0.0000 0.0000 35.3188 0.0000 0.0000
# 5 0.0000 0.0000 0.0000 0.0000 22.5440 0.0000
# 6 0.0000 0.0000 0.0000 0.0000 0.0000 25.8998
#
#
#
# Elastic Compliance Matrix: (Units=1/GPa)
#
#
# Indices 1 2 3 4 5 6 
#
# 1 0.015603 -0.005610 -0.004008 0.000000 0.000000 0.000000
# 2 -0.005610 0.016515 -0.003319 0.000000 0.000000 0.000000
# 3 -0.004008 -0.003319 0.021628 0.000000 0.000000 0.000000
# 4 0.000000 0.000000 0.000000 0.028314 0.000000 0.000000
# 5 0.000000 0.000000 0.000000 0.000000 0.044358 0.000000
# 6 0.000000 0.000000 0.000000 0.000000 0.000000 0.038610
#
#
# Mechanical properties :
#
#
# Convention : Reuss Voigt Hill
#
# Bulk Modulus (GPa) = 35.87759 38.21974 37.04866
# Shear Modulus (GPa) = 24.97621 26.04287 25.50954
#
# Velocity S-wave (km/s) = 3.53535 3.61005 3.57289
# Velocity P-wave (km/s) = 5.88378 6.04174 5.96329
#
# Compressibility (1/GPa) = 0.02787255
#
# Stress axis : x y z
#
# Youngs Moduli (GPa) = 64.09071 60.55202 46.23715
#
# Poissons Ratio (x) = 0.33970 0.18530
# Poissons Ratio (y) = 0.35955 0.15345
# Poissons Ratio (z) = 0.25684 0.20096
#
# Static dielectric constant tensor:
#      x y z
#    x 3.530640 0.000000 0.000000 
#    y 0.000000 3.871820 0.000000 
#    z 0.000000 0.000000 3.399920 
# 
# 
# High freq. dielectric constant tensor:
#      x y z
#    x 1.772820 0.000000 0.000000 
#    y 0.000000 1.791210 0.000000 
#    z 0.000000 0.000000 1.755660 
# 
# From -- ./inp_files/12799.got.cif
#   From: 2010.03.12/outbox.cif.g09.slc.cpg/sg38_7_cif.got.tgz:12799.got - 2010.04.14 02:38:36.
