data_PCOD8179472
_publ_section_title
;
Structure prediction by ZEFSAII (Michael W. Deem and Ramdas Pophale) SiO2 
 PCOD8179472
Probable space group: A M M 2
;
_chemical_formula_sum "Si O2"
_cell_formula_units_Z 44
_cell_length_a 15.793667
_cell_length_b 10.877931
_cell_length_c 13.506771
_cell_angle_alpha 90.000000
_cell_angle_beta 90.000000
_cell_angle_gamma 90.000000
_cell_volume 2320.495942
_symmetry_space_group_name_H-M "A M M 2"
_symmetry_group_IT_number 38
_symmetry_cell_setting 'orthorhombic'
loop_
_space_group_symop_operation_xyz
x,y,z
-x,-y,z
-x,y,z
x,-y,z
x,1/2+y,1/2+z
-x,1/2-y,1/2+z
-x,1/2+y,1/2+z
x,1/2-y,1/2+z
loop_
_atom_site_type_symbol
_atom_site_label
_atom_site_fract_x
_atom_site_fract_y
_atom_site_fract_z
Si Si1 0.402424 0.357098 0.446630
Si Si2 0.853232 0.500000 0.024493
Si Si3 0.740450 0.233191 0.565176
Si Si4 0.000000 0.500000 0.863298
Si Si5 0.000000 0.235645 0.829895
Si Si6 0.704554 0.636476 0.269948
Si Si7 0.000000 0.000000 0.684417
Si Si8 0.150704 0.634340 0.431654
O O1 0.500000 0.327401 0.465777
O O2 0.380616 0.500000 0.473203
O O3 0.349051 0.261100 0.512339
O O4 0.381915 0.334975 0.329857
O O5 0.788126 0.613409 0.023598
O O6 0.912977 0.500000 0.122737
O O7 0.914958 0.500000 0.930224
O O8 0.721548 0.231724 0.681848
O O9 0.806987 0.341450 0.538816
O O10 0.000000 0.377981 0.792045
O O11 0.921370 0.229959 0.904552
O O12 0.000000 0.127630 0.747814
O O13 0.701350 0.500000 0.222397
O O14 0.778280 0.646635 0.348911
O O15 0.109380 0.500000 0.432109
#
# Coordination Sequence:
#
# PCOD8179472 Si02
#       8
#     8   4   8   2   4   8   2   8
#     4   9  20  39  61  86 115 150 195 248 308 371
#     4  11  22  38  57  86 120 157 202 245 307 359
#     4  11  19  33  61  87 115 151 196 247 301 356
#     4  11  24  38  56  87 128 162 192 259 320 346
#     4  12  20  36  60  86 112 160 206 251 301 346
#     4   9  18  33  57  84 110 146 197 241 288 358
#     4  11  24  38  68  83 116 168 218 251 292 366
#     4  10  20  35  57  85 114 155 208 245 289 360
#
# _framework density 18.961463999999999
#
# number of rings (size 3 to 8) (size 9 to 14) (size 15 to 20)
#    0.000    1.818    3.636    2.727    0.000    0.727 
#    0.000    0.455   32.000    1.091    0.000    0.000 
#    0.000    0.000    0.000    0.000    0.000    0.000 
#
# Total GULP energy -272558.376789 kJ/mol
# GULP energy per Si atom -12389.017127 kJ/mol
# Density = 1.891831 g / cm^3
# Si number density = 18.961464 Si / 1000 Ang^3
#
#
#
# Elastic Constant Matrix: (Units=GPa)
#
#
# Indices 1 2 3 4 5 6 
#
# 1 101.7591 50.7203 19.4065 0.0000 0.0000 0.0000
# 2 50.7203 111.1894 46.1441 0.0000 0.0000 0.0000
# 3 19.4065 46.1441 86.3375 0.0000 0.0000 0.0000
# 4 0.0000 0.0000 0.0000 28.1919 0.0000 0.0000
# 5 0.0000 0.0000 0.0000 0.0000 18.0797 0.0000
# 6 0.0000 0.0000 0.0000 0.0000 0.0000 32.6074
#
#
#
# Elastic Compliance Matrix: (Units=1/GPa)
#
#
# Indices 1 2 3 4 5 6 
#
# 1 0.012726 -0.005934 0.000311 0.000000 0.000000 0.000000
# 2 -0.005934 0.014324 -0.006322 0.000000 0.000000 0.000000
# 3 0.000311 -0.006322 0.014891 0.000000 0.000000 0.000000
# 4 0.000000 0.000000 0.000000 0.035471 0.000000 0.000000
# 5 0.000000 0.000000 0.000000 0.000000 0.055311 0.000000
# 6 0.000000 0.000000 0.000000 0.000000 0.000000 0.030668
#
#
# Mechanical properties :
#
#
# Convention : Reuss Voigt Hill
#
# Bulk Modulus (GPa) = 55.39722 59.09196 57.24459
# Shear Modulus (GPa) = 25.86689 27.97682 26.92185
#
# Velocity S-wave (km/s) = 3.69749 3.84533 3.77214
# Velocity P-wave (km/s) = 6.89258 7.13774 7.01623
#
# Compressibility (1/GPa) = 0.01805145
#
# Stress axis : x y z
#
# Youngs Moduli (GPa) = 78.58228 69.81223 67.15315
#
# Poissons Ratio (x) = 0.41427 -0.02089
# Poissons Ratio (y) = 0.46631 0.42454
# Poissons Ratio (z) = -0.02445 0.44135
#
# Static dielectric constant tensor:
#      x y z
#    x 3.831640 0.000000 0.000000 
#    y 0.000000 3.618760 0.000000 
#    z 0.000000 0.000000 3.353940 
# 
# 
# High freq. dielectric constant tensor:
#      x y z
#    x 1.744780 0.000000 0.000000 
#    y 0.000000 1.733040 0.000000 
#    z 0.000000 0.000000 1.715130 
# 
# From -- ./inp_files/14937.got.cif
#   From: 2010.03.12/outbox.cif.g09.slc.cpg/sg38_8_cif.got.tgz:14937.got - 2010.04.14 02:38:36.
