data_PCOD8179498
_publ_section_title
;
Structure prediction by ZEFSAII (Michael W. Deem and Ramdas Pophale) SiO2 
 PCOD8179498
Probable space group: A M M 2
;
_chemical_formula_sum "Si O2"
_cell_formula_units_Z 48
_cell_length_a 13.877252
_cell_length_b 8.959554
_cell_length_c 20.284012
_cell_angle_alpha 90.000000
_cell_angle_beta 90.000000
_cell_angle_gamma 90.000000
_cell_volume 2521.992118
_symmetry_space_group_name_H-M "A M M 2"
_symmetry_group_IT_number 38
_symmetry_cell_setting 'orthorhombic'
loop_
_space_group_symop_operation_xyz
x,y,z
-x,-y,z
-x,y,z
x,-y,z
x,1/2+y,1/2+z
-x,1/2-y,1/2+z
-x,1/2+y,1/2+z
x,1/2-y,1/2+z
loop_
_atom_site_type_symbol
_atom_site_label
_atom_site_fract_x
_atom_site_fract_y
_atom_site_fract_z
Si Si1 0.608635 0.325273 0.882490
Si Si2 0.607194 0.829773 0.018641
Si Si3 0.790146 0.324154 0.342865
Si Si4 0.887691 0.671543 0.964597
Si Si5 0.111290 0.171936 0.223058
Si Si6 0.800184 0.827253 0.086241
O O1 0.500000 0.281395 0.861697
O O2 0.626249 0.500000 0.876524
O O3 0.682477 0.241974 0.833626
O O4 0.628801 0.277851 0.957643
O O5 0.500000 0.799408 0.047708
O O6 0.686051 0.798482 0.075202
O O7 0.615661 0.000000 0.993046
O O8 0.784756 0.500000 0.342562
O O9 0.830309 0.270759 0.412768
O O10 0.859243 0.271425 0.284729
O O11 0.855716 0.500000 0.957129
O O12 0.000000 0.690425 0.950693
O O13 0.863904 0.727904 0.037617
O O14 0.174863 0.221012 0.160444
O O15 0.000000 0.201052 0.206183
O O16 0.129542 0.000000 0.241772
O O17 0.827784 0.000000 0.074871
#
# Coordination Sequence:
#
# PCOD8179498 Si02
#       6
#     8   8   8   8   8   8
#     4  10  20  35  58  87 117 150 188 233 287 345
#     4   9  17  31  54  86 120 151 185 228 281 340
#     4  12  24  38  58  84 114 151 195 242 291 346
#     4  11  23  37  56  83 114 147 189 243 295 344
#     4  10  22  40  59  80 114 158 200 243 291 345
#     4  10  20  36  59  86 115 152 193 236 288 344
#
# _framework density 19.032574
#
# number of rings (size 3 to 8) (size 9 to 14) (size 15 to 20)
#    0.000    1.667    1.667    3.500    0.000    6.000 
#    0.000    0.833    0.000    3.000    0.000    0.000 
#    0.000    0.000    0.000    0.000    0.000    0.000 
#
# Total GULP energy -297681.369354 kJ/mol
# GULP energy per Si atom -12403.390390 kJ/mol
# Density = 1.898926 g / cm^3
# Si number density = 19.032574 Si / 1000 Ang^3
#
#
#
# Elastic Constant Matrix: (Units=GPa)
#
#
# Indices 1 2 3 4 5 6 
#
# 1 104.7782 46.2761 31.0502 0.0000 0.0000 0.0000
# 2 46.2761 99.5884 35.8791 0.0000 0.0000 0.0000
# 3 31.0502 35.8791 68.4671 0.0000 0.0000 0.0000
# 4 0.0000 0.0000 0.0000 28.7156 0.0000 0.0000
# 5 0.0000 0.0000 0.0000 0.0000 34.6544 0.0000
# 6 0.0000 0.0000 0.0000 0.0000 0.0000 28.8025
#
#
#
# Elastic Compliance Matrix: (Units=1/GPa)
#
#
# Indices 1 2 3 4 5 6 
#
# 1 0.012570 -0.004669 -0.003254 0.000000 0.000000 0.000000
# 2 -0.004669 0.014112 -0.005278 0.000000 0.000000 0.000000
# 3 -0.003254 -0.005278 0.018847 0.000000 0.000000 0.000000
# 4 0.000000 0.000000 0.000000 0.034824 0.000000 0.000000
# 5 0.000000 0.000000 0.000000 0.000000 0.028856 0.000000
# 6 0.000000 0.000000 0.000000 0.000000 0.000000 0.034719
#
#
# Mechanical properties :
#
#
# Convention : Reuss Voigt Hill
#
# Bulk Modulus (GPa) = 52.27934 55.47163 53.87549
# Shear Modulus (GPa) = 28.29536 29.07638 28.68587
#
# Velocity S-wave (km/s) = 3.85993 3.91284 3.88648
# Velocity P-wave (km/s) = 6.88429 7.04434 6.96477
#
# Compressibility (1/GPa) = 0.01912801
#
# Stress axis : x y z
#
# Youngs Moduli (GPa) = 79.55277 70.86016 53.05826
#
# Poissons Ratio (x) = 0.33082 0.17266
# Poissons Ratio (y) = 0.37141 0.28004
# Poissons Ratio (z) = 0.25888 0.37400
#
# Static dielectric constant tensor:
#      x y z
#    x 3.832070 0.000000 0.000000 
#    y 0.000000 3.503830 0.000000 
#    z 0.000000 0.000000 3.234940 
# 
# 
# High freq. dielectric constant tensor:
#      x y z
#    x 1.760530 0.000000 0.000000 
#    y 0.000000 1.741430 0.000000 
#    z 0.000000 0.000000 1.713210 
# 
# From -- ./inp_files/18140.got.cif
#   From: 2010.03.12/outbox.cif.g09.slc.cpg/sg38_10_cif.got.tgz:18140.got - 2010.04.14 02:38:36.
