data_PCOD8179383
_publ_section_title
;
Structure prediction by ZEFSAII (Michael W. Deem and Ramdas Pophale) SiO2 
 PCOD8179383
Probable space group: A M M 2
;
_chemical_formula_sum "Si O2"
_cell_formula_units_Z 64
_cell_length_a 19.794220
_cell_length_b 8.899806
_cell_length_c 20.152964
_cell_angle_alpha 90.000000
_cell_angle_beta 90.000000
_cell_angle_gamma 90.000000
_cell_volume 3550.241218
_symmetry_space_group_name_H-M "A M M 2"
_symmetry_group_IT_number 38
_symmetry_cell_setting 'orthorhombic'
loop_
_space_group_symop_operation_xyz
x,y,z
-x,-y,z
-x,y,z
x,-y,z
x,1/2+y,1/2+z
-x,1/2-y,1/2+z
-x,1/2+y,1/2+z
x,1/2-y,1/2+z
loop_
_atom_site_type_symbol
_atom_site_label
_atom_site_fract_x
_atom_site_fract_y
_atom_site_fract_z
Si Si1 0.178594 0.676757 0.459030
Si Si2 0.421442 0.327869 0.857056
Si Si3 0.923286 0.323693 0.714822
Si Si4 0.325518 0.677080 0.102517
Si Si5 0.330119 0.323257 0.463600
Si Si6 0.421233 0.827446 0.205115
Si Si7 0.183973 0.177803 0.107044
Si Si8 0.923660 0.678186 0.351415
O O1 0.171560 0.500000 0.453212
O O2 0.254819 0.727180 0.441686
O O3 0.160709 0.728387 0.533602
O O4 0.125334 0.748746 0.407604
O O5 0.500000 0.298671 0.869916
O O6 0.402889 0.500000 0.872933
O O7 0.380557 0.219338 0.905185
O O8 0.402817 0.289326 0.781237
O O9 0.916545 0.500000 0.726376
O O10 0.874672 0.267925 0.656225
O O11 0.899241 0.241983 0.781285
O O12 0.000000 0.279011 0.696058
O O13 0.319402 0.500000 0.095791
O O14 0.380284 0.716911 0.157978
O O15 0.253972 0.743534 0.126050
O O16 0.350107 0.743100 0.032186
O O17 0.333225 0.500000 0.476898
O O18 0.500000 0.799387 0.192454
O O19 0.402503 0.000000 0.189418
O O20 0.196096 0.000000 0.110267
O O21 0.918919 0.500000 0.348236
O O22 0.000000 0.730834 0.367322
#
# Coordination Sequence:
#
# PCOD8179383 Si02
#       8
#     8   8   8   8   8   8   8   8
#     4   8  16  31  49  70  95 124 163 205 241 284
#     4   9  19  36  56  78 104 132 165 208 254 302
#     4   9  18  32  50  73 100 130 165 205 249 299
#     4  11  22  35  53  77 105 136 173 217 258 301
#     4  10  20  35  54  75 103 137 171 210 255 305
#     4   9  19  37  58  78 104 138 172 208 255 309
#     4   9  18  34  53  72  98 132 169 210 255 303
#     4   9  17  30  49  72  99 130 162 200 247 297
#
# _framework density 18.026942999999999
#
# number of rings (size 3 to 8) (size 9 to 14) (size 15 to 20)
#    0.000    2.750    0.000    3.000    0.000    3.500 
#    0.000    9.375    0.000    0.000    0.000    3.500 
#    0.000    0.000    0.000    0.000    0.000    0.000 
#
# Total GULP energy -396789.537652 kJ/mol
# GULP energy per Si atom -12399.673052 kJ/mol
# Density = 1.798591 g / cm^3
# Si number density = 18.026943 Si / 1000 Ang^3
#
#
#
# Elastic Constant Matrix: (Units=GPa)
#
#
# Indices 1 2 3 4 5 6 
#
# 1 97.3246 36.6385 87.1603 0.0000 0.0000 0.0000
# 2 36.6385 57.2649 43.2241 0.0000 0.0000 0.0000
# 3 87.1603 43.2241 131.2020 0.0000 0.0000 0.0000
# 4 0.0000 0.0000 0.0000 30.5283 0.0000 0.0000
# 5 0.0000 0.0000 0.0000 0.0000 42.1725 0.0000
# 6 0.0000 0.0000 0.0000 0.0000 0.0000 23.0161
#
#
#
# Elastic Compliance Matrix: (Units=1/GPa)
#
#
# Indices 1 2 3 4 5 6 
#
# 1 0.026342 -0.004851 -0.015901 0.000000 0.000000 0.000000
# 2 -0.004851 0.024136 -0.004729 0.000000 0.000000 0.000000
# 3 -0.015901 -0.004729 0.019743 0.000000 0.000000 0.000000
# 4 0.000000 0.000000 0.000000 0.032757 0.000000 0.000000
# 5 0.000000 0.000000 0.000000 0.000000 0.023712 0.000000
# 6 0.000000 0.000000 0.000000 0.000000 0.000000 0.043448
#
#
# Mechanical properties :
#
#
# Convention : Reuss Voigt Hill
#
# Bulk Modulus (GPa) = 51.92505 68.87079 60.39792
# Shear Modulus (GPa) = 21.97626 27.06129 24.51878
#
# Velocity S-wave (km/s) = 3.49532 3.87868 3.69198
# Velocity P-wave (km/s) = 6.71985 7.63847 7.19384
#
# Compressibility (1/GPa) = 0.01925853
#
# Stress axis : x y z
#
# Youngs Moduli (GPa) = 37.96289 41.43217 50.65077
#
# Poissons Ratio (x) = 0.20100 0.80540
# Poissons Ratio (y) = 0.18417 0.23951
# Poissons Ratio (z) = 0.60365 0.19592
#
# Static dielectric constant tensor:
#      x y z
#    x 3.472100 0.000000 0.000000 
#    y 0.000000 3.116500 0.000000 
#    z 0.000000 0.000000 3.442160 
# 
# 
# High freq. dielectric constant tensor:
#      x y z
#    x 1.699480 0.000000 0.000000 
#    y 0.000000 1.680940 0.000000 
#    z 0.000000 0.000000 1.703620 
# 
# From -- ./inp_files/21414.got.cif
#   From: 2010.03.12/outbox.cif.g09.slc.cpg/sg38_11_cif.got.tgz:21414.got - 2010.04.14 02:38:36.
