data_PCOD8179120
_publ_section_title
;
Structure prediction by ZEFSAII (Michael W. Deem and Ramdas Pophale) SiO2 
 PCOD8179120
Probable space group: A M M 2
;
_chemical_formula_sum "Si O2"
_cell_formula_units_Z 64
_cell_length_a 14.080580
_cell_length_b 9.028924
_cell_length_c 31.043192
_cell_angle_alpha 90.000000
_cell_angle_beta 90.000000
_cell_angle_gamma 90.000000
_cell_volume 3946.598194
_symmetry_space_group_name_H-M "A M M 2"
_symmetry_group_IT_number 38
_symmetry_cell_setting 'orthorhombic'
loop_
_space_group_symop_operation_xyz
x,y,z
-x,-y,z
-x,y,z
x,-y,z
x,1/2+y,1/2+z
-x,1/2-y,1/2+z
-x,1/2+y,1/2+z
x,1/2-y,1/2+z
loop_
_atom_site_type_symbol
_atom_site_label
_atom_site_fract_x
_atom_site_fract_y
_atom_site_fract_z
Si Si1 0.777161 0.673312 0.940580
Si Si2 0.889586 0.171561 0.354415
Si Si3 0.110381 0.173471 0.014928
Si Si4 0.608095 0.671832 0.402044
Si Si5 0.218210 0.824236 0.777527
Si Si6 0.107317 0.174496 0.693837
Si Si7 0.887139 0.163918 0.110578
Si Si8 0.392243 0.172848 0.311633
O O1 0.756186 0.500000 0.943809
O O2 0.842164 0.712913 0.899706
O O3 0.829727 0.725734 0.983188
O O4 0.677337 0.760431 0.937949
O O5 0.844007 0.271849 0.317697
O O6 0.000000 0.210655 0.358040
O O7 0.872944 0.000000 0.342807
O O8 0.000000 0.211630 0.008519
O O9 0.128507 0.000000 0.006241
O O10 0.145251 0.217362 0.063164
O O11 0.500000 0.694121 0.417779
O O12 0.631048 0.500000 0.394034
O O13 0.627505 0.759311 0.358215
O O14 0.169262 0.767761 0.733721
O O15 0.322779 0.751926 0.777845
O O16 0.227281 0.000000 0.779041
O O17 0.151681 0.232145 0.648838
O O18 0.000000 0.234272 0.700247
O O19 0.108003 0.000000 0.691911
O O20 0.000000 0.162163 0.110476
O O21 0.847316 0.000000 0.119512
O O22 0.500000 0.201828 0.296510
O O23 0.368501 0.000000 0.314395
#
# Coordination Sequence:
#
# PCOD8179120 Si02
#       8
#     8   8   8   8   8   8   8   8
#     4  11  21  32  48  71  98 129 164 198 237 285
#     4  10  21  34  45  62  94 133 168 198 229 272
#     4   9  18  32  49  70  98 130 164 201 240 284
#     4  10  20  34  52  72  93 121 159 201 244 287
#     4  11  21  32  48  70  96 128 164 198 238 287
#     4   9  18  31  46  68  98 128 159 196 237 283
#     4   8  15  29  48  69  92 122 161 201 239 279
#     4  10  20  34  51  70  93 122 158 201 245 286
#
# _framework density 16.216497
#
# number of rings (size 3 to 8) (size 9 to 14) (size 15 to 20)
#    0.000    2.250    1.250    3.000    0.000    5.000 
#    0.000    2.500    0.000    0.000    0.000    0.875 
#    0.000    5.000    0.000    0.000    0.000    0.000 
#
# Total GULP energy -396797.660129 kJ/mol
# GULP energy per Si atom -12399.926879 kJ/mol
# Density = 1.617959 g / cm^3
# Si number density = 16.216497 Si / 1000 Ang^3
#
#
#
# Elastic Constant Matrix: (Units=GPa)
#
#
# Indices 1 2 3 4 5 6 
#
# 1 91.1471 43.4304 50.1948 0.0000 0.0000 0.0000
# 2 43.4304 71.2128 48.6932 0.0000 0.0000 0.0000
# 3 50.1948 48.6932 117.5049 0.0000 0.0000 0.0000
# 4 0.0000 0.0000 0.0000 29.7756 0.0000 0.0000
# 5 0.0000 0.0000 0.0000 0.0000 9.9462 0.0000
# 6 0.0000 0.0000 0.0000 0.0000 0.0000 26.2800
#
#
#
# Elastic Compliance Matrix: (Units=1/GPa)
#
#
# Indices 1 2 3 4 5 6 
#
# 1 0.016759 -0.007431 -0.004079 0.000000 0.000000 0.000000
# 2 -0.007431 0.022890 -0.006311 0.000000 0.000000 0.000000
# 3 -0.004079 -0.006311 0.012868 0.000000 0.000000 0.000000
# 4 0.000000 0.000000 0.000000 0.033585 0.000000 0.000000
# 5 0.000000 0.000000 0.000000 0.000000 0.100541 0.000000
# 6 0.000000 0.000000 0.000000 0.000000 0.000000 0.038052
#
#
# Mechanical properties :
#
#
# Convention : Reuss Voigt Hill
#
# Bulk Modulus (GPa) = 59.26486 62.72240 60.99363
# Shear Modulus (GPa) = 18.79976 22.37013 20.58494
#
# Velocity S-wave (km/s) = 3.40854 3.71815 3.56671
# Velocity P-wave (km/s) = 7.21916 7.56273 7.39294
#
# Compressibility (1/GPa) = 0.01687341
#
# Stress axis : x y z
#
# Youngs Moduli (GPa) = 59.67056 43.68774 77.71156
#
# Poissons Ratio (x) = 0.32465 0.31702
# Poissons Ratio (y) = 0.44342 0.49043
# Poissons Ratio (z) = 0.24342 0.27571
#
# Static dielectric constant tensor:
#      x y z
#    x 3.103670 0.000000 0.000000 
#    y 0.000000 3.110490 0.000000 
#    z 0.000000 0.000000 3.107810 
# 
# 
# High freq. dielectric constant tensor:
#      x y z
#    x 1.607340 0.000000 0.000000 
#    y 0.000000 1.632070 0.000000 
#    z 0.000000 0.000000 1.611380 
# 
# From -- ./inp_files/25037.got.cif
#   From: 2010.03.12/outbox.cif.g09.slc.cpg/sg38_13_cif.got.tgz:25037.got - 2010.04.14 02:38:36.
