data_PCOD8179263
_publ_section_title
;
Structure prediction by ZEFSAII (Michael W. Deem and Ramdas Pophale) SiO2 
 PCOD8179263
Probable space group: A M M 2
;
_chemical_formula_sum "Si O2"
_cell_formula_units_Z 64
_cell_length_a 18.069771
_cell_length_b 22.209304
_cell_length_c 8.427138
_cell_angle_alpha 90.000000
_cell_angle_beta 90.000000
_cell_angle_gamma 90.000000
_cell_volume 3381.954055
_symmetry_space_group_name_H-M "A M M 2"
_symmetry_group_IT_number 38
_symmetry_cell_setting 'orthorhombic'
loop_
_space_group_symop_operation_xyz
x,y,z
-x,-y,z
-x,y,z
x,-y,z
x,1/2+y,1/2+z
-x,1/2-y,1/2+z
-x,1/2+y,1/2+z
x,1/2-y,1/2+z
loop_
_atom_site_type_symbol
_atom_site_label
_atom_site_fract_x
_atom_site_fract_y
_atom_site_fract_z
Si Si1 0.169055 0.258217 0.901100
Si Si2 0.317098 0.432498 0.114603
Si Si3 0.843935 0.066602 0.763265
Si Si4 0.779997 0.644660 0.508404
Si Si5 0.358081 0.827515 0.808331
Si Si6 0.414721 0.281917 0.636062
Si Si7 0.702266 0.651022 0.819789
Si Si8 0.084922 0.818961 0.645902
O O1 0.176050 0.206806 0.041177
O O2 0.246771 0.293673 0.878695
O O3 0.139268 0.221853 0.750355
O O4 0.107108 0.305161 0.963339
O O5 0.350001 0.500000 0.099085
O O6 0.233797 0.435498 0.175002
O O7 0.370897 0.394547 0.234039
O O8 0.312662 0.400932 0.944533
O O9 0.830633 0.090759 0.942647
O O10 0.901334 0.110185 0.674524
O O11 0.879140 0.000000 0.772160
O O12 0.726056 0.670181 0.368168
O O13 0.740491 0.620530 0.665624
O O14 0.371925 0.781991 0.659893
O O15 0.409211 0.808355 0.957352
O O16 0.500000 0.273866 0.680719
O O17 0.378201 0.325893 0.765124
O O18 0.000000 0.803308 0.679213
#
# Coordination Sequence:
#
# PCOD8179263 Si02
#       8
#     8   8   8   8   8   8   8   8
#     4  11  19  34  53  82 114 144 186 227 286 339
#     4  10  21  37  58  83 109 145 197 243 276 328
#     4   9  19  35  54  78 108 145 189 233 280 331
#     4   9  19  31  54  82 109 143 178 234 278 330
#     4  10  20  34  54  82 115 147 181 228 286 332
#     4  11  22  35  58  90 121 147 184 235 294 354
#     4  11  20  34  60  86 113 150 186 237 287 336
#     4  11  22  34  53  80 114 150 186 232 283 341
#
# _framework density 18.923971999999999
#
# number of rings (size 3 to 8) (size 9 to 14) (size 15 to 20)
#    0.000    1.750    3.750    1.500    1.750    0.750 
#    0.000    2.500    0.000    4.125    0.000    0.000 
#    0.000    0.000    0.000    0.000    0.000    0.000 
#
# Total GULP energy -396454.942909 kJ/mol
# GULP energy per Si atom -12389.216966 kJ/mol
# Density = 1.888090 g / cm^3
# Si number density = 18.923972 Si / 1000 Ang^3
#
#
#
# Elastic Constant Matrix: (Units=GPa)
#
#
# Indices 1 2 3 4 5 6 
#
# 1 55.2815 25.0312 19.0289 0.0000 0.0000 0.0000
# 2 25.0312 145.3938 66.9454 0.0000 0.0000 0.0000
# 3 19.0289 66.9454 79.7128 0.0000 0.0000 0.0000
# 4 0.0000 0.0000 0.0000 27.0170 0.0000 0.0000
# 5 0.0000 0.0000 0.0000 0.0000 18.4725 0.0000
# 6 0.0000 0.0000 0.0000 0.0000 0.0000 14.9623
#
#
#
# Elastic Compliance Matrix: (Units=1/GPa)
#
#
# Indices 1 2 3 4 5 6 
#
# 1 0.020072 -0.002037 -0.003081 0.000000 0.000000 0.000000
# 2 -0.002037 0.011421 -0.009106 0.000000 0.000000 0.000000
# 3 -0.003081 -0.009106 0.020928 0.000000 0.000000 0.000000
# 4 0.000000 0.000000 0.000000 0.037014 0.000000 0.000000
# 5 0.000000 0.000000 0.000000 0.000000 0.054135 0.000000
# 6 0.000000 0.000000 0.000000 0.000000 0.000000 0.066835
#
#
# Mechanical properties :
#
#
# Convention : Reuss Voigt Hill
#
# Bulk Modulus (GPa) = 41.71184 55.82212 48.76698
# Shear Modulus (GPa) = 20.25588 23.38253 21.81920
#
# Velocity S-wave (km/s) = 3.27522 3.51893 3.39926
# Velocity P-wave (km/s) = 6.03261 6.78768 6.42125
#
# Compressibility (1/GPa) = 0.02397401
#
# Stress axis : x y z
#
# Youngs Moduli (GPa) = 49.82041 87.55670 47.78378
#
# Poissons Ratio (x) = 0.17837 0.14721
# Poissons Ratio (y) = 0.10149 0.43510
# Poissons Ratio (z) = 0.15348 0.79725
#
# Static dielectric constant tensor:
#      x y z
#    x 3.137990 0.000000 0.000000 
#    y 0.000000 3.750940 0.000000 
#    z 0.000000 0.000000 3.506030 
# 
# 
# High freq. dielectric constant tensor:
#      x y z
#    x 1.705420 0.000000 0.000000 
#    y 0.000000 1.727340 0.000000 
#    z 0.000000 0.000000 1.739380 
# 
# From -- ./inp_files/6871.got.cif
#   From: 2010.03.12/outbox.cif.g09.slc.cpg/sg38_4_cif.got.tgz:6871.got - 2010.04.14 02:38:36.
