data_PCOD8179695
_publ_section_title
;
Structure prediction by ZEFSAII (Michael W. Deem and Ramdas Pophale) SiO2 
 PCOD8179695
Probable space group: A M M 2
;
_chemical_formula_sum "Si O2"
_cell_formula_units_Z 48
_cell_length_a 17.132766
_cell_length_b 8.702254
_cell_length_c 15.959695
_cell_angle_alpha 90.000000
_cell_angle_beta 90.000000
_cell_angle_gamma 90.000000
_cell_volume 2379.489682
_symmetry_space_group_name_H-M "A M M 2"
_symmetry_group_IT_number 38
_symmetry_cell_setting 'orthorhombic'
loop_
_space_group_symop_operation_xyz
x,y,z
-x,-y,z
-x,y,z
x,-y,z
x,1/2+y,1/2+z
-x,1/2-y,1/2+z
-x,1/2+y,1/2+z
x,1/2-y,1/2+z
loop_
_atom_site_type_symbol
_atom_site_label
_atom_site_fract_x
_atom_site_fract_y
_atom_site_fract_z
Si Si1 0.000000 0.167079 0.645061
Si Si2 0.590846 0.320077 0.746265
Si Si3 0.846606 0.822031 0.396268
Si Si4 0.681340 0.323982 0.586312
Si Si5 0.000000 0.834031 0.834601
Si Si6 0.143977 0.823636 0.070009
Si Si7 0.683785 0.817819 0.896985
O O1 0.000000 0.121420 0.739626
O O2 0.075684 0.271739 0.630714
O O3 0.000000 0.000000 0.596417
O O4 0.500000 0.285527 0.738005
O O5 0.609670 0.500000 0.753743
O O6 0.630951 0.248472 0.661897
O O7 0.619871 0.240955 0.831587
O O8 0.860426 0.792487 0.493415
O O9 0.768851 0.735302 0.365178
O O10 0.923180 0.763746 0.350525
O O11 0.834929 0.000000 0.376960
O O12 0.655627 0.500000 0.580654
O O13 0.771722 0.305926 0.613694
O O14 0.667193 0.253456 0.492326
O O15 0.000000 0.000000 0.883819
O O16 0.132188 0.000000 0.040618
O O17 0.683199 0.000000 0.899588
#
# Coordination Sequence:
#
# PCOD8179695 Si02
#       7
#     4   8   8   8   4   8   8
#     4  11  24  37  52  81 117 151 194 243 294 343
#     4  10  21  38  61  90 121 154 194 244 299 360
#     4  11  22  38  60  84 113 153 199 243 296 351
#     4   8  18  37  60  85 114 155 199 238 288 355
#     4  11  24  39  54  81 119 155 196 245 294 341
#     4  10  20  37  59  81 111 152 198 242 290 348
#     4  10  21  39  62  89 120 157 200 247 301 357
#
# _framework density 20.172391000000001
#
# number of rings (size 3 to 8) (size 9 to 14) (size 15 to 20)
#    0.000    2.000    0.000    4.500    2.333    2.333 
#    0.000    5.833    0.000    0.000    0.000    0.000 
#    0.000    0.000    0.000    0.000    0.000    0.000 
#
# Total GULP energy -297444.780324 kJ/mol
# GULP energy per Si atom -12393.532514 kJ/mol
# Density = 2.012648 g / cm^3
# Si number density = 20.172391 Si / 1000 Ang^3
#
#
#
# Elastic Constant Matrix: (Units=GPa)
#
#
# Indices 1 2 3 4 5 6 
#
# 1 131.9198 46.9720 68.3611 0.0000 0.0000 0.0000
# 2 46.9720 83.8302 34.6961 0.0000 0.0000 0.0000
# 3 68.3611 34.6961 102.4018 0.0000 0.0000 0.0000
# 4 0.0000 0.0000 0.0000 23.4999 0.0000 0.0000
# 5 0.0000 0.0000 0.0000 0.0000 37.6582 0.0000
# 6 0.0000 0.0000 0.0000 0.0000 0.0000 29.3710
#
#
#
# Elastic Compliance Matrix: (Units=1/GPa)
#
#
# Indices 1 2 3 4 5 6 
#
# 1 0.012752 -0.004213 -0.007086 0.000000 0.000000 0.000000
# 2 -0.004213 0.015266 -0.002360 0.000000 0.000000 0.000000
# 3 -0.007086 -0.002360 0.015295 0.000000 0.000000 0.000000
# 4 0.000000 0.000000 0.000000 0.042553 0.000000 0.000000
# 5 0.000000 0.000000 0.000000 0.000000 0.026555 0.000000
# 6 0.000000 0.000000 0.000000 0.000000 0.000000 0.034047
#
#
# Mechanical properties :
#
#
# Convention : Reuss Voigt Hill
#
# Bulk Modulus (GPa) = 62.51360 68.69004 65.60182
# Shear Modulus (GPa) = 27.91449 29.31399 28.61424
#
# Velocity S-wave (km/s) = 3.72398 3.81619 3.77036
# Velocity P-wave (km/s) = 7.03901 7.31732 7.17951
#
# Compressibility (1/GPa) = 0.01599652
#
# Stress axis : x y z
#
# Youngs Moduli (GPa) = 78.41797 65.50414 65.37901
#
# Poissons Ratio (x) = 0.27595 0.46326
# Poissons Ratio (y) = 0.33035 0.15431
# Poissons Ratio (z) = 0.55565 0.15461
#
# Static dielectric constant tensor:
#      x y z
#    x 3.536770 0.000000 0.000000 
#    y 0.000000 3.544640 0.000000 
#    z 0.000000 0.000000 3.756020 
# 
# 
# High freq. dielectric constant tensor:
#      x y z
#    x 1.791020 0.000000 0.000000 
#    y 0.000000 1.776880 0.000000 
#    z 0.000000 0.000000 1.784720 
# 
# From -- ./inp_files/18180.got.cif
#   From: 2010.03.12/outbox.cif.g09.slc.cpg/sg38_10_cif.got.tgz:18180.got - 2010.04.14 02:38:36.
