data_PCOD8179139
_publ_section_title
;
Structure prediction by ZEFSAII (Michael W. Deem and Ramdas Pophale) SiO2 
 PCOD8179139
Probable space group: A M M 2
;
_chemical_formula_sum "Si O2"
_cell_formula_units_Z 48
_cell_length_a 16.612377
_cell_length_b 8.659644
_cell_length_c 18.327846
_cell_angle_alpha 90.000000
_cell_angle_beta 90.000000
_cell_angle_gamma 90.000000
_cell_volume 2636.593905
_symmetry_space_group_name_H-M "A M M 2"
_symmetry_group_IT_number 38
_symmetry_cell_setting 'orthorhombic'
loop_
_space_group_symop_operation_xyz
x,y,z
-x,-y,z
-x,y,z
x,-y,z
x,1/2+y,1/2+z
-x,1/2-y,1/2+z
-x,1/2+y,1/2+z
x,1/2-y,1/2+z
loop_
_atom_site_type_symbol
_atom_site_label
_atom_site_fract_x
_atom_site_fract_y
_atom_site_fract_z
Si Si1 0.408887 0.180750 0.417680
Si Si2 0.733907 0.676365 0.328467
Si Si3 0.232297 0.321471 0.676880
Si Si4 0.910052 0.179729 0.586377
Si Si5 0.323924 0.823552 0.557617
Si Si6 0.184421 0.823039 0.972222
O O1 0.500000 0.221233 0.395455
O O2 0.350156 0.279319 0.366662
O O3 0.397829 0.223065 0.504105
O O4 0.389619 0.000000 0.406496
O O5 0.727356 0.500000 0.302018
O O6 0.752021 0.784936 0.260797
O O7 0.808878 0.696756 0.384923
O O8 0.214253 0.500000 0.667924
O O9 0.154034 0.231536 0.647588
O O10 0.313492 0.277608 0.631140
O O11 0.899918 0.272983 0.509104
O O12 0.000000 0.214646 0.615441
O O13 0.898152 0.000000 0.570894
O O14 0.245282 0.797317 0.508807
O O15 0.330759 0.000000 0.582754
O O16 0.205576 0.000000 0.993290
#
# Coordination Sequence:
#
# PCOD8179139 Si02
#       6
#     8   8   8   8   8   8
#     4   9  18  33  53  77 103 131 166 209 255 301
#     4  10  20  34  52  75 103 136 172 208 251 303
#     4  11  21  33  52  75 101 135 172 211 253 299
#     4  10  20  34  53  76 102 131 164 206 254 303
#     4   9  16  29  50  72  97 129 163 201 244 295
#     4   9  17  30  50  73  96 125 163 203 241 290
#
# _framework density 18.205304999999999
#
# number of rings (size 3 to 8) (size 9 to 14) (size 15 to 20)
#    0.000    2.333    0.000    5.500    0.000    4.333 
#    0.000    1.667    0.000    4.000    0.000    0.000 
#    0.000    0.000    0.000    0.000    0.000    0.000 
#
# Total GULP energy -297389.080698 kJ/mol
# GULP energy per Si atom -12391.211696 kJ/mol
# Density = 1.816387 g / cm^3
# Si number density = 18.205305 Si / 1000 Ang^3
#
#
#
# Elastic Constant Matrix: (Units=GPa)
#
#
# Indices 1 2 3 4 5 6 
#
# 1 71.4581 23.7361 31.3686 0.0000 0.0000 0.0000
# 2 23.7361 65.1285 30.3171 0.0000 0.0000 0.0000
# 3 31.3686 30.3171 109.8763 0.0000 0.0000 0.0000
# 4 0.0000 0.0000 0.0000 29.4990 0.0000 0.0000
# 5 0.0000 0.0000 0.0000 0.0000 19.2159 0.0000
# 6 0.0000 0.0000 0.0000 0.0000 0.0000 21.1001
#
#
#
# Elastic Compliance Matrix: (Units=1/GPa)
#
#
# Indices 1 2 3 4 5 6 
#
# 1 0.017095 -0.004542 -0.003627 0.000000 0.000000 0.000000
# 2 -0.004542 0.018824 -0.003897 0.000000 0.000000 0.000000
# 3 -0.003627 -0.003897 0.011212 0.000000 0.000000 0.000000
# 4 0.000000 0.000000 0.000000 0.033899 0.000000 0.000000
# 5 0.000000 0.000000 0.000000 0.000000 0.052040 0.000000
# 6 0.000000 0.000000 0.000000 0.000000 0.000000 0.047393
#
#
# Mechanical properties :
#
#
# Convention : Reuss Voigt Hill
#
# Bulk Modulus (GPa) = 43.48169 46.36739 44.92454
# Shear Modulus (GPa) = 23.55575 24.69908 24.12741
#
# Velocity S-wave (km/s) = 3.60098 3.68733 3.64441
# Velocity P-wave (km/s) = 6.42069 6.60704 6.51453
#
# Compressibility (1/GPa) = 0.02299818
#
# Stress axis : x y z
#
# Youngs Moduli (GPa) = 58.49600 53.12467 89.19005
#
# Poissons Ratio (x) = 0.24128 0.32352
# Poissons Ratio (y) = 0.26568 0.34759
# Poissons Ratio (z) = 0.21218 0.20704
#
# Static dielectric constant tensor:
#      x y z
#    x 3.374690 0.000000 0.000000 
#    y 0.000000 3.388750 0.000000 
#    z 0.000000 0.000000 3.435770 
# 
# 
# High freq. dielectric constant tensor:
#      x y z
#    x 1.676920 0.000000 0.000000 
#    y 0.000000 1.717740 0.000000 
#    z 0.000000 0.000000 1.698600 
# 
# From -- ./inp_files/18573.got.cif
#   From: 2010.03.12/outbox.cif.g09.slc.cpg/sg38_10_cif.got.tgz:18573.got - 2010.04.14 02:38:36.
