data_PCOD8179023
_publ_section_title
;
Structure prediction by ZEFSAII (Michael W. Deem and Ramdas Pophale) SiO2 
 PCOD8179023
Probable space group: A M M 2
;
_chemical_formula_sum "Si O2"
_cell_formula_units_Z 64
_cell_length_a 9.105604
_cell_length_b 9.535502
_cell_length_c 41.164687
_cell_angle_alpha 90.000000
_cell_angle_beta 90.000000
_cell_angle_gamma 90.000000
_cell_volume 3574.185908
_symmetry_space_group_name_H-M "A M M 2"
_symmetry_group_IT_number 38
_symmetry_cell_setting 'orthorhombic'
loop_
_space_group_symop_operation_xyz
x,y,z
-x,-y,z
-x,y,z
x,-y,z
x,1/2+y,1/2+z
-x,1/2-y,1/2+z
-x,1/2+y,1/2+z
x,1/2-y,1/2+z
loop_
_atom_site_type_symbol
_atom_site_label
_atom_site_fract_x
_atom_site_fract_y
_atom_site_fract_z
Si Si1 0.165685 0.167031 0.426340
Si Si2 0.670778 0.836569 0.109148
Si Si3 0.334406 0.166809 0.489106
Si Si4 0.672031 0.160946 0.800850
Si Si5 0.831031 0.337722 0.674838
Si Si6 0.328720 0.662523 0.862147
Si Si7 0.828401 0.661121 0.236132
Si Si8 0.171530 0.664034 0.053768
O O1 0.253689 0.227773 0.457260
O O2 0.242849 0.219938 0.393504
O O3 0.000000 0.224905 0.427450
O O4 0.167380 0.000000 0.427487
O O5 0.500000 0.797378 0.107333
O O6 0.731000 0.795442 0.144472
O O7 0.759716 0.747304 0.083366
O O8 0.698119 0.000000 0.102037
O O9 0.500000 0.226198 0.490375
O O10 0.247259 0.218080 0.520797
O O11 0.335947 0.000000 0.487602
O O12 0.500000 0.180575 0.795944
O O13 0.728845 0.251750 0.831144
O O14 0.748893 0.217608 0.768349
O O15 0.715159 0.000000 0.807488
O O16 0.813209 0.500000 0.683763
O O17 0.772819 0.249799 0.705444
O O18 0.000000 0.300727 0.666570
O O19 0.500000 0.688562 0.868581
O O20 0.294745 0.500000 0.855662
O O21 0.786858 0.500000 0.229522
O O22 0.000000 0.682452 0.241608
O O23 0.201189 0.500000 0.059351
O O24 0.000000 0.697286 0.051272
#
# Coordination Sequence:
#
# PCOD8179023 Si02
#       8
#     8   8   8   8   8   8   8   8
#     4   9  16  26  42  66  95 124 155 194 239 284
#     4  10  21  36  53  74 101 133 167 202 244 295
#     4   9  16  27  45  69  98 130 161 197 243 290
#     4   9  18  32  48  66  91 123 155 187 229 281
#     4   9  18  33  51  70  94 125 159 195 238 287
#     4   9  17  29  45  66  91 119 153 192 233 277
#     4   9  18  32  49  69  93 121 154 192 234 281
#     4  10  20  33  51  76 103 131 166 207 248 291
#
# _framework density 17.906175999999999
#
# number of rings (size 3 to 8) (size 9 to 14) (size 15 to 20)
#    0.000    2.750    0.000    1.500    0.000    6.500 
#    0.000    1.250    0.000    0.750    0.000    1.750 
#    0.000    0.000    0.000    0.000    0.000    0.000 
#
# Total GULP energy -396851.823257 kJ/mol
# GULP energy per Si atom -12401.619477 kJ/mol
# Density = 1.786542 g / cm^3
# Si number density = 17.906176 Si / 1000 Ang^3
#
#
#
# Elastic Constant Matrix: (Units=GPa)
#
#
# Indices 1 2 3 4 5 6 
#
# 1 106.9315 37.3529 84.6592 0.0000 0.0000 0.0000
# 2 37.3529 42.9680 61.9605 0.0000 0.0000 0.0000
# 3 84.6592 61.9605 183.7245 0.0000 0.0000 0.0000
# 4 0.0000 0.0000 0.0000 26.4798 0.0000 0.0000
# 5 0.0000 0.0000 0.0000 0.0000 41.1131 0.0000
# 6 0.0000 0.0000 0.0000 0.0000 0.0000 18.5428
#
#
#
# Elastic Compliance Matrix: (Units=1/GPa)
#
#
# Indices 1 2 3 4 5 6 
#
# 1 0.015525 -0.006191 -0.005066 0.000000 0.000000 0.000000
# 2 -0.006191 0.047775 -0.013259 0.000000 0.000000 0.000000
# 3 -0.005066 -0.013259 0.012249 0.000000 0.000000 0.000000
# 4 0.000000 0.000000 0.000000 0.037765 0.000000 0.000000
# 5 0.000000 0.000000 0.000000 0.000000 0.024323 0.000000
# 6 0.000000 0.000000 0.000000 0.000000 0.000000 0.053929
#
#
# Mechanical properties :
#
#
# Convention : Reuss Voigt Hill
#
# Bulk Modulus (GPa) = 37.71210 77.95213 57.83212
# Shear Modulus (GPa) = 20.04506 27.20390 23.62448
#
# Velocity S-wave (km/s) = 3.34945 3.90198 3.63622
# Velocity P-wave (km/s) = 6.00542 7.99555 7.07085
#
# Compressibility (1/GPa) = 0.02651669
#
# Stress axis : x y z
#
# Youngs Moduli (GPa) = 64.41105 20.93141 81.63971
#
# Poissons Ratio (x) = 0.12959 0.41359
# Poissons Ratio (y) = 0.39878 1.08247
# Poissons Ratio (z) = 0.32631 0.27753
#
# Static dielectric constant tensor:
#      x y z
#    x 3.407190 0.000000 0.000000 
#    y 0.000000 3.040680 0.000000 
#    z 0.000000 0.000000 3.493170 
# 
# 
# High freq. dielectric constant tensor:
#      x y z
#    x 1.698430 0.000000 0.000000 
#    y 0.000000 1.656570 0.000000 
#    z 0.000000 0.000000 1.706450 
# 
# From -- ./inp_files/24612.got.cif
#   From: 2010.03.12/outbox.cif.g09.slc.cpg/sg38_13_cif.got.tgz:24612.got - 2010.04.14 02:38:36.
