data_PCOD8179792
_publ_section_title
;
Structure prediction by ZEFSAII (Michael W. Deem and Ramdas Pophale) SiO2 
 PCOD8179792
Probable space group: A M M 2
;
_chemical_formula_sum "Si O2"
_cell_formula_units_Z 48
_cell_length_a 8.800097
_cell_length_b 21.909402
_cell_length_c 12.827483
_cell_angle_alpha 90.000000
_cell_angle_beta 90.000000
_cell_angle_gamma 90.000000
_cell_volume 2473.201100
_symmetry_space_group_name_H-M "A M M 2"
_symmetry_group_IT_number 38
_symmetry_cell_setting 'orthorhombic'
loop_
_space_group_symop_operation_xyz
x,y,z
-x,-y,z
-x,y,z
x,-y,z
x,1/2+y,1/2+z
-x,1/2-y,1/2+z
-x,1/2+y,1/2+z
x,1/2-y,1/2+z
loop_
_atom_site_type_symbol
_atom_site_label
_atom_site_fract_x
_atom_site_fract_y
_atom_site_fract_z
Si Si1 0.321739 0.069452 0.684120
Si Si2 0.171984 0.737725 0.861269
Si Si3 0.828713 0.625592 0.987884
Si Si4 0.678986 0.874439 0.283169
Si Si5 0.322169 0.364785 0.394990
Si Si6 0.824542 0.569696 0.586146
O O1 0.500000 0.074986 0.666557
O O2 0.241320 0.111481 0.599357
O O3 0.275598 0.093188 0.797784
O O4 0.265437 0.000000 0.672921
O O5 0.240791 0.692409 0.772309
O O6 0.280090 0.795481 0.870369
O O7 0.000000 0.757114 0.831291
O O8 0.173204 0.699313 0.970246
O O9 0.000000 0.600098 0.983067
O O10 0.732616 0.594676 0.893044
O O11 0.500000 0.865899 0.282881
O O12 0.728128 0.917553 0.189253
O O13 0.500000 0.369644 0.419871
O O14 0.228142 0.386624 0.493900
O O15 0.796189 0.500000 0.552333
O O16 0.000000 0.582710 0.610479
#
# Coordination Sequence:
#
# PCOD8179792 Si02
#       6
#     8   8   8   8   8   8
#     4  10  22  39  59  85 118 155 195 241 290 344
#     4   9  20  39  60  88 122 153 193 242 295 352
#     4   9  20  38  60  88 118 152 193 240 293 350
#     4  10  20  38  63  90 118 151 195 244 299 355
#     4  11  23  39  61  88 120 157 199 245 293 348
#     4  11  24  41  61  86 119 159 201 245 296 355
#
# _framework density 19.408045000000001
#
# number of rings (size 3 to 8) (size 9 to 14) (size 15 to 20)
#    1.000    1.000    0.000    3.500    0.000    5.667 
#    0.000    3.333    0.000    0.000    0.000    0.000 
#    0.000    0.000    0.000    0.000    0.000    0.000 
#
# Total GULP energy -297534.069688 kJ/mol
# GULP energy per Si atom -12397.252904 kJ/mol
# Density = 1.936387 g / cm^3
# Si number density = 19.408045 Si / 1000 Ang^3
#
#
#
# Elastic Constant Matrix: (Units=GPa)
#
#
# Indices 1 2 3 4 5 6 
#
# 1 89.2204 26.0583 45.8727 0.0000 0.0000 0.0000
# 2 26.0583 70.7390 12.1057 0.0000 0.0000 0.0000
# 3 45.8727 12.1057 75.9171 0.0000 0.0000 0.0000
# 4 0.0000 0.0000 0.0000 30.7559 0.0000 0.0000
# 5 0.0000 0.0000 0.0000 0.0000 33.0510 0.0000
# 6 0.0000 0.0000 0.0000 0.0000 0.0000 23.0048
#
#
#
# Elastic Compliance Matrix: (Units=1/GPa)
#
#
# Indices 1 2 3 4 5 6 
#
# 1 0.017732 -0.004830 -0.009944 0.000000 0.000000 0.000000
# 2 -0.004830 0.015849 0.000391 0.000000 0.000000 0.000000
# 3 -0.009944 0.000391 0.019119 0.000000 0.000000 0.000000
# 4 0.000000 0.000000 0.000000 0.032514 0.000000 0.000000
# 5 0.000000 0.000000 0.000000 0.000000 0.030256 0.000000
# 6 0.000000 0.000000 0.000000 0.000000 0.000000 0.043469
#
#
# Mechanical properties :
#
#
# Convention : Reuss Voigt Hill
#
# Bulk Modulus (GPa) = 41.78285 44.88333 43.33309
# Shear Modulus (GPa) = 25.55166 27.48500 26.51833
#
# Velocity S-wave (km/s) = 3.63237 3.76728 3.70044
# Velocity P-wave (km/s) = 6.25839 6.48842 6.37444
#
# Compressibility (1/GPa) = 0.02393326
#
# Stress axis : x y z
#
# Youngs Moduli (GPa) = 56.39629 63.09638 52.30517
#
# Poissons Ratio (x) = 0.30476 0.52013
# Poissons Ratio (y) = 0.27240 -0.02047
# Poissons Ratio (z) = 0.56081 -0.02469
#
# Static dielectric constant tensor:
#      x y z
#    x 3.581060 0.000000 0.000000 
#    y 0.000000 3.412100 0.000000 
#    z 0.000000 0.000000 3.394560 
# 
# 
# High freq. dielectric constant tensor:
#      x y z
#    x 1.768630 0.000000 0.000000 
#    y 0.000000 1.747600 0.000000 
#    z 0.000000 0.000000 1.747560 
# 
# From -- ./inp_files/12251.got.cif
#   From: 2010.03.12/outbox.cif.g09.slc.cpg/sg38_7_cif.got.tgz:12251.got - 2010.04.14 02:38:36.
