data_PCOD8179542
_publ_section_title
;
Structure prediction by ZEFSAII (Michael W. Deem and Ramdas Pophale) SiO2 
 PCOD8179542
Probable space group: A M M 2
;
_chemical_formula_sum "Si O2"
_cell_formula_units_Z 40
_cell_length_a 7.798511
_cell_length_b 8.732218
_cell_length_c 29.481039
_cell_angle_alpha 90.000000
_cell_angle_beta 90.000000
_cell_angle_gamma 90.000000
_cell_volume 2007.608583
_symmetry_space_group_name_H-M "A M M 2"
_symmetry_group_IT_number 38
_symmetry_cell_setting 'orthorhombic'
loop_
_space_group_symop_operation_xyz
x,y,z
-x,-y,z
-x,y,z
x,-y,z
x,1/2+y,1/2+z
-x,1/2-y,1/2+z
-x,1/2+y,1/2+z
x,1/2-y,1/2+z
loop_
_atom_site_type_symbol
_atom_site_label
_atom_site_fract_x
_atom_site_fract_y
_atom_site_fract_z
Si Si1 0.500000 0.819270 0.644290
Si Si2 0.802137 0.180052 0.086850
Si Si3 0.302483 0.173001 0.398753
Si Si4 0.798491 0.328532 0.994118
Si Si5 0.500000 0.682789 0.743118
Si Si6 0.810960 0.818954 0.304557
O O1 0.675188 0.758266 0.622255
O O2 0.500000 0.766755 0.695757
O O3 0.500000 0.000000 0.640636
O O4 0.739945 0.226134 0.036495
O O5 0.000000 0.232385 0.095720
O O6 0.784882 0.000000 0.092500
O O7 0.500000 0.177001 0.386133
O O8 0.266693 0.252767 0.447439
O O9 0.208979 0.251372 0.355515
O O10 0.233490 0.000000 0.404789
O O11 0.720154 0.500000 0.000009
O O12 0.000000 0.337314 0.991979
O O13 0.500000 0.500000 0.736213
O O14 0.331892 0.742422 0.769994
O O15 0.000000 0.776334 0.285837
O O16 0.785025 0.000000 0.309195
#
# Coordination Sequence:
#
# PCOD8179542 Si02
#       6
#     4   8   8   8   4   8
#     4  12  26  42  63  86 113 149 190 241 297 356
#     4  10  22  41  63  87 117 152 193 240 289 345
#     4   9  15  24  42  74 114 150 185 225 269 321
#     4   9  17  29  48  78 115 152 190 230 274 328
#     4  10  20  36  55  80 109 137 182 239 287 340
#     4   9  16  28  49  77 110 146 182 226 278 327
#
# _framework density 19.924199999999999
#
# number of rings (size 3 to 8) (size 9 to 14) (size 15 to 20)
#    0.000    2.400    1.000    2.100    1.400    4.400 
#    0.000    2.000    0.000    1.200    0.000    0.000 
#    0.000    0.000    0.000    0.000    0.000    0.000 
#
# Total GULP energy -247882.764329 kJ/mol
# GULP energy per Si atom -12394.138216 kJ/mol
# Density = 1.987885 g / cm^3
# Si number density = 19.924200 Si / 1000 Ang^3
#
#
#
# Elastic Constant Matrix: (Units=GPa)
#
#
# Indices 1 2 3 4 5 6 
#
# 1 124.5917 33.6920 84.5469 0.0000 0.0000 0.0000
# 2 33.6920 55.2273 38.1404 0.0000 0.0000 0.0000
# 3 84.5469 38.1404 174.3543 0.0000 0.0000 0.0000
# 4 0.0000 0.0000 0.0000 24.9363 0.0000 0.0000
# 5 0.0000 0.0000 0.0000 0.0000 30.5332 0.0000
# 6 0.0000 0.0000 0.0000 0.0000 0.0000 15.6870
#
#
#
# Elastic Compliance Matrix: (Units=1/GPa)
#
#
# Indices 1 2 3 4 5 6 
#
# 1 0.012712 -0.004120 -0.005263 0.000000 0.000000 0.000000
# 2 -0.004120 0.022665 -0.002960 0.000000 0.000000 0.000000
# 3 -0.005263 -0.002960 0.008935 0.000000 0.000000 0.000000
# 4 0.000000 0.000000 0.000000 0.040102 0.000000 0.000000
# 5 0.000000 0.000000 0.000000 0.000000 0.032751 0.000000
# 6 0.000000 0.000000 0.000000 0.000000 0.000000 0.063747
#
#
# Mechanical properties :
#
#
# Convention : Reuss Voigt Hill
#
# Bulk Modulus (GPa) = 50.95466 74.10354 62.52910
# Shear Modulus (GPa) = 23.56936 27.41757 25.49346
#
# Velocity S-wave (km/s) = 3.44314 3.71360 3.58092
# Velocity P-wave (km/s) = 6.43713 7.46064 6.96771
#
# Compressibility (1/GPa) = 0.01962529
#
# Stress axis : x y z
#
# Youngs Moduli (GPa) = 78.66760 44.12112 111.92050
#
# Poissons Ratio (x) = 0.18180 0.58901
# Poissons Ratio (y) = 0.32415 0.33128
# Poissons Ratio (z) = 0.41401 0.13060
#
# Static dielectric constant tensor:
#      x y z
#    x 3.713580 0.000000 0.000000 
#    y 0.000000 3.176160 0.000000 
#    z 0.000000 0.000000 3.822780 
# 
# 
# High freq. dielectric constant tensor:
#      x y z
#    x 1.787830 0.000000 0.000000 
#    y 0.000000 1.715610 0.000000 
#    z 0.000000 0.000000 1.788490 
# 
# From -- ./inp_files/23258.got.cif
#   From: 2010.03.12/outbox.cif.g09.slc.cpg/sg38_12_cif.got.tgz:23258.got - 2010.04.14 02:38:36.
