data_PCOD8179514
_publ_section_title
;
Structure prediction by ZEFSAII (Michael W. Deem and Ramdas Pophale) SiO2 
 PCOD8179514
Probable space group: A M M 2
;
_chemical_formula_sum "Si O2"
_cell_formula_units_Z 64
_cell_length_a 17.629889
_cell_length_b 13.508607
_cell_length_c 12.979434
_cell_angle_alpha 90.000000
_cell_angle_beta 90.000000
_cell_angle_gamma 90.000000
_cell_volume 3091.120245
_symmetry_space_group_name_H-M "A M M 2"
_symmetry_group_IT_number 38
_symmetry_cell_setting 'orthorhombic'
loop_
_space_group_symop_operation_xyz
x,y,z
-x,-y,z
-x,y,z
x,-y,z
x,1/2+y,1/2+z
-x,1/2-y,1/2+z
-x,1/2+y,1/2+z
x,1/2-y,1/2+z
loop_
_atom_site_type_symbol
_atom_site_label
_atom_site_fract_x
_atom_site_fract_y
_atom_site_fract_z
Si Si1 0.085796 0.889669 0.985840
Si Si2 0.800813 0.114249 0.452826
Si Si3 0.585830 0.776186 0.391885
Si Si4 0.650223 0.612335 0.266461
Si Si5 0.293505 0.614501 0.762160
Si Si6 0.176820 0.116009 0.787700
Si Si7 0.913146 0.195364 0.595226
Si Si8 0.681465 0.228159 0.583463
O O1 0.137467 0.850552 0.892813
O O2 0.000000 0.891766 0.944068
O O3 0.110783 0.000000 0.022447
O O4 0.093665 0.814058 0.080311
O O5 0.782862 0.134971 0.331431
O O6 0.886839 0.137969 0.489748
O O7 0.755047 0.189837 0.525073
O O8 0.780149 0.000000 0.477198
O O9 0.500000 0.814649 0.400748
O O10 0.588027 0.676675 0.324808
O O11 0.635621 0.861963 0.337836
O O12 0.616826 0.741886 0.502915
O O13 0.631596 0.500000 0.290388
O O14 0.735160 0.645001 0.301043
O O15 0.645338 0.636127 0.145667
O O16 0.297820 0.500000 0.728098
O O17 0.295898 0.680679 0.659000
O O18 0.139497 0.170599 0.691624
O O19 0.167380 0.000000 0.767241
O O20 0.000000 0.164045 0.616622
#
# Coordination Sequence:
#
# PCOD8179514 Si02
#       8
#     8   8   8   8   8   8   8   8
#     4   9  20  37  55  79 116 158 198 243 294 347
#     4  10  20  36  57  82 118 156 196 243 292 348
#     4  10  23  40  59  87 119 150 188 241 294 353
#     4  10  21  37  60  88 116 152 191 240 294 345
#     4   9  21  40  61  85 116 157 197 237 287 352
#     4  10  20  35  59  86 115 152 200 246 290 351
#     4  11  22  33  57  91 121 155 199 250 297 338
#     4  10  20  36  62  86 113 154 194 239 284 348
#
# _framework density 20.704469
#
# number of rings (size 3 to 8) (size 9 to 14) (size 15 to 20)
#    0.000    2.125    1.250    1.125    5.250    5.000 
#    0.000    0.625    0.000    1.500    0.000    3.500 
#    0.000    0.000    0.000    0.000    0.000    0.000 
#
# Total GULP energy -396669.447505 kJ/mol
# GULP energy per Si atom -12395.920235 kJ/mol
# Density = 2.065734 g / cm^3
# Si number density = 20.704469 Si / 1000 Ang^3
#
#
#
# Elastic Constant Matrix: (Units=GPa)
#
#
# Indices 1 2 3 4 5 6 
#
# 1 49.2917 9.2067 10.4280 0.0000 0.0000 0.0000
# 2 9.2067 69.0863 16.4747 0.0000 0.0000 0.0000
# 3 10.4280 16.4747 64.8263 0.0000 0.0000 0.0000
# 4 0.0000 0.0000 0.0000 23.2595 0.0000 0.0000
# 5 0.0000 0.0000 0.0000 0.0000 7.2430 0.0000
# 6 0.0000 0.0000 0.0000 0.0000 0.0000 22.2926
#
#
#
# Elastic Compliance Matrix: (Units=1/GPa)
#
#
# Indices 1 2 3 4 5 6 
#
# 1 0.021298 -0.002152 -0.002879 0.000000 0.000000 0.000000
# 2 -0.002152 0.015626 -0.003625 0.000000 0.000000 0.000000
# 3 -0.002879 -0.003625 0.016810 0.000000 0.000000 0.000000
# 4 0.000000 0.000000 0.000000 0.042993 0.000000 0.000000
# 5 0.000000 0.000000 0.000000 0.000000 0.138064 0.000000
# 6 0.000000 0.000000 0.000000 0.000000 0.000000 0.044858
#
#
# Mechanical properties :
#
#
# Convention : Reuss Voigt Hill
#
# Bulk Modulus (GPa) = 27.45544 28.38033 27.91789
# Shear Modulus (GPa) = 16.17589 20.36537 18.27063
#
# Velocity S-wave (km/s) = 2.79816 3.13968 2.97383
# Velocity P-wave (km/s) = 4.87125 5.18464 5.03039
#
# Compressibility (1/GPa) = 0.03642265
#
# Stress axis : x y z
#
# Youngs Moduli (GPa) = 46.95191 63.99669 59.48762
#
# Poissons Ratio (x) = 0.13770 0.17128
# Poissons Ratio (y) = 0.10103 0.21564
# Poissons Ratio (z) = 0.13519 0.23198
#
# Static dielectric constant tensor:
#      x y z
#    x 3.696390 0.000000 0.000000 
#    y 0.000000 3.810540 0.000000 
#    z 0.000000 0.000000 3.697000 
# 
# 
# High freq. dielectric constant tensor:
#      x y z
#    x 1.795320 0.000000 0.000000 
#    y 0.000000 1.817240 0.000000 
#    z 0.000000 0.000000 1.804550 
# 
# From -- ./inp_files/10616.got.cif
#   From: 2010.03.12/outbox.cif.g09.slc.cpg/sg38_6_cif.got.tgz:10616.got - 2010.04.14 02:38:36.
