data_PCOD8179399
_publ_section_title
;
Structure prediction by ZEFSAII (Michael W. Deem and Ramdas Pophale) SiO2 
 PCOD8179399
Probable space group: A M M 2
;
_chemical_formula_sum "Si O2"
_cell_formula_units_Z 56
_cell_length_a 17.596820
_cell_length_b 18.686706
_cell_length_c 9.266252
_cell_angle_alpha 90.000000
_cell_angle_beta 90.000000
_cell_angle_gamma 90.000000
_cell_volume 3046.990157
_symmetry_space_group_name_H-M "A M M 2"
_symmetry_group_IT_number 38
_symmetry_cell_setting 'orthorhombic'
loop_
_space_group_symop_operation_xyz
x,y,z
-x,-y,z
-x,y,z
x,-y,z
x,1/2+y,1/2+z
-x,1/2-y,1/2+z
-x,1/2+y,1/2+z
x,1/2-y,1/2+z
loop_
_atom_site_type_symbol
_atom_site_label
_atom_site_fract_x
_atom_site_fract_y
_atom_site_fract_z
Si Si1 0.811490 0.301317 0.757610
Si Si2 0.911436 0.082710 0.146947
Si Si3 0.643338 0.693934 0.863285
Si Si4 0.825136 0.827060 0.942108
Si Si5 0.585477 0.581813 0.651093
Si Si6 0.410745 0.674216 0.181096
Si Si7 0.317640 0.583090 0.374152
O O1 0.864569 0.372818 0.769253
O O2 0.733429 0.312137 0.842417
O O3 0.854650 0.233136 0.829685
O O4 0.795170 0.287050 0.587790
O O5 0.000000 0.090392 0.178850
O O6 0.885492 0.000000 0.150262
O O7 0.891831 0.117267 0.989341
O O8 0.602733 0.625678 0.794481
O O9 0.607935 0.765141 0.797130
O O10 0.626602 0.696277 0.031571
O O11 0.758382 0.870462 0.863659
O O12 0.500000 0.597282 0.596887
O O13 0.596319 0.500000 0.695237
O O14 0.641930 0.603800 0.523867
O O15 0.500000 0.662620 0.163164
O O16 0.372826 0.601271 0.240373
O O17 0.296710 0.500000 0.367710
#
# Coordination Sequence:
#
# PCOD8179399 Si02
#       7
#     8   8   8   8   8   8   8
#     4  10  21  36  62  87 121 154 194 241 292 352
#     4   9  20  39  65  95 125 157 195 239 291 359
#     4  12  22  39  55  80 113 149 197 249 299 361
#     4  10  20  37  61  90 120 153 196 242 289 354
#     4  10  20  35  55  77 105 144 192 247 304 361
#     4  12  25  37  56  81 111 155 202 256 310 354
#     4  11  22  38  58  80 112 154 199 249 305 367
#
# _framework density 18.378793000000002
#
# number of rings (size 3 to 8) (size 9 to 14) (size 15 to 20)
#    0.857    0.571    2.857    3.857    0.000    2.571 
#    0.000    0.000    0.000    0.000    0.000    2.000 
#    0.000    0.000    0.000    0.000    0.000    0.000 
#
# Total GULP energy -347120.734724 kJ/mol
# GULP energy per Si atom -12397.169097 kJ/mol
# Density = 1.833696 g / cm^3
# Si number density = 18.378793 Si / 1000 Ang^3
#
#
#
# Elastic Constant Matrix: (Units=GPa)
#
#
# Indices 1 2 3 4 5 6 
#
# 1 74.2712 37.6434 14.3765 0.0000 0.0000 0.0000
# 2 37.6434 120.3600 44.2581 0.0000 0.0000 0.0000
# 3 14.3765 44.2581 84.3983 0.0000 0.0000 0.0000
# 4 0.0000 0.0000 0.0000 36.8093 0.0000 0.0000
# 5 0.0000 0.0000 0.0000 0.0000 20.8843 0.0000
# 6 0.0000 0.0000 0.0000 0.0000 0.0000 34.1057
#
#
#
# Elastic Compliance Matrix: (Units=1/GPa)
#
#
# Indices 1 2 3 4 5 6 
#
# 1 0.016002 -0.004958 -0.000126 0.000000 0.000000 0.000000
# 2 -0.004958 0.011830 -0.005359 0.000000 0.000000 0.000000
# 3 -0.000126 -0.005359 0.014680 0.000000 0.000000 0.000000
# 4 0.000000 0.000000 0.000000 0.027167 0.000000 0.000000
# 5 0.000000 0.000000 0.000000 0.000000 0.047883 0.000000
# 6 0.000000 0.000000 0.000000 0.000000 0.000000 0.029321
#
#
# Mechanical properties :
#
#
# Convention : Reuss Voigt Hill
#
# Bulk Modulus (GPa) = 46.24108 52.39840 49.31974
# Shear Modulus (GPa) = 28.57530 30.54328 29.55929
#
# Velocity S-wave (km/s) = 3.94737 4.08103 4.01476
# Velocity P-wave (km/s) = 6.78161 7.12591 6.95589
#
# Compressibility (1/GPa) = 0.02162579
#
# Stress axis : x y z
#
# Youngs Moduli (GPa) = 62.49382 84.53290 68.11938
#
# Poissons Ratio (x) = 0.41915 0.00855
# Poissons Ratio (y) = 0.30987 0.36504
# Poissons Ratio (z) = 0.00785 0.45300
#
# Static dielectric constant tensor:
#      x y z
#    x 3.244050 0.000000 0.000000 
#    y 0.000000 3.529930 0.000000 
#    z 0.000000 0.000000 3.255800 
# 
# 
# High freq. dielectric constant tensor:
#      x y z
#    x 1.704980 0.000000 0.000000 
#    y 0.000000 1.722010 0.000000 
#    z 0.000000 0.000000 1.696840 
# 
# From -- ./inp_files/6800.got.cif
#   From: 2010.03.12/outbox.cif.g09.slc.cpg/sg38_4_cif.got.tgz:6800.got - 2010.04.14 02:38:36.
