data_PCOD8179218
_publ_section_title
;
Structure prediction by ZEFSAII (Michael W. Deem and Ramdas Pophale) SiO2 
 PCOD8179218
Probable space group: A M M 2
;
_chemical_formula_sum "Si O2"
_cell_formula_units_Z 48
_cell_length_a 9.209683
_cell_length_b 9.215949
_cell_length_c 30.910527
_cell_angle_alpha 90.000000
_cell_angle_beta 90.000000
_cell_angle_gamma 90.000000
_cell_volume 2623.560926
_symmetry_space_group_name_H-M "A M M 2"
_symmetry_group_IT_number 38
_symmetry_cell_setting 'orthorhombic'
loop_
_space_group_symop_operation_xyz
x,y,z
-x,-y,z
-x,y,z
x,-y,z
x,1/2+y,1/2+z
-x,1/2-y,1/2+z
-x,1/2+y,1/2+z
x,1/2-y,1/2+z
loop_
_atom_site_type_symbol
_atom_site_label
_atom_site_fract_x
_atom_site_fract_y
_atom_site_fract_z
Si Si1 0.332448 0.329647 0.660040
Si Si2 0.167597 0.170782 0.415969
Si Si3 0.836184 0.672471 0.576478
Si Si4 0.331078 0.832139 0.744968
Si Si5 0.329642 0.668821 0.491484
Si Si6 0.830799 0.666109 0.329827
O O1 0.500000 0.289740 0.651648
O O2 0.310434 0.500000 0.665761
O O3 0.241086 0.267991 0.619643
O O4 0.272933 0.254123 0.703330
O O5 0.269498 0.239176 0.451977
O O6 0.216934 0.236346 0.370195
O O7 0.000000 0.210724 0.425778
O O8 0.192376 0.000000 0.414608
O O9 0.835032 0.500000 0.577535
O O10 0.747866 0.727022 0.534791
O O11 0.000000 0.733348 0.574215
O O12 0.500000 0.802760 0.752020
O O13 0.250644 0.773855 0.787573
O O14 0.295566 0.000000 0.737219
O O15 0.500000 0.695783 0.496594
O O16 0.294425 0.500000 0.483325
O O17 0.786160 0.500000 0.339713
O O18 0.000000 0.680379 0.320441
#
# Coordination Sequence:
#
# PCOD8179218 Si02
#       6
#     8   8   8   8   8   8
#     4   9  17  30  48  70  97 128 162 201 245 292
#     4  10  21  36  53  75 104 135 167 207 256 306
#     4   9  17  30  50  75 100 128 165 207 247 290
#     4   9  18  32  49  70  97 128 162 201 245 293
#     4  10  20  34  54  78 102 132 171 211 251 299
#     4   9  18  33  52  72  96 129 167 205 246 294
#
# _framework density 18.295745
#
# number of rings (size 3 to 8) (size 9 to 14) (size 15 to 20)
#    0.000    2.667    0.000    1.500    0.000    6.000 
#    0.000    2.500    0.000    3.000    0.000    0.000 
#    0.000    0.000    0.000    0.000    0.000    0.000 
#
# Total GULP energy -297650.841449 kJ/mol
# GULP energy per Si atom -12402.118394 kJ/mol
# Density = 1.825410 g / cm^3
# Si number density = 18.295745 Si / 1000 Ang^3
#
#
#
# Elastic Constant Matrix: (Units=GPa)
#
#
# Indices 1 2 3 4 5 6 
#
# 1 91.1609 38.8642 85.4528 0.0000 0.0000 0.0000
# 2 38.8642 51.4842 58.9854 0.0000 0.0000 0.0000
# 3 85.4528 58.9854 189.1962 0.0000 0.0000 0.0000
# 4 0.0000 0.0000 0.0000 31.3683 0.0000 0.0000
# 5 0.0000 0.0000 0.0000 0.0000 41.9852 0.0000
# 6 0.0000 0.0000 0.0000 0.0000 0.0000 20.3211
#
#
#
# Elastic Compliance Matrix: (Units=1/GPa)
#
#
# Indices 1 2 3 4 5 6 
#
# 1 0.020811 -0.007686 -0.007003 0.000000 0.000000 0.000000
# 2 -0.007686 0.033055 -0.006834 0.000000 0.000000 0.000000
# 3 -0.007003 -0.006834 0.010579 0.000000 0.000000 0.000000
# 4 0.000000 0.000000 0.000000 0.031879 0.000000 0.000000
# 5 0.000000 0.000000 0.000000 0.000000 0.023818 0.000000
# 6 0.000000 0.000000 0.000000 0.000000 0.000000 0.049210
#
#
# Mechanical properties :
#
#
# Convention : Reuss Voigt Hill
#
# Bulk Modulus (GPa) = 46.73177 77.60511 62.16844
# Shear Modulus (GPa) = 22.77562 28.63752 25.70657
#
# Velocity S-wave (km/s) = 3.53208 3.96062 3.75248
# Velocity P-wave (km/s) = 6.49862 7.96395 7.26831
#
# Compressibility (1/GPa) = 0.02139872
#
# Stress axis : x y z
#
# Youngs Moduli (GPa) = 48.05092 30.25235 94.52418
#
# Poissons Ratio (x) = 0.23252 0.66199
# Poissons Ratio (y) = 0.36933 0.64598
# Poissons Ratio (z) = 0.33652 0.20675
#
# Static dielectric constant tensor:
#      x y z
#    x 3.398070 0.000000 0.000000 
#    y 0.000000 3.144960 0.000000 
#    z 0.000000 0.000000 3.584140 
# 
# 
# High freq. dielectric constant tensor:
#      x y z
#    x 1.708090 0.000000 0.000000 
#    y 0.000000 1.682750 0.000000 
#    z 0.000000 0.000000 1.723390 
# 
# From -- ./inp_files/21880.got.cif
#   From: 2010.03.12/outbox.cif.g09.slc.cpg/sg38_11_cif.got.tgz:21880.got - 2010.04.14 02:38:36.
