data_PCOD8179701
_publ_section_title
;
Structure prediction by ZEFSAII (Michael W. Deem and Ramdas Pophale) SiO2 
 PCOD8179701
Probable space group: A M M 2
;
_chemical_formula_sum "Si O2"
_cell_formula_units_Z 64
_cell_length_a 15.922724
_cell_length_b 23.284853
_cell_length_c 9.085809
_cell_angle_alpha 90.000000
_cell_angle_beta 90.000000
_cell_angle_gamma 90.000000
_cell_volume 3368.638987
_symmetry_space_group_name_H-M "A M M 2"
_symmetry_group_IT_number 38
_symmetry_cell_setting 'orthorhombic'
loop_
_space_group_symop_operation_xyz
x,y,z
-x,-y,z
-x,y,z
x,-y,z
x,1/2+y,1/2+z
-x,1/2-y,1/2+z
-x,1/2+y,1/2+z
x,1/2-y,1/2+z
loop_
_atom_site_type_symbol
_atom_site_label
_atom_site_fract_x
_atom_site_fract_y
_atom_site_fract_z
Si Si1 0.905597 0.935132 0.477250
Si Si2 0.738085 0.259638 0.925518
Si Si3 0.853322 0.113060 0.771272
Si Si4 0.262019 0.063064 0.012676
Si Si5 0.907475 0.698317 0.504138
Si Si6 0.692989 0.672372 0.193495
Si Si7 0.812852 0.857861 0.249462
Si Si8 0.402334 0.065170 0.791997
O O1 0.906385 0.921865 0.651763
O O2 0.843688 0.894677 0.386785
O O3 0.000000 0.927368 0.418131
O O4 0.874604 0.000000 0.453132
O O5 0.830787 0.242480 0.985249
O O6 0.687909 0.206444 0.850443
O O7 0.752966 0.306832 0.801052
O O8 0.678802 0.284950 0.055245
O O9 0.912445 0.154207 0.867790
O O10 0.788086 0.150879 0.677294
O O11 0.803221 0.070509 0.878780
O O12 0.248496 0.107313 0.142720
O O13 0.249053 0.000000 0.079171
O O14 0.355622 0.071048 0.948481
O O15 0.892865 0.664720 0.657436
O O16 0.000000 0.728488 0.512897
O O17 0.630398 0.617233 0.186992
O O18 0.500000 0.074631 0.820031
O O19 0.385592 0.000000 0.727198
#
# Coordination Sequence:
#
# PCOD8179701 Si02
#       8
#     8   8   8   8   8   8   8   8
#     4  11  22  33  48  76 113 151 197 255 307 346
#     4  11  21  37  54  80 113 153 194 241 282 337
#     4   9  18  34  53  75 105 144 197 242 288 341
#     4   9  18  34  59  84 108 146 192 230 276 347
#     4  10  21  35  52  74 103 148 199 248 300 340
#     4  10  20  37  59  84 115 151 189 233 282 342
#     4  11  21  36  52  77 110 152 192 244 291 346
#     4   9  19  38  67  98 121 144 182 234 285 342
#
# _framework density 18.998771000000001
#
# number of rings (size 3 to 8) (size 9 to 14) (size 15 to 20)
#    0.000    2.000    2.500    2.250    0.000    1.500 
#    0.000    0.625    0.000    6.750    0.000    1.750 
#    0.000    0.000    0.000    0.000    0.000    0.000 
#
# Total GULP energy -396617.210542 kJ/mol
# GULP energy per Si atom -12394.287829 kJ/mol
# Density = 1.895553 g / cm^3
# Si number density = 18.998771 Si / 1000 Ang^3
#
#
#
# Elastic Constant Matrix: (Units=GPa)
#
#
# Indices 1 2 3 4 5 6 
#
# 1 71.4014 40.3548 29.8403 0.0000 0.0000 0.0000
# 2 40.3548 113.5336 42.1182 0.0000 0.0000 0.0000
# 3 29.8403 42.1182 87.7658 0.0000 0.0000 0.0000
# 4 0.0000 0.0000 0.0000 30.8711 0.0000 0.0000
# 5 0.0000 0.0000 0.0000 0.0000 11.4993 0.0000
# 6 0.0000 0.0000 0.0000 0.0000 0.0000 24.5380
#
#
#
# Elastic Compliance Matrix: (Units=1/GPa)
#
#
# Indices 1 2 3 4 5 6 
#
# 1 0.018521 -0.005167 -0.003818 0.000000 0.000000 0.000000
# 2 -0.005167 0.012157 -0.004077 0.000000 0.000000 0.000000
# 3 -0.003818 -0.004077 0.014649 0.000000 0.000000 0.000000
# 4 0.000000 0.000000 0.000000 0.032393 0.000000 0.000000
# 5 0.000000 0.000000 0.000000 0.000000 0.086962 0.000000
# 6 0.000000 0.000000 0.000000 0.000000 0.000000 0.040753
#
#
# Mechanical properties :
#
#
# Convention : Reuss Voigt Hill
#
# Bulk Modulus (GPa) = 52.07508 55.25862 53.66685
# Shear Modulus (GPa) = 21.01202 24.07418 22.54310
#
# Velocity S-wave (km/s) = 3.32922 3.56356 3.44838
# Velocity P-wave (km/s) = 6.49980 6.78826 6.64560
#
# Compressibility (1/GPa) = 0.01920304
#
# Stress axis : x y z
#
# Youngs Moduli (GPa) = 53.99267 82.25617 68.26587
#
# Poissons Ratio (x) = 0.42502 0.26061
# Poissons Ratio (y) = 0.27898 0.27834
# Poissons Ratio (z) = 0.20612 0.33539
#
# Static dielectric constant tensor:
#      x y z
#    x 3.099990 0.000000 0.000000 
#    y 0.000000 3.726770 0.000000 
#    z 0.000000 0.000000 3.395750 
# 
# 
# High freq. dielectric constant tensor:
#      x y z
#    x 1.697230 0.000000 0.000000 
#    y 0.000000 1.754260 0.000000 
#    z 0.000000 0.000000 1.733170 
# 
# From -- ./inp_files/5892.got.cif
#   From: 2010.03.12/outbox.cif.g09.slc.cpg/sg38_3_cif.got.tgz:5892.got - 2010.04.14 02:38:36.
