data_PCOD8179966
_publ_section_title
;
Structure prediction by ZEFSAII (Michael W. Deem and Ramdas Pophale) SiO2 
 PCOD8179966
Probable space group: A M M 2
;
_chemical_formula_sum "Si O2"
_cell_formula_units_Z 64
_cell_length_a 23.840947
_cell_length_b 9.018376
_cell_length_c 15.482959
_cell_angle_alpha 90.000000
_cell_angle_beta 90.000000
_cell_angle_gamma 90.000000
_cell_volume 3328.938748
_symmetry_space_group_name_H-M "A M M 2"
_symmetry_group_IT_number 38
_symmetry_cell_setting 'orthorhombic'
loop_
_space_group_symop_operation_xyz
x,y,z
-x,-y,z
-x,y,z
x,-y,z
x,1/2+y,1/2+z
-x,1/2-y,1/2+z
-x,1/2+y,1/2+z
x,1/2-y,1/2+z
loop_
_atom_site_type_symbol
_atom_site_label
_atom_site_fract_x
_atom_site_fract_y
_atom_site_fract_z
Si Si1 0.762957 0.669478 0.095980
Si Si2 0.865991 0.675166 0.860009
Si Si3 0.760324 0.168080 0.798277
Si Si4 0.869226 0.675225 0.532036
Si Si5 0.564218 0.675492 0.940040
Si Si6 0.367438 0.325161 0.291256
Si Si7 0.063075 0.823666 0.197438
Si Si8 0.637712 0.176052 0.598162
O O1 0.772180 0.500000 0.065213
O O2 0.773161 0.682775 0.197511
O O3 0.805099 0.776632 0.046239
O O4 0.700525 0.727054 0.073408
O O5 0.869262 0.500000 0.868765
O O6 0.801148 0.722753 0.850030
O O7 0.902248 0.735234 0.779533
O O8 0.892395 0.749449 0.945103
O O9 0.696303 0.214336 0.817796
O O10 0.771435 0.000000 0.829180
O O11 0.872380 0.500000 0.522817
O O12 0.907550 0.734554 0.610372
O O13 0.500000 0.725558 0.946760
O O14 0.570570 0.500000 0.934716
O O15 0.590049 0.743288 0.853977
O O16 0.595258 0.737431 0.025758
O O17 0.377643 0.500000 0.297483
O O18 0.379414 0.266516 0.193670
O O19 0.000000 0.760230 0.201634
O O20 0.062777 0.000000 0.197795
O O21 0.637494 0.000000 0.602778
#
# Coordination Sequence:
#
# PCOD8179966 Si02
#       8
#     8   8   8   8   8   8   8   8
#     4   9  17  33  57  82 112 146 183 228 278 335
#     4  11  22  36  57  85 113 149 191 229 277 335
#     4   9  18  34  56  83 117 146 178 232 287 334
#     4  11  22  36  56  85 116 148 186 230 281 331
#     4  10  21  36  54  79 111 146 188 232 272 324
#     4   9  19  36  57  81 108 143 184 227 276 332
#     4   9  20  40  61  80 111 153 192 231 276 333
#     4   8  17  35  56  78 106 145 184 220 271 332
#
# _framework density 19.225345999999998
#
# number of rings (size 3 to 8) (size 9 to 14) (size 15 to 20)
#    0.000    2.500    1.250    2.250    1.750    1.750 
#    0.000    3.750    0.000    5.250    0.000    0.000 
#    0.000    0.000    0.000    0.000    0.000    0.000 
#
# Total GULP energy -396803.836804 kJ/mol
# GULP energy per Si atom -12400.119900 kJ/mol
# Density = 1.918159 g / cm^3
# Si number density = 19.225346 Si / 1000 Ang^3
#
#
#
# Elastic Constant Matrix: (Units=GPa)
#
#
# Indices 1 2 3 4 5 6 
#
# 1 132.5057 32.4880 79.9003 0.0000 0.0000 0.0000
# 2 32.4880 47.5834 37.6791 0.0000 0.0000 0.0000
# 3 79.9003 37.6791 143.8597 0.0000 0.0000 0.0000
# 4 0.0000 0.0000 0.0000 31.0298 0.0000 0.0000
# 5 0.0000 0.0000 0.0000 0.0000 25.5734 0.0000
# 6 0.0000 0.0000 0.0000 0.0000 0.0000 22.0566
#
#
#
# Elastic Compliance Matrix: (Units=1/GPa)
#
#
# Indices 1 2 3 4 5 6 
#
# 1 0.011822 -0.003624 -0.005617 0.000000 0.000000 0.000000
# 2 -0.003624 0.027626 -0.005223 0.000000 0.000000 0.000000
# 3 -0.005617 -0.005223 0.011439 0.000000 0.000000 0.000000
# 4 0.000000 0.000000 0.000000 0.032227 0.000000 0.000000
# 5 0.000000 0.000000 0.000000 0.000000 0.039103 0.000000
# 6 0.000000 0.000000 0.000000 0.000000 0.000000 0.045338
#
#
# Mechanical properties :
#
#
# Convention : Reuss Voigt Hill
#
# Bulk Modulus (GPa) = 45.53875 69.34261 57.44068
# Shear Modulus (GPa) = 24.53355 27.32408 25.92881
#
# Velocity S-wave (km/s) = 3.57614 3.77404 3.67642
# Velocity P-wave (km/s) = 6.38670 7.42548 6.92559
#
# Compressibility (1/GPa) = 0.02195932
#
# Stress axis : x y z
#
# Youngs Moduli (GPa) = 84.58495 36.19813 87.42107
#
# Poissons Ratio (x) = 0.13118 0.49105
# Poissons Ratio (y) = 0.30654 0.45658
# Poissons Ratio (z) = 0.47512 0.18906
#
# Static dielectric constant tensor:
#      x y z
#    x 3.606750 0.000000 0.000000 
#    y 0.000000 3.161410 0.000000 
#    z 0.000000 0.000000 3.705810 
# 
# 
# High freq. dielectric constant tensor:
#      x y z
#    x 1.744710 0.000000 0.000000 
#    y 0.000000 1.716920 0.000000 
#    z 0.000000 0.000000 1.759710 
# 
# From -- ./inp_files/15796.got.cif
#   From: 2010.03.12/outbox.cif.g09.slc.cpg/sg38_8_cif.got.tgz:15796.got - 2010.04.14 02:38:36.
