data_PCOD8179764
_publ_section_title
;
Structure prediction by ZEFSAII (Michael W. Deem and Ramdas Pophale) SiO2 
 PCOD8179764
Probable space group: A M M 2
;
_chemical_formula_sum "Si O2"
_cell_formula_units_Z 48
_cell_length_a 8.711420
_cell_length_b 23.114711
_cell_length_c 11.513917
_cell_angle_alpha 90.000000
_cell_angle_beta 90.000000
_cell_angle_gamma 90.000000
_cell_volume 2318.464845
_symmetry_space_group_name_H-M "A M M 2"
_symmetry_group_IT_number 38
_symmetry_cell_setting 'orthorhombic'
loop_
_space_group_symop_operation_xyz
x,y,z
-x,-y,z
-x,y,z
x,-y,z
x,1/2+y,1/2+z
-x,1/2-y,1/2+z
-x,1/2+y,1/2+z
x,1/2-y,1/2+z
loop_
_atom_site_type_symbol
_atom_site_label
_atom_site_fract_x
_atom_site_fract_y
_atom_site_fract_z
Si Si1 0.679531 0.849933 0.733770
Si Si2 0.175785 0.650724 0.478023
Si Si3 0.180171 0.231354 0.193423
Si Si4 0.673597 0.934825 0.128707
Si Si5 0.818155 0.433183 0.060166
Si Si6 0.323407 0.359752 0.852994
O O1 0.500000 0.856844 0.713712
O O2 0.715945 0.840777 0.868604
O O3 0.739767 0.792550 0.669932
O O4 0.761791 0.907454 0.683533
O O5 0.220616 0.696465 0.577162
O O6 0.208715 0.588029 0.532253
O O7 0.000000 0.656190 0.438782
O O8 0.243125 0.199749 0.310164
O O9 0.000000 0.239813 0.211196
O O10 0.500000 0.926548 0.082749
O O11 0.696594 0.905338 0.251432
O O12 0.718216 0.000000 0.151140
O O13 0.759687 0.500000 0.045947
O O14 0.000000 0.432156 0.055000
O O15 0.754106 0.389163 0.963943
O O16 0.500000 0.346158 0.882343
#
# Coordination Sequence:
#
# PCOD8179764 Si02
#       6
#     8   8   8   8   8   8
#     4  12  26  42  64  90 122 163 208 260 315 378
#     4  10  22  40  61  87 119 157 201 251 306 368
#     4  10  22  41  65  92 125 162 205 256 313 376
#     4   9  18  34  58  88 122 159 199 247 301 357
#     4  11  25  44  65  91 127 171 217 263 316 380
#     4  10  20  37  63  95 128 163 206 258 311 367
#
# _framework density 20.703354000000001
#
# number of rings (size 3 to 8) (size 9 to 14) (size 15 to 20)
#    0.000    1.667    0.000    4.000    2.333    5.667 
#    0.000    0.000    0.000    0.000    0.000    0.000 
#    0.000    0.000    0.000    0.000    0.000    0.000 
#
# Total GULP energy -297617.176747 kJ/mol
# GULP energy per Si atom -12400.715698 kJ/mol
# Density = 2.065623 g / cm^3
# Si number density = 20.703354 Si / 1000 Ang^3
#
#
#
# Elastic Constant Matrix: (Units=GPa)
#
#
# Indices 1 2 3 4 5 6 
#
# 1 91.5880 30.9708 34.8828 0.0000 0.0000 0.0000
# 2 30.9708 93.4180 23.4595 0.0000 0.0000 0.0000
# 3 34.8828 23.4595 81.0449 0.0000 0.0000 0.0000
# 4 0.0000 0.0000 0.0000 23.0381 0.0000 0.0000
# 5 0.0000 0.0000 0.0000 0.0000 38.1520 0.0000
# 6 0.0000 0.0000 0.0000 0.0000 0.0000 34.3457
#
#
#
# Elastic Compliance Matrix: (Units=1/GPa)
#
#
# Indices 1 2 3 4 5 6 
#
# 1 0.013977 -0.003368 -0.005041 0.000000 0.000000 0.000000
# 2 -0.003368 0.012355 -0.002127 0.000000 0.000000 0.000000
# 3 -0.005041 -0.002127 0.015124 0.000000 0.000000 0.000000
# 4 0.000000 0.000000 0.000000 0.043406 0.000000 0.000000
# 5 0.000000 0.000000 0.000000 0.000000 0.026211 0.000000
# 6 0.000000 0.000000 0.000000 0.000000 0.000000 0.029116
#
#
# Mechanical properties :
#
#
# Convention : Reuss Voigt Hill
#
# Bulk Modulus (GPa) = 49.05545 49.40856 49.23201
# Shear Modulus (GPa) = 29.75188 30.88968 30.32078
#
# Velocity S-wave (km/s) = 3.79496 3.86685 3.83108
# Velocity P-wave (km/s) = 6.55349 6.62220 6.58793
#
# Compressibility (1/GPa) = 0.02038509
#
# Stress axis : x y z
#
# Youngs Moduli (GPa) = 71.54433 80.93733 66.11909
#
# Poissons Ratio (x) = 0.27259 0.33331
# Poissons Ratio (y) = 0.24096 0.14062
# Poissons Ratio (z) = 0.36066 0.17214
#
# Static dielectric constant tensor:
#      x y z
#    x 3.779470 0.000000 0.000000 
#    y 0.000000 4.076450 0.000000 
#    z 0.000000 0.000000 3.728620 
# 
# 
# High freq. dielectric constant tensor:
#      x y z
#    x 1.815740 0.000000 0.000000 
#    y 0.000000 1.817170 0.000000 
#    z 0.000000 0.000000 1.811330 
# 
# From -- ./inp_files/8119.got.cif
#   From: 2010.03.12/outbox.cif.g09.slc.cpg/sg38_5_cif.got.tgz:8119.got - 2010.04.14 02:38:36.
