data_PCOD8179361
_publ_section_title
;
Structure prediction by ZEFSAII (Michael W. Deem and Ramdas Pophale) SiO2 
 PCOD8179361
Probable space group: A M M 2
;
_chemical_formula_sum "Si O2"
_cell_formula_units_Z 64
_cell_length_a 13.991886
_cell_length_b 8.912530
_cell_length_c 25.990481
_cell_angle_alpha 90.000000
_cell_angle_beta 90.000000
_cell_angle_gamma 90.000000
_cell_volume 3241.093648
_symmetry_space_group_name_H-M "A M M 2"
_symmetry_group_IT_number 38
_symmetry_cell_setting 'orthorhombic'
loop_
_space_group_symop_operation_xyz
x,y,z
-x,-y,z
-x,y,z
x,-y,z
x,1/2+y,1/2+z
-x,1/2-y,1/2+z
-x,1/2+y,1/2+z
x,1/2-y,1/2+z
loop_
_atom_site_type_symbol
_atom_site_label
_atom_site_fract_x
_atom_site_fract_y
_atom_site_fract_z
Si Si1 0.393337 0.322670 0.613020
Si Si2 0.890403 0.823556 0.452199
Si Si3 0.388463 0.675364 0.302087
Si Si4 0.722867 0.822027 0.209814
Si Si5 0.724296 0.323153 0.404496
Si Si6 0.393250 0.322558 0.500342
Si Si7 0.113359 0.168315 0.056724
Si Si8 0.110081 0.676573 0.161392
O O1 0.500000 0.255027 0.618024
O O2 0.399595 0.500000 0.618681
O O3 0.329540 0.258014 0.658909
O O4 0.349790 0.280251 0.556708
O O5 0.827569 0.758582 0.404863
O O6 0.851540 0.750732 0.505201
O O7 0.000000 0.778671 0.441399
O O8 0.878460 0.000000 0.456793
O O9 0.500000 0.718739 0.305658
O O10 0.375793 0.500000 0.290245
O O11 0.337725 0.771395 0.258474
O O12 0.337249 0.720937 0.354997
O O13 0.828186 0.747125 0.208200
O O14 0.733652 0.000000 0.210730
O O15 0.741300 0.500000 0.407346
O O16 0.669734 0.256586 0.454315
O O17 0.500000 0.255783 0.496015
O O18 0.398897 0.500000 0.493861
O O19 0.147927 0.254286 0.107667
O O20 0.000000 0.163556 0.056504
O O21 0.156891 0.000000 0.057556
O O22 0.124588 0.500000 0.159121
O O23 0.000000 0.719214 0.171728
#
# Coordination Sequence:
#
# PCOD8179361 Si02
#       8
#     8   8   8   8   8   8   8   8
#     4   8  15  28  47  76 112 142 173 221 280 339
#     4  10  21  36  53  78 116 157 193 232 286 347
#     4  10  22  41  62  85 115 151 193 242 294 350
#     4  11  22  35  57  86 114 149 197 243 289 347
#     4  10  20  34  58  86 109 142 193 241 287 343
#     4   8  14  27  49  78 110 139 171 221 282 339
#     4   9  17  31  53  80 111 150 195 238 277 327
#     4  10  21  37  56  81 117 157 194 236 292 352
#
# _framework density 19.746421000000002
#
# number of rings (size 3 to 8) (size 9 to 14) (size 15 to 20)
#    0.000    2.500    0.000    3.000    1.750    5.750 
#    0.000    0.625    0.000    1.875    0.000    1.750 
#    0.000    0.000    0.000    0.000    0.000    0.000 
#
# Total GULP energy -396738.216893 kJ/mol
# GULP energy per Si atom -12398.069278 kJ/mol
# Density = 1.970148 g / cm^3
# Si number density = 19.746421 Si / 1000 Ang^3
#
#
#
# Elastic Constant Matrix: (Units=GPa)
#
#
# Indices 1 2 3 4 5 6 
#
# 1 107.8903 49.0055 74.3211 0.0000 0.0000 0.0000
# 2 49.0055 71.2961 46.9184 0.0000 0.0000 0.0000
# 3 74.3211 46.9184 125.3330 0.0000 0.0000 0.0000
# 4 0.0000 0.0000 0.0000 31.0673 0.0000 0.0000
# 5 0.0000 0.0000 0.0000 0.0000 38.7853 0.0000
# 6 0.0000 0.0000 0.0000 0.0000 0.0000 22.9496
#
#
#
# Elastic Compliance Matrix: (Units=1/GPa)
#
#
# Indices 1 2 3 4 5 6 
#
# 1 0.018029 -0.007108 -0.008030 0.000000 0.000000 0.000000
# 2 -0.007108 0.021413 -0.003801 0.000000 0.000000 0.000000
# 3 -0.008030 -0.003801 0.014163 0.000000 0.000000 0.000000
# 4 0.000000 0.000000 0.000000 0.032188 0.000000 0.000000
# 5 0.000000 0.000000 0.000000 0.000000 0.025783 0.000000
# 6 0.000000 0.000000 0.000000 0.000000 0.000000 0.043574
#
#
# Mechanical properties :
#
#
# Convention : Reuss Voigt Hill
#
# Bulk Modulus (GPa) = 63.58371 71.66772 67.62572
# Shear Modulus (GPa) = 25.21814 27.51207 26.36511
#
# Velocity S-wave (km/s) = 3.57753 3.73670 3.65798
# Velocity P-wave (km/s) = 7.02389 7.41553 7.22236
#
# Compressibility (1/GPa) = 0.01572730
#
# Stress axis : x y z
#
# Youngs Moduli (GPa) = 55.46736 46.70075 70.60431
#
# Poissons Ratio (x) = 0.33193 0.56695
# Poissons Ratio (y) = 0.39424 0.26838
# Poissons Ratio (z) = 0.44540 0.17752
#
# Static dielectric constant tensor:
#      x y z
#    x 3.810820 0.000000 0.000000 
#    y 0.000000 3.272700 0.000000 
#    z 0.000000 0.000000 3.611360 
# 
# 
# High freq. dielectric constant tensor:
#      x y z
#    x 1.783540 0.000000 0.000000 
#    y 0.000000 1.741390 0.000000 
#    z 0.000000 0.000000 1.756670 
# 
# From -- ./inp_files/22915.got.cif
#   From: 2010.03.12/outbox.cif.g09.slc.cpg/sg38_12_cif.got.tgz:22915.got - 2010.04.14 02:38:36.
