data_PCOD8179252
_publ_section_title
;
Structure prediction by ZEFSAII (Michael W. Deem and Ramdas Pophale) SiO2 
 PCOD8179252
Probable space group: A M M 2
;
_chemical_formula_sum "Si O2"
_cell_formula_units_Z 64
_cell_length_a 18.928997
_cell_length_b 8.920499
_cell_length_c 20.696775
_cell_angle_alpha 90.000000
_cell_angle_beta 90.000000
_cell_angle_gamma 90.000000
_cell_volume 3494.776684
_symmetry_space_group_name_H-M "A M M 2"
_symmetry_group_IT_number 38
_symmetry_cell_setting 'orthorhombic'
loop_
_space_group_symop_operation_xyz
x,y,z
-x,-y,z
-x,y,z
x,-y,z
x,1/2+y,1/2+z
-x,1/2-y,1/2+z
-x,1/2+y,1/2+z
x,1/2-y,1/2+z
loop_
_atom_site_type_symbol
_atom_site_label
_atom_site_fract_x
_atom_site_fract_y
_atom_site_fract_z
Si Si1 0.708201 0.675690 0.985930
Si Si2 0.419721 0.825476 0.042706
Si Si3 0.919477 0.825712 0.166312
Si Si4 0.919722 0.825463 0.802840
Si Si5 0.791784 0.675671 0.859608
Si Si6 0.708390 0.176178 0.231173
Si Si7 0.208369 0.323808 0.114329
Si Si8 0.580528 0.674288 0.179237
O O1 0.691641 0.500000 0.983101
O O2 0.749991 0.729724 0.922766
O O3 0.633602 0.763161 0.988489
O O4 0.755649 0.719847 0.047151
O O5 0.500000 0.795861 0.019398
O O6 0.403495 0.738252 0.108533
O O7 0.406213 0.000000 0.055148
O O8 0.903470 0.761622 0.236986
O O9 0.871040 0.742106 0.113776
O O10 0.000000 0.797184 0.145618
O O11 0.900181 0.000000 0.168251
O O12 0.866381 0.763150 0.857041
O O13 0.000000 0.795732 0.826132
O O14 0.906249 0.000000 0.790442
O O15 0.808372 0.500000 0.862468
O O16 0.744313 0.719720 0.798390
O O17 0.749991 0.250194 0.172787
O O18 0.628942 0.241892 0.231732
O O19 0.705881 0.000000 0.220559
O O20 0.205705 0.500000 0.124812
O O21 0.500000 0.702768 0.199925
O O22 0.599863 0.500000 0.177379
#
# Coordination Sequence:
#
# PCOD8179252 Si02
#       8
#     8   8   8   8   8   8   8   8
#     4  10  22  39  57  80 111 149 189 226 272 331
#     4  10  20  34  55  83 111 142 183 229 278 331
#     4  10  20  34  54  81 112 146 184 228 278 331
#     4  10  20  34  55  83 111 142 183 229 278 331
#     4  10  22  39  57  80 111 149 189 226 272 331
#     4  11  21  34  56  83 111 142 181 230 278 327
#     4  11  21  34  56  83 111 142 181 230 278 327
#     4  10  20  34  54  81 112 146 184 228 278 331
#
# _framework density 18.313044000000001
#
# number of rings (size 3 to 8) (size 9 to 14) (size 15 to 20)
#    0.000    1.750    2.500    2.250    0.000    4.500 
#    0.000    1.250    0.000    7.500    0.000    0.000 
#    0.000    0.000    0.000    0.000    0.000    0.000 
#
# Total GULP energy -396913.553388 kJ/mol
# GULP energy per Si atom -12403.548543 kJ/mol
# Density = 1.827136 g / cm^3
# Si number density = 18.313044 Si / 1000 Ang^3
#
#
#
# Elastic Constant Matrix: (Units=GPa)
#
#
# Indices 1 2 3 4 5 6 
#
# 1 143.5938 64.6364 66.3882 0.0000 0.0000 0.0000
# 2 64.6364 87.4551 50.3490 0.0000 0.0000 0.0000
# 3 66.3882 50.3490 105.5563 0.0000 0.0000 0.0000
# 4 0.0000 0.0000 0.0000 23.9246 0.0000 0.0000
# 5 0.0000 0.0000 0.0000 0.0000 29.3495 0.0000
# 6 0.0000 0.0000 0.0000 0.0000 0.0000 38.8984
#
#
#
# Elastic Compliance Matrix: (Units=1/GPa)
#
#
# Indices 1 2 3 4 5 6 
#
# 1 0.011806 -0.006136 -0.004498 0.000000 0.000000 0.000000
# 2 -0.006136 0.018952 -0.005181 0.000000 0.000000 0.000000
# 3 -0.004498 -0.005181 0.014774 0.000000 0.000000 0.000000
# 4 0.000000 0.000000 0.000000 0.041798 0.000000 0.000000
# 5 0.000000 0.000000 0.000000 0.000000 0.034072 0.000000
# 6 0.000000 0.000000 0.000000 0.000000 0.000000 0.025708
#
#
# Mechanical properties :
#
#
# Convention : Reuss Voigt Hill
#
# Bulk Modulus (GPa) = 71.93320 77.70580 74.81950
# Shear Modulus (GPa) = 27.26676 28.78327 28.02502
#
# Velocity S-wave (km/s) = 3.86285 3.96881 3.91619
# Velocity P-wave (km/s) = 7.69808 7.97032 7.83538
#
# Compressibility (1/GPa) = 0.01390179
#
# Stress axis : x y z
#
# Youngs Moduli (GPa) = 84.70496 52.76538 67.68604
#
# Poissons Ratio (x) = 0.32374 0.30448
# Poissons Ratio (y) = 0.51971 0.35068
# Poissons Ratio (z) = 0.38104 0.27337
#
# Static dielectric constant tensor:
#      x y z
#    x 4.078660 0.000000 0.000000 
#    y 0.000000 3.457180 0.000000 
#    z 0.000000 0.000000 3.191020 
# 
# 
# High freq. dielectric constant tensor:
#      x y z
#    x 1.728420 0.000000 0.000000 
#    y 0.000000 1.722030 0.000000 
#    z 0.000000 0.000000 1.675550 
# 
# From -- ./inp_files/21425.got.cif
#   From: 2010.03.12/outbox.cif.g09.slc.cpg/sg38_11_cif.got.tgz:21425.got - 2010.04.14 02:38:36.
