data_PCOD8179296
_publ_section_title
;
Structure prediction by ZEFSAII (Michael W. Deem and Ramdas Pophale) SiO2 
 PCOD8179296
Probable space group: A M M 2
;
_chemical_formula_sum "Si O2"
_cell_formula_units_Z 40
_cell_length_a 9.157200
_cell_length_b 8.692269
_cell_length_c 25.604839
_cell_angle_alpha 90.000000
_cell_angle_beta 90.000000
_cell_angle_gamma 90.000000
_cell_volume 2038.064419
_symmetry_space_group_name_H-M "A M M 2"
_symmetry_group_IT_number 38
_symmetry_cell_setting 'orthorhombic'
loop_
_space_group_symop_operation_xyz
x,y,z
-x,-y,z
-x,y,z
x,-y,z
x,1/2+y,1/2+z
-x,1/2-y,1/2+z
-x,1/2+y,1/2+z
x,1/2-y,1/2+z
loop_
_atom_site_type_symbol
_atom_site_label
_atom_site_fract_x
_atom_site_fract_y
_atom_site_fract_z
Si Si1 0.337136 0.682343 0.695610
Si Si2 0.831877 0.320831 0.100096
Si Si3 0.171337 0.822141 0.410299
Si Si4 0.669707 0.321701 0.504389
Si Si5 0.161624 0.182650 0.293461
O O1 0.500000 0.750199 0.688638
O O2 0.342821 0.500000 0.698125
O O3 0.237659 0.728487 0.647444
O O4 0.270734 0.749200 0.749635
O O5 0.814904 0.500000 0.111601
O O6 0.751281 0.281476 0.046635
O O7 0.000000 0.271753 0.094687
O O8 0.265049 0.714498 0.447790
O O9 0.214016 0.770856 0.351467
O O10 0.000000 0.796079 0.420317
O O11 0.211914 0.000000 0.420186
O O12 0.500000 0.278354 0.504985
O O13 0.694087 0.500000 0.517760
O O14 0.000000 0.250278 0.282614
O O15 0.153797 0.000000 0.290271
#
# Coordination Sequence:
#
# PCOD8179296 Si02
#       5
#     8   8   8   8   8
#     4  10  20  34  55  84 114 143 178 219 264 317
#     4  11  24  40  58  80 105 137 180 225 269 321
#     4   9  18  34  57  84 111 141 181 224 264 312
#     4  11  24  39  55  79 110 142 178 220 268 323
#     4   8  15  30  53  80 110 144 181 220 261 308
#
# _framework density 19.626466000000001
#
# number of rings (size 3 to 8) (size 9 to 14) (size 15 to 20)
#    0.000    2.200    0.000    4.200    0.000   10.400 
#    0.000    3.000    0.000    1.200    0.000    0.000 
#    0.000    0.000    0.000    0.000    0.000    0.000 
#
# Total GULP energy -248023.771060 kJ/mol
# GULP energy per Si atom -12401.188553 kJ/mol
# Density = 1.958180 g / cm^3
# Si number density = 19.626466 Si / 1000 Ang^3
#
#
#
# Elastic Constant Matrix: (Units=GPa)
#
#
# Indices 1 2 3 4 5 6 
#
# 1 123.8571 25.4675 65.4760 0.0000 0.0000 0.0000
# 2 25.4675 20.6385 10.9988 0.0000 0.0000 0.0000
# 3 65.4760 10.9988 134.2885 0.0000 0.0000 0.0000
# 4 0.0000 0.0000 0.0000 28.8863 0.0000 0.0000
# 5 0.0000 0.0000 0.0000 0.0000 0.0661 0.0000
# 6 0.0000 0.0000 0.0000 0.0000 0.0000 25.7555
#
#
#
# Elastic Compliance Matrix: (Units=1/GPa)
#
#
# Indices 1 2 3 4 5 6 
#
# 1 0.013995 -0.014255 -0.005656 0.000000 0.000000 0.000000
# 2 -0.014255 0.065185 0.001612 0.000000 0.000000 0.000000
# 3 -0.005656 0.001612 0.010072 0.000000 0.000000 0.000000
# 4 0.000000 0.000000 0.000000 0.034618 0.000000 0.000000
# 5 0.000000 0.000000 0.000000 0.000000 15.120085 0.000000
# 6 0.000000 0.000000 0.000000 0.000000 0.000000 0.038827
#
#
# Mechanical properties :
#
#
# Convention : Reuss Voigt Hill
#
# Bulk Modulus (GPa) = 18.99232 53.62986 36.31109
# Shear Modulus (GPa) = 0.32601 22.73104 11.52852
#
# Velocity S-wave (km/s) = 0.40801 3.40690 2.42626
# Velocity P-wave (km/s) = 3.14958 6.54680 5.13714
#
# Compressibility (1/GPa) = 0.05265287
#
# Stress axis : x y z
#
# Youngs Moduli (GPa) = 71.45383 15.34097 99.28091
#
# Poissons Ratio (x) = 0.21869 0.56154
# Poissons Ratio (y) = 1.01860 -0.16001
# Poissons Ratio (z) = 0.40415 -0.02472
#
# Static dielectric constant tensor:
#      x y z
#    x 3.883960 0.000000 0.000000 
#    y 0.000000 3.242490 0.000000 
#    z 0.000000 0.000000 3.780460 
# 
# 
# High freq. dielectric constant tensor:
#      x y z
#    x 1.771280 0.000000 0.000000 
#    y 0.000000 1.735730 0.000000 
#    z 0.000000 0.000000 1.781290 
# 
# From -- ./inp_files/21666.got.cif
#   From: 2010.03.12/outbox.cif.g09.slc.cpg/sg38_11_cif.got.tgz:21666.got - 2010.04.14 02:38:36.
