data_PCOD8179468
_publ_section_title
;
Structure prediction by ZEFSAII (Michael W. Deem and Ramdas Pophale) SiO2 
 PCOD8179468
Probable space group: A M M 2
;
_chemical_formula_sum "Si O2"
_cell_formula_units_Z 48
_cell_length_a 8.626436
_cell_length_b 9.109632
_cell_length_c 30.696910
_cell_angle_alpha 90.000000
_cell_angle_beta 90.000000
_cell_angle_gamma 90.000000
_cell_volume 2412.275460
_symmetry_space_group_name_H-M "A M M 2"
_symmetry_group_IT_number 38
_symmetry_cell_setting 'orthorhombic'
loop_
_space_group_symop_operation_xyz
x,y,z
-x,-y,z
-x,y,z
x,-y,z
x,1/2+y,1/2+z
-x,1/2-y,1/2+z
-x,1/2+y,1/2+z
x,1/2-y,1/2+z
loop_
_atom_site_type_symbol
_atom_site_label
_atom_site_fract_x
_atom_site_fract_y
_atom_site_fract_z
Si Si1 0.684745 0.334674 0.837930
Si Si2 0.321466 0.669916 0.252646
Si Si3 0.320051 0.170400 0.082484
Si Si4 0.316745 0.164286 0.921542
Si Si5 0.180418 0.831036 0.502170
Si Si6 0.820188 0.169911 0.661579
O O1 0.500000 0.331330 0.839042
O O2 0.748542 0.500000 0.840318
O O3 0.744284 0.261181 0.793428
O O4 0.752675 0.246630 0.879317
O O5 0.500000 0.708662 0.242709
O O6 0.302578 0.500000 0.264721
O O7 0.220181 0.713745 0.210937
O O8 0.500000 0.195224 0.071899
O O9 0.216690 0.258764 0.048390
O O10 0.282912 0.229839 0.130397
O O11 0.275613 0.000000 0.079948
O O12 0.500000 0.156603 0.917804
O O13 0.246936 0.000000 0.923612
O O14 0.275518 0.250732 0.964910
O O15 0.000000 0.814932 0.492064
O O16 0.232164 0.000000 0.503786
O O17 0.000000 0.200743 0.652775
O O18 0.778027 0.000000 0.653172
#
# Coordination Sequence:
#
# PCOD8179468 Si02
#       6
#     8   8   8   8   8   8
#     4   9  17  30  51  79 109 142 183 231 278 321
#     4   9  17  31  52  77 106 142 184 229 276 325
#     4  11  24  40  59  84 111 141 181 226 271 323
#     4  10  20  35  57  84 112 144 185 229 272 322
#     4  11  24  40  58  82 112 145 181 222 271 327
#     4  10  21  37  57  82 112 146 184 225 272 327
#
# _framework density 19.898226999999999
#
# number of rings (size 3 to 8) (size 9 to 14) (size 15 to 20)
#    0.000    2.000    0.000    3.500    0.000   11.333 
#    0.000    2.500    0.000    3.000    0.000    0.000 
#    0.000    0.000    0.000    0.000    0.000    0.000 
#
# Total GULP energy -297706.568363 kJ/mol
# GULP energy per Si atom -12404.440348 kJ/mol
# Density = 1.985294 g / cm^3
# Si number density = 19.898227 Si / 1000 Ang^3
#
#
#
# Elastic Constant Matrix: (Units=GPa)
#
#
# Indices 1 2 3 4 5 6 
#
# 1 26.4193 25.8121 10.8858 0.0000 0.0000 0.0000
# 2 25.8121 144.6910 70.8885 0.0000 0.0000 0.0000
# 3 10.8858 70.8885 126.0077 0.0000 0.0000 0.0000
# 4 0.0000 0.0000 0.0000 43.3668 0.0000 0.0000
# 5 0.0000 0.0000 0.0000 0.0000 12.7187 0.0000
# 6 0.0000 0.0000 0.0000 0.0000 0.0000 20.8640
#
#
#
# Elastic Compliance Matrix: (Units=1/GPa)
#
#
# Indices 1 2 3 4 5 6 
#
# 1 0.045912 -0.008624 0.000885 0.000000 0.000000 0.000000
# 2 -0.008624 0.011161 -0.005534 0.000000 0.000000 0.000000
# 3 0.000885 -0.005534 0.010973 0.000000 0.000000 0.000000
# 4 0.000000 0.000000 0.000000 0.023059 0.000000 0.000000
# 5 0.000000 0.000000 0.000000 0.000000 0.078624 0.000000
# 6 0.000000 0.000000 0.000000 0.000000 0.000000 0.047929
#
#
# Mechanical properties :
#
#
# Convention : Reuss Voigt Hill
#
# Bulk Modulus (GPa) = 24.09601 56.92120 40.50861
# Shear Modulus (GPa) = 19.37700 28.02534 23.70117
#
# Velocity S-wave (km/s) = 3.12397 3.75698 3.45500
# Velocity P-wave (km/s) = 5.01480 6.89117 6.02646
#
# Compressibility (1/GPa) = 0.04150065
#
# Stress axis : x y z
#
# Youngs Moduli (GPa) = 21.78064 89.59762 91.13522
#
# Poissons Ratio (x) = 0.77272 -0.08070
# Poissons Ratio (y) = 0.18784 0.50433
# Poissons Ratio (z) = -0.01929 0.49582
#
# Static dielectric constant tensor:
#      x y z
#    x 3.318410 0.000000 0.000000 
#    y 0.000000 3.799870 0.000000 
#    z 0.000000 0.000000 3.682450 
# 
# 
# High freq. dielectric constant tensor:
#      x y z
#    x 1.751480 0.000000 0.000000 
#    y 0.000000 1.784500 0.000000 
#    z 0.000000 0.000000 1.790890 
# 
# From -- ./inp_files/24282.got.cif
#   From: 2010.03.12/outbox.cif.g09.slc.cpg/sg38_13_cif.got.tgz:24282.got - 2010.04.14 02:38:36.
