data_PCOD8179452
_publ_section_title
;
Structure prediction by ZEFSAII (Michael W. Deem and Ramdas Pophale) SiO2 
 PCOD8179452
Probable space group: A M M 2
;
_chemical_formula_sum "Si O2"
_cell_formula_units_Z 40
_cell_length_a 7.777637
_cell_length_b 9.124780
_cell_length_c 28.980237
_cell_angle_alpha 90.000000
_cell_angle_beta 90.000000
_cell_angle_gamma 90.000000
_cell_volume 2056.705005
_symmetry_space_group_name_H-M "A M M 2"
_symmetry_group_IT_number 38
_symmetry_cell_setting 'orthorhombic'
loop_
_space_group_symop_operation_xyz
x,y,z
-x,-y,z
-x,y,z
x,-y,z
x,1/2+y,1/2+z
-x,1/2-y,1/2+z
-x,1/2+y,1/2+z
x,1/2-y,1/2+z
loop_
_atom_site_type_symbol
_atom_site_label
_atom_site_fract_x
_atom_site_fract_y
_atom_site_fract_z
Si Si1 0.500000 0.326492 0.146590
Si Si2 0.799141 0.667616 0.806183
Si Si3 0.803642 0.671623 0.212292
Si Si4 0.500000 0.674344 0.043752
Si Si5 0.808986 0.668197 0.980952
Si Si6 0.305114 0.834890 0.894667
O O1 0.500000 0.500000 0.143209
O O2 0.326401 0.274531 0.172460
O O3 0.500000 0.257920 0.095216
O O4 0.737462 0.500000 0.804472
O O5 0.750535 0.742470 0.758089
O O6 0.700663 0.750244 0.846553
O O7 0.000000 0.680257 0.816262
O O8 0.781429 0.500000 0.222533
O O9 0.000000 0.707679 0.197229
O O10 0.500000 0.500000 0.046632
O O11 0.670816 0.730678 0.017427
O O12 0.765178 0.500000 0.969014
O O13 0.808470 0.756561 0.933316
O O14 0.000000 0.682689 0.002659
O O15 0.500000 0.834783 0.912502
O O16 0.236337 0.000000 0.887493
#
# Coordination Sequence:
#
# PCOD8179452 Si02
#       6
#     4   8   8   4   8   8
#     4   9  18  32  54  81 108 139 178 223 272 321
#     4  10  21  36  54  78 109 144 182 222 266 319
#     4   9  18  33  53  78 109 143 180 223 267 314
#     4   9  18  34  54  81 112 137 174 231 276 315
#     4  10  20  35  57  82 109 144 182 220 269 323
#     4  11  23  36  53  79 111 146 183 222 267 321
#
# _framework density 19.448584
#
# number of rings (size 3 to 8) (size 9 to 14) (size 15 to 20)
#    0.000    2.200    1.000    1.800    1.400    6.000 
#    0.000    4.000    0.000    2.400    0.000    2.800 
#    0.000    0.000    0.000    0.000    0.000    0.000 
#
# Total GULP energy -248025.869495 kJ/mol
# GULP energy per Si atom -12401.293475 kJ/mol
# Density = 1.940432 g / cm^3
# Si number density = 19.448584 Si / 1000 Ang^3
#
#
#
# Elastic Constant Matrix: (Units=GPa)
#
#
# Indices 1 2 3 4 5 6 
#
# 1 116.3516 31.6482 69.9386 0.0000 0.0000 0.0000
# 2 31.6482 80.1281 50.5673 0.0000 0.0000 0.0000
# 3 69.9386 50.5673 152.6280 0.0000 0.0000 0.0000
# 4 0.0000 0.0000 0.0000 22.2403 0.0000 0.0000
# 5 0.0000 0.0000 0.0000 0.0000 27.2916 0.0000
# 6 0.0000 0.0000 0.0000 0.0000 0.0000 16.3623
#
#
#
# Elastic Compliance Matrix: (Units=1/GPa)
#
#
# Indices 1 2 3 4 5 6 
#
# 1 0.012024 -0.001608 -0.004977 0.000000 0.000000 0.000000
# 2 -0.001608 0.015994 -0.004562 0.000000 0.000000 0.000000
# 3 -0.004977 -0.004562 0.010344 0.000000 0.000000 0.000000
# 4 0.000000 0.000000 0.000000 0.044964 0.000000 0.000000
# 5 0.000000 0.000000 0.000000 0.000000 0.036641 0.000000
# 6 0.000000 0.000000 0.000000 0.000000 0.000000 0.061116
#
#
# Mechanical properties :
#
#
# Convention : Reuss Voigt Hill
#
# Bulk Modulus (GPa) = 62.23740 72.60177 67.41959
# Shear Modulus (GPa) = 23.95410 26.30908 25.13159
#
# Velocity S-wave (km/s) = 3.51331 3.68197 3.59863
# Velocity P-wave (km/s) = 6.96622 7.44896 7.21163
#
# Compressibility (1/GPa) = 0.01606751
#
# Stress axis : x y z
#
# Youngs Moduli (GPa) = 83.16992 62.52222 96.67586
#
# Poissons Ratio (x) = 0.10055 0.48113
# Poissons Ratio (y) = 0.13376 0.44105
# Poissons Ratio (z) = 0.41391 0.28524
#
# Static dielectric constant tensor:
#      x y z
#    x 3.629840 0.000000 0.000000 
#    y 0.000000 3.386570 0.000000 
#    z 0.000000 0.000000 3.552920 
# 
# 
# High freq. dielectric constant tensor:
#      x y z
#    x 1.768480 0.000000 0.000000 
#    y 0.000000 1.732910 0.000000 
#    z 0.000000 0.000000 1.748840 
# 
# From -- ./inp_files/23212.got.cif
#   From: 2010.03.12/outbox.cif.g09.slc.cpg/sg38_12_cif.got.tgz:23212.got - 2010.04.14 02:38:36.
