data_PCOD8179397
_publ_section_title
;
Structure prediction by ZEFSAII (Michael W. Deem and Ramdas Pophale) SiO2 
 PCOD8179397
Probable space group: A M M 2
;
_chemical_formula_sum "Si O2"
_cell_formula_units_Z 64
_cell_length_a 8.818551
_cell_length_b 19.853683
_cell_length_c 20.155655
_cell_angle_alpha 90.000000
_cell_angle_beta 90.000000
_cell_angle_gamma 90.000000
_cell_volume 3528.866510
_symmetry_space_group_name_H-M "A M M 2"
_symmetry_group_IT_number 38
_symmetry_cell_setting 'orthorhombic'
loop_
_space_group_symop_operation_xyz
x,y,z
-x,-y,z
-x,y,z
x,-y,z
x,1/2+y,1/2+z
-x,1/2-y,1/2+z
-x,1/2+y,1/2+z
x,1/2-y,1/2+z
loop_
_atom_site_type_symbol
_atom_site_label
_atom_site_fract_x
_atom_site_fract_y
_atom_site_fract_z
Si Si1 0.679721 0.679651 0.949410
Si Si2 0.680479 0.074549 0.194546
Si Si3 0.823350 0.921909 0.550738
Si Si4 0.177851 0.821132 0.946104
Si Si5 0.674613 0.078744 0.045200
Si Si6 0.324463 0.077660 0.687783
Si Si7 0.321943 0.171555 0.806621
Si Si8 0.677957 0.677046 0.801005
O O1 0.500000 0.686158 0.951739
O O2 0.732446 0.620833 0.997426
O O3 0.746764 0.751617 0.970652
O O4 0.737450 0.661416 0.875198
O O5 0.500000 0.073850 0.198416
O O6 0.727435 0.095405 0.120207
O O7 0.753453 0.126769 0.247355
O O8 0.742880 0.000000 0.211562
O O9 0.771696 0.900179 0.624052
O O10 0.000000 0.907124 0.543079
O O11 0.783778 0.000000 0.538402
O O12 0.235816 0.844832 0.874316
O O13 0.000000 0.810010 0.943302
O O14 0.217341 0.879650 0.997342
O O15 0.500000 0.099910 0.033978
O O16 0.695776 0.000000 0.030134
O O17 0.500000 0.092861 0.672457
O O18 0.266115 0.120218 0.750366
O O19 0.297313 0.000000 0.705536
O O20 0.500000 0.164098 0.821087
O O21 0.281471 0.246504 0.781453
O O22 0.500000 0.665450 0.799253
#
# Coordination Sequence:
#
# PCOD8179397 Si02
#       8
#     8   8   8   8   8   8   8   8
#     4  10  20  35  55  77 103 137 177 219 260 307
#     4   8  14  26  46  73 101 126 157 201 250 296
#     4  10  21  36  53  76 109 143 173 212 263 317
#     4  11  22  35  52  75 105 139 174 216 266 316
#     4   9  18  33  53  76 103 136 172 210 254 307
#     4   9  18  33  53  76 101 132 173 217 257 303
#     4   9  18  33  51  73 101 133 171 213 255 302
#     4   8  15  28  47  72  99 125 159 206 253 295
#
# _framework density 18.136136
#
# number of rings (size 3 to 8) (size 9 to 14) (size 15 to 20)
#    0.000    2.750    0.000    3.375    0.000    3.500 
#    0.000    5.000    0.000    3.750    0.000    0.000 
#    0.000    0.000    0.000    0.000    0.000    0.000 
#
# Total GULP energy -396779.950496 kJ/mol
# GULP energy per Si atom -12399.373453 kJ/mol
# Density = 1.809486 g / cm^3
# Si number density = 18.136136 Si / 1000 Ang^3
#
#
#
# Elastic Constant Matrix: (Units=GPa)
#
#
# Indices 1 2 3 4 5 6 
#
# 1 65.8241 36.6790 40.8515 0.0000 0.0000 0.0000
# 2 36.6790 100.4120 83.6880 0.0000 0.0000 0.0000
# 3 40.8515 83.6880 120.2677 0.0000 0.0000 0.0000
# 4 0.0000 0.0000 0.0000 41.3230 0.0000 0.0000
# 5 0.0000 0.0000 0.0000 0.0000 11.3296 0.0000
# 6 0.0000 0.0000 0.0000 0.0000 0.0000 19.1266
#
#
#
# Elastic Compliance Matrix: (Units=1/GPa)
#
#
# Indices 1 2 3 4 5 6 
#
# 1 0.019868 -0.003887 -0.004043 0.000000 0.000000 0.000000
# 2 -0.003887 0.024470 -0.015707 0.000000 0.000000 0.000000
# 3 -0.004043 -0.015707 0.020618 0.000000 0.000000 0.000000
# 4 0.000000 0.000000 0.000000 0.024200 0.000000 0.000000
# 5 0.000000 0.000000 0.000000 0.000000 0.088264 0.000000
# 6 0.000000 0.000000 0.000000 0.000000 0.000000 0.052283
#
#
# Mechanical properties :
#
#
# Convention : Reuss Voigt Hill
#
# Bulk Modulus (GPa) = 56.56137 67.66010 62.11073
# Shear Modulus (GPa) = 17.67593 22.70820 20.19206
#
# Velocity S-wave (km/s) = 3.12529 3.54234 3.34033
# Velocity P-wave (km/s) = 6.65417 7.35654 7.01415
#
# Compressibility (1/GPa) = 0.01767991
#
# Stress axis : x y z
#
# Youngs Moduli (GPa) = 50.33332 40.86684 48.50185
#
# Poissons Ratio (x) = 0.15886 0.19611
# Poissons Ratio (y) = 0.19566 0.76181
# Poissons Ratio (z) = 0.20352 0.64189
#
# Static dielectric constant tensor:
#      x y z
#    x 3.060590 0.000000 0.000000 
#    y 0.000000 3.532660 0.000000 
#    z 0.000000 0.000000 3.561890 
# 
# 
# High freq. dielectric constant tensor:
#      x y z
#    x 1.675630 0.000000 0.000000 
#    y 0.000000 1.705320 0.000000 
#    z 0.000000 0.000000 1.708300 
# 
# From -- ./inp_files/17170.got.cif
#   From: 2010.03.12/outbox.cif.g09.slc.cpg/sg38_9_cif.got.tgz:17170.got - 2010.04.14 02:38:36.
