data_PCOD8179249
_publ_section_title
;
Structure prediction by ZEFSAII (Michael W. Deem and Ramdas Pophale) SiO2 
 PCOD8179249
Probable space group: A M M 2
;
_chemical_formula_sum "Si O2"
_cell_formula_units_Z 48
_cell_length_a 14.059462
_cell_length_b 8.913056
_cell_length_c 20.787494
_cell_angle_alpha 90.000000
_cell_angle_beta 90.000000
_cell_angle_gamma 90.000000
_cell_volume 2604.938499
_symmetry_space_group_name_H-M "A M M 2"
_symmetry_group_IT_number 38
_symmetry_cell_setting 'orthorhombic'
loop_
_space_group_symop_operation_xyz
x,y,z
-x,-y,z
-x,y,z
x,-y,z
x,1/2+y,1/2+z
-x,1/2-y,1/2+z
-x,1/2+y,1/2+z
x,1/2-y,1/2+z
loop_
_atom_site_type_symbol
_atom_site_label
_atom_site_fract_x
_atom_site_fract_y
_atom_site_fract_z
Si Si1 0.293613 0.823840 0.787810
Si Si2 0.893732 0.673755 0.352526
Si Si3 0.606258 0.178672 0.914651
Si Si4 0.716715 0.322349 0.540134
Si Si5 0.891727 0.824353 0.487403
Si Si6 0.611247 0.176674 0.658554
O O1 0.181134 0.785915 0.795977
O O2 0.348795 0.755581 0.849166
O O3 0.335700 0.757557 0.721870
O O4 0.311872 0.000000 0.786108
O O5 0.882497 0.500000 0.372484
O O6 0.869521 0.768290 0.415580
O O7 0.000000 0.708613 0.326739
O O8 0.500000 0.242147 0.921187
O O9 0.606653 0.000000 0.913163
O O10 0.666076 0.235773 0.975352
O O11 0.721486 0.500000 0.544792
O O12 0.823621 0.256449 0.539195
O O13 0.656387 0.261548 0.599042
O O14 0.000000 0.784765 0.506420
O O15 0.872608 0.000000 0.489931
O O16 0.500000 0.215137 0.663755
O O17 0.628119 0.000000 0.650262
#
# Coordination Sequence:
#
# PCOD8179249 Si02
#       6
#     8   8   8   8   8   8
#     4   9  16  30  51  77 105 139 183 224 267 318
#     4   9  16  29  52  81 109 137 176 225 273 322
#     4   9  16  27  48  77 102 129 175 228 267 305
#     4  11  21  35  55  79 108 143 182 226 273 326
#     4  10  20  34  54  81 111 141 175 220 275 331
#     4  10  21  36  54  76 108 149 187 227 275 325
#
# _framework density 18.426538999999998
#
# number of rings (size 3 to 8) (size 9 to 14) (size 15 to 20)
#    0.000    2.333    1.667    2.000    0.000    4.000 
#    0.000    1.667    0.000    3.000    0.000    0.000 
#    0.000    0.000    0.000    0.000    0.000    0.000 
#
# Total GULP energy -297560.245334 kJ/mol
# GULP energy per Si atom -12398.343556 kJ/mol
# Density = 1.838460 g / cm^3
# Si number density = 18.426539 Si / 1000 Ang^3
#
#
#
# Elastic Constant Matrix: (Units=GPa)
#
#
# Indices 1 2 3 4 5 6 
#
# 1 149.5411 44.4295 68.4625 0.0000 0.0000 0.0000
# 2 44.4295 47.2674 38.2077 0.0000 0.0000 0.0000
# 3 68.4625 38.2077 123.5277 0.0000 0.0000 0.0000
# 4 0.0000 0.0000 0.0000 23.9321 0.0000 0.0000
# 5 0.0000 0.0000 0.0000 0.0000 37.3498 0.0000
# 6 0.0000 0.0000 0.0000 0.0000 0.0000 21.2473
#
#
#
# Elastic Compliance Matrix: (Units=1/GPa)
#
#
# Indices 1 2 3 4 5 6 
#
# 1 0.010380 -0.006809 -0.003647 0.000000 0.000000 0.000000
# 2 -0.006809 0.032675 -0.006333 0.000000 0.000000 0.000000
# 3 -0.003647 -0.006333 0.012075 0.000000 0.000000 0.000000
# 4 0.000000 0.000000 0.000000 0.041785 0.000000 0.000000
# 5 0.000000 0.000000 0.000000 0.000000 0.026774 0.000000
# 6 0.000000 0.000000 0.000000 0.000000 0.000000 0.047065
#
#
# Mechanical properties :
#
#
# Convention : Reuss Voigt Hill
#
# Bulk Modulus (GPa) = 46.39658 69.17062 57.78360
# Shear Modulus (GPa) = 23.63900 27.78828 25.71364
#
# Velocity S-wave (km/s) = 3.58561 3.88758 3.73965
# Velocity P-wave (km/s) = 6.50969 7.60073 7.07627
#
# Compressibility (1/GPa) = 0.02155331
#
# Stress axis : x y z
#
# Youngs Moduli (GPa) = 96.34365 30.60421 82.81373
#
# Poissons Ratio (x) = 0.20837 0.30200
# Poissons Ratio (y) = 0.65597 0.52447
# Poissons Ratio (z) = 0.35133 0.19382
#
# Static dielectric constant tensor:
#      x y z
#    x 3.740200 0.000000 0.000000 
#    y 0.000000 3.080160 0.000000 
#    z 0.000000 0.000000 3.369900 
# 
# 
# High freq. dielectric constant tensor:
#      x y z
#    x 1.735710 0.000000 0.000000 
#    y 0.000000 1.680170 0.000000 
#    z 0.000000 0.000000 1.698800 
# 
# From -- ./inp_files/18142.got.cif
#   From: 2010.03.12/outbox.cif.g09.slc.cpg/sg38_10_cif.got.tgz:18142.got - 2010.04.14 02:38:36.
