data_PCOD8179901
_publ_section_title
;
Structure prediction by ZEFSAII (Michael W. Deem and Ramdas Pophale) SiO2 
 PCOD8179901
Probable space group: A M M 2
;
_chemical_formula_sum "Si O2"
_cell_formula_units_Z 64
_cell_length_a 13.778014
_cell_length_b 9.344517
_cell_length_c 25.956080
_cell_angle_alpha 90.000000
_cell_angle_beta 90.000000
_cell_angle_gamma 90.000000
_cell_volume 3341.816386
_symmetry_space_group_name_H-M "A M M 2"
_symmetry_group_IT_number 38
_symmetry_cell_setting 'orthorhombic'
loop_
_space_group_symop_operation_xyz
x,y,z
-x,-y,z
-x,y,z
x,-y,z
x,1/2+y,1/2+z
-x,1/2-y,1/2+z
-x,1/2+y,1/2+z
x,1/2-y,1/2+z
loop_
_atom_site_type_symbol
_atom_site_label
_atom_site_fract_x
_atom_site_fract_y
_atom_site_fract_z
Si Si1 0.611402 0.331554 0.610680
Si Si2 0.890908 0.663464 0.770105
Si Si3 0.891486 0.336072 0.965520
Si Si4 0.300330 0.164837 0.217655
Si Si5 0.615034 0.161539 0.811278
Si Si6 0.384981 0.162735 0.408387
Si Si7 0.299122 0.335789 0.016842
Si Si8 0.884605 0.838790 0.867755
O O1 0.500000 0.282345 0.614773
O O2 0.620119 0.500000 0.603319
O O3 0.667660 0.279571 0.661688
O O4 0.661488 0.260199 0.562184
O O5 0.891817 0.500000 0.789678
O O6 0.816657 0.682370 0.722467
O O7 0.848173 0.761019 0.815999
O O8 0.000000 0.709640 0.752991
O O9 0.892580 0.500000 0.946890
O O10 0.848629 0.244514 0.918233
O O11 0.000000 0.286942 0.982277
O O12 0.817959 0.316654 0.013373
O O13 0.355156 0.256365 0.260062
O O14 0.332005 0.000000 0.225114
O O15 0.500000 0.162485 0.814392
O O16 0.658110 0.238818 0.862402
O O17 0.655656 0.000000 0.809679
O O18 0.500000 0.174019 0.409905
O O19 0.345336 0.216911 0.463147
O O20 0.350904 0.000000 0.398051
O O21 0.327848 0.500000 0.027684
O O22 0.000000 0.834945 0.867389
O O23 0.844145 0.000000 0.868724
#
# Coordination Sequence:
#
# PCOD8179901 Si02
#       8
#     8   8   8   8   8   8   8   8
#     4  10  22  40  60  82 108 139 178 228 284 335
#     4   9  18  33  53  77 107 144 185 224 262 313
#     4   9  18  33  52  76 110 149 187 224 263 315
#     4  10  21  37  58  80 106 143 185 223 269 329
#     4  10  21  35  52  79 112 142 175 220 275 329
#     4   9  18  33  52  75 105 140 177 219 270 328
#     4  10  21  36  57  82 107 141 187 229 270 322
#     4   9  17  29  47  74 109 146 181 220 266 313
#
# _framework density 19.151261999999999
#
# number of rings (size 3 to 8) (size 9 to 14) (size 15 to 20)
#    0.000    2.500    0.000    1.500    1.750    5.500 
#    0.000    1.875    0.000    0.750    0.000    0.000 
#    0.000    0.000    0.000    0.000    0.000    0.000 
#
# Total GULP energy -396795.281811 kJ/mol
# GULP energy per Si atom -12399.852557 kJ/mol
# Density = 1.910767 g / cm^3
# Si number density = 19.151262 Si / 1000 Ang^3
#
#
#
# Elastic Constant Matrix: (Units=GPa)
#
#
# Indices 1 2 3 4 5 6 
#
# 1 68.6450 34.5817 62.0465 0.0000 0.0000 0.0000
# 2 34.5817 84.6782 68.9226 0.0000 0.0000 0.0000
# 3 62.0465 68.9226 152.7537 0.0000 0.0000 0.0000
# 4 0.0000 0.0000 0.0000 34.2658 0.0000 0.0000
# 5 0.0000 0.0000 0.0000 0.0000 31.7399 0.0000
# 6 0.0000 0.0000 0.0000 0.0000 0.0000 19.9374
#
#
#
# Elastic Compliance Matrix: (Units=1/GPa)
#
#
# Indices 1 2 3 4 5 6 
#
# 1 0.023456 -0.002883 -0.008227 0.000000 0.000000 0.000000
# 2 -0.002883 0.019018 -0.007410 0.000000 0.000000 0.000000
# 3 -0.008227 -0.007410 0.013231 0.000000 0.000000 0.000000
# 4 0.000000 0.000000 0.000000 0.029184 0.000000 0.000000
# 5 0.000000 0.000000 0.000000 0.000000 0.031506 0.000000
# 6 0.000000 0.000000 0.000000 0.000000 0.000000 0.050157
#
#
# Mechanical properties :
#
#
# Convention : Reuss Voigt Hill
#
# Bulk Modulus (GPa) = 53.57321 70.79761 62.18541
# Shear Modulus (GPa) = 23.83070 26.55703 25.19386
#
# Velocity S-wave (km/s) = 3.53135 3.72788 3.63094
# Velocity P-wave (km/s) = 6.68294 7.45502 7.07951
#
# Compressibility (1/GPa) = 0.01866605
#
# Stress axis : x y z
#
# Youngs Moduli (GPa) = 42.63289 52.58175 75.57816
#
# Poissons Ratio (x) = 0.15161 0.62175
# Poissons Ratio (y) = 0.12292 0.56002
# Poissons Ratio (z) = 0.35072 0.38962
#
# Static dielectric constant tensor:
#      x y z
#    x 3.710460 0.000000 0.000000 
#    y 0.000000 3.574120 0.000000 
#    z 0.000000 0.000000 3.324710 
# 
# 
# High freq. dielectric constant tensor:
#      x y z
#    x 1.761630 0.000000 0.000000 
#    y 0.000000 1.739500 0.000000 
#    z 0.000000 0.000000 1.720600 
# 
# From -- ./inp_files/22926.got.cif
#   From: 2010.03.12/outbox.cif.g09.slc.cpg/sg38_12_cif.got.tgz:22926.got - 2010.04.14 02:38:36.
