data_PCOD8179813
_publ_section_title
;
Structure prediction by ZEFSAII (Michael W. Deem and Ramdas Pophale) SiO2 
 PCOD8179813
Probable space group: A M M 2
;
_chemical_formula_sum "Si O2"
_cell_formula_units_Z 48
_cell_length_a 7.625888
_cell_length_b 33.810606
_cell_length_c 9.510767
_cell_angle_alpha 90.000000
_cell_angle_beta 90.000000
_cell_angle_gamma 90.000000
_cell_volume 2452.217117
_symmetry_space_group_name_H-M "A M M 2"
_symmetry_group_IT_number 38
_symmetry_cell_setting 'orthorhombic'
loop_
_space_group_symop_operation_xyz
x,y,z
-x,-y,z
-x,y,z
x,-y,z
x,1/2+y,1/2+z
-x,1/2-y,1/2+z
-x,1/2+y,1/2+z
x,1/2-y,1/2+z
loop_
_atom_site_type_symbol
_atom_site_label
_atom_site_fract_x
_atom_site_fract_y
_atom_site_fract_z
Si Si1 0.799773 0.636102 0.460120
Si Si2 0.199149 0.170986 0.507743
Si Si3 0.500000 0.725948 0.092867
Si Si4 0.298286 0.616500 0.765674
Si Si5 0.204342 0.401251 0.185173
Si Si6 0.208338 0.043900 0.449945
Si Si7 0.500000 0.198921 0.913648
O O1 0.783531 0.616720 0.611581
O O2 0.751189 0.600321 0.350594
O O3 0.674708 0.673029 0.431431
O O4 0.000000 0.650188 0.433193
O O5 0.325576 0.208344 0.520543
O O6 0.201504 0.150330 0.355045
O O7 0.277760 0.139307 0.618222
O O8 0.000000 0.184578 0.540147
O O9 0.500000 0.721233 0.262501
O O10 0.500000 0.771492 0.046286
O O11 0.500000 0.628001 0.757002
O O12 0.274100 0.572528 0.826692
O O13 0.000000 0.401256 0.152822
O O14 0.279764 0.439245 0.101085
O O15 0.000000 0.042025 0.446327
O O16 0.287588 0.000000 0.428990
#
# Coordination Sequence:
#
# PCOD8179813 Si02
#       7
#     8   8   4   8   8   8   4
#     4  11  22  41  63  87 120 161 208 251 297 356
#     4  10  20  39  63  85 114 157 203 245 294 358
#     4  12  26  42  62  90 123 155 196 246 313 365
#     4  11  21  35  61  90 122 160 204 250 297 356
#     4   8  16  33  60  85 109 154 203 241 289 348
#     4   9  18  35  59  90 124 156 198 251 302 356
#     4  12  28  42  62  90 123 157 196 250 311 365
#
# _framework density 19.574123
#
# number of rings (size 3 to 8) (size 9 to 14) (size 15 to 20)
#    0.000    1.833    3.333    2.500    2.333    1.000 
#    0.000    0.833    0.000    3.000    0.000    0.000 
#    0.000    0.000    0.000    0.000    0.000    0.000 
#
# Total GULP energy -297472.520413 kJ/mol
# GULP energy per Si atom -12394.688351 kJ/mol
# Density = 1.952957 g / cm^3
# Si number density = 19.574123 Si / 1000 Ang^3
#
#
#
# Elastic Constant Matrix: (Units=GPa)
#
#
# Indices 1 2 3 4 5 6 
#
# 1 95.8087 31.1342 20.3822 0.0000 0.0000 0.0000
# 2 31.1342 94.3773 48.9459 0.0000 0.0000 0.0000
# 3 20.3822 48.9459 161.3056 0.0000 0.0000 0.0000
# 4 0.0000 0.0000 0.0000 21.7834 0.0000 0.0000
# 5 0.0000 0.0000 0.0000 0.0000 21.1045 0.0000
# 6 0.0000 0.0000 0.0000 0.0000 0.0000 22.2980
#
#
#
# Elastic Compliance Matrix: (Units=1/GPa)
#
#
# Indices 1 2 3 4 5 6 
#
# 1 0.011709 -0.003673 -0.000365 0.000000 0.000000 0.000000
# 2 -0.003673 0.013727 -0.003701 0.000000 0.000000 0.000000
# 3 -0.000365 -0.003701 0.007369 0.000000 0.000000 0.000000
# 4 0.000000 0.000000 0.000000 0.045907 0.000000 0.000000
# 5 0.000000 0.000000 0.000000 0.000000 0.047383 0.000000
# 6 0.000000 0.000000 0.000000 0.000000 0.000000 0.044847
#
#
# Mechanical properties :
#
#
# Convention : Reuss Voigt Hill
#
# Bulk Modulus (GPa) = 57.71782 61.37958 59.54870
# Shear Modulus (GPa) = 26.01520 29.77246 27.89383
#
# Velocity S-wave (km/s) = 3.64958 3.90425 3.77906
# Velocity P-wave (km/s) = 6.87823 7.19373 7.03775
#
# Compressibility (1/GPa) = 0.01732567
#
# Stress axis : x y z
#
# Youngs Moduli (GPa) = 85.40583 72.84875 135.71165
#
# Poissons Ratio (x) = 0.26760 0.04951
# Poissons Ratio (y) = 0.31373 0.50228
# Poissons Ratio (z) = 0.03116 0.26962
#
# Static dielectric constant tensor:
#      x y z
#    x 3.578630 0.000000 0.000000 
#    y 0.000000 3.564660 0.000000 
#    z 0.000000 0.000000 3.750190 
# 
# 
# High freq. dielectric constant tensor:
#      x y z
#    x 1.768110 0.000000 0.000000 
#    y 0.000000 1.734610 0.000000 
#    z 0.000000 0.000000 1.768650 
# 
# From -- ./inp_files/3815.got.cif
#   From: 2010.03.12/outbox.cif.g09.slc.cpg/sg38_2_cif.got.tgz:3815.got - 2010.04.14 02:38:36.
