data_PCOD8179402
_publ_section_title
;
Structure prediction by ZEFSAII (Michael W. Deem and Ramdas Pophale) SiO2 
 PCOD8179402
Probable space group: A M M 2
;
_chemical_formula_sum "Si O2"
_cell_formula_units_Z 48
_cell_length_a 8.844101
_cell_length_b 16.397265
_cell_length_c 18.492691
_cell_angle_alpha 90.000000
_cell_angle_beta 90.000000
_cell_angle_gamma 90.000000
_cell_volume 2681.792810
_symmetry_space_group_name_H-M "A M M 2"
_symmetry_group_IT_number 38
_symmetry_cell_setting 'orthorhombic'
loop_
_space_group_symop_operation_xyz
x,y,z
-x,-y,z
-x,y,z
x,-y,z
x,1/2+y,1/2+z
-x,1/2-y,1/2+z
-x,1/2+y,1/2+z
x,1/2-y,1/2+z
loop_
_atom_site_type_symbol
_atom_site_label
_atom_site_fract_x
_atom_site_fract_y
_atom_site_fract_z
Si Si1 0.324893 0.591856 0.098510
Si Si2 0.174120 0.840180 0.061377
Si Si3 0.824414 0.816520 0.470530
Si Si4 0.178402 0.500000 0.746206
Si Si5 0.322709 0.000000 0.088530
Si Si6 0.325196 0.653449 0.819512
Si Si7 0.672693 0.753780 0.684676
O O1 0.500000 0.597642 0.076124
O O2 0.281017 0.500000 0.121802
O O3 0.289500 0.651539 0.166576
O O4 0.226916 0.616887 0.029157
O O5 0.219727 0.805256 0.139334
O O6 0.000000 0.864814 0.064826
O O7 0.270387 0.920734 0.043709
O O8 0.207197 0.773998 0.999863
O O9 0.726671 0.824224 0.399138
O O10 0.000000 0.831006 0.453534
O O11 0.250808 0.500000 0.667571
O O12 0.227898 0.578910 0.790524
O O13 0.000000 0.500000 0.737538
O O14 0.500000 0.000000 0.097603
O O15 0.500000 0.627292 0.820639
O O16 0.300475 0.733592 0.768996
O O17 0.500000 0.734155 0.662331
#
# Coordination Sequence:
#
# PCOD8179402 Si02
#       7
#     8   8   8   4   4   8   8
#     4   9  18  34  56  80 105 137 178 225 272 319
#     4  10  20  35  55  79 106 143 184 225 269 318
#     4  10  22  37  54  78 110 146 181 221 271 324
#     4  12  24  36  54  82 114 143 176 221 272 326
#     4  12  22  34  56  84 112 139 176 225 274 328
#     4  11  22  36  55  79 111 146 181 220 268 326
#     4   9  18  33  54  78 105 140 179 224 270 318
#
# _framework density 17.898475000000001
#
# number of rings (size 3 to 8) (size 9 to 14) (size 15 to 20)
#    0.000    1.833    1.667    3.000    1.167    3.000 
#    0.000    0.000    1.833    0.000    0.000    0.000 
#    0.000    0.000    0.000    0.000    0.000    0.000 
#
# Total GULP energy -297627.378757 kJ/mol
# GULP energy per Si atom -12401.140782 kJ/mol
# Density = 1.785774 g / cm^3
# Si number density = 17.898475 Si / 1000 Ang^3
#
#
#
# Elastic Constant Matrix: (Units=GPa)
#
#
# Indices 1 2 3 4 5 6 
#
# 1 96.7300 49.2718 26.4048 0.0000 0.0000 0.0000
# 2 49.2718 136.5380 41.1555 0.0000 0.0000 0.0000
# 3 26.4048 41.1555 70.5942 0.0000 0.0000 0.0000
# 4 0.0000 0.0000 0.0000 17.9639 0.0000 0.0000
# 5 0.0000 0.0000 0.0000 0.0000 23.4331 0.0000
# 6 0.0000 0.0000 0.0000 0.0000 0.0000 28.0671
#
#
#
# Elastic Compliance Matrix: (Units=1/GPa)
#
#
# Indices 1 2 3 4 5 6 
#
# 1 0.013045 -0.003927 -0.002590 0.000000 0.000000 0.000000
# 2 -0.003927 0.010067 -0.004400 0.000000 0.000000 0.000000
# 3 -0.002590 -0.004400 0.017700 0.000000 0.000000 0.000000
# 4 0.000000 0.000000 0.000000 0.055667 0.000000 0.000000
# 5 0.000000 0.000000 0.000000 0.000000 0.042675 0.000000
# 6 0.000000 0.000000 0.000000 0.000000 0.000000 0.035629
#
#
# Mechanical properties :
#
#
# Convention : Reuss Voigt Hill
#
# Bulk Modulus (GPa) = 52.69359 59.72516 56.20937
# Shear Modulus (GPa) = 24.63736 26.36149 25.49942
#
# Velocity S-wave (km/s) = 3.71415 3.84192 3.77858
# Velocity P-wave (km/s) = 6.92080 7.28846 7.10701
#
# Compressibility (1/GPa) = 0.01897764
#
# Stress axis : x y z
#
# Youngs Moduli (GPa) = 76.65569 99.33035 56.49833
#
# Poissons Ratio (x) = 0.39006 0.14634
# Poissons Ratio (y) = 0.30102 0.24861
# Poissons Ratio (z) = 0.19855 0.43709
#
# Static dielectric constant tensor:
#      x y z
#    x 3.440330 0.000000 0.000000 
#    y 0.000000 3.649050 0.000000 
#    z 0.000000 0.000000 3.155900 
# 
# 
# High freq. dielectric constant tensor:
#      x y z
#    x 1.704870 0.000000 0.000000 
#    y 0.000000 1.698530 0.000000 
#    z 0.000000 0.000000 1.670180 
# 
# From -- ./inp_files/16680.got.cif
#   From: 2010.03.12/outbox.cif.g09.slc.cpg/sg38_9_cif.got.tgz:16680.got - 2010.04.14 02:38:36.
