data_PCOD8179828
_publ_section_title
;
Structure prediction by ZEFSAII (Michael W. Deem and Ramdas Pophale) SiO2 
 PCOD8179828
Probable space group: A M M 2
;
_chemical_formula_sum "Si O2"
_cell_formula_units_Z 44
_cell_length_a 14.141415
_cell_length_b 10.817543
_cell_length_c 14.991785
_cell_angle_alpha 90.000000
_cell_angle_beta 90.000000
_cell_angle_gamma 90.000000
_cell_volume 2293.373780
_symmetry_space_group_name_H-M "A M M 2"
_symmetry_group_IT_number 38
_symmetry_cell_setting 'orthorhombic'
loop_
_space_group_symop_operation_xyz
x,y,z
-x,-y,z
-x,y,z
x,-y,z
x,1/2+y,1/2+z
-x,1/2-y,1/2+z
-x,1/2+y,1/2+z
x,1/2-y,1/2+z
loop_
_atom_site_type_symbol
_atom_site_label
_atom_site_fract_x
_atom_site_fract_y
_atom_site_fract_z
Si Si1 0.609725 0.500000 0.217930
Si Si2 0.102929 0.143211 0.325633
Si Si3 0.224724 0.246526 0.973030
Si Si4 0.611859 0.228900 0.593430
Si Si5 0.111720 0.640175 0.629950
Si Si6 0.703971 0.500000 0.407835
Si Si7 0.392459 0.500000 0.588809
O O1 0.500000 0.500000 0.239047
O O2 0.637228 0.624494 0.164952
O O3 0.663384 0.500000 0.309721
O O4 0.178580 0.159557 0.403734
O O5 0.136032 0.194076 0.228751
O O6 0.000000 0.201045 0.352058
O O7 0.088287 0.000000 0.308692
O O8 0.230154 0.118444 0.919824
O O9 0.328090 0.298079 0.003247
O O10 0.160511 0.232623 0.060628
O O11 0.500000 0.228270 0.569697
O O12 0.646889 0.367730 0.627091
O O13 0.151564 0.500000 0.616063
O O14 0.000000 0.641514 0.613773
O O15 0.620909 0.500000 0.481849
O O16 0.500000 0.500000 0.615179
#
# Coordination Sequence:
#
# PCOD8179828 Si02
#       7
#     4   8   8   8   8   4   4
#     4  10  21  38  56  79 114 155 192 233 288 340
#     4   9  20  37  56  81 111 145 184 226 283 343
#     4  11  20  34  58  84 113 142 188 234 278 335
#     4   9  20  35  56  82 115 153 191 234 282 336
#     4   9  18  35  57  80 108 143 181 224 277 339
#     4  10  21  32  51  85 107 144 185 230 281 340
#     4   8  15  34  56  76 103 143 191 233 275 322
#
# _framework density 19.185708000000002
#
# number of rings (size 3 to 8) (size 9 to 14) (size 15 to 20)
#    0.000    2.545    0.909    1.909    3.818    0.727 
#    0.000    0.000    0.000    0.000    0.000    8.909 
#    0.000    0.000    0.000    0.000    0.000    0.000 
#
# Total GULP energy -272590.169959 kJ/mol
# GULP energy per Si atom -12390.462271 kJ/mol
# Density = 1.914204 g / cm^3
# Si number density = 19.185708 Si / 1000 Ang^3
#
#
#
# Elastic Constant Matrix: (Units=GPa)
#
#
# Indices 1 2 3 4 5 6 
#
# 1 51.6523 24.8117 48.7144 0.0000 0.0000 0.0000
# 2 24.8117 83.1337 51.4709 0.0000 0.0000 0.0000
# 3 48.7144 51.4709 127.4399 0.0000 0.0000 0.0000
# 4 0.0000 0.0000 0.0000 23.5935 0.0000 0.0000
# 5 0.0000 0.0000 0.0000 0.0000 33.0875 0.0000
# 6 0.0000 0.0000 0.0000 0.0000 0.0000 22.5074
#
#
#
# Elastic Compliance Matrix: (Units=1/GPa)
#
#
# Indices 1 2 3 4 5 6 
#
# 1 0.030668 -0.002527 -0.010702 0.000000 0.000000 0.000000
# 2 -0.002527 0.016248 -0.005596 0.000000 0.000000 0.000000
# 3 -0.010702 -0.005596 0.014198 0.000000 0.000000 0.000000
# 4 0.000000 0.000000 0.000000 0.042385 0.000000 0.000000
# 5 0.000000 0.000000 0.000000 0.000000 0.030223 0.000000
# 6 0.000000 0.000000 0.000000 0.000000 0.000000 0.044430
#
#
# Mechanical properties :
#
#
# Convention : Reuss Voigt Hill
#
# Bulk Modulus (GPa) = 42.62088 56.91332 49.76710
# Shear Modulus (GPa) = 22.35910 24.98626 23.67268
#
# Velocity S-wave (km/s) = 3.41751 3.61271 3.51646
# Velocity P-wave (km/s) = 6.15106 6.86520 6.51792
#
# Compressibility (1/GPa) = 0.02346268
#
# Stress axis : x y z
#
# Youngs Moduli (GPa) = 32.60777 61.54662 70.43190
#
# Poissons Ratio (x) = 0.15551 0.75378
# Poissons Ratio (y) = 0.08239 0.39416
# Poissons Ratio (z) = 0.34898 0.34444
#
# Static dielectric constant tensor:
#      x y z
#    x 3.564150 0.000000 0.000000 
#    y 0.000000 3.544700 0.000000 
#    z 0.000000 0.000000 3.332750 
# 
# 
# High freq. dielectric constant tensor:
#      x y z
#    x 1.751660 0.000000 0.000000 
#    y 0.000000 1.731740 0.000000 
#    z 0.000000 0.000000 1.732100 
# 
# From -- ./inp_files/14440.got.cif
#   From: 2010.03.12/outbox.cif.g09.slc.cpg/sg38_8_cif.got.tgz:14440.got - 2010.04.14 02:38:36.
