data_PCOD8179742
_publ_section_title
;
Structure prediction by ZEFSAII (Michael W. Deem and Ramdas Pophale) SiO2 
 PCOD8179742
Probable space group: A M M 2
;
_chemical_formula_sum "Si O2"
_cell_formula_units_Z 40
_cell_length_a 11.538392
_cell_length_b 8.745584
_cell_length_c 20.338873
_cell_angle_alpha 90.000000
_cell_angle_beta 90.000000
_cell_angle_gamma 90.000000
_cell_volume 2052.395196
_symmetry_space_group_name_H-M "A M M 2"
_symmetry_group_IT_number 38
_symmetry_cell_setting 'orthorhombic'
loop_
_space_group_symop_operation_xyz
x,y,z
-x,-y,z
-x,y,z
x,-y,z
x,1/2+y,1/2+z
-x,1/2-y,1/2+z
-x,1/2+y,1/2+z
x,1/2-y,1/2+z
loop_
_atom_site_type_symbol
_atom_site_label
_atom_site_fract_x
_atom_site_fract_y
_atom_site_fract_z
Si Si1 0.134822 0.179210 0.729520
Si Si2 0.730469 0.180416 0.109885
Si Si3 0.127479 0.318479 0.485438
Si Si4 0.268377 0.679796 0.361980
Si Si5 0.500000 0.819600 0.404985
Si Si6 0.500000 0.680986 0.056300
O O1 0.209866 0.272016 0.677407
O O2 0.191113 0.221340 0.799212
O O3 0.000000 0.230824 0.728919
O O4 0.144819 0.000000 0.714654
O O5 0.608681 0.261631 0.098198
O O6 0.710210 0.000000 0.108857
O O7 0.815324 0.236802 0.052593
O O8 0.120692 0.500000 0.481537
O O9 0.200190 0.254601 0.424662
O O10 0.000000 0.246063 0.482310
O O11 0.290777 0.500000 0.367019
O O12 0.391507 0.762748 0.362299
O O13 0.500000 0.755076 0.480661
O O14 0.500000 0.000000 0.407414
O O15 0.500000 0.500000 0.054959
#
# Coordination Sequence:
#
# PCOD8179742 Si02
#       6
#     8   8   8   8   4   4
#     4  10  22  40  61  88 124 162 198 241 295 354
#     4  11  22  37  61  89 119 156 199 248 300 350
#     4   9  17  31  55  86 113 143 192 245 288 338
#     4  10  20  37  62  86 114 156 202 242 287 349
#     4  11  23  38  59  88 123 153 189 248 309 354
#     4  11  23  40  61  86 121 157 197 248 305 362
#
# _framework density 19.489422999999999
#
# number of rings (size 3 to 8) (size 9 to 14) (size 15 to 20)
#    0.000    1.800    2.000    2.400    0.000    6.000 
#    0.000    1.000    0.000    3.000    0.000    0.000 
#    0.000    0.000    0.000    0.000    0.000    0.000 
#
# Total GULP energy -248028.075957 kJ/mol
# GULP energy per Si atom -12401.403798 kJ/mol
# Density = 1.944506 g / cm^3
# Si number density = 19.489423 Si / 1000 Ang^3
#
#
#
# Elastic Constant Matrix: (Units=GPa)
#
#
# Indices 1 2 3 4 5 6 
#
# 1 150.2454 37.2240 27.8762 0.0000 0.0000 0.0000
# 2 37.2240 49.5522 32.8399 0.0000 0.0000 0.0000
# 3 27.8762 32.8399 84.3952 0.0000 0.0000 0.0000
# 4 0.0000 0.0000 0.0000 29.6534 0.0000 0.0000
# 5 0.0000 0.0000 0.0000 0.0000 20.9516 0.0000
# 6 0.0000 0.0000 0.0000 0.0000 0.0000 21.5303
#
#
#
# Elastic Compliance Matrix: (Units=1/GPa)
#
#
# Indices 1 2 3 4 5 6 
#
# 1 0.008189 -0.005874 -0.000419 0.000000 0.000000 0.000000
# 2 -0.005874 0.031406 -0.010281 0.000000 0.000000 0.000000
# 3 -0.000419 -0.010281 0.015988 0.000000 0.000000 0.000000
# 4 0.000000 0.000000 0.000000 0.033723 0.000000 0.000000
# 5 0.000000 0.000000 0.000000 0.000000 0.047729 0.000000
# 6 0.000000 0.000000 0.000000 0.000000 0.000000 0.046446
#
#
# Mechanical properties :
#
#
# Convention : Reuss Voigt Hill
#
# Bulk Modulus (GPa) = 44.57150 53.34144 48.95647
# Shear Modulus (GPa) = 22.31074 26.84392 24.57733
#
# Velocity S-wave (km/s) = 3.38710 3.71530 3.55499
# Velocity P-wave (km/s) = 6.18190 6.77004 6.48264
#
# Compressibility (1/GPa) = 0.02243586
#
# Stress axis : x y z
#
# Youngs Moduli (GPa) = 122.11833 31.84058 62.54706
#
# Poissons Ratio (x) = 0.18702 0.02622
# Poissons Ratio (y) = 0.71728 0.64303
# Poissons Ratio (z) = 0.05120 0.32735
#
# Static dielectric constant tensor:
#      x y z
#    x 4.393400 0.000000 0.000000 
#    y 0.000000 3.262550 0.000000 
#    z 0.000000 0.000000 3.633780 
# 
# 
# High freq. dielectric constant tensor:
#      x y z
#    x 1.778630 0.000000 0.000000 
#    y 0.000000 1.735350 0.000000 
#    z 0.000000 0.000000 1.765060 
# 
# From -- ./inp_files/20456.got.cif
#   From: 2010.03.12/outbox.cif.g09.slc.cpg/sg38_11_cif.got.tgz:20456.got - 2010.04.14 02:38:36.
