data_PCOD8179729
_publ_section_title
;
Structure prediction by ZEFSAII (Michael W. Deem and Ramdas Pophale) SiO2 
 PCOD8179729
Probable space group: A M M 2
;
_chemical_formula_sum "Si O2"
_cell_formula_units_Z 24
_cell_length_a 7.790702
_cell_length_b 18.712308
_cell_length_c 8.769192
_cell_angle_alpha 90.000000
_cell_angle_beta 90.000000
_cell_angle_gamma 90.000000
_cell_volume 1278.390483
_symmetry_space_group_name_H-M "A M M 2"
_symmetry_group_IT_number 38
_symmetry_cell_setting 'orthorhombic'
loop_
_space_group_symop_operation_xyz
x,y,z
-x,-y,z
-x,y,z
x,-y,z
x,1/2+y,1/2+z
-x,1/2-y,1/2+z
-x,1/2+y,1/2+z
x,1/2-y,1/2+z
loop_
_atom_site_type_symbol
_atom_site_label
_atom_site_fract_x
_atom_site_fract_y
_atom_site_fract_z
Si Si1 0.309247 0.170123 0.992370
Si Si2 0.000000 0.917493 0.128272
Si Si3 0.190371 0.807011 0.660346
Si Si4 0.000000 0.582656 0.986970
O O1 0.500000 0.141888 0.032265
O O2 0.295354 0.174835 0.810642
O O3 0.289051 0.248769 0.061603
O O4 0.170834 0.115789 0.057846
O O5 0.000000 0.905326 0.307620
O O6 0.000000 0.000000 0.083686
O O7 0.000000 0.777163 0.705387
O O8 0.169093 0.879084 0.558231
O O9 0.000000 0.500000 0.033179
#
# Coordination Sequence:
#
# PCOD8179729 Si02
#       4
#     8   4   8   4
#     4  12  23  38  62  91 119 155 198 245 294 351
#     4  11  22  41  62  85 121 159 196 245 294 351
#     4  10  20  37  61  86 121 151 196 241 298 341
#     4   9  20  37  64  85 111 161 200 235 296 351
#
# _framework density 18.773606000000001
#
# number of rings (size 3 to 8) (size 9 to 14) (size 15 to 20)
#    1.000    0.333    3.333    3.000    0.000    3.333 
#    0.000    1.667    0.000    7.000    0.000    0.000 
#    0.000    0.000    0.000    0.000    0.000    0.000 
#
# Total GULP energy -148781.038729 kJ/mol
# GULP energy per Si atom -12398.419894 kJ/mol
# Density = 1.873088 g / cm^3
# Si number density = 18.773606 Si / 1000 Ang^3
#
#
#
# Elastic Constant Matrix: (Units=GPa)
#
#
# Indices 1 2 3 4 5 6 
#
# 1 151.7224 62.0375 46.8646 0.0000 0.0000 0.0000
# 2 62.0375 146.3703 84.2199 0.0000 0.0000 0.0000
# 3 46.8646 84.2199 123.9100 0.0000 0.0000 0.0000
# 4 0.0000 0.0000 0.0000 35.0476 0.0000 0.0000
# 5 0.0000 0.0000 0.0000 0.0000 9.3356 0.0000
# 6 0.0000 0.0000 0.0000 0.0000 0.0000 10.4107
#
#
#
# Elastic Compliance Matrix: (Units=1/GPa)
#
#
# Indices 1 2 3 4 5 6 
#
# 1 0.008079 -0.002736 -0.001196 0.000000 0.000000 0.000000
# 2 -0.002736 0.012147 -0.007221 0.000000 0.000000 0.000000
# 3 -0.001196 -0.007221 0.013431 0.000000 0.000000 0.000000
# 4 0.000000 0.000000 0.000000 0.028533 0.000000 0.000000
# 5 0.000000 0.000000 0.000000 0.000000 0.107117 0.000000
# 6 0.000000 0.000000 0.000000 0.000000 0.000000 0.096055
#
#
# Mechanical properties :
#
#
# Convention : Reuss Voigt Hill
#
# Bulk Modulus (GPa) = 88.10359 89.80517 88.95438
# Shear Modulus (GPa) = 17.15554 26.21749 21.68651
#
# Velocity S-wave (km/s) = 3.02621 3.74104 3.40245
# Velocity P-wave (km/s) = 7.69688 8.16090 7.93228
#
# Compressibility (1/GPa) = 0.01135028
#
# Stress axis : x y z
#
# Youngs Moduli (GPa) = 123.77515 82.32794 74.45626
#
# Poissons Ratio (x) = 0.22526 0.08905
# Poissons Ratio (y) = 0.33867 0.53765
# Poissons Ratio (z) = 0.14803 0.59449
#
# Static dielectric constant tensor:
#      x y z
#    x 3.351830 0.000000 0.000000 
#    y 0.000000 3.381430 0.000000 
#    z 0.000000 0.000000 3.493490 
# 
# 
# High freq. dielectric constant tensor:
#      x y z
#    x 1.718030 0.000000 0.000000 
#    y 0.000000 1.720820 0.000000 
#    z 0.000000 0.000000 1.744320 
# 
# From -- ./inp_files/2840.got.cif
#   From: 2010.03.12/outbox.cif.g09.slc.cpg/sg38_2_cif.got.tgz:2840.got - 2010.04.14 02:38:36.
