data_PCOD8179279
_publ_section_title
;
Structure prediction by ZEFSAII (Michael W. Deem and Ramdas Pophale) SiO2 
 PCOD8179279
Probable space group: A M M 2
;
_chemical_formula_sum "Si O2"
_cell_formula_units_Z 64
_cell_length_a 8.667862
_cell_length_b 20.211944
_cell_length_c 19.471768
_cell_angle_alpha 90.000000
_cell_angle_beta 90.000000
_cell_angle_gamma 90.000000
_cell_volume 3411.343570
_symmetry_space_group_name_H-M "A M M 2"
_symmetry_group_IT_number 38
_symmetry_cell_setting 'orthorhombic'
loop_
_space_group_symop_operation_xyz
x,y,z
-x,-y,z
-x,y,z
x,-y,z
x,1/2+y,1/2+z
-x,1/2-y,1/2+z
-x,1/2+y,1/2+z
x,1/2-y,1/2+z
loop_
_atom_site_type_symbol
_atom_site_label
_atom_site_fract_x
_atom_site_fract_y
_atom_site_fract_z
Si Si1 0.322457 0.271517 0.111870
Si Si2 0.323197 0.575008 0.327950
Si Si3 0.679413 0.383630 0.608945
Si Si4 0.821677 0.228783 0.469846
Si Si5 0.820087 0.882718 0.965270
Si Si6 0.179474 0.192150 0.748778
Si Si7 0.680077 0.811714 0.332364
Si Si8 0.823810 0.575026 0.746281
O O1 0.500000 0.289879 0.123110
O O2 0.292010 0.193871 0.120399
O O3 0.221606 0.309525 0.168464
O O4 0.271580 0.295407 0.036537
O O5 0.500000 0.598668 0.323763
O O6 0.305351 0.500000 0.301486
O O7 0.267503 0.577823 0.406314
O O8 0.218663 0.621056 0.280245
O O9 0.500000 0.401652 0.610017
O O10 0.751686 0.407077 0.537317
O O11 0.766439 0.423005 0.668159
O O12 0.787829 0.305240 0.453713
O O13 0.768614 0.186686 0.404574
O O14 0.000000 0.216041 0.484663
O O15 0.000000 0.899432 0.962638
O O16 0.274084 0.249422 0.786252
O O17 0.000000 0.206756 0.759415
O O18 0.500000 0.807615 0.347257
O O19 0.717428 0.879405 0.293452
O O20 0.810222 0.500000 0.773100
O O21 0.000000 0.600245 0.749739
#
# Coordination Sequence:
#
# PCOD8179279 Si02
#       8
#     8   8   8   8   8   8   8   8
#     4  10  20  35  57  87 118 150 188 236 286 339
#     4  11  24  40  58  82 115 154 195 240 288 341
#     4  10  20  34  55  81 114 154 193 235 281 338
#     4  10  20  35  57  87 118 150 188 236 286 339
#     4  10  20  34  55  81 114 154 193 235 281 338
#     4  12  23  37  60  87 116 152 192 239 287 340
#     4  12  23  37  60  87 116 152 192 239 287 340
#     4  11  24  40  58  82 115 154 195 240 288 341
#
# _framework density 18.760936000000001
#
# number of rings (size 3 to 8) (size 9 to 14) (size 15 to 20)
#    0.000    1.250    2.500    4.500    0.000    4.500 
#    0.000    0.000    0.000    0.750    0.000    0.000 
#    0.000    0.000    0.000    0.000    0.000    0.000 
#
# Total GULP energy -397018.079637 kJ/mol
# GULP energy per Si atom -12406.814989 kJ/mol
# Density = 1.871824 g / cm^3
# Si number density = 18.760936 Si / 1000 Ang^3
#
#
#
# Elastic Constant Matrix: (Units=GPa)
#
#
# Indices 1 2 3 4 5 6 
#
# 1 72.7960 20.7539 11.4643 0.0000 0.0000 0.0000
# 2 20.7539 64.1971 28.9305 0.0000 0.0000 0.0000
# 3 11.4643 28.9305 91.7415 0.0000 0.0000 0.0000
# 4 0.0000 0.0000 0.0000 22.3595 0.0000 0.0000
# 5 0.0000 0.0000 0.0000 0.0000 39.4576 0.0000
# 6 0.0000 0.0000 0.0000 0.0000 0.0000 24.4877
#
#
#
# Elastic Compliance Matrix: (Units=1/GPa)
#
#
# Indices 1 2 3 4 5 6 
#
# 1 0.015145 -0.004713 -0.000406 0.000000 0.000000 0.000000
# 2 -0.004713 0.019624 -0.005599 0.000000 0.000000 0.000000
# 3 -0.000406 -0.005599 0.012717 0.000000 0.000000 0.000000
# 4 0.000000 0.000000 0.000000 0.044724 0.000000 0.000000
# 5 0.000000 0.000000 0.000000 0.000000 0.025344 0.000000
# 6 0.000000 0.000000 0.000000 0.000000 0.000000 0.040837
#
#
# Mechanical properties :
#
#
# Convention : Reuss Voigt Hill
#
# Bulk Modulus (GPa) = 38.39058 39.00355 38.69706
# Shear Modulus (GPa) = 26.52383 28.43335 27.47859
#
# Velocity S-wave (km/s) = 3.76411 3.89724 3.83125
# Velocity P-wave (km/s) = 6.27684 6.40986 6.34370
#
# Compressibility (1/GPa) = 0.02604805
#
# Stress axis : x y z
#
# Youngs Moduli (GPa) = 66.02993 50.95786 78.63654
#
# Poissons Ratio (x) = 0.24016 0.03195
# Poissons Ratio (y) = 0.31119 0.44032
# Poissons Ratio (z) = 0.02683 0.28534
#
# Static dielectric constant tensor:
#      x y z
#    x 3.560700 0.000000 0.000000 
#    y 0.000000 3.186320 0.000000 
#    z 0.000000 0.000000 3.524380 
# 
# 
# High freq. dielectric constant tensor:
#      x y z
#    x 1.747590 0.000000 0.000000 
#    y 0.000000 1.699170 0.000000 
#    z 0.000000 0.000000 1.733080 
# 
# From -- ./inp_files/17218.got.cif
#   From: 2010.03.12/outbox.cif.g09.slc.cpg/sg38_9_cif.got.tgz:17218.got - 2010.04.14 02:38:36.
