data_PCOD8179699
_publ_section_title
;
Structure prediction by ZEFSAII (Michael W. Deem and Ramdas Pophale) SiO2 
 PCOD8179699
Probable space group: A M M 2
;
_chemical_formula_sum "Si O2"
_cell_formula_units_Z 48
_cell_length_a 16.734029
_cell_length_b 8.814073
_cell_length_c 15.846796
_cell_angle_alpha 90.000000
_cell_angle_beta 90.000000
_cell_angle_gamma 90.000000
_cell_volume 2337.322434
_symmetry_space_group_name_H-M "A M M 2"
_symmetry_group_IT_number 38
_symmetry_cell_setting 'orthorhombic'
loop_
_space_group_symop_operation_xyz
x,y,z
-x,-y,z
-x,y,z
x,-y,z
x,1/2+y,1/2+z
-x,1/2-y,1/2+z
-x,1/2+y,1/2+z
x,1/2-y,1/2+z
loop_
_atom_site_type_symbol
_atom_site_label
_atom_site_fract_x
_atom_site_fract_y
_atom_site_fract_z
Si Si1 0.174930 0.321408 0.210420
Si Si2 0.333875 0.675407 0.955590
Si Si3 0.500000 0.818346 0.392581
Si Si4 0.169679 0.181164 0.385777
Si Si5 0.656806 0.672603 0.145543
Si Si6 0.093855 0.173819 0.048081
Si Si7 0.500000 0.177107 0.204827
O O1 0.157688 0.500000 0.210889
O O2 0.140238 0.246866 0.295906
O O3 0.270289 0.287424 0.207708
O O4 0.133656 0.251640 0.128742
O O5 0.342370 0.500000 0.933321
O O6 0.419990 0.751231 0.935471
O O7 0.260723 0.740449 0.900419
O O8 0.309882 0.702426 0.052071
O O9 0.500000 0.754241 0.298139
O O10 0.500000 0.000000 0.399442
O O11 0.114659 0.241842 0.461022
O O12 0.163937 0.000000 0.384700
O O13 0.628466 0.500000 0.156511
O O14 0.579847 0.775254 0.157504
O O15 0.000000 0.184463 0.061578
O O16 0.122988 0.000000 0.042401
O O17 0.500000 0.000000 0.210973
#
# Coordination Sequence:
#
# PCOD8179699 Si02
#       7
#     8   8   4   8   8   8   4
#     4  11  23  41  66  97 129 167 213 261 317 381
#     4   9  17  33  57  83 113 157 207 250 301 363
#     4   9  17  29  49  77 114 153 198 249 294 350
#     4  11  22  40  66  96 129 168 212 258 314 380
#     4  10  20  37  59  83 116 161 209 256 310 371
#     4  11  25  45  68  95 127 164 208 261 320 381
#     4  11  22  33  49  83 120 157 208 263 312 362
#
# _framework density 20.536318999999999
#
# number of rings (size 3 to 8) (size 9 to 14) (size 15 to 20)
#    0.000    1.667    1.667    3.250    0.000    6.000 
#    0.000    0.000    0.000    6.000    0.000    0.000 
#    0.000    0.000    0.000    0.000    0.000    0.000 
#
# Total GULP energy -297572.986612 kJ/mol
# GULP energy per Si atom -12398.874442 kJ/mol
# Density = 2.048958 g / cm^3
# Si number density = 20.536319 Si / 1000 Ang^3
#
#
#
# Elastic Constant Matrix: (Units=GPa)
#
#
# Indices 1 2 3 4 5 6 
#
# 1 77.5384 38.9005 35.8084 0.0000 0.0000 0.0000
# 2 38.9005 92.4531 49.5879 0.0000 0.0000 0.0000
# 3 35.8084 49.5879 119.6998 0.0000 0.0000 0.0000
# 4 0.0000 0.0000 0.0000 33.3419 0.0000 0.0000
# 5 0.0000 0.0000 0.0000 0.0000 18.4527 0.0000
# 6 0.0000 0.0000 0.0000 0.0000 0.0000 27.0084
#
#
#
# Elastic Compliance Matrix: (Units=1/GPa)
#
#
# Indices 1 2 3 4 5 6 
#
# 1 0.017015 -0.005694 -0.002731 0.000000 0.000000 0.000000
# 2 -0.005694 0.015812 -0.004847 0.000000 0.000000 0.000000
# 3 -0.002731 -0.004847 0.011179 0.000000 0.000000 0.000000
# 4 0.000000 0.000000 0.000000 0.029992 0.000000 0.000000
# 5 0.000000 0.000000 0.000000 0.000000 0.054193 0.000000
# 6 0.000000 0.000000 0.000000 0.000000 0.000000 0.037026
#
#
# Mechanical properties :
#
#
# Convention : Reuss Voigt Hill
#
# Bulk Modulus (GPa) = 57.26936 59.80946 58.53941
# Shear Modulus (GPa) = 25.30600 26.78689 26.04644
#
# Velocity S-wave (km/s) = 3.51416 3.61552 3.56520
# Velocity P-wave (km/s) = 6.66432 6.82761 6.74646
#
# Compressibility (1/GPa) = 0.01746135
#
# Stress axis : x y z
#
# Youngs Moduli (GPa) = 58.77196 63.24338 89.45221
#
# Poissons Ratio (x) = 0.36013 0.24430
# Poissons Ratio (y) = 0.33467 0.43357
# Poissons Ratio (z) = 0.16051 0.30654
#
# Static dielectric constant tensor:
#      x y z
#    x 3.808340 0.000000 0.000000 
#    y 0.000000 3.532830 0.000000 
#    z 0.000000 0.000000 3.821060 
# 
# 
# High freq. dielectric constant tensor:
#      x y z
#    x 1.808100 0.000000 0.000000 
#    y 0.000000 1.781250 0.000000 
#    z 0.000000 0.000000 1.815280 
# 
# From -- ./inp_files/15061.got.cif
#   From: 2010.03.12/outbox.cif.g09.slc.cpg/sg38_8_cif.got.tgz:15061.got - 2010.04.14 02:38:36.
