data_PCOD8179827
_publ_section_title
;
Structure prediction by ZEFSAII (Michael W. Deem and Ramdas Pophale) SiO2 
 PCOD8179827
Probable space group: A M M 2
;
_chemical_formula_sum "Si O2"
_cell_formula_units_Z 64
_cell_length_a 17.770827
_cell_length_b 34.839946
_cell_length_c 5.216571
_cell_angle_alpha 90.000000
_cell_angle_beta 90.000000
_cell_angle_gamma 90.000000
_cell_volume 3229.759876
_symmetry_space_group_name_H-M "A M M 2"
_symmetry_group_IT_number 38
_symmetry_cell_setting 'orthorhombic'
loop_
_space_group_symop_operation_xyz
x,y,z
-x,-y,z
-x,y,z
x,-y,z
x,1/2+y,1/2+z
-x,1/2-y,1/2+z
-x,1/2+y,1/2+z
x,1/2-y,1/2+z
loop_
_atom_site_type_symbol
_atom_site_label
_atom_site_fract_x
_atom_site_fract_y
_atom_site_fract_z
Si Si1 0.333869 0.643966 0.126680
Si Si2 0.235602 0.570758 0.148046
Si Si3 0.302506 0.767571 0.660054
Si Si4 0.085287 0.395224 0.073191
Si Si5 0.085107 0.846887 0.076983
Si Si6 0.411709 0.384208 0.623582
Si Si7 0.313223 0.043155 0.144626
Si Si8 0.135638 0.734491 0.644199
O O1 0.263956 0.614846 0.148432
O O2 0.302167 0.686673 0.146359
O O3 0.392398 0.636099 0.355572
O O4 0.374635 0.639339 0.854696
O O5 0.144978 0.570668 0.118516
O O6 0.254564 0.550596 0.415736
O O7 0.271809 0.547395 0.915717
O O8 0.344094 0.748179 0.416023
O O9 0.217669 0.752530 0.688434
O O10 0.096320 0.364006 0.295849
O O11 0.000000 0.411713 0.079407
O O12 0.104513 0.377641 0.795719
O O13 0.141281 0.811174 0.107855
O O14 0.000000 0.832010 0.114755
O O15 0.500000 0.384897 0.663952
O O16 0.383404 0.428142 0.622597
O O17 0.344906 0.000000 0.124220
O O18 0.092086 0.754483 0.406622
#
# Coordination Sequence:
#
# PCOD8179827 Si02
#       8
#     8   8   8   8   8   8   8   8
#     4  10  21  36  57  85 115 148 197 240 276 333
#     4  10  21  35  61  86 112 161 189 231 279 330
#     4  10  21  33  51  77 107 143 191 249 286 324
#     4  10  21  36  56  80 111 150 197 243 285 334
#     4  10  21  34  50  73 106 148 188 241 303 349
#     4  10  21  39  63  90 116 151 183 217 278 341
#     4  10  21  39  61  95 125 145 177 219 276 341
#     4  10  21  32  46  71  99 143 186 235 292 347
#
# _framework density 19.815715000000001
#
# number of rings (size 3 to 8) (size 9 to 14) (size 15 to 20)
#    0.000    2.000    0.000    3.000    7.000    0.750 
#    0.000    0.000    0.000   14.250    0.000    0.000 
#    0.000    0.000    0.000    0.000    0.000    0.000 
#
# Total GULP energy -396750.307526 kJ/mol
# GULP energy per Si atom -12398.447110 kJ/mol
# Density = 1.977061 g / cm^3
# Si number density = 19.815715 Si / 1000 Ang^3
#
#
#
# Elastic Constant Matrix: (Units=GPa)
#
#
# Indices 1 2 3 4 5 6 
#
# 1 64.9862 21.8005 -7.6639 0.0000 0.0000 0.0000
# 2 21.8005 71.3307 -1.0278 0.0000 0.0000 0.0000
# 3 -7.6639 -1.0278 107.0731 0.0000 0.0000 0.0000
# 4 0.0000 0.0000 0.0000 19.7113 0.0000 0.0000
# 5 0.0000 0.0000 0.0000 0.0000 15.9003 0.0000
# 6 0.0000 0.0000 0.0000 0.0000 0.0000 14.1499
#
#
#
# Elastic Compliance Matrix: (Units=1/GPa)
#
#
# Indices 1 2 3 4 5 6 
#
# 1 0.017295 -0.005269 0.001187 0.000000 0.000000 0.000000
# 2 -0.005269 0.015626 -0.000227 0.000000 0.000000 0.000000
# 3 0.001187 -0.000227 0.009422 0.000000 0.000000 0.000000
# 4 0.000000 0.000000 0.000000 0.050732 0.000000 0.000000
# 5 0.000000 0.000000 0.000000 0.000000 0.062892 0.000000
# 6 0.000000 0.000000 0.000000 0.000000 0.000000 0.070672
#
#
# Mechanical properties :
#
#
# Convention : Reuss Voigt Hill
#
# Bulk Modulus (GPa) = 29.65011 29.95641 29.80326
# Shear Modulus (GPa) = 20.28404 25.30439 22.79421
#
# Velocity S-wave (km/s) = 3.20290 3.57737 3.39530
# Velocity P-wave (km/s) = 5.35476 5.67572 5.51757
#
# Compressibility (1/GPa) = 0.03372669
#
# Stress axis : x y z
#
# Youngs Moduli (GPa) = 57.81885 63.99501 106.13211
#
# Poissons Ratio (x) = 0.33718 -0.12602
# Poissons Ratio (y) = 0.30464 0.02411
# Poissons Ratio (z) = -0.06865 0.01454
#
# Static dielectric constant tensor:
#      x y z
#    x 3.343100 0.000000 0.000000 
#    y 0.000000 3.382140 0.000000 
#    z 0.000000 0.000000 4.773680 
# 
# 
# High freq. dielectric constant tensor:
#      x y z
#    x 1.741890 0.000000 0.000000 
#    y 0.000000 1.752360 0.000000 
#    z 0.000000 0.000000 1.810010 
# 
# From -- ./inp_files/1741.got.cif
#   From: 2010.03.12/outbox.cif.g09.slc.cpg/sg38_1_cif.got.tgz:1741.got - 2010.04.14 02:38:36.
