data_PCOD8179618
_publ_section_title
;
Structure prediction by ZEFSAII (Michael W. Deem and Ramdas Pophale) SiO2 
 PCOD8179618
Probable space group: A M M 2
;
_chemical_formula_sum "Si O2"
_cell_formula_units_Z 48
_cell_length_a 8.541496
_cell_length_b 18.439341
_cell_length_c 15.215884
_cell_angle_alpha 90.000000
_cell_angle_beta 90.000000
_cell_angle_gamma 90.000000
_cell_volume 2396.494995
_symmetry_space_group_name_H-M "A M M 2"
_symmetry_group_IT_number 38
_symmetry_cell_setting 'orthorhombic'
loop_
_space_group_symop_operation_xyz
x,y,z
-x,-y,z
-x,y,z
x,-y,z
x,1/2+y,1/2+z
-x,1/2-y,1/2+z
-x,1/2+y,1/2+z
x,1/2-y,1/2+z
loop_
_atom_site_type_symbol
_atom_site_label
_atom_site_fract_x
_atom_site_fract_y
_atom_site_fract_z
Si Si1 0.813777 0.077972 0.244680
Si Si2 0.813715 0.500000 0.416704
Si Si3 0.683342 0.346819 0.171198
Si Si4 0.186123 0.000000 0.722061
Si Si5 0.180541 0.107630 0.056342
Si Si6 0.813713 0.730796 0.811690
Si Si7 0.180644 0.768292 0.511415
O O1 0.745716 0.076254 0.145617
O O2 0.747525 0.149819 0.291545
O O3 0.000000 0.085084 0.243571
O O4 0.765100 0.000000 0.289007
O O5 0.741543 0.500000 0.320155
O O6 0.748136 0.429628 0.469275
O O7 0.000000 0.500000 0.405457
O O8 0.500000 0.350053 0.184928
O O9 0.753864 0.427087 0.176605
O O10 0.749797 0.292000 0.245489
O O11 0.721746 0.323611 0.071008
O O12 0.000000 0.000000 0.719112
O O13 0.204716 0.192685 0.059757
O O14 0.000000 0.085971 0.054476
O O15 0.000000 0.735733 0.803943
O O16 0.757308 0.742274 0.911959
O O17 0.000000 0.793328 0.510167
#
# Coordination Sequence:
#
# PCOD8179618 Si02
#       7
#     8   4   8   4   8   8   8
#     4   9  15  26  49  82 118 145 177 235 298 347
#     4   9  16  27  51  90 119 142 180 242 310 354
#     4  12  25  41  61  86 124 165 202 249 316 383
#     4  11  23  41  63  86 115 152 208 264 306 360
#     4   9  14  24  47  79 114 144 178 230 297 353
#     4  10  20  37  62  90 118 155 206 256 302 357
#     4  10  20  36  59  86 115 156 208 256 298 353
#
# _framework density 20.029250999999999
#
# number of rings (size 3 to 8) (size 9 to 14) (size 15 to 20)
#    0.000    2.000    2.500    2.750    0.000    3.333 
#    1.500    0.000    0.000    0.500    0.000    0.000 
#    0.000    0.000    0.000    0.000    0.000    0.000 
#
# Total GULP energy -297335.825289 kJ/mol
# GULP energy per Si atom -12388.992720 kJ/mol
# Density = 1.998366 g / cm^3
# Si number density = 20.029251 Si / 1000 Ang^3
#
#
#
# Elastic Constant Matrix: (Units=GPa)
#
#
# Indices 1 2 3 4 5 6 
#
# 1 54.0930 36.0393 28.4761 0.0000 0.0000 0.0000
# 2 36.0393 114.5719 41.5896 0.0000 0.0000 0.0000
# 3 28.4761 41.5896 96.8589 0.0000 0.0000 0.0000
# 4 0.0000 0.0000 0.0000 25.8055 0.0000 0.0000
# 5 0.0000 0.0000 0.0000 0.0000 11.8358 0.0000
# 6 0.0000 0.0000 0.0000 0.0000 0.0000 11.6895
#
#
#
# Elastic Compliance Matrix: (Units=1/GPa)
#
#
# Indices 1 2 3 4 5 6 
#
# 1 0.025089 -0.006177 -0.004724 0.000000 0.000000 0.000000
# 2 -0.006177 0.011861 -0.003277 0.000000 0.000000 0.000000
# 3 -0.004724 -0.003277 0.013120 0.000000 0.000000 0.000000
# 4 0.000000 0.000000 0.000000 0.038751 0.000000 0.000000
# 5 0.000000 0.000000 0.000000 0.000000 0.084490 0.000000
# 6 0.000000 0.000000 0.000000 0.000000 0.000000 0.085547
#
#
# Mechanical properties :
#
#
# Convention : Reuss Voigt Hill
#
# Bulk Modulus (GPa) = 46.05222 53.08151 49.56687
# Shear Modulus (GPa) = 16.98078 20.49408 18.73743
#
# Velocity S-wave (km/s) = 2.91486 3.20223 3.06192
# Velocity P-wave (km/s) = 5.86267 6.34286 6.10749
#
# Compressibility (1/GPa) = 0.02171448
#
# Stress axis : x y z
#
# Youngs Moduli (GPa) = 39.85832 84.31234 76.21957
#
# Poissons Ratio (x) = 0.52081 0.36003
# Poissons Ratio (y) = 0.24621 0.24975
# Poissons Ratio (z) = 0.18828 0.27627
#
# Static dielectric constant tensor:
#      x y z
#    x 3.112270 0.000000 0.000000 
#    y 0.000000 3.920730 0.000000 
#    z 0.000000 0.000000 3.819730 
# 
# 
# High freq. dielectric constant tensor:
#      x y z
#    x 1.721080 0.000000 0.000000 
#    y 0.000000 1.799340 0.000000 
#    z 0.000000 0.000000 1.784340 
# 
# From -- ./inp_files/12139.got.cif
#   From: 2010.03.12/outbox.cif.g09.slc.cpg/sg38_7_cif.got.tgz:12139.got - 2010.04.14 02:38:36.
