data_PCOD8179941
_publ_section_title
;
Structure prediction by ZEFSAII (Michael W. Deem and Ramdas Pophale) SiO2 
 PCOD8179941
Probable space group: A M M 2
;
_chemical_formula_sum "Si O2"
_cell_formula_units_Z 56
_cell_length_a 14.419621
_cell_length_b 9.148857
_cell_length_c 21.283153
_cell_angle_alpha 90.000000
_cell_angle_beta 90.000000
_cell_angle_gamma 90.000000
_cell_volume 2807.738469
_symmetry_space_group_name_H-M "A M M 2"
_symmetry_group_IT_number 38
_symmetry_cell_setting 'orthorhombic'
loop_
_space_group_symop_operation_xyz
x,y,z
-x,-y,z
-x,y,z
x,-y,z
x,1/2+y,1/2+z
-x,1/2-y,1/2+z
-x,1/2+y,1/2+z
x,1/2-y,1/2+z
loop_
_atom_site_type_symbol
_atom_site_label
_atom_site_fract_x
_atom_site_fract_y
_atom_site_fract_z
Si Si1 0.729782 0.826350 0.723140
Si Si2 0.606385 0.328363 0.340640
Si Si3 0.103613 0.167580 0.524338
Si Si4 0.608402 0.170562 0.465881
Si Si5 0.892828 0.172094 0.279564
Si Si6 0.712366 0.331914 0.086435
Si Si7 0.890148 0.162902 0.903073
O O1 0.662461 0.775627 0.779223
O O2 0.828965 0.745465 0.726736
O O3 0.684916 0.775501 0.656153
O O4 0.746867 0.000000 0.723515
O O5 0.500000 0.282528 0.329442
O O6 0.616865 0.500000 0.350522
O O7 0.646207 0.251024 0.403264
O O8 0.176225 0.190915 0.580544
O O9 0.143559 0.262067 0.466876
O O10 0.000000 0.216936 0.545657
O O11 0.101584 0.000000 0.501705
O O12 0.500000 0.199928 0.473959
O O13 0.657214 0.240986 0.528050
O O14 0.631850 0.000000 0.457905
O O15 0.856783 0.240677 0.344811
O O16 0.000000 0.211327 0.265787
O O17 0.877405 0.000000 0.281930
O O18 0.684519 0.500000 0.082444
O O19 0.000000 0.155619 0.903962
O O20 0.847338 0.000000 0.897240
#
# Coordination Sequence:
#
# PCOD8179941 Si02
#       7
#     8   8   8   8   8   8   8
#     4  10  21  36  55  81 111 145 186 228 272 323
#     4   9  19  36  57  82 111 142 177 222 277 330
#     4   9  17  30  48  71 102 140 178 216 264 318
#     4   9  18  34  57  82 106 137 179 225 270 320
#     4  10  21  36  53  75 107 146 184 224 273 326
#     4   9  19  34  52  78 108 140 180 222 266 318
#     4   9  17  30  49  74 101 131 174 225 270 312
#
# _framework density 19.944877999999999
#
# number of rings (size 3 to 8) (size 9 to 14) (size 15 to 20)
#    0.000    2.714    0.000    0.857    2.000    4.286 
#    0.000    5.714    0.000    1.714    0.000    4.000 
#    0.000    0.000    0.000    0.000    0.000    0.000 
#
# Total GULP energy -347071.241192 kJ/mol
# GULP energy per Si atom -12395.401471 kJ/mol
# Density = 1.989948 g / cm^3
# Si number density = 19.944878 Si / 1000 Ang^3
#
#
#
# Elastic Constant Matrix: (Units=GPa)
#
#
# Indices 1 2 3 4 5 6 
#
# 1 68.6530 24.4557 65.2493 0.0000 0.0000 0.0000
# 2 24.4557 54.6227 42.1348 0.0000 0.0000 0.0000
# 3 65.2493 42.1348 180.0386 0.0000 0.0000 0.0000
# 4 0.0000 0.0000 0.0000 26.8841 0.0000 0.0000
# 5 0.0000 0.0000 0.0000 0.0000 26.0941 0.0000
# 6 0.0000 0.0000 0.0000 0.0000 0.0000 20.4860
#
#
#
# Elastic Compliance Matrix: (Units=1/GPa)
#
#
# Indices 1 2 3 4 5 6 
#
# 1 0.023191 -0.004759 -0.007291 0.000000 0.000000 0.000000
# 2 -0.004759 0.023317 -0.003732 0.000000 0.000000 0.000000
# 3 -0.007291 -0.003732 0.009070 0.000000 0.000000 0.000000
# 4 0.000000 0.000000 0.000000 0.037197 0.000000 0.000000
# 5 0.000000 0.000000 0.000000 0.000000 0.038323 0.000000
# 6 0.000000 0.000000 0.000000 0.000000 0.000000 0.048814
#
#
# Mechanical properties :
#
#
# Convention : Reuss Voigt Hill
#
# Bulk Modulus (GPa) = 41.64275 62.99934 52.32105
# Shear Modulus (GPa) = 22.78110 26.12448 24.45279
#
# Velocity S-wave (km/s) = 3.38332 3.62309 3.50525
# Velocity P-wave (km/s) = 6.01554 7.01125 6.53239
#
# Compressibility (1/GPa) = 0.02401378
#
# Stress axis : x y z
#
# Youngs Moduli (GPa) = 43.12054 42.88719 110.25063
#
# Poissons Ratio (x) = 0.20409 0.80384
# Poissons Ratio (y) = 0.20520 0.41148
# Poissons Ratio (z) = 0.31439 0.16007
#
# Static dielectric constant tensor:
#      x y z
#    x 3.638690 0.000000 0.000000 
#    y 0.000000 3.484460 0.000000 
#    z 0.000000 0.000000 3.785100 
# 
# 
# High freq. dielectric constant tensor:
#      x y z
#    x 1.776440 0.000000 0.000000 
#    y 0.000000 1.750690 0.000000 
#    z 0.000000 0.000000 1.777350 
# 
# From -- ./inp_files/21068.got.cif
#   From: 2010.03.12/outbox.cif.g09.slc.cpg/sg38_11_cif.got.tgz:21068.got - 2010.04.14 02:38:36.
