data_PCOD8179309
_publ_section_title
;
Structure prediction by ZEFSAII (Michael W. Deem and Ramdas Pophale) SiO2 
 PCOD8179309
Probable space group: A M M 2
;
_chemical_formula_sum "Si O2"
_cell_formula_units_Z 56
_cell_length_a 8.866501
_cell_length_b 14.200427
_cell_length_c 22.544881
_cell_angle_alpha 90.000000
_cell_angle_beta 90.000000
_cell_angle_gamma 90.000000
_cell_volume 2838.583136
_symmetry_space_group_name_H-M "A M M 2"
_symmetry_group_IT_number 38
_symmetry_cell_setting 'orthorhombic'
loop_
_space_group_symop_operation_xyz
x,y,z
-x,-y,z
-x,y,z
x,-y,z
x,1/2+y,1/2+z
-x,1/2-y,1/2+z
-x,1/2+y,1/2+z
x,1/2-y,1/2+z
loop_
_atom_site_type_symbol
_atom_site_label
_atom_site_fract_x
_atom_site_fract_y
_atom_site_fract_z
Si Si1 0.822845 0.893232 0.454460
Si Si2 0.823441 0.391563 0.304532
Si Si3 0.327654 0.895110 0.139603
Si Si4 0.173158 0.890991 0.017309
Si Si5 0.677237 0.715621 0.412604
Si Si6 0.328317 0.608036 0.076059
Si Si7 0.326401 0.291830 0.196594
O O1 0.743474 0.821714 0.408722
O O2 0.778820 0.864782 0.521500
O O3 0.000000 0.883648 0.446979
O O4 0.768392 0.000000 0.440737
O O5 0.774129 0.500000 0.297207
O O6 0.738746 0.347925 0.359986
O O7 0.781616 0.335095 0.245553
O O8 0.000000 0.382634 0.316112
O O9 0.500000 0.886839 0.116951
O O10 0.299896 0.821024 0.192903
O O11 0.293945 0.000000 0.164331
O O12 0.219889 0.871286 0.084735
O O13 0.277845 0.829846 0.974944
O O14 0.000000 0.860712 0.008350
O O15 0.196775 0.000000 0.001046
O O16 0.500000 0.721782 0.406516
O O17 0.500000 0.630165 0.056931
O O18 0.308278 0.500000 0.094365
O O19 0.279669 0.668188 0.132652
O O20 0.500000 0.316669 0.211866
#
# Coordination Sequence:
#
# PCOD8179309 Si02
#       7
#     8   8   8   8   8   8   8
#     4  10  21  37  58  85 117 150 185 229 279 329
#     4  11  25  43  61  82 109 141 181 232 285 336
#     4   9  18  33  54  83 118 152 187 227 272 326
#     4  10  20  34  55  85 119 151 185 230 283 336
#     4  12  24  38  59  83 110 148 190 231 277 332
#     4   9  17  30  51  81 115 148 185 230 277 328
#     4  10  20  35  56  81 110 148 190 230 275 327
#
# _framework density 19.728152000000001
#
# number of rings (size 3 to 8) (size 9 to 14) (size 15 to 20)
#    0.000    1.857    0.000    4.286    0.000    7.429 
#    0.000    2.143    0.000    2.571    0.000    0.000 
#    0.000    0.000    0.000    0.000    0.000    0.000 
#
# Total GULP energy -347285.504960 kJ/mol
# GULP energy per Si atom -12403.053749 kJ/mol
# Density = 1.968325 g / cm^3
# Si number density = 19.728152 Si / 1000 Ang^3
#
#
#
# Elastic Constant Matrix: (Units=GPa)
#
#
# Indices 1 2 3 4 5 6 
#
# 1 94.2196 53.1541 39.1753 0.0000 0.0000 0.0000
# 2 53.1541 129.0798 60.0651 0.0000 0.0000 0.0000
# 3 39.1753 60.0651 61.8755 0.0000 0.0000 0.0000
# 4 0.0000 0.0000 0.0000 32.7212 0.0000 0.0000
# 5 0.0000 0.0000 0.0000 0.0000 26.5436 0.0000
# 6 0.0000 0.0000 0.0000 0.0000 0.0000 29.3557
#
#
#
# Elastic Compliance Matrix: (Units=1/GPa)
#
#
# Indices 1 2 3 4 5 6 
#
# 1 0.015109 -0.003229 -0.006432 0.000000 0.000000 0.000000
# 2 -0.003229 0.014820 -0.012342 0.000000 0.000000 0.000000
# 3 -0.006432 -0.012342 0.032214 0.000000 0.000000 0.000000
# 4 0.000000 0.000000 0.000000 0.030561 0.000000 0.000000
# 5 0.000000 0.000000 0.000000 0.000000 0.037674 0.000000
# 6 0.000000 0.000000 0.000000 0.000000 0.000000 0.034065
#
#
# Mechanical properties :
#
#
# Convention : Reuss Voigt Hill
#
# Bulk Modulus (GPa) = 55.13144 65.55153 60.34149
# Shear Modulus (GPa) = 23.31055 26.57612 24.94333
#
# Velocity S-wave (km/s) = 3.44115 3.67429 3.55963
# Velocity P-wave (km/s) = 6.61778 7.16241 6.89547
#
# Compressibility (1/GPa) = 0.01813847
#
# Stress axis : x y z
#
# Youngs Moduli (GPa) = 66.18409 67.47655 31.04207
#
# Poissons Ratio (x) = 0.21789 0.19965
# Poissons Ratio (y) = 0.21371 0.38312
# Poissons Ratio (z) = 0.42567 0.83279
#
# Static dielectric constant tensor:
#      x y z
#    x 3.810890 0.000000 0.000000 
#    y 0.000000 4.032440 0.000000 
#    z 0.000000 0.000000 3.372980 
# 
# 
# High freq. dielectric constant tensor:
#      x y z
#    x 1.769460 0.000000 0.000000 
#    y 0.000000 1.791040 0.000000 
#    z 0.000000 0.000000 1.741560 
# 
# From -- ./inp_files/19787.got.cif
#   From: 2010.03.12/outbox.cif.g09.slc.cpg/sg38_10_cif.got.tgz:19787.got - 2010.04.14 02:38:36.
