data_PCOD8179362
_publ_section_title
;
Structure prediction by ZEFSAII (Michael W. Deem and Ramdas Pophale) SiO2 
 PCOD8179362
Probable space group: A M M 2
;
_chemical_formula_sum "Si O2"
_cell_formula_units_Z 40
_cell_length_a 9.395204
_cell_length_b 7.895295
_cell_length_c 28.639334
_cell_angle_alpha 90.000000
_cell_angle_beta 90.000000
_cell_angle_gamma 90.000000
_cell_volume 2124.405859
_symmetry_space_group_name_H-M "A M M 2"
_symmetry_group_IT_number 38
_symmetry_cell_setting 'orthorhombic'
loop_
_space_group_symop_operation_xyz
x,y,z
-x,-y,z
-x,y,z
x,-y,z
x,1/2+y,1/2+z
-x,1/2-y,1/2+z
-x,1/2+y,1/2+z
x,1/2-y,1/2+z
loop_
_atom_site_type_symbol
_atom_site_label
_atom_site_fract_x
_atom_site_fract_y
_atom_site_fract_z
Si Si1 0.341522 0.692797 0.802560
Si Si2 0.837548 0.000000 0.969167
Si Si3 0.843251 0.811722 0.880824
Si Si4 0.156981 0.805179 0.718259
Si Si5 0.333555 0.000000 0.063065
Si Si6 0.666403 0.196624 0.629993
O O1 0.500000 0.773985 0.802277
O O2 0.351455 0.500000 0.786992
O O3 0.276622 0.702852 0.854780
O O4 0.238660 0.786109 0.766801
O O5 0.734999 0.000000 0.012547
O O6 0.810019 0.166955 0.936454
O O7 0.000000 0.000000 0.986902
O O8 0.000000 0.728335 0.874109
O O9 0.844970 0.000000 0.858060
O O10 0.250190 0.734690 0.675421
O O11 0.000000 0.717258 0.720376
O O12 0.134228 0.000000 0.708311
O O13 0.287666 0.826298 0.089132
O O14 0.500000 0.000000 0.055190
O O15 0.500000 0.214142 0.641492
O O16 0.702631 0.000000 0.616612
#
# Coordination Sequence:
#
# PCOD8179362 Si02
#       6
#     8   4   8   8   4   8
#     4  11  23  34  48  76 111 144 180 222 270 326
#     4   8  18  36  58  82 106 136 178 226 277 330
#     4   8  17  35  56  75  99 133 176 222 265 319
#     4  10  21  36  54  77 105 141 184 226 272 328
#     4  10  20  34  58  86 110 146 188 228 281 336
#     4   9  19  36  55  78 112 148 184 230 278 326
#
# _framework density 18.828793999999998
#
# number of rings (size 3 to 8) (size 9 to 14) (size 15 to 20)
#    0.600    2.000    0.000    1.800    1.400    7.200 
#    0.000    1.000    0.000    3.600    0.000    0.000 
#    0.000    0.000    0.000    0.000    0.000    0.000 
#
# Total GULP energy -247803.164722 kJ/mol
# GULP energy per Si atom -12390.158236 kJ/mol
# Density = 1.878594 g / cm^3
# Si number density = 18.828794 Si / 1000 Ang^3
#
#
#
# Elastic Constant Matrix: (Units=GPa)
#
#
# Indices 1 2 3 4 5 6 
#
# 1 114.3040 25.1354 67.5901 0.0000 0.0000 0.0000
# 2 25.1354 53.4831 30.4427 0.0000 0.0000 0.0000
# 3 67.5901 30.4427 125.0662 0.0000 0.0000 0.0000
# 4 0.0000 0.0000 0.0000 16.3216 0.0000 0.0000
# 5 0.0000 0.0000 0.0000 0.0000 40.5367 0.0000
# 6 0.0000 0.0000 0.0000 0.0000 0.0000 12.4721
#
#
#
# Elastic Compliance Matrix: (Units=1/GPa)
#
#
# Indices 1 2 3 4 5 6 
#
# 1 0.013134 -0.002475 -0.006495 0.000000 0.000000 0.000000
# 2 -0.002475 0.022171 -0.004059 0.000000 0.000000 0.000000
# 3 -0.006495 -0.004059 0.012494 0.000000 0.000000 0.000000
# 4 0.000000 0.000000 0.000000 0.061268 0.000000 0.000000
# 5 0.000000 0.000000 0.000000 0.000000 0.024669 0.000000
# 6 0.000000 0.000000 0.000000 0.000000 0.000000 0.080179
#
#
# Mechanical properties :
#
#
# Convention : Reuss Voigt Hill
#
# Bulk Modulus (GPa) = 45.99884 59.90996 52.95440
# Shear Modulus (GPa) = 20.22475 25.17842 22.70158
#
# Velocity S-wave (km/s) = 3.28096 3.66078 3.47606
# Velocity P-wave (km/s) = 6.23186 7.05378 6.65552
#
# Compressibility (1/GPa) = 0.02173968
#
# Stress axis : x y z
#
# Youngs Moduli (GPa) = 76.13957 45.10352 80.03746
#
# Poissons Ratio (x) = 0.11164 0.51988
# Poissons Ratio (y) = 0.18846 0.32488
# Poissons Ratio (z) = 0.49456 0.18308
#
# Static dielectric constant tensor:
#      x y z
#    x 3.723300 0.000000 0.000000 
#    y 0.000000 3.278060 0.000000 
#    z 0.000000 0.000000 3.236880 
# 
# 
# High freq. dielectric constant tensor:
#      x y z
#    x 1.738160 0.000000 0.000000 
#    y 0.000000 1.709850 0.000000 
#    z 0.000000 0.000000 1.717990 
# 
# From -- ./inp_files/23243.got.cif
#   From: 2010.03.12/outbox.cif.g09.slc.cpg/sg38_12_cif.got.tgz:23243.got - 2010.04.14 02:38:36.
