data_PCOD8179489
_publ_section_title
;
Structure prediction by ZEFSAII (Michael W. Deem and Ramdas Pophale) SiO2 
 PCOD8179489
Probable space group: A M M 2
;
_chemical_formula_sum "Si O2"
_cell_formula_units_Z 64
_cell_length_a 8.958778
_cell_length_b 23.820136
_cell_length_c 15.378304
_cell_angle_alpha 90.000000
_cell_angle_beta 90.000000
_cell_angle_gamma 90.000000
_cell_volume 3281.719468
_symmetry_space_group_name_H-M "A M M 2"
_symmetry_group_IT_number 38
_symmetry_cell_setting 'orthorhombic'
loop_
_space_group_symop_operation_xyz
x,y,z
-x,-y,z
-x,y,z
x,-y,z
x,1/2+y,1/2+z
-x,1/2-y,1/2+z
-x,1/2+y,1/2+z
x,1/2-y,1/2+z
loop_
_atom_site_type_symbol
_atom_site_label
_atom_site_fract_x
_atom_site_fract_y
_atom_site_fract_z
Si Si1 0.824349 0.747481 0.319190
Si Si2 0.823151 0.748044 0.120592
Si Si3 0.671263 0.638439 0.377464
Si Si4 0.175427 0.131273 0.384052
Si Si5 0.828680 0.934160 0.212874
Si Si6 0.323073 0.863142 0.558908
Si Si7 0.322594 0.937051 0.721318
Si Si8 0.671711 0.861931 0.072528
O O1 0.769615 0.744109 0.219982
O O2 0.753837 0.697700 0.374117
O O3 0.771967 0.806091 0.359900
O O4 0.000000 0.741762 0.324105
O O5 0.748035 0.698212 0.067164
O O6 0.770930 0.806739 0.081713
O O7 0.000000 0.743579 0.110507
O O8 0.500000 0.650024 0.353829
O O9 0.738218 0.594158 0.307961
O O10 0.689745 0.614135 0.474582
O O11 0.221259 0.090859 0.305153
O O12 0.265235 0.110415 0.468665
O O13 0.000000 0.128224 0.403443
O O14 0.726402 0.910249 0.136724
O O15 0.000000 0.917336 0.193755
O O16 0.804963 0.000000 0.216759
O O17 0.500000 0.857899 0.558436
O O18 0.266848 0.903123 0.636866
O O19 0.500000 0.940189 0.722965
O O20 0.255446 0.000000 0.718844
O O21 0.500000 0.847156 0.092679
#
# Coordination Sequence:
#
# PCOD8179489 Si02
#       8
#     8   8   8   8   8   8   8   8
#     4  10  20  35  58  84 112 149 189 232 286 344
#     4  11  21  37  60  85 117 156 192 235 290 353
#     4  10  21  37  58  85 115 149 189 234 289 347
#     4  10  21  39  59  84 115 152 193 235 288 350
#     4  10  22  42  64  84 114 159 204 243 291 351
#     4  11  22  36  58  89 117 150 193 240 292 347
#     4   9  19  37  58  79 110 152 192 231 280 340
#     4  11  23  37  59  91 121 151 191 244 297 348
#
# _framework density 19.501971000000001
#
# number of rings (size 3 to 8) (size 9 to 14) (size 15 to 20)
#    0.000    1.750    2.500    1.875    0.000    5.750 
#    0.000    1.250    0.000    3.000    0.000    0.000 
#    0.000    0.000    0.000    0.000    0.000    0.000 
#
# Total GULP energy -396924.322339 kJ/mol
# GULP energy per Si atom -12403.885073 kJ/mol
# Density = 1.945758 g / cm^3
# Si number density = 19.501971 Si / 1000 Ang^3
#
#
#
# Elastic Constant Matrix: (Units=GPa)
#
#
# Indices 1 2 3 4 5 6 
#
# 1 46.0000 27.6421 42.5059 0.0000 0.0000 0.0000
# 2 27.6421 112.5609 53.5343 0.0000 0.0000 0.0000
# 3 42.5059 53.5343 148.8656 0.0000 0.0000 0.0000
# 4 0.0000 0.0000 0.0000 12.3504 0.0000 0.0000
# 5 0.0000 0.0000 0.0000 0.0000 32.7932 0.0000
# 6 0.0000 0.0000 0.0000 0.0000 0.0000 24.1343
#
#
#
# Elastic Compliance Matrix: (Units=1/GPa)
#
#
# Indices 1 2 3 4 5 6 
#
# 1 0.031030 -0.004109 -0.007382 0.000000 0.000000 0.000000
# 2 -0.004109 0.011261 -0.002876 0.000000 0.000000 0.000000
# 3 -0.007382 -0.002876 0.009860 0.000000 0.000000 0.000000
# 4 0.000000 0.000000 0.000000 0.080969 0.000000 0.000000
# 5 0.000000 0.000000 0.000000 0.000000 0.030494 0.000000
# 6 0.000000 0.000000 0.000000 0.000000 0.000000 0.041435
#
#
# Mechanical properties :
#
#
# Convention : Reuss Voigt Hill
#
# Bulk Modulus (GPa) = 42.70734 61.64347 52.17540
# Shear Modulus (GPa) = 20.69622 26.10517 23.40070
#
# Velocity S-wave (km/s) = 3.26120 3.66265 3.46774
# Velocity P-wave (km/s) = 6.01058 7.04018 6.54565
#
# Compressibility (1/GPa) = 0.02341518
#
# Stress axis : x y z
#
# Youngs Moduli (GPa) = 32.22692 88.80044 101.42225
#
# Poissons Ratio (x) = 0.36489 0.74873
# Poissons Ratio (y) = 0.13242 0.29173
# Poissons Ratio (z) = 0.23791 0.25543
#
# Static dielectric constant tensor:
#      x y z
#    x 3.386130 0.000000 0.000000 
#    y 0.000000 3.542790 0.000000 
#    z 0.000000 0.000000 3.814420 
# 
# 
# High freq. dielectric constant tensor:
#      x y z
#    x 1.743190 0.000000 0.000000 
#    y 0.000000 1.754210 0.000000 
#    z 0.000000 0.000000 1.777480 
# 
# From -- ./inp_files/12711.got.cif
#   From: 2010.03.12/outbox.cif.g09.slc.cpg/sg38_7_cif.got.tgz:12711.got - 2010.04.14 02:38:36.
