data_PCOD8179314
_publ_section_title
;
Structure prediction by ZEFSAII (Michael W. Deem and Ramdas Pophale) SiO2 
 PCOD8179314
Probable space group: A M M 2
;
_chemical_formula_sum "Si O2"
_cell_formula_units_Z 48
_cell_length_a 7.836186
_cell_length_b 9.739005
_cell_length_c 33.934032
_cell_angle_alpha 90.000000
_cell_angle_beta 90.000000
_cell_angle_gamma 90.000000
_cell_volume 2589.731801
_symmetry_space_group_name_H-M "A M M 2"
_symmetry_group_IT_number 38
_symmetry_cell_setting 'orthorhombic'
loop_
_space_group_symop_operation_xyz
x,y,z
-x,-y,z
-x,y,z
x,-y,z
x,1/2+y,1/2+z
-x,1/2-y,1/2+z
-x,1/2+y,1/2+z
x,1/2-y,1/2+z
loop_
_atom_site_type_symbol
_atom_site_label
_atom_site_fract_x
_atom_site_fract_y
_atom_site_fract_z
Si Si1 0.695974 0.348008 0.297830
Si Si2 0.300485 0.653721 0.645826
Si Si3 0.000000 0.836037 0.004219
Si Si4 0.000000 0.341870 0.926777
Si Si5 0.804999 0.348440 0.214397
Si Si6 0.689130 0.336911 0.558007
Si Si7 0.302350 0.342049 0.867397
O O1 0.500000 0.362423 0.307953
O O2 0.782517 0.500000 0.300527
O O3 0.716534 0.287259 0.253677
O O4 0.770640 0.245276 0.330554
O O5 0.500000 0.651413 0.653983
O O6 0.225108 0.500000 0.650331
O O7 0.212913 0.751016 0.677199
O O8 0.262409 0.712873 0.602099
O O9 0.000000 0.761919 0.962819
O O10 0.168279 0.785203 0.027602
O O11 0.000000 0.000000 0.998359
O O12 0.825622 0.310387 0.903211
O O13 0.000000 0.500000 0.941045
O O14 0.728491 0.500000 0.204562
O O15 0.000000 0.361991 0.225514
O O16 0.500000 0.281298 0.545869
O O17 0.683133 0.500000 0.559092
O O18 0.500000 0.306725 0.879106
O O19 0.288619 0.500000 0.854620
#
# Coordination Sequence:
#
# PCOD8179314 Si02
#       7
#     8   8   4   4   8   8   8
#     4   9  18  33  52  73  99 133 171 212 255 296
#     4   9  18  33  53  75  99 133 177 220 258 299
#     4  10  20  34  56  81 102 133 169 204 255 310
#     4  10  22  38  54  77 108 135 161 204 259 308
#     4  10  21  33  46  72 108 142 173 210 257 306
#     4   8  16  32  53  78 106 133 168 215 259 300
#     4   9  19  36  56  76 101 135 171 207 252 306
#
# _framework density 18.534737
#
# number of rings (size 3 to 8) (size 9 to 14) (size 15 to 20)
#    0.000    2.833    0.000    1.500    2.333    3.333 
#    0.000    2.500    0.000    1.000    0.000    0.000 
#    0.000    0.000    0.000    0.000    0.000    0.000 
#
# Total GULP energy -297444.704942 kJ/mol
# GULP energy per Si atom -12393.529373 kJ/mol
# Density = 1.849255 g / cm^3
# Si number density = 18.534737 Si / 1000 Ang^3
#
#
#
# Elastic Constant Matrix: (Units=GPa)
#
#
# Indices 1 2 3 4 5 6 
#
# 1 86.9606 35.6304 60.6755 0.0000 0.0000 0.0000
# 2 35.6304 65.0597 64.8090 0.0000 0.0000 0.0000
# 3 60.6755 64.8090 139.7366 0.0000 0.0000 0.0000
# 4 0.0000 0.0000 0.0000 34.2027 0.0000 0.0000
# 5 0.0000 0.0000 0.0000 0.0000 30.6118 0.0000
# 6 0.0000 0.0000 0.0000 0.0000 0.0000 16.7991
#
#
#
# Elastic Compliance Matrix: (Units=1/GPa)
#
#
# Indices 1 2 3 4 5 6 
#
# 1 0.016946 -0.003626 -0.005676 0.000000 0.000000 0.000000
# 2 -0.003626 0.029346 -0.012036 0.000000 0.000000 0.000000
# 3 -0.005676 -0.012036 0.015203 0.000000 0.000000 0.000000
# 4 0.000000 0.000000 0.000000 0.029237 0.000000 0.000000
# 5 0.000000 0.000000 0.000000 0.000000 0.032667 0.000000
# 6 0.000000 0.000000 0.000000 0.000000 0.000000 0.059527
#
#
# Mechanical properties :
#
#
# Convention : Reuss Voigt Hill
#
# Bulk Modulus (GPa) = 53.13985 68.22073 60.68029
# Shear Modulus (GPa) = 21.56327 25.03220 23.29773
#
# Velocity S-wave (km/s) = 3.41456 3.67898 3.54923
# Velocity P-wave (km/s) = 6.65419 7.41170 7.04314
#
# Compressibility (1/GPa) = 0.01881827
#
# Stress axis : x y z
#
# Youngs Moduli (GPa) = 59.01195 34.07637 65.77525
#
# Poissons Ratio (x) = 0.12356 0.37336
# Poissons Ratio (y) = 0.21397 0.79167
# Poissons Ratio (z) = 0.33497 0.41014
#
# Static dielectric constant tensor:
#      x y z
#    x 3.604430 0.000000 0.000000 
#    y 0.000000 3.484720 0.000000 
#    z 0.000000 0.000000 3.324770 
# 
# 
# High freq. dielectric constant tensor:
#      x y z
#    x 1.725740 0.000000 0.000000 
#    y 0.000000 1.694550 0.000000 
#    z 0.000000 0.000000 1.713280 
# 
# From -- ./inp_files/24347.got.cif
#   From: 2010.03.12/outbox.cif.g09.slc.cpg/sg38_13_cif.got.tgz:24347.got - 2010.04.14 02:38:36.
