data_PCOD8179409
_publ_section_title
;
Structure prediction by ZEFSAII (Michael W. Deem and Ramdas Pophale) SiO2 
 PCOD8179409
Probable space group: A M M 2
;
_chemical_formula_sum "Si O2"
_cell_formula_units_Z 64
_cell_length_a 8.927887
_cell_length_b 32.115614
_cell_length_c 11.579378
_cell_angle_alpha 90.000000
_cell_angle_beta 90.000000
_cell_angle_gamma 90.000000
_cell_volume 3320.092210
_symmetry_space_group_name_H-M "A M M 2"
_symmetry_group_IT_number 38
_symmetry_cell_setting 'orthorhombic'
loop_
_space_group_symop_operation_xyz
x,y,z
-x,-y,z
-x,y,z
x,-y,z
x,1/2+y,1/2+z
-x,1/2-y,1/2+z
-x,1/2+y,1/2+z
x,1/2-y,1/2+z
loop_
_atom_site_type_symbol
_atom_site_label
_atom_site_fract_x
_atom_site_fract_y
_atom_site_fract_z
Si Si1 0.325750 0.684554 0.263580
Si Si2 0.833374 0.599445 0.644579
Si Si3 0.327490 0.222246 0.195830
Si Si4 0.322706 0.047647 0.703649
Si Si5 0.833112 0.817764 0.997533
Si Si6 0.177504 0.876492 0.583954
Si Si7 0.665134 0.450969 0.461868
Si Si8 0.324832 0.641934 0.842624
O O1 0.500000 0.674040 0.247243
O O2 0.291055 0.733220 0.249389
O O3 0.275103 0.672673 0.391383
O O4 0.232580 0.657916 0.173475
O O5 0.836892 0.640952 0.571393
O O6 0.775804 0.562898 0.562421
O O7 0.725947 0.605536 0.754739
O O8 0.000000 0.587795 0.687750
O O9 0.500000 0.217680 0.159971
O O10 0.285488 0.187237 0.290148
O O11 0.232350 0.218609 0.078440
O O12 0.500000 0.052126 0.687915
O O13 0.239846 0.077759 0.614205
O O14 0.276728 0.061596 0.833878
O O15 0.272988 0.000000 0.678994
O O16 0.000000 0.805134 0.955984
O O17 0.232970 0.862690 0.459078
O O18 0.000000 0.878248 0.585619
O O19 0.500000 0.431324 0.482539
O O20 0.652434 0.500000 0.466106
O O21 0.500000 0.637049 0.868467
#
# Coordination Sequence:
#
# PCOD8179409 Si02
#       8
#     8   8   8   8   8   8   8   8
#     4  11  23  38  58  83 113 150 195 241 281 337
#     4  10  20  35  55  81 113 146 182 227 280 342
#     4   9  21  39  59  81 107 146 193 238 285 339
#     4   9  19  38  63  89 118 155 198 243 291 345
#     4  10  21  36  55  82 112 142 179 228 287 340
#     4  12  25  39  57  87 121 155 194 241 298 355
#     4   9  18  33  56  86 116 146 185 233 283 337
#     4  10  21  40  62  81 108 151 197 242 289 343
#
# _framework density 19.276574
#
# number of rings (size 3 to 8) (size 9 to 14) (size 15 to 20)
#    0.000    2.000    0.000    4.125    1.750    6.000 
#    0.000    1.875    0.000    3.750    0.000    0.000 
#    0.000    0.000    0.000    0.000    0.000    0.000 
#
# Total GULP energy -396855.601112 kJ/mol
# GULP energy per Si atom -12401.737535 kJ/mol
# Density = 1.923270 g / cm^3
# Si number density = 19.276574 Si / 1000 Ang^3
#
#
#
# Elastic Constant Matrix: (Units=GPa)
#
#
# Indices 1 2 3 4 5 6 
#
# 1 101.6177 43.1247 52.7185 0.0000 0.0000 0.0000
# 2 43.1247 63.5594 39.2265 0.0000 0.0000 0.0000
# 3 52.7185 39.2265 109.7864 0.0000 0.0000 0.0000
# 4 0.0000 0.0000 0.0000 9.2810 0.0000 0.0000
# 5 0.0000 0.0000 0.0000 0.0000 31.5010 0.0000
# 6 0.0000 0.0000 0.0000 0.0000 0.0000 22.6569
#
#
#
# Elastic Compliance Matrix: (Units=1/GPa)
#
#
# Indices 1 2 3 4 5 6 
#
# 1 0.015529 -0.007613 -0.004737 0.000000 0.000000 0.000000
# 2 -0.007613 0.023916 -0.004890 0.000000 0.000000 0.000000
# 3 -0.004737 -0.004890 0.013130 0.000000 0.000000 0.000000
# 4 0.000000 0.000000 0.000000 0.107747 0.000000 0.000000
# 5 0.000000 0.000000 0.000000 0.000000 0.031745 0.000000
# 6 0.000000 0.000000 0.000000 0.000000 0.000000 0.044137
#
#
# Mechanical properties :
#
#
# Convention : Reuss Voigt Hill
#
# Bulk Modulus (GPa) = 55.25821 60.56698 57.91259
# Shear Modulus (GPa) = 18.06912 22.01404 20.04158
#
# Velocity S-wave (km/s) = 3.06496 3.38303 3.22791
# Velocity P-wave (km/s) = 6.42289 6.83725 6.63331
#
# Compressibility (1/GPa) = 0.01809686
#
# Stress axis : x y z
#
# Youngs Moduli (GPa) = 64.39554 41.81239 76.16029
#
# Poissons Ratio (x) = 0.31832 0.36076
# Poissons Ratio (y) = 0.49024 0.37239
# Poissons Ratio (z) = 0.30503 0.20445
#
# Static dielectric constant tensor:
#      x y z
#    x 3.792140 0.000000 0.000000 
#    y 0.000000 3.488200 0.000000 
#    z 0.000000 0.000000 3.688760 
# 
# 
# High freq. dielectric constant tensor:
#      x y z
#    x 1.755560 0.000000 0.000000 
#    y 0.000000 1.745270 0.000000 
#    z 0.000000 0.000000 1.749710 
# 
# From -- ./inp_files/8538.got.cif
#   From: 2010.03.12/outbox.cif.g09.slc.cpg/sg38_5_cif.got.tgz:8538.got - 2010.04.14 02:38:36.
