data_PCOD8179376
_publ_section_title
;
Structure prediction by ZEFSAII (Michael W. Deem and Ramdas Pophale) SiO2 
 PCOD8179376
Probable space group: A M M 2
;
_chemical_formula_sum "Si O2"
_cell_formula_units_Z 64
_cell_length_a 28.257627
_cell_length_b 8.599984
_cell_length_c 14.141602
_cell_angle_alpha 90.000000
_cell_angle_beta 90.000000
_cell_angle_gamma 90.000000
_cell_volume 3436.623391
_symmetry_space_group_name_H-M "A M M 2"
_symmetry_group_IT_number 38
_symmetry_cell_setting 'orthorhombic'
loop_
_space_group_symop_operation_xyz
x,y,z
-x,-y,z
-x,y,z
x,-y,z
x,1/2+y,1/2+z
-x,1/2-y,1/2+z
-x,1/2+y,1/2+z
x,1/2-y,1/2+z
loop_
_atom_site_type_symbol
_atom_site_label
_atom_site_fract_x
_atom_site_fract_y
_atom_site_fract_z
Si Si1 0.869555 0.817465 0.563000
Si Si2 0.196343 0.681063 0.414762
Si Si3 0.873134 0.818094 0.267785
Si Si4 0.632030 0.815576 0.070966
Si Si5 0.297756 0.818911 0.429721
Si Si6 0.379282 0.681329 0.784621
Si Si7 0.052304 0.816490 0.420362
Si Si8 0.447445 0.183187 0.928036
O O1 0.825303 0.729311 0.516068
O O2 0.872478 0.780222 0.672728
O O3 0.917871 0.760454 0.511646
O O4 0.861896 0.000000 0.547119
O O5 0.187672 0.500000 0.396443
O O6 0.172538 0.778840 0.330544
O O7 0.251579 0.716352 0.415036
O O8 0.920264 0.767859 0.324886
O O9 0.872748 0.000000 0.243642
O O10 0.627327 0.758282 0.178273
O O11 0.639600 0.000000 0.063279
O O12 0.677565 0.730193 0.027607
O O13 0.585024 0.760029 0.015275
O O14 0.332102 0.778135 0.342628
O O15 0.284437 0.000000 0.433163
O O16 0.390116 0.500000 0.786496
O O17 0.424746 0.764830 0.829035
O O18 0.000000 0.738958 0.421701
O O19 0.047238 0.000000 0.423503
O O20 0.500000 0.255953 0.938627
O O21 0.450931 0.000000 0.928394
#
# Coordination Sequence:
#
# PCOD8179376 Si02
#       8
#     8   8   8   8   8   8   8   8
#     4  10  20  35  55  79 108 140 176 219 266 314
#     4  11  22  37  56  77 104 139 179 220 265 314
#     4  10  20  35  55  79 109 142 177 218 263 314
#     4   9  18  34  53  74 101 134 173 210 251 304
#     4  10  20  35  53  76 105 133 167 212 263 312
#     4   9  19  34  53  75 100 132 168 209 252 301
#     4   8  16  32  53  77 107 142 178 217 260 307
#     4   9  18  32  50  73 102 134 168 209 254 300
#
# _framework density 18.622931000000001
#
# number of rings (size 3 to 8) (size 9 to 14) (size 15 to 20)
#    0.000    2.500    0.000    3.000    0.000    3.250 
#    0.000    5.000    0.000   12.750    0.000    0.000 
#    0.000    0.000    0.000    0.000    0.000    0.000 
#
# Total GULP energy -396839.728067 kJ/mol
# GULP energy per Si atom -12401.241502 kJ/mol
# Density = 1.858054 g / cm^3
# Si number density = 18.622931 Si / 1000 Ang^3
#
#
#
# Elastic Constant Matrix: (Units=GPa)
#
#
# Indices 1 2 3 4 5 6 
#
# 1 130.1445 20.3122 46.3019 0.0000 0.0000 0.0000
# 2 20.3122 38.8306 9.7712 0.0000 0.0000 0.0000
# 3 46.3019 9.7712 128.8169 0.0000 0.0000 0.0000
# 4 0.0000 0.0000 0.0000 29.1784 0.0000 0.0000
# 5 0.0000 0.0000 0.0000 0.0000 14.0114 0.0000
# 6 0.0000 0.0000 0.0000 0.0000 0.0000 22.9668
#
#
#
# Elastic Compliance Matrix: (Units=1/GPa)
#
#
# Indices 1 2 3 4 5 6 
#
# 1 0.009426 -0.004157 -0.003073 0.000000 0.000000 0.000000
# 2 -0.004157 0.028088 -0.000636 0.000000 0.000000 0.000000
# 3 -0.003073 -0.000636 0.008916 0.000000 0.000000 0.000000
# 4 0.000000 0.000000 0.000000 0.034272 0.000000 0.000000
# 5 0.000000 0.000000 0.000000 0.000000 0.071370 0.000000
# 6 0.000000 0.000000 0.000000 0.000000 0.000000 0.043541
#
#
# Mechanical properties :
#
#
# Convention : Reuss Voigt Hill
#
# Bulk Modulus (GPa) = 32.57691 50.06252 41.31971
# Shear Modulus (GPa) = 22.56549 27.99177 25.27863
#
# Velocity S-wave (km/s) = 3.48473 3.88116 3.68828
# Velocity P-wave (km/s) = 5.80707 6.85749 6.35402
#
# Compressibility (1/GPa) = 0.03069659
#
# Stress axis : x y z
#
# Youngs Moduli (GPa) = 106.09179 35.60276 112.16236
#
# Poissons Ratio (x) = 0.14802 0.34464
# Poissons Ratio (y) = 0.44107 0.07136
# Poissons Ratio (z) = 0.32598 0.02265
#
# Static dielectric constant tensor:
#      x y z
#    x 3.683220 0.000000 0.000000 
#    y 0.000000 3.272970 0.000000 
#    z 0.000000 0.000000 3.463840 
# 
# 
# High freq. dielectric constant tensor:
#      x y z
#    x 1.726310 0.000000 0.000000 
#    y 0.000000 1.713040 0.000000 
#    z 0.000000 0.000000 1.723670 
# 
# From -- ./inp_files/15912.got.cif
#   From: 2010.03.12/outbox.cif.g09.slc.cpg/sg38_8_cif.got.tgz:15912.got - 2010.04.14 02:38:36.
