data_PCOD8179777
_publ_section_title
;
Structure prediction by ZEFSAII (Michael W. Deem and Ramdas Pophale) SiO2 
 PCOD8179777
Probable space group: A M M 2
;
_chemical_formula_sum "Si O2"
_cell_formula_units_Z 56
_cell_length_a 21.622785
_cell_length_b 8.474225
_cell_length_c 15.108508
_cell_angle_alpha 90.000000
_cell_angle_beta 90.000000
_cell_angle_gamma 90.000000
_cell_volume 2768.427788
_symmetry_space_group_name_H-M "A M M 2"
_symmetry_group_IT_number 38
_symmetry_cell_setting 'orthorhombic'
loop_
_space_group_symop_operation_xyz
x,y,z
-x,-y,z
-x,y,z
x,-y,z
x,1/2+y,1/2+z
-x,1/2-y,1/2+z
-x,1/2+y,1/2+z
x,1/2-y,1/2+z
loop_
_atom_site_type_symbol
_atom_site_label
_atom_site_fract_x
_atom_site_fract_y
_atom_site_fract_z
Si Si1 0.635421 0.680159 0.831970
Si Si2 0.632212 0.685883 0.525751
Si Si3 0.931862 0.186744 0.349879
Si Si4 0.500000 0.322695 0.539768
Si Si5 0.288582 0.819329 0.677108
Si Si6 0.928055 0.182542 0.549369
Si Si7 0.500000 0.821750 0.358840
Si Si8 0.155193 0.316544 0.696057
O O1 0.656758 0.500000 0.819919
O O2 0.676654 0.786945 0.768805
O O3 0.563103 0.699953 0.802646
O O4 0.646982 0.727802 0.933731
O O5 0.626221 0.500000 0.506733
O O6 0.566490 0.752531 0.567546
O O7 0.685614 0.715409 0.596457
O O8 0.911840 0.232319 0.449031
O O9 0.881740 0.252399 0.280843
O O10 0.000000 0.258028 0.328658
O O11 0.936204 0.000000 0.341055
O O12 0.500000 0.500000 0.574599
O O13 0.500000 0.312578 0.433096
O O14 0.216877 0.783638 0.688402
O O15 0.297649 0.000000 0.651040
O O16 0.887127 0.294667 0.610176
O O17 0.000000 0.213020 0.569252
O O18 0.911247 0.000000 0.566290
O O19 0.500000 0.000000 0.400300
O O20 0.171763 0.500000 0.707335
#
# Coordination Sequence:
#
# PCOD8179777 Si02
#       8
#     8   8   8   4   8   8   4   8
#     4  10  20  38  61  86 115 148 186 233 288 344
#     4  10  20  38  61  86 114 146 186 235 290 346
#     4   8  16  33  58  85 111 141 177 217 268 330
#     4   8  16  31  56  85 112 140 176 229 290 345
#     4  12  26  41  55  78 113 156 201 240 283 340
#     4   9  18  35  59  86 115 146 180 221 274 338
#     4   8  16  31  56  85 112 142 180 227 282 343
#     4  11  22  37  57  81 111 147 189 237 283 332
#
# _framework density 20.228088
#
# number of rings (size 3 to 8) (size 9 to 14) (size 15 to 20)
#    0.000    2.286    0.000    3.857    0.000    3.714 
#    0.000    8.571    0.000    1.714    0.000    0.000 
#    0.000    0.000    0.000    0.000    0.000    0.000 
#
# Total GULP energy -347069.745975 kJ/mol
# GULP energy per Si atom -12395.348071 kJ/mol
# Density = 2.018205 g / cm^3
# Si number density = 20.228088 Si / 1000 Ang^3
#
#
#
# Elastic Constant Matrix: (Units=GPa)
#
#
# Indices 1 2 3 4 5 6 
#
# 1 116.7107 17.7305 58.0495 0.0000 0.0000 0.0000
# 2 17.7305 50.4644 9.6078 0.0000 0.0000 0.0000
# 3 58.0495 9.6078 99.9146 0.0000 0.0000 0.0000
# 4 0.0000 0.0000 0.0000 29.1947 0.0000 0.0000
# 5 0.0000 0.0000 0.0000 0.0000 63.7336 0.0000
# 6 0.0000 0.0000 0.0000 0.0000 0.0000 26.5014
#
#
#
# Elastic Compliance Matrix: (Units=1/GPa)
#
#
# Indices 1 2 3 4 5 6 
#
# 1 0.012499 -0.003065 -0.006967 0.000000 0.000000 0.000000
# 2 -0.003065 0.020937 -0.000233 0.000000 0.000000 0.000000
# 3 -0.006967 -0.000233 0.014079 0.000000 0.000000 0.000000
# 4 0.000000 0.000000 0.000000 0.034253 0.000000 0.000000
# 5 0.000000 0.000000 0.000000 0.000000 0.015690 0.000000
# 6 0.000000 0.000000 0.000000 0.000000 0.000000 0.037734
#
#
# Mechanical properties :
#
#
# Convention : Reuss Voigt Hill
#
# Bulk Modulus (GPa) = 37.05691 48.65169 42.85430
# Shear Modulus (GPa) = 30.35516 35.99942 33.17729
#
# Velocity S-wave (km/s) = 3.87802 4.22320 4.05428
# Velocity P-wave (km/s) = 6.19769 6.91985 6.56870
#
# Compressibility (1/GPa) = 0.02698552
#
# Stress axis : x y z
#
# Youngs Moduli (GPa) = 80.00542 47.76201 71.02897
#
# Poissons Ratio (x) = 0.14639 0.49487
# Poissons Ratio (y) = 0.24522 0.01652
# Poissons Ratio (z) = 0.55741 0.01111
#
# Static dielectric constant tensor:
#      x y z
#    x 3.464790 0.000000 0.000000 
#    y 0.000000 3.443380 0.000000 
#    z 0.000000 0.000000 3.553760 
# 
# 
# High freq. dielectric constant tensor:
#      x y z
#    x 1.796930 0.000000 0.000000 
#    y 0.000000 1.773300 0.000000 
#    z 0.000000 0.000000 1.781330 
# 
# From -- ./inp_files/15584.got.cif
#   From: 2010.03.12/outbox.cif.g09.slc.cpg/sg38_8_cif.got.tgz:15584.got - 2010.04.14 02:38:36.
