data_PCOD8179929
_publ_section_title
;
Structure prediction by ZEFSAII (Michael W. Deem and Ramdas Pophale) SiO2 
 PCOD8179929
Probable space group: A M M 2
;
_chemical_formula_sum "Si O2"
_cell_formula_units_Z 64
_cell_length_a 9.795643
_cell_length_b 15.352363
_cell_length_c 23.092389
_cell_angle_alpha 90.000000
_cell_angle_beta 90.000000
_cell_angle_gamma 90.000000
_cell_volume 3472.778181
_symmetry_space_group_name_H-M "A M M 2"
_symmetry_group_IT_number 38
_symmetry_cell_setting 'orthorhombic'
loop_
_space_group_symop_operation_xyz
x,y,z
-x,-y,z
-x,y,z
x,-y,z
x,1/2+y,1/2+z
-x,1/2-y,1/2+z
-x,1/2+y,1/2+z
x,1/2-y,1/2+z
loop_
_atom_site_type_symbol
_atom_site_label
_atom_site_fract_x
_atom_site_fract_y
_atom_site_fract_z
Si Si1 0.159556 0.101616 0.105050
Si Si2 0.343615 0.599315 0.083313
Si Si3 0.658474 0.724487 0.524427
Si Si4 0.341212 0.230918 0.892613
Si Si5 0.148412 0.401466 0.181590
Si Si6 0.346046 0.406152 0.834689
Si Si7 0.844987 0.359676 0.736512
Si Si8 0.153775 0.176111 0.795334
O O1 0.200770 0.126638 0.170425
O O2 0.000000 0.120589 0.093855
O O3 0.193046 0.000000 0.093572
O O4 0.247975 0.161854 0.062638
O O5 0.500000 0.598955 0.102757
O O6 0.302470 0.500000 0.063474
O O7 0.260712 0.637280 0.138407
O O8 0.316687 0.671583 0.033901
O O9 0.500000 0.701742 0.536422
O O10 0.698177 0.707154 0.457847
O O11 0.500000 0.214229 0.880982
O O12 0.299272 0.331233 0.879299
O O13 0.255509 0.169684 0.849427
O O14 0.131978 0.500000 0.162621
O O15 0.190729 0.399355 0.249404
O O16 0.000000 0.353763 0.173711
O O17 0.500000 0.386694 0.813608
O O18 0.338043 0.500000 0.866954
O O19 0.252154 0.414621 0.778184
O O20 0.827326 0.260134 0.754785
O O21 0.000000 0.392808 0.744683
O O22 0.000000 0.168845 0.819950
#
# Coordination Sequence:
#
# PCOD8179929 Si02
#       8
#     8   8   8   8   8   8   8   8
#     4  10  21  36  54  76 101 132 170 210 253 300
#     4   9  18  32  51  77 106 134 166 203 245 298
#     4  10  21  36  53  73 100 136 173 210 252 293
#     4   9  19  34  49  67  93 126 164 201 238 285
#     4   9  17  30  49  73  99 125 156 198 248 299
#     4   9  17  29  47  72  99 125 154 191 236 287
#     4   9  17  30  49  72  98 126 155 191 240 297
#     4   9  17  30  49  72  96 124 157 195 242 292
#
# _framework density 18.429048999999999
#
# number of rings (size 3 to 8) (size 9 to 14) (size 15 to 20)
#    0.000    2.750    0.000    1.125    0.000    4.500 
#    0.000    5.625    0.000    2.250    0.000    3.500 
#    0.000    0.000    0.000    0.000    0.000    0.000 
#
# Total GULP energy -396533.062660 kJ/mol
# GULP energy per Si atom -12391.658208 kJ/mol
# Density = 1.838710 g / cm^3
# Si number density = 18.429049 Si / 1000 Ang^3
#
#
#
# Elastic Constant Matrix: (Units=GPa)
#
#
# Indices 1 2 3 4 5 6 
#
# 1 65.2716 25.9518 49.8033 0.0000 0.0000 0.0000
# 2 25.9518 51.7432 26.9278 0.0000 0.0000 0.0000
# 3 49.8033 26.9278 102.0784 0.0000 0.0000 0.0000
# 4 0.0000 0.0000 0.0000 19.4199 0.0000 0.0000
# 5 0.0000 0.0000 0.0000 0.0000 27.9614 0.0000
# 6 0.0000 0.0000 0.0000 0.0000 0.0000 21.4992
#
#
#
# Elastic Compliance Matrix: (Units=1/GPa)
#
#
# Indices 1 2 3 4 5 6 
#
# 1 0.026813 -0.007697 -0.011052 0.000000 0.000000 0.000000
# 2 -0.007697 0.024611 -0.002737 0.000000 0.000000 0.000000
# 3 -0.011052 -0.002737 0.015910 0.000000 0.000000 0.000000
# 4 0.000000 0.000000 0.000000 0.051494 0.000000 0.000000
# 5 0.000000 0.000000 0.000000 0.000000 0.035764 0.000000
# 6 0.000000 0.000000 0.000000 0.000000 0.000000 0.046513
#
#
# Mechanical properties :
#
#
# Convention : Reuss Voigt Hill
#
# Bulk Modulus (GPa) = 41.04460 47.16209 44.10335
# Shear Modulus (GPa) = 19.82572 21.53679 20.68125
#
# Velocity S-wave (km/s) = 3.28348 3.42224 3.35357
# Velocity P-wave (km/s) = 6.05764 6.42358 6.24329
#
# Compressibility (1/GPa) = 0.02436374
#
# Stress axis : x y z
#
# Youngs Moduli (GPa) = 37.29475 40.63232 62.85185
#
# Poissons Ratio (x) = 0.31274 0.69462
# Poissons Ratio (y) = 0.28705 0.17203
# Poissons Ratio (z) = 0.41217 0.11121
#
# Static dielectric constant tensor:
#      x y z
#    x 3.559620 0.000000 0.000000 
#    y 0.000000 3.421250 0.000000 
#    z 0.000000 0.000000 3.264580 
# 
# 
# High freq. dielectric constant tensor:
#      x y z
#    x 1.712710 0.000000 0.000000 
#    y 0.000000 1.710690 0.000000 
#    z 0.000000 0.000000 1.698710 
# 
# From -- ./inp_files/20075.got.cif
#   From: 2010.03.12/outbox.cif.g09.slc.cpg/sg38_11_cif.got.tgz:20075.got - 2010.04.14 02:38:36.
