data_PCOD8179282
_publ_section_title
;
Structure prediction by ZEFSAII (Michael W. Deem and Ramdas Pophale) SiO2 
 PCOD8179282
Probable space group: A M M 2
;
_chemical_formula_sum "Si O2"
_cell_formula_units_Z 64
_cell_length_a 24.289155
_cell_length_b 9.463822
_cell_length_c 14.788365
_cell_angle_alpha 90.000000
_cell_angle_beta 90.000000
_cell_angle_gamma 90.000000
_cell_volume 3399.375427
_symmetry_space_group_name_H-M "A M M 2"
_symmetry_group_IT_number 38
_symmetry_cell_setting 'orthorhombic'
loop_
_space_group_symop_operation_xyz
x,y,z
-x,-y,z
-x,y,z
x,-y,z
x,1/2+y,1/2+z
-x,1/2-y,1/2+z
-x,1/2+y,1/2+z
x,1/2-y,1/2+z
loop_
_atom_site_type_symbol
_atom_site_label
_atom_site_fract_x
_atom_site_fract_y
_atom_site_fract_z
Si Si1 0.640795 0.667053 0.686760
Si Si2 0.132709 0.833366 0.667869
Si Si3 0.639651 0.838834 0.979426
Si Si4 0.744368 0.343470 0.179917
Si Si5 0.063779 0.334742 0.806687
Si Si6 0.858909 0.332331 0.965757
Si Si7 0.260301 0.343553 0.965106
Si Si8 0.436342 0.662664 0.316852
O O1 0.641930 0.500000 0.702934
O O2 0.627545 0.707556 0.582495
O O3 0.699939 0.731119 0.717141
O O4 0.592843 0.735793 0.745521
O O5 0.193603 0.798247 0.707646
O O6 0.086259 0.750884 0.722039
O O7 0.127033 0.775204 0.565500
O O8 0.121095 0.000000 0.673757
O O9 0.689718 0.754158 0.933045
O O10 0.585937 0.812051 0.918537
O O11 0.658650 0.000000 0.978836
O O12 0.730402 0.500000 0.218587
O O13 0.742255 0.349594 0.072621
O O14 0.074556 0.500000 0.790371
O O15 0.094596 0.280434 0.896749
O O16 0.000000 0.300572 0.819832
O O17 0.855318 0.500000 0.972414
O O18 0.798428 0.280000 0.931807
O O19 0.270850 0.500000 0.925297
O O20 0.500000 0.703716 0.318239
O O21 0.427049 0.500000 0.287688
#
# Coordination Sequence:
#
# PCOD8179282 Si02
#       8
#     8   8   8   8   8   8   8   8
#     4  10  20  34  55  82 108 134 167 211 258 301
#     4   9  18  34  56  78 100 132 173 213 251 297
#     4   9  19  35  54  77 105 135 166 204 255 310
#     4   8  15  30  52  78 107 135 164 202 253 311
#     4  10  21  35  50  72 103 137 173 213 258 306
#     4   8  16  33  54  74  99 134 171 204 248 308
#     4   8  14  28  52  78 102 129 164 206 250 301
#     4  10  22  39  55  72 100 141 182 213 249 302
#
# _framework density 18.826989000000001
#
# number of rings (size 3 to 8) (size 9 to 14) (size 15 to 20)
#    0.000    3.000    0.000    1.875    0.000    4.000 
#    0.000    8.125    0.000    0.000    0.000    0.000 
#    0.000    0.000    0.000    0.000    0.000    0.000 
#
# Total GULP energy -396702.501733 kJ/mol
# GULP energy per Si atom -12396.953179 kJ/mol
# Density = 1.878414 g / cm^3
# Si number density = 18.826989 Si / 1000 Ang^3
#
#
#
# Elastic Constant Matrix: (Units=GPa)
#
#
# Indices 1 2 3 4 5 6 
#
# 1 111.6767 43.3890 30.7915 0.0000 0.0000 0.0000
# 2 43.3890 62.6528 27.2096 0.0000 0.0000 0.0000
# 3 30.7915 27.2096 60.4334 0.0000 0.0000 0.0000
# 4 0.0000 0.0000 0.0000 20.5342 0.0000 0.0000
# 5 0.0000 0.0000 0.0000 0.0000 33.5050 0.0000
# 6 0.0000 0.0000 0.0000 0.0000 0.0000 30.5932
#
#
#
# Elastic Compliance Matrix: (Units=1/GPa)
#
#
# Indices 1 2 3 4 5 6 
#
# 1 0.012708 -0.007444 -0.003123 0.000000 0.000000 0.000000
# 2 -0.007444 0.024201 -0.007104 0.000000 0.000000 0.000000
# 3 -0.003123 -0.007104 0.021337 0.000000 0.000000 0.000000
# 4 0.000000 0.000000 0.000000 0.048699 0.000000 0.000000
# 5 0.000000 0.000000 0.000000 0.000000 0.029846 0.000000
# 6 0.000000 0.000000 0.000000 0.000000 0.000000 0.032687
#
#
# Mechanical properties :
#
#
# Convention : Reuss Voigt Hill
#
# Bulk Modulus (GPa) = 43.66014 48.61590 46.13802
# Shear Modulus (GPa) = 23.53443 25.81799 24.67621
#
# Velocity S-wave (km/s) = 3.53942 3.70716 3.62426
# Velocity P-wave (km/s) = 6.32012 6.64850 6.48639
#
# Compressibility (1/GPa) = 0.02290418
#
# Stress axis : x y z
#
# Youngs Moduli (GPa) = 78.69207 41.32006 46.86764
#
# Poissons Ratio (x) = 0.30759 0.14637
# Poissons Ratio (y) = 0.58580 0.33293
# Poissons Ratio (z) = 0.24576 0.29352
#
# Static dielectric constant tensor:
#      x y z
#    x 3.587790 0.000000 0.000000 
#    y 0.000000 3.411830 0.000000 
#    z 0.000000 0.000000 3.387730 
# 
# 
# High freq. dielectric constant tensor:
#      x y z
#    x 1.731660 0.000000 0.000000 
#    y 0.000000 1.713980 0.000000 
#    z 0.000000 0.000000 1.724210 
# 
# From -- ./inp_files/15795.got.cif
#   From: 2010.03.12/outbox.cif.g09.slc.cpg/sg38_8_cif.got.tgz:15795.got - 2010.04.14 02:38:36.
