data_PCOD8179669
_publ_section_title
;
Structure prediction by ZEFSAII (Michael W. Deem and Ramdas Pophale) SiO2 
 PCOD8179669
Probable space group: A M M 2
;
_chemical_formula_sum "Si O2"
_cell_formula_units_Z 44
_cell_length_a 11.673372
_cell_length_b 15.247921
_cell_length_c 13.452370
_cell_angle_alpha 90.000000
_cell_angle_beta 90.000000
_cell_angle_gamma 90.000000
_cell_volume 2394.449944
_symmetry_space_group_name_H-M "A M M 2"
_symmetry_group_IT_number 38
_symmetry_cell_setting 'orthorhombic'
loop_
_space_group_symop_operation_xyz
x,y,z
-x,-y,z
-x,y,z
x,-y,z
x,1/2+y,1/2+z
-x,1/2-y,1/2+z
-x,1/2+y,1/2+z
x,1/2-y,1/2+z
loop_
_atom_site_type_symbol
_atom_site_label
_atom_site_fract_x
_atom_site_fract_y
_atom_site_fract_z
Si Si1 0.270309 0.404774 0.650850
Si Si2 0.743878 0.601209 0.247179
Si Si3 0.500000 0.295530 0.956716
Si Si4 0.500000 0.342222 0.181264
Si Si5 0.500000 0.857589 0.250859
Si Si6 0.274349 0.683662 0.455803
Si Si7 0.135205 0.742161 0.120070
O O1 0.211624 0.500000 0.667573
O O2 0.387297 0.404498 0.711728
O O3 0.300400 0.394545 0.533735
O O4 0.185592 0.325287 0.683778
O O5 0.781827 0.500000 0.246637
O O6 0.609738 0.607540 0.222944
O O7 0.772717 0.643554 0.353829
O O8 0.817411 0.651727 0.164372
O O9 0.500000 0.367923 0.869994
O O10 0.389904 0.236095 0.938461
O O11 0.500000 0.344472 0.061747
O O12 0.500000 0.242608 0.215800
O O13 0.178342 0.748066 0.505589
O O14 0.000000 0.743045 0.124782
#
# Coordination Sequence:
#
# PCOD8179669 Si02
#       7
#     8   8   4   4   4   8   8
#     4  10  20  37  60  88 119 152 199 251 304 362
#     4  12  23  39  65  96 126 160 203 254 312 371
#     4  12  18  34  64  82 124 168 195 241 307 379
#     4  12  19  38  57  93 128 163 193 243 309 382
#     4  12  19  34  59  91 118 157 198 246 306 373
#     4  10  20  36  62  91 121 153 200 248 310 358
#     4  10  23  41  60  86 124 164 202 251 303 357
#
# _framework density 18.375827999999998
#
# number of rings (size 3 to 8) (size 9 to 14) (size 15 to 20)
#    1.091    0.000    7.273    1.091    0.000    1.455 
#    0.000    4.545    0.000    0.000    0.000    2.545 
#    0.000    0.000    0.000    0.000    0.000    0.000 
#
# Total GULP energy -272681.745574 kJ/mol
# GULP energy per Si atom -12394.624799 kJ/mol
# Density = 1.833400 g / cm^3
# Si number density = 18.375828 Si / 1000 Ang^3
#
#
#
# Elastic Constant Matrix: (Units=GPa)
#
#
# Indices 1 2 3 4 5 6 
#
# 1 129.1855 44.0831 28.8444 0.0000 0.0000 0.0000
# 2 44.0831 113.4848 46.9870 0.0000 0.0000 0.0000
# 3 28.8444 46.9870 124.5384 0.0000 0.0000 0.0000
# 4 0.0000 0.0000 0.0000 8.3819 0.0000 0.0000
# 5 0.0000 0.0000 0.0000 0.0000 -58.6692 0.0000
# 6 0.0000 0.0000 0.0000 0.0000 0.0000 -8.2851
#
#
#
# Elastic Compliance Matrix: (Units=1/GPa)
#
#
# Indices 1 2 3 4 5 6 
#
# 1 0.009010 -0.003124 -0.000908 0.000000 0.000000 0.000000
# 2 -0.003124 0.011526 -0.003625 0.000000 0.000000 0.000000
# 3 -0.000908 -0.003625 0.009608 0.000000 0.000000 0.000000
# 4 0.000000 0.000000 0.000000 0.119304 0.000000 0.000000
# 5 0.000000 0.000000 0.000000 0.000000 -0.017045 0.000000
# 6 0.000000 0.000000 0.000000 0.000000 0.000000 -0.120698
#
#
# Mechanical properties :
#
#
# Convention : Reuss Voigt Hill
#
# Bulk Modulus (GPa) = 67.43438 67.44863 67.44150
# Shear Modulus (GPa) = 156.43856 4.77181 80.60518
#
# Velocity S-wave (km/s) = 9.23675 1.61320 6.63023
# Velocity P-wave (km/s) = 12.26922 6.34466 9.76700
#
# Compressibility (1/GPa) = 0.01482923
#
# Stress axis : x y z
#
# Youngs Moduli (GPa) = 110.99381 86.75941 104.08280
#
# Poissons Ratio (x) = 0.27101 0.09452
# Poissons Ratio (y) = 0.34671 0.37732
# Poissons Ratio (z) = 0.10080 0.31452
#
# Static dielectric constant tensor:
#      x y z
#    x 3.363990 0.000000 0.000000 
#    y 0.000000 3.297060 0.000000 
#    z 0.000000 0.000000 3.526610 
# 
# 
# High freq. dielectric constant tensor:
#      x y z
#    x 1.695200 0.000000 0.000000 
#    y 0.000000 1.704120 0.000000 
#    z 0.000000 0.000000 1.711170 
# 
# From -- ./inp_files/13655.got.cif
#   From: 2010.03.12/outbox.cif.g09.slc.cpg/sg38_7_cif.got.tgz:13655.got - 2010.04.14 02:38:36.
