data_PCOD8179188
_publ_section_title
;
Structure prediction by ZEFSAII (Michael W. Deem and Ramdas Pophale) SiO2 
 PCOD8179188
Probable space group: A M M 2
;
_chemical_formula_sum "Si O2"
_cell_formula_units_Z 64
_cell_length_a 8.982221
_cell_length_b 19.487626
_cell_length_c 20.710837
_cell_angle_alpha 90.000000
_cell_angle_beta 90.000000
_cell_angle_gamma 90.000000
_cell_volume 3625.269716
_symmetry_space_group_name_H-M "A M M 2"
_symmetry_group_IT_number 38
_symmetry_cell_setting 'orthorhombic'
loop_
_space_group_symop_operation_xyz
x,y,z
-x,-y,z
-x,y,z
x,-y,z
x,1/2+y,1/2+z
-x,1/2-y,1/2+z
-x,1/2+y,1/2+z
x,1/2-y,1/2+z
loop_
_atom_site_type_symbol
_atom_site_label
_atom_site_fract_x
_atom_site_fract_y
_atom_site_fract_z
Si Si1 0.829823 0.576374 0.636810
Si Si2 0.172677 0.287791 0.568894
Si Si3 0.674393 0.718275 0.814247
Si Si4 0.827245 0.921800 0.878187
Si Si5 0.325124 0.574633 0.769713
Si Si6 0.325536 0.577862 0.242301
Si Si7 0.176007 0.205150 0.695662
Si Si8 0.325343 0.199499 0.941014
O O1 0.798758 0.500000 0.609020
O O2 0.793873 0.631806 0.581872
O O3 0.730890 0.592369 0.698585
O O4 0.000000 0.584443 0.659582
O O5 0.224351 0.243837 0.630574
O O6 0.269967 0.265498 0.507265
O O7 0.000000 0.274847 0.553491
O O8 0.500000 0.727708 0.799534
O O9 0.720092 0.637419 0.816661
O O10 0.763873 0.755526 0.757994
O O11 0.718095 0.749364 0.883160
O O12 0.738023 0.906933 0.812953
O O13 0.761023 0.872502 0.932939
O O14 0.000000 0.905283 0.866082
O O15 0.804935 0.000000 0.901259
O O16 0.500000 0.569225 0.765215
O O17 0.260968 0.500000 0.793300
O O18 0.500000 0.592985 0.244405
O O19 0.291120 0.500000 0.220614
O O20 0.246271 0.628895 0.192056
O O21 0.000000 0.199824 0.701519
O O22 0.500000 0.185365 0.944005
#
# Coordination Sequence:
#
# PCOD8179188 Si02
#       8
#     8   8   8   8   8   8   8   8
#     4   9  17  31  50  72 102 137 172 210 253 306
#     4  10  22  37  51  75 108 143 183 222 266 320
#     4  10  20  34  53  78 107 138 175 221 273 320
#     4  10  20  34  53  77 107 144 182 220 264 317
#     4   9  17  30  51  78 105 133 168 212 263 316
#     4  10  20  34  54  81 111 140 174 220 271 322
#     4  11  21  34  56  82 106 139 182 223 269 320
#     4  11  23  36  52  76 106 144 184 225 271 319
#
# _framework density 17.653859000000001
#
# number of rings (size 3 to 8) (size 9 to 14) (size 15 to 20)
#    0.000    2.000    2.500    1.500    0.000    4.000 
#    0.000    1.250    0.000    0.750    0.000    1.750 
#    0.000    0.000    0.000    0.000    0.000    0.000 
#
# Total GULP energy -396770.087650 kJ/mol
# GULP energy per Si atom -12399.065239 kJ/mol
# Density = 1.761368 g / cm^3
# Si number density = 17.653859 Si / 1000 Ang^3
#
#
#
# Elastic Constant Matrix: (Units=GPa)
#
#
# Indices 1 2 3 4 5 6 
#
# 1 56.6916 49.6080 42.1484 0.0000 0.0000 0.0000
# 2 49.6080 115.8377 64.9857 0.0000 0.0000 0.0000
# 3 42.1484 64.9857 106.8033 0.0000 0.0000 0.0000
# 4 0.0000 0.0000 0.0000 19.7048 0.0000 0.0000
# 5 0.0000 0.0000 0.0000 0.0000 28.2292 0.0000
# 6 0.0000 0.0000 0.0000 0.0000 0.0000 25.7543
#
#
#
# Elastic Compliance Matrix: (Units=1/GPa)
#
#
# Indices 1 2 3 4 5 6 
#
# 1 0.030738 -0.009654 -0.006256 0.000000 0.000000 0.000000
# 2 -0.009654 0.016139 -0.006010 0.000000 0.000000 0.000000
# 3 -0.006256 -0.006010 0.015489 0.000000 0.000000 0.000000
# 4 0.000000 0.000000 0.000000 0.050749 0.000000 0.000000
# 5 0.000000 0.000000 0.000000 0.000000 0.035424 0.000000
# 6 0.000000 0.000000 0.000000 0.000000 0.000000 0.038828
#
#
# Mechanical properties :
#
#
# Convention : Reuss Voigt Hill
#
# Bulk Modulus (GPa) = 53.98030 65.86855 59.92442
# Shear Modulus (GPa) = 21.06293 22.91037 21.98665
#
# Velocity S-wave (km/s) = 3.45788 3.60634 3.53289
# Velocity P-wave (km/s) = 6.82540 7.39818 7.11755
#
# Compressibility (1/GPa) = 0.01852528
#
# Stress axis : x y z
#
# Youngs Moduli (GPa) = 32.53252 61.96243 64.56246
#
# Poissons Ratio (x) = 0.59819 0.40393
# Poissons Ratio (y) = 0.31407 0.38802
# Poissons Ratio (z) = 0.20354 0.37240
#
# Static dielectric constant tensor:
#      x y z
#    x 3.312060 0.000000 0.000000 
#    y 0.000000 3.776460 0.000000 
#    z 0.000000 0.000000 3.028610 
# 
# 
# High freq. dielectric constant tensor:
#      x y z
#    x 1.688170 0.000000 0.000000 
#    y 0.000000 1.692590 0.000000 
#    z 0.000000 0.000000 1.651620 
# 
# From -- ./inp_files/17191.got.cif
#   From: 2010.03.12/outbox.cif.g09.slc.cpg/sg38_9_cif.got.tgz:17191.got - 2010.04.14 02:38:36.
