data_PCOD8179189
_publ_section_title
;
Structure prediction by ZEFSAII (Michael W. Deem and Ramdas Pophale) SiO2 
 PCOD8179189
Probable space group: A M M 2
;
_chemical_formula_sum "Si O2"
_cell_formula_units_Z 48
_cell_length_a 8.928292
_cell_length_b 29.124637
_cell_length_c 10.185955
_cell_angle_alpha 90.000000
_cell_angle_beta 90.000000
_cell_angle_gamma 90.000000
_cell_volume 2648.687121
_symmetry_space_group_name_H-M "A M M 2"
_symmetry_group_IT_number 38
_symmetry_cell_setting 'orthorhombic'
loop_
_space_group_symop_operation_xyz
x,y,z
-x,-y,z
-x,y,z
x,-y,z
x,1/2+y,1/2+z
-x,1/2-y,1/2+z
-x,1/2+y,1/2+z
x,1/2-y,1/2+z
loop_
_atom_site_type_symbol
_atom_site_label
_atom_site_fract_x
_atom_site_fract_y
_atom_site_fract_z
Si Si1 0.824158 0.117402 0.648580
Si Si2 0.176721 0.276938 0.142510
Si Si3 0.324207 0.780373 0.371080
Si Si4 0.326455 0.386200 0.881243
Si Si5 0.828197 0.446410 0.666697
Si Si6 0.178159 0.949119 0.872379
O O1 0.782152 0.170301 0.672733
O O2 0.755180 0.098484 0.514267
O O3 0.757333 0.087799 0.769253
O O4 0.000000 0.110489 0.637256
O O5 0.262230 0.246535 0.247275
O O6 0.000000 0.267662 0.149018
O O7 0.237248 0.262740 0.999698
O O8 0.500000 0.771063 0.389170
O O9 0.288742 0.833699 0.346489
O O10 0.500000 0.393730 0.905256
O O11 0.274825 0.417699 0.762711
O O12 0.810769 0.500000 0.698615
O O13 0.770687 0.435773 0.519246
O O14 0.000000 0.430946 0.684456
O O15 0.000000 0.949682 0.869864
O O16 0.238260 0.000000 0.835605
#
# Coordination Sequence:
#
# PCOD8179189 Si02
#       6
#     8   8   8   8   8   8
#     4   9  18  33  53  77 103 131 166 209 255 303
#     4  10  20  34  53  78 105 134 173 219 261 305
#     4  10  21  37  54  74 104 140 174 211 262 320
#     4  10  21  35  51  74 104 137 171 208 252 303
#     4   9  18  33  53  76 102 134 171 211 256 304
#     4   8  15  30  52  76 100 127 163 206 250 298
#
# _framework density 18.122187
#
# number of rings (size 3 to 8) (size 9 to 14) (size 15 to 20)
#    0.000    2.667    0.000    2.500    0.000    5.000 
#    0.000    4.167    0.000    1.000    0.000    0.000 
#    0.000    0.000    0.000    0.000    0.000    0.000 
#
# Total GULP energy -297617.828451 kJ/mol
# GULP energy per Si atom -12400.742852 kJ/mol
# Density = 1.808094 g / cm^3
# Si number density = 18.122187 Si / 1000 Ang^3
#
#
#
# Elastic Constant Matrix: (Units=GPa)
#
#
# Indices 1 2 3 4 5 6 
#
# 1 36.5326 25.0146 26.0749 0.0000 0.0000 0.0000
# 2 25.0146 67.8707 65.8960 0.0000 0.0000 0.0000
# 3 26.0749 65.8960 127.3966 0.0000 0.0000 0.0000
# 4 0.0000 0.0000 0.0000 40.4532 0.0000 0.0000
# 5 0.0000 0.0000 0.0000 0.0000 15.8620 0.0000
# 6 0.0000 0.0000 0.0000 0.0000 0.0000 25.1243
#
#
#
# Elastic Compliance Matrix: (Units=1/GPa)
#
#
# Indices 1 2 3 4 5 6 
#
# 1 0.036680 -0.012515 -0.001034 0.000000 0.000000 0.000000
# 2 -0.012515 0.033868 -0.014957 0.000000 0.000000 0.000000
# 3 -0.001034 -0.014957 0.015798 0.000000 0.000000 0.000000
# 4 0.000000 0.000000 0.000000 0.024720 0.000000 0.000000
# 5 0.000000 0.000000 0.000000 0.000000 0.063044 0.000000
# 6 0.000000 0.000000 0.000000 0.000000 0.000000 0.039802
#
#
# Mechanical properties :
#
#
# Convention : Reuss Voigt Hill
#
# Bulk Modulus (GPa) = 34.09004 51.75232 42.92118
# Shear Modulus (GPa) = 17.81257 23.94222 20.87739
#
# Velocity S-wave (km/s) = 3.13855 3.63871 3.39785
# Velocity P-wave (km/s) = 5.65562 6.80243 6.25536
#
# Compressibility (1/GPa) = 0.02933408
#
# Stress axis : x y z
#
# Youngs Moduli (GPa) = 27.26276 29.52644 63.30086
#
# Poissons Ratio (x) = 0.36952 0.06547
# Poissons Ratio (y) = 0.34119 0.94678
# Poissons Ratio (z) = 0.02820 0.44162
#
# Static dielectric constant tensor:
#      x y z
#    x 3.214740 0.000000 0.000000 
#    y 0.000000 3.448160 0.000000 
#    z 0.000000 0.000000 3.522500 
# 
# 
# High freq. dielectric constant tensor:
#      x y z
#    x 1.689340 0.000000 0.000000 
#    y 0.000000 1.699040 0.000000 
#    z 0.000000 0.000000 1.712240 
# 
# From -- ./inp_files/3718.got.cif
#   From: 2010.03.12/outbox.cif.g09.slc.cpg/sg38_2_cif.got.tgz:3718.got - 2010.04.14 02:38:36.
