data_PCOD8179896
_publ_section_title
;
Structure prediction by ZEFSAII (Michael W. Deem and Ramdas Pophale) SiO2 
 PCOD8179896
Probable space group: A M M 2
;
_chemical_formula_sum "Si O2"
_cell_formula_units_Z 64
_cell_length_a 24.157004
_cell_length_b 8.997966
_cell_length_c 15.447760
_cell_angle_alpha 90.000000
_cell_angle_beta 90.000000
_cell_angle_gamma 90.000000
_cell_volume 3357.785370
_symmetry_space_group_name_H-M "A M M 2"
_symmetry_group_IT_number 38
_symmetry_cell_setting 'orthorhombic'
loop_
_space_group_symop_operation_xyz
x,y,z
-x,-y,z
-x,y,z
x,-y,z
x,1/2+y,1/2+z
-x,1/2-y,1/2+z
-x,1/2+y,1/2+z
x,1/2-y,1/2+z
loop_
_atom_site_type_symbol
_atom_site_label
_atom_site_fract_x
_atom_site_fract_y
_atom_site_fract_z
Si Si1 0.063010 0.823830 0.430060
Si Si2 0.132965 0.675237 0.577418
Si Si3 0.136127 0.822662 0.271938
Si Si4 0.634009 0.827111 0.531529
Si Si5 0.741299 0.166992 0.074217
Si Si6 0.743527 0.332554 0.777059
Si Si7 0.630446 0.174811 0.339115
Si Si8 0.437630 0.323335 0.677917
O O1 0.091445 0.758786 0.514641
O O2 0.092415 0.764524 0.342515
O O3 0.000000 0.768355 0.426966
O O4 0.066923 0.000000 0.434741
O O5 0.124094 0.500000 0.568094
O O6 0.118870 0.728699 0.675378
O O7 0.196078 0.718531 0.553248
O O8 0.196979 0.755124 0.295845
O O9 0.140534 0.000000 0.270476
O O10 0.698313 0.779168 0.529951
O O11 0.609305 0.793034 0.436011
O O12 0.598355 0.734537 0.598588
O O13 0.630164 0.000000 0.554724
O O14 0.730551 0.170089 0.175882
O O15 0.731282 0.000000 0.039245
O O16 0.747969 0.500000 0.811747
O O17 0.691668 0.252193 0.824351
O O18 0.586994 0.237815 0.268856
O O19 0.636678 0.000000 0.322514
O O20 0.500000 0.262189 0.669715
O O21 0.436706 0.500000 0.674866
#
# Coordination Sequence:
#
# PCOD8179896 Si02
#       8
#     8   8   8   8   8   8   8   8
#     4  10  21  35  52  77 108 141 178 222 273 328
#     4   9  19  35  56  81 105 139 183 227 269 311
#     4   8  16  31  52  76 102 137 179 219 261 313
#     4  11  22  33  54  88 116 139 173 224 278 316
#     4   9  17  33  56  79 110 145 179 217 264 326
#     4   8  13  27  53  77  99 133 176 217 253 305
#     4   9  18  32  53  81 107 138 180 217 258 317
#     4  10  21  40  62  77 100 146 191 221 260 322
#
# _framework density 19.060182999999999
#
# number of rings (size 3 to 8) (size 9 to 14) (size 15 to 20)
#    0.000    2.750    1.250    1.875    1.750    2.000 
#    0.000    4.375    0.000    0.750    0.000    0.000 
#    0.000    0.000    0.000    0.000    0.000    0.000 
#
# Total GULP energy -396620.922988 kJ/mol
# GULP energy per Si atom -12394.403843 kJ/mol
# Density = 1.901680 g / cm^3
# Si number density = 19.060183 Si / 1000 Ang^3
#
#
#
# Elastic Constant Matrix: (Units=GPa)
#
#
# Indices 1 2 3 4 5 6 
#
# 1 139.4823 22.4016 74.2915 0.0000 0.0000 0.0000
# 2 22.4016 18.0130 17.7433 0.0000 0.0000 0.0000
# 3 74.2915 17.7433 118.3897 0.0000 0.0000 0.0000
# 4 0.0000 0.0000 0.0000 24.8999 0.0000 0.0000
# 5 0.0000 0.0000 0.0000 0.0000 23.8915 0.0000
# 6 0.0000 0.0000 0.0000 0.0000 0.0000 20.5058
#
#
#
# Elastic Compliance Matrix: (Units=1/GPa)
#
#
# Indices 1 2 3 4 5 6 
#
# 1 0.011821 -0.008675 -0.006118 0.000000 0.000000 0.000000
# 2 -0.008675 0.071497 -0.005272 0.000000 0.000000 0.000000
# 3 -0.006118 -0.005272 0.013076 0.000000 0.000000 0.000000
# 4 0.000000 0.000000 0.000000 0.040161 0.000000 0.000000
# 5 0.000000 0.000000 0.000000 0.000000 0.041856 0.000000
# 6 0.000000 0.000000 0.000000 0.000000 0.000000 0.048767
#
#
# Mechanical properties :
#
#
# Convention : Reuss Voigt Hill
#
# Bulk Modulus (GPa) = 17.77314 56.08421 36.92867
# Shear Modulus (GPa) = 17.47881 24.62268 21.05075
#
# Velocity S-wave (km/s) = 3.03154 3.59812 3.32691
# Velocity P-wave (km/s) = 4.64743 6.83744 5.84591
#
# Compressibility (1/GPa) = 0.05626469
#
# Stress axis : x y z
#
# Youngs Moduli (GPa) = 84.59463 13.98666 76.47727
#
# Poissons Ratio (x) = 0.12133 0.46787
# Poissons Ratio (y) = 0.73385 0.40317
# Poissons Ratio (z) = 0.51753 0.07373
#
# Static dielectric constant tensor:
#      x y z
#    x 3.760750 0.000000 0.000000 
#    y 0.000000 3.026180 0.000000 
#    z 0.000000 0.000000 3.529570 
# 
# 
# High freq. dielectric constant tensor:
#      x y z
#    x 1.747160 0.000000 0.000000 
#    y 0.000000 1.690580 0.000000 
#    z 0.000000 0.000000 1.746610 
# 
# From -- ./inp_files/15775.got.cif
#   From: 2010.03.12/outbox.cif.g09.slc.cpg/sg38_8_cif.got.tgz:15775.got - 2010.04.14 02:38:36.
