data_PCOD8179183
_publ_section_title
;
Structure prediction by ZEFSAII (Michael W. Deem and Ramdas Pophale) SiO2 
 PCOD8179183
Probable space group: A M M 2
;
_chemical_formula_sum "Si O2"
_cell_formula_units_Z 64
_cell_length_a 19.774096
_cell_length_b 9.043590
_cell_length_c 20.097598
_cell_angle_alpha 90.000000
_cell_angle_beta 90.000000
_cell_angle_gamma 90.000000
_cell_volume 3594.029672
_symmetry_space_group_name_H-M "A M M 2"
_symmetry_group_IT_number 38
_symmetry_cell_setting 'orthorhombic'
loop_
_space_group_symop_operation_xyz
x,y,z
-x,-y,z
-x,y,z
x,-y,z
x,1/2+y,1/2+z
-x,1/2-y,1/2+z
-x,1/2+y,1/2+z
x,1/2-y,1/2+z
loop_
_atom_site_type_symbol
_atom_site_label
_atom_site_fract_x
_atom_site_fract_y
_atom_site_fract_z
Si Si1 0.185630 0.172950 0.288240
Si Si2 0.577737 0.330340 0.398768
Si Si3 0.324809 0.826038 0.779037
Si Si4 0.668004 0.325782 0.642104
Si Si5 0.579231 0.329269 0.032610
Si Si6 0.924965 0.324342 0.890877
Si Si7 0.822513 0.668992 0.636338
Si Si8 0.075700 0.674725 0.039651
O O1 0.253259 0.263081 0.303051
O O2 0.128750 0.237309 0.337812
O O3 0.160064 0.199573 0.213300
O O4 0.200877 0.000000 0.300000
O O5 0.500000 0.302999 0.379780
O O6 0.590536 0.500000 0.419566
O O7 0.621023 0.285254 0.335063
O O8 0.600226 0.227538 0.459855
O O9 0.350534 0.750722 0.711569
O O10 0.318717 0.000000 0.767089
O O11 0.658523 0.500000 0.651088
O O12 0.618326 0.266234 0.586452
O O13 0.744936 0.287402 0.621918
O O14 0.500000 0.305012 0.044924
O O15 0.599960 0.500000 0.039006
O O16 0.925633 0.500000 0.887706
O O17 0.000000 0.264696 0.872821
O O18 0.904888 0.271404 0.965169
O O19 0.835966 0.500000 0.617530
O O20 0.870769 0.766872 0.591823
O O21 0.077587 0.500000 0.042472
O O22 0.000000 0.730971 0.057462
#
# Coordination Sequence:
#
# PCOD8179183 Si02
#       8
#     8   8   8   8   8   8   8   8
#     4   9  18  33  52  73  97 128 167 209 251 299
#     4   9  19  36  55  75 103 138 172 208 252 300
#     4  10  20  34  53  77 105 136 170 212 259 305
#     4  10  21  37  55  76 104 137 174 215 258 307
#     4  10  21  36  55  80 107 135 171 213 255 304
#     4   8  15  30  51  72  94 124 165 208 246 291
#     4   9  19  33  49  72 100 129 164 206 249 296
#     4   9  18  32  50  73 100 130 165 205 250 301
#
# _framework density 17.807309
#
# number of rings (size 3 to 8) (size 9 to 14) (size 15 to 20)
#    0.000    2.750    0.000    2.625    0.000    6.500 
#    0.000    5.625    0.000    1.125    0.000    0.000 
#    0.000    0.000    0.000    0.000    0.000    0.000 
#
# Total GULP energy -396800.026301 kJ/mol
# GULP energy per Si atom -12400.000822 kJ/mol
# Density = 1.776678 g / cm^3
# Si number density = 17.807309 Si / 1000 Ang^3
#
#
#
# Elastic Constant Matrix: (Units=GPa)
#
#
# Indices 1 2 3 4 5 6 
#
# 1 96.4217 45.6697 85.8780 0.0000 0.0000 0.0000
# 2 45.6697 64.7346 52.6538 0.0000 0.0000 0.0000
# 3 85.8780 52.6538 127.4980 0.0000 0.0000 0.0000
# 4 0.0000 0.0000 0.0000 30.1088 0.0000 0.0000
# 5 0.0000 0.0000 0.0000 0.0000 42.7580 0.0000
# 6 0.0000 0.0000 0.0000 0.0000 0.0000 29.6841
#
#
#
# Elastic Compliance Matrix: (Units=1/GPa)
#
#
# Indices 1 2 3 4 5 6 
#
# 1 0.027658 -0.006565 -0.015918 0.000000 0.000000 0.000000
# 2 -0.006565 0.024820 -0.005828 0.000000 0.000000 0.000000
# 3 -0.015918 -0.005828 0.020972 0.000000 0.000000 0.000000
# 4 0.000000 0.000000 0.000000 0.033213 0.000000 0.000000
# 5 0.000000 0.000000 0.000000 0.000000 0.023387 0.000000
# 6 0.000000 0.000000 0.000000 0.000000 0.000000 0.033688
#
#
# Mechanical properties :
#
#
# Convention : Reuss Voigt Hill
#
# Bulk Modulus (GPa) = 59.42741 73.00637 66.21689
# Shear Modulus (GPa) = 22.12677 27.47371 24.80024
#
# Velocity S-wave (km/s) = 3.52883 3.93215 3.73594
# Velocity P-wave (km/s) = 7.07449 7.85511 7.47500
#
# Compressibility (1/GPa) = 0.01682725
#
# Stress axis : x y z
#
# Youngs Moduli (GPa) = 36.15539 40.29067 47.68220
#
# Poissons Ratio (x) = 0.26451 0.75903
# Poissons Ratio (y) = 0.23736 0.27789
# Poissons Ratio (z) = 0.57554 0.23481
#
# Static dielectric constant tensor:
#      x y z
#    x 3.352280 0.000000 0.000000 
#    y 0.000000 3.183810 0.000000 
#    z 0.000000 0.000000 3.403140 
# 
# 
# High freq. dielectric constant tensor:
#      x y z
#    x 1.690290 0.000000 0.000000 
#    y 0.000000 1.679420 0.000000 
#    z 0.000000 0.000000 1.694430 
# 
# From -- ./inp_files/21336.got.cif
#   From: 2010.03.12/outbox.cif.g09.slc.cpg/sg38_11_cif.got.tgz:21336.got - 2010.04.14 02:38:36.
