data_PCOD8179370
_publ_section_title
;
Structure prediction by ZEFSAII (Michael W. Deem and Ramdas Pophale) SiO2 
 PCOD8179370
Probable space group: A M M 2
;
_chemical_formula_sum "Si O2"
_cell_formula_units_Z 64
_cell_length_a 27.420337
_cell_length_b 9.423799
_cell_length_c 14.589646
_cell_angle_alpha 90.000000
_cell_angle_beta 90.000000
_cell_angle_gamma 90.000000
_cell_volume 3770.019156
_symmetry_space_group_name_H-M "A M M 2"
_symmetry_group_IT_number 38
_symmetry_cell_setting 'orthorhombic'
loop_
_space_group_symop_operation_xyz
x,y,z
-x,-y,z
-x,y,z
x,-y,z
x,1/2+y,1/2+z
-x,1/2-y,1/2+z
-x,1/2+y,1/2+z
x,1/2-y,1/2+z
loop_
_atom_site_type_symbol
_atom_site_label
_atom_site_fract_x
_atom_site_fract_y
_atom_site_fract_z
Si Si1 0.945510 0.339382 0.375000
Si Si2 0.135789 0.159970 0.315856
Si Si3 0.444239 0.164070 0.153011
Si Si4 0.697881 0.333659 0.135810
Si Si5 0.794353 0.660516 0.646729
Si Si6 0.632699 0.166090 0.999725
Si Si7 0.146240 0.840645 0.973920
Si Si8 0.380962 0.664828 0.288356
O O1 0.948024 0.500000 0.337670
O O2 0.915652 0.244408 0.300513
O O3 0.913638 0.333481 0.470107
O O4 0.000000 0.279543 0.391852
O O5 0.172025 0.169941 0.233404
O O6 0.166654 0.232557 0.397839
O O7 0.121866 0.000000 0.340898
O O8 0.500000 0.206594 0.135459
O O9 0.416175 0.198463 0.058083
O O10 0.424967 0.250962 0.240567
O O11 0.438205 0.000000 0.178804
O O12 0.701129 0.500000 0.113914
O O13 0.750830 0.270919 0.154651
O O14 0.675803 0.255908 0.046550
O O15 0.667370 0.304973 0.228584
O O16 0.774235 0.500000 0.632699
O O17 0.831612 0.709564 0.568638
O O18 0.646568 0.000000 0.003398
O O19 0.626109 0.215434 0.893876
O O20 0.163743 0.000000 0.950428
O O21 0.395107 0.500000 0.286983
#
# Coordination Sequence:
#
# PCOD8179370 Si02
#       8
#     8   8   8   8   8   8   8   8
#     4   8  15  31  53  72  96 132 166 197 241 296
#     4   9  18  31  49  75 101 124 158 205 248 287
#     4   9  18  32  51  77 106 134 166 207 251 292
#     4  10  21  34  50  74 101 128 165 212 257 297
#     4  10  20  35  52  71  99 133 168 203 248 303
#     4   9  18  35  55  73  99 135 172 206 245 299
#     4   8  17  33  50  69  95 129 163 195 236 296
#     4   9  19  35  53  74 100 133 172 209 248 300
#
# _framework density 16.976040000000001
#
# number of rings (size 3 to 8) (size 9 to 14) (size 15 to 20)
#    0.750    2.250    0.000    0.375    0.000    4.500 
#    0.000    5.625    0.000    2.250    0.000    0.000 
#    0.000    0.000    0.000    0.000    0.000    0.000 
#
# Total GULP energy -396433.813975 kJ/mol
# GULP energy per Si atom -12388.556687 kJ/mol
# Density = 1.693740 g / cm^3
# Si number density = 16.976040 Si / 1000 Ang^3
#
#
#
# Elastic Constant Matrix: (Units=GPa)
#
#
# Indices 1 2 3 4 5 6 
#
# 1 97.6119 50.8884 34.2606 0.0000 0.0000 0.0000
# 2 50.8884 80.0155 48.5134 0.0000 0.0000 0.0000
# 3 34.2606 48.5134 108.9801 0.0000 0.0000 0.0000
# 4 0.0000 0.0000 0.0000 24.2094 0.0000 0.0000
# 5 0.0000 0.0000 0.0000 0.0000 17.2533 0.0000
# 6 0.0000 0.0000 0.0000 0.0000 0.0000 28.9598
#
#
#
# Elastic Compliance Matrix: (Units=1/GPa)
#
#
# Indices 1 2 3 4 5 6 
#
# 1 0.015361 -0.009370 -0.000658 0.000000 0.000000 0.000000
# 2 -0.009370 0.022834 -0.007219 0.000000 0.000000 0.000000
# 3 -0.000658 -0.007219 0.012596 0.000000 0.000000 0.000000
# 4 0.000000 0.000000 0.000000 0.041306 0.000000 0.000000
# 5 0.000000 0.000000 0.000000 0.000000 0.057960 0.000000
# 6 0.000000 0.000000 0.000000 0.000000 0.000000 0.034531
#
#
# Mechanical properties :
#
#
# Convention : Reuss Voigt Hill
#
# Bulk Modulus (GPa) = 61.36141 61.54804 61.45473
# Shear Modulus (GPa) = 22.27040 24.28084 23.27562
#
# Velocity S-wave (km/s) = 3.62591 3.78603 3.70684
# Velocity P-wave (km/s) = 7.33171 7.44625 7.38920
#
# Compressibility (1/GPa) = 0.01629689
#
# Stress axis : x y z
#
# Youngs Moduli (GPa) = 65.10188 43.79491 79.38847
#
# Poissons Ratio (x) = 0.41037 0.05221
# Poissons Ratio (y) = 0.61002 0.57309
# Poissons Ratio (z) = 0.04282 0.31615
#
# Static dielectric constant tensor:
#      x y z
#    x 3.123320 0.000000 0.000000 
#    y 0.000000 3.306030 0.000000 
#    z 0.000000 0.000000 3.074450 
# 
# 
# High freq. dielectric constant tensor:
#      x y z
#    x 1.649120 0.000000 0.000000 
#    y 0.000000 1.658620 0.000000 
#    z 0.000000 0.000000 1.641270 
# 
# From -- ./inp_files/15916.got.cif
#   From: 2010.03.12/outbox.cif.g09.slc.cpg/sg38_8_cif.got.tgz:15916.got - 2010.04.14 02:38:36.
