data_PCOD8179046
_publ_section_title
;
Structure prediction by ZEFSAII (Michael W. Deem and Ramdas Pophale) SiO2 
 PCOD8179046
Probable space group: A M M 2
;
_chemical_formula_sum "Si O2"
_cell_formula_units_Z 64
_cell_length_a 15.739414
_cell_length_b 8.961832
_cell_length_c 23.575844
_cell_angle_alpha 90.000000
_cell_angle_beta 90.000000
_cell_angle_gamma 90.000000
_cell_volume 3325.466723
_symmetry_space_group_name_H-M "A M M 2"
_symmetry_group_IT_number 38
_symmetry_cell_setting 'orthorhombic'
loop_
_space_group_symop_operation_xyz
x,y,z
-x,-y,z
-x,y,z
x,-y,z
x,1/2+y,1/2+z
-x,1/2-y,1/2+z
-x,1/2+y,1/2+z
x,1/2-y,1/2+z
loop_
_atom_site_type_symbol
_atom_site_label
_atom_site_fract_x
_atom_site_fract_y
_atom_site_fract_z
Si Si1 0.598412 0.323565 0.401520
Si Si2 0.091232 0.166830 0.139900
Si Si3 0.243453 0.321930 0.843313
Si Si4 0.402953 0.660291 0.525698
Si Si5 0.900005 0.177432 0.921010
Si Si6 0.686027 0.328103 0.112455
Si Si7 0.150046 0.325287 0.038361
Si Si8 0.243655 0.324965 0.714403
O O1 0.500000 0.274130 0.389576
O O2 0.607941 0.500000 0.390334
O O3 0.664132 0.231248 0.363677
O O4 0.631209 0.282112 0.464994
O O5 0.082154 0.272868 0.084994
O O6 0.155064 0.228626 0.186976
O O7 0.000000 0.164280 0.170080
O O8 0.118344 0.000000 0.120293
O O9 0.235775 0.500000 0.849689
O O10 0.161256 0.248624 0.873329
O O11 0.243330 0.266558 0.778249
O O12 0.500000 0.630576 0.513056
O O13 0.360440 0.500000 0.542082
O O14 0.395816 0.777579 0.576982
O O15 0.000000 0.222589 0.912152
O O16 0.890298 0.000000 0.919075
O O17 0.865192 0.235652 0.980951
O O18 0.684774 0.500000 0.126297
O O19 0.760843 0.282418 0.068471
O O20 0.685306 0.247417 0.173530
O O21 0.142018 0.500000 0.025175
O O22 0.257823 0.500000 0.713701
#
# Coordination Sequence:
#
# PCOD8179046 Si02
#       8
#     8   8   8   8   8   8   8   8
#     4   9  19  37  61  87 114 147 185 223 270 331
#     4   9  17  31  52  75  99 132 175 220 266 320
#     4  11  23  38  58  83 110 144 187 235 282 323
#     4   9  18  33  54  80 108 137 169 207 257 320
#     4  11  24  39  55  78 110 150 191 227 270 329
#     4  10  20  33  52  79 107 136 172 215 266 319
#     4  10  20  33  51  78 109 137 170 219 275 325
#     4   9  20  37  54  73 101 140 182 220 262 316
#
# _framework density 19.245418000000001
#
# number of rings (size 3 to 8) (size 9 to 14) (size 15 to 20)
#    0.000    2.250    0.000    3.375    0.000    8.750 
#    0.000    3.125    0.000    0.750    0.000    0.000 
#    0.000    0.000    0.000    0.000    0.000    0.000 
#
# Total GULP energy -396488.421885 kJ/mol
# GULP energy per Si atom -12390.263184 kJ/mol
# Density = 1.920161 g / cm^3
# Si number density = 19.245418 Si / 1000 Ang^3
#
#
#
# Elastic Constant Matrix: (Units=GPa)
#
#
# Indices 1 2 3 4 5 6 
#
# 1 63.0093 33.1602 52.5233 0.0000 0.0000 0.0000
# 2 33.1602 67.4815 56.1838 0.0000 0.0000 0.0000
# 3 52.5233 56.1838 167.5533 0.0000 0.0000 0.0000
# 4 0.0000 0.0000 0.0000 31.9373 0.0000 0.0000
# 5 0.0000 0.0000 0.0000 0.0000 18.3123 0.0000
# 6 0.0000 0.0000 0.0000 0.0000 0.0000 27.0576
#
#
#
# Elastic Compliance Matrix: (Units=1/GPa)
#
#
# Indices 1 2 3 4 5 6 
#
# 1 0.024053 -0.007688 -0.004962 0.000000 0.000000 0.000000
# 2 -0.007688 0.023016 -0.005308 0.000000 0.000000 0.000000
# 3 -0.004962 -0.005308 0.009303 0.000000 0.000000 0.000000
# 4 0.000000 0.000000 0.000000 0.031311 0.000000 0.000000
# 5 0.000000 0.000000 0.000000 0.000000 0.054608 0.000000
# 6 0.000000 0.000000 0.000000 0.000000 0.000000 0.036958
#
#
# Mechanical properties :
#
#
# Convention : Reuss Voigt Hill
#
# Bulk Modulus (GPa) = 48.88400 64.64209 56.76304
# Shear Modulus (GPa) = 22.52409 25.87322 24.19866
#
# Velocity S-wave (km/s) = 3.42477 3.67056 3.54979
# Velocity P-wave (km/s) = 6.41047 7.18507 6.80880
#
# Compressibility (1/GPa) = 0.02045659
#
# Stress axis : x y z
#
# Youngs Moduli (GPa) = 41.57484 43.44827 107.48773
#
# Poissons Ratio (x) = 0.33405 0.53334
# Poissons Ratio (y) = 0.31964 0.57050
# Poissons Ratio (z) = 0.20629 0.23060
#
# Static dielectric constant tensor:
#      x y z
#    x 3.568120 0.000000 0.000000 
#    y 0.000000 3.451710 0.000000 
#    z 0.000000 0.000000 3.571260 
# 
# 
# High freq. dielectric constant tensor:
#      x y z
#    x 1.745550 0.000000 0.000000 
#    y 0.000000 1.748490 0.000000 
#    z 0.000000 0.000000 1.743940 
# 
# From -- ./inp_files/21419.got.cif
#   From: 2010.03.12/outbox.cif.g09.slc.cpg/sg38_11_cif.got.tgz:21419.got - 2010.04.14 02:38:36.
