data_PCOD8179666
_publ_section_title
;
Structure prediction by ZEFSAII (Michael W. Deem and Ramdas Pophale) SiO2 
 PCOD8179666
Probable space group: A M M 2
;
_chemical_formula_sum "Si O2"
_cell_formula_units_Z 48
_cell_length_a 14.421057
_cell_length_b 20.701146
_cell_length_c 8.598434
_cell_angle_alpha 90.000000
_cell_angle_beta 90.000000
_cell_angle_gamma 90.000000
_cell_volume 2566.911194
_symmetry_space_group_name_H-M "A M M 2"
_symmetry_group_IT_number 38
_symmetry_cell_setting 'orthorhombic'
loop_
_space_group_symop_operation_xyz
x,y,z
-x,-y,z
-x,y,z
x,-y,z
x,1/2+y,1/2+z
-x,1/2-y,1/2+z
-x,1/2+y,1/2+z
x,1/2-y,1/2+z
loop_
_atom_site_type_symbol
_atom_site_label
_atom_site_fract_x
_atom_site_fract_y
_atom_site_fract_z
Si Si1 0.000000 0.170070 0.435081
Si Si2 0.000000 0.693344 0.581589
Si Si3 0.101109 0.071231 0.603223
Si Si4 0.797114 0.669039 0.537971
Si Si5 0.608937 0.826501 0.627589
Si Si6 0.707632 0.276306 0.834200
Si Si7 0.275854 0.924827 0.808755
O O1 0.000000 0.195245 0.264778
O O2 0.907509 0.125774 0.468249
O O3 0.000000 0.231007 0.547265
O O4 0.907653 0.656871 0.522559
O O5 0.179855 0.090884 0.722717
O O6 0.000000 0.069762 0.689464
O O7 0.122857 0.000000 0.531588
O O8 0.768197 0.680576 0.716485
O O9 0.776721 0.730479 0.429135
O O10 0.737886 0.607458 0.478100
O O11 0.500000 0.829905 0.607441
O O12 0.634435 0.765086 0.733690
O O13 0.653250 0.821712 0.455626
O O14 0.641733 0.892338 0.711158
O O15 0.298179 0.000000 0.828810
#
# Coordination Sequence:
#
# PCOD8179666 Si02
#       7
#     4   4   8   8   8   8   8
#     4  10  23  32  51  83 112 147 190 225 283 320
#     4  12  24  30  53  85 121 153 184 235 283 338
#     4   8  18  36  57  73 102 147 191 226 267 328
#     4  10  22  36  53  84 118 157 190 233 285 340
#     4  10  20  36  62  88 114 148 189 236 291 351
#     4   9  20  36  58  85 122 147 185 233 296 345
#     4  10  22  39  59  81 110 151 194 241 283 334
#
# _framework density 18.699517
#
# number of rings (size 3 to 8) (size 9 to 14) (size 15 to 20)
#    0.500    1.833    0.000    1.500   12.833    0.333 
#    0.000    3.333    0.000    0.000    0.000    0.000 
#    0.000    0.000    0.000    0.000    0.000    0.000 
#
# Total GULP energy -297465.236026 kJ/mol
# GULP energy per Si atom -12394.384834 kJ/mol
# Density = 1.865696 g / cm^3
# Si number density = 18.699517 Si / 1000 Ang^3
#
#
#
# Elastic Constant Matrix: (Units=GPa)
#
#
# Indices 1 2 3 4 5 6 
#
# 1 110.8649 20.1701 37.5917 0.0000 0.0000 0.0000
# 2 20.1701 86.9374 40.4902 0.0000 0.0000 0.0000
# 3 37.5917 40.4902 110.8522 0.0000 0.0000 0.0000
# 4 0.0000 0.0000 0.0000 13.4162 0.0000 0.0000
# 5 0.0000 0.0000 0.0000 0.0000 20.7591 0.0000
# 6 0.0000 0.0000 0.0000 0.0000 0.0000 16.1063
#
#
#
# Elastic Compliance Matrix: (Units=1/GPa)
#
#
# Indices 1 2 3 4 5 6 
#
# 1 0.010252 -0.000915 -0.003142 0.000000 0.000000 0.000000
# 2 -0.000915 0.013942 -0.004782 0.000000 0.000000 0.000000
# 3 -0.003142 -0.004782 0.011833 0.000000 0.000000 0.000000
# 4 0.000000 0.000000 0.000000 0.074537 0.000000 0.000000
# 5 0.000000 0.000000 0.000000 0.000000 0.048172 0.000000
# 6 0.000000 0.000000 0.000000 0.000000 0.000000 0.062087
#
#
# Mechanical properties :
#
#
# Convention : Reuss Voigt Hill
#
# Bulk Modulus (GPa) = 54.50113 56.12873 55.31493
# Shear Modulus (GPa) = 20.43999 24.08316 22.26158
#
# Velocity S-wave (km/s) = 3.30976 3.59263 3.45409
# Velocity P-wave (km/s) = 6.61929 6.87682 6.74928
#
# Compressibility (1/GPa) = 0.01834824
#
# Stress axis : x y z
#
# Youngs Moduli (GPa) = 97.54227 71.72520 84.50629
#
# Poissons Ratio (x) = 0.06563 0.26555
# Poissons Ratio (y) = 0.08925 0.40413
# Poissons Ratio (z) = 0.30652 0.34301
#
# Static dielectric constant tensor:
#      x y z
#    x 3.342390 0.000000 0.000000 
#    y 0.000000 3.379640 0.000000 
#    z 0.000000 0.000000 3.423440 
# 
# 
# High freq. dielectric constant tensor:
#      x y z
#    x 1.720790 0.000000 0.000000 
#    y 0.000000 1.713980 0.000000 
#    z 0.000000 0.000000 1.718770 
# 
# From -- ./inp_files/5619.got.cif
#   From: 2010.03.12/outbox.cif.g09.slc.cpg/sg38_3_cif.got.tgz:5619.got - 2010.04.14 02:38:36.
