data_PCOD8179840
_publ_section_title
;
Structure prediction by ZEFSAII (Michael W. Deem and Ramdas Pophale) SiO2 
 PCOD8179840
Probable space group: A M M 2
;
_chemical_formula_sum "Si O2"
_cell_formula_units_Z 64
_cell_length_a 18.715831
_cell_length_b 9.326106
_cell_length_c 20.810904
_cell_angle_alpha 90.000000
_cell_angle_beta 90.000000
_cell_angle_gamma 90.000000
_cell_volume 3632.456382
_symmetry_space_group_name_H-M "A M M 2"
_symmetry_group_IT_number 38
_symmetry_cell_setting 'orthorhombic'
loop_
_space_group_symop_operation_xyz
x,y,z
-x,-y,z
-x,y,z
x,-y,z
x,1/2+y,1/2+z
-x,1/2-y,1/2+z
-x,1/2+y,1/2+z
x,1/2-y,1/2+z
loop_
_atom_site_type_symbol
_atom_site_label
_atom_site_fract_x
_atom_site_fract_y
_atom_site_fract_z
Si Si1 0.323911 0.667115 0.059670
Si Si2 0.919273 0.829969 0.937174
Si Si3 0.163310 0.838240 0.331292
Si Si4 0.330975 0.832972 0.322897
Si Si5 0.579997 0.170480 0.443833
Si Si6 0.183414 0.838639 0.192986
Si Si7 0.177340 0.335409 0.552703
Si Si8 0.676969 0.834412 0.701773
O O1 0.306413 0.500000 0.049300
O O2 0.250755 0.750213 0.047202
O O3 0.357005 0.693072 0.131065
O O4 0.382454 0.723458 0.009226
O O5 0.880634 0.770027 0.874454
O O6 0.000000 0.771545 0.939868
O O7 0.918193 0.000000 0.932470
O O8 0.879353 0.774969 0.001402
O O9 0.247397 0.799813 0.333996
O O10 0.135018 0.821919 0.257162
O O11 0.150905 0.000000 0.356278
O O12 0.375023 0.771601 0.383205
O O13 0.360839 0.754840 0.258673
O O14 0.345078 0.000000 0.313364
O O15 0.500000 0.234264 0.441238
O O16 0.577720 0.000000 0.442450
O O17 0.142630 0.820957 0.124683
O O18 0.241698 0.715021 0.195624
O O19 0.218329 0.000000 0.195793
O O20 0.194994 0.500000 0.537001
O O21 0.674079 0.000000 0.721063
#
# Coordination Sequence:
#
# PCOD8179840 Si02
#       8
#     8   8   8   8   8   8   8   8
#     4   9  17  30  49  72  94 117 151 193 230 267
#     4  10  21  34  46  65  95 126 153 184 225 273
#     4   9  17  30  49  71  92 116 150 191 230 267
#     4   9  17  30  49  71  93 118 152 193 229 265
#     4   9  17  30  48  68  91 123 161 194 224 264
#     4   8  15  29  48  70  93 116 148 190 229 265
#     4   9  17  31  51  71  91 119 153 187 227 273
#     4   9  16  26  44  71  97 119 146 184 232 278
#
# _framework density 17.618932000000001
#
# number of rings (size 3 to 8) (size 9 to 14) (size 15 to 20)
#    0.000    3.000    0.000    1.875    0.000    4.250 
#    0.000    1.875    0.000    4.500    0.000    0.000 
#    0.000    0.000    0.000    0.000    0.000    0.000 
#
# Total GULP energy -396525.891383 kJ/mol
# GULP energy per Si atom -12391.434106 kJ/mol
# Density = 1.757883 g / cm^3
# Si number density = 17.618932 Si / 1000 Ang^3
#
#
#
# Elastic Constant Matrix: (Units=GPa)
#
#
# Indices 1 2 3 4 5 6 
#
# 1 82.8998 25.6311 68.6815 0.0000 0.0000 0.0000
# 2 25.6311 38.6862 41.7472 0.0000 0.0000 0.0000
# 3 68.6815 41.7472 173.7554 0.0000 0.0000 0.0000
# 4 0.0000 0.0000 0.0000 26.3803 0.0000 0.0000
# 5 0.0000 0.0000 0.0000 0.0000 5.9253 0.0000
# 6 0.0000 0.0000 0.0000 0.0000 0.0000 14.2628
#
#
#
# Elastic Compliance Matrix: (Units=1/GPa)
#
#
# Indices 1 2 3 4 5 6 
#
# 1 0.018924 -0.006029 -0.006032 0.000000 0.000000 0.000000
# 2 -0.006029 0.036818 -0.006463 0.000000 0.000000 0.000000
# 3 -0.006032 -0.006463 0.009692 0.000000 0.000000 0.000000
# 4 0.000000 0.000000 0.000000 0.037907 0.000000 0.000000
# 5 0.000000 0.000000 0.000000 0.000000 0.168768 0.000000
# 6 0.000000 0.000000 0.000000 0.000000 0.000000 0.070112
#
#
# Mechanical properties :
#
#
# Convention : Reuss Voigt Hill
#
# Bulk Modulus (GPa) = 35.22761 63.05125 49.13943
# Shear Modulus (GPa) = 12.86239 19.93246 16.39742
#
# Velocity S-wave (km/s) = 2.70484 3.36714 3.05400
# Velocity P-wave (km/s) = 5.45825 7.14007 6.35504
#
# Compressibility (1/GPa) = 0.02838683
#
# Stress axis : x y z
#
# Youngs Moduli (GPa) = 52.84310 27.16093 103.17588
#
# Poissons Ratio (x) = 0.16375 0.62232
# Poissons Ratio (y) = 0.31859 0.66681
# Poissons Ratio (z) = 0.31873 0.17554
#
# Static dielectric constant tensor:
#      x y z
#    x 3.010890 0.000000 0.000000 
#    y 0.000000 3.118790 0.000000 
#    z 0.000000 0.000000 3.799820 
# 
# 
# High freq. dielectric constant tensor:
#      x y z
#    x 1.634340 0.000000 0.000000 
#    y 0.000000 1.665190 0.000000 
#    z 0.000000 0.000000 1.707820 
# 
# From -- ./inp_files/21361.got.cif
#   From: 2010.03.12/outbox.cif.g09.slc.cpg/sg38_11_cif.got.tgz:21361.got - 2010.04.14 02:38:36.
