data_PCOD8179985
_publ_section_title
;
Structure prediction by ZEFSAII (Michael W. Deem and Ramdas Pophale) SiO2 
 PCOD8179985
Probable space group: A M M 2
;
_chemical_formula_sum "Si O2"
_cell_formula_units_Z 48
_cell_length_a 8.739496
_cell_length_b 30.241128
_cell_length_c 9.102939
_cell_angle_alpha 90.000000
_cell_angle_beta 90.000000
_cell_angle_gamma 90.000000
_cell_volume 2405.835931
_symmetry_space_group_name_H-M "A M M 2"
_symmetry_group_IT_number 38
_symmetry_cell_setting 'orthorhombic'
loop_
_space_group_symop_operation_xyz
x,y,z
-x,-y,z
-x,y,z
x,-y,z
x,1/2+y,1/2+z
-x,1/2-y,1/2+z
-x,1/2+y,1/2+z
x,1/2-y,1/2+z
loop_
_atom_site_type_symbol
_atom_site_label
_atom_site_fract_x
_atom_site_fract_y
_atom_site_fract_z
Si Si1 0.322939 0.950475 0.176190
Si Si2 0.679556 0.712851 0.982553
Si Si3 0.178929 0.790282 0.166394
Si Si4 0.678078 0.867744 0.989879
Si Si5 0.820123 0.049642 0.478166
Si Si6 0.321730 0.374600 0.155946
O O1 0.500000 0.950043 0.217991
O O2 0.235664 0.932977 0.319999
O O3 0.268928 0.000000 0.131455
O O4 0.288856 0.917938 0.040867
O O5 0.500000 0.723075 0.002514
O O6 0.720341 0.712750 0.812175
O O7 0.778760 0.749890 0.061661
O O8 0.724811 0.665831 0.051569
O O9 0.000000 0.788832 0.205457
O O10 0.216940 0.835632 0.084469
O O11 0.500000 0.855009 0.011627
O O12 0.728161 0.863030 0.821220
O O13 0.762891 0.081181 0.606854
O O14 0.000000 0.050019 0.478468
O O15 0.756801 0.000000 0.505940
O O16 0.500000 0.384688 0.148299
#
# Coordination Sequence:
#
# PCOD8179985 Si02
#       6
#     8   8   8   8   8   8
#     4   9  18  34  57  83 111 147 193 241 286 337
#     4  11  23  41  63  86 116 155 196 237 288 347
#     4  12  25  40  61  90 120 151 191 239 290 342
#     4  10  21  38  59  85 117 152 192 237 288 344
#     4  10  21  36  55  81 114 151 189 232 286 345
#     4  10  22  38  59  85 112 148 193 238 282 335
#
# _framework density 19.951484000000001
#
# number of rings (size 3 to 8) (size 9 to 14) (size 15 to 20)
#    0.000    1.667    0.000    4.500    0.000    9.667 
#    0.000    1.667    0.000    2.000    0.000    0.000 
#    0.000    0.000    0.000    0.000    0.000    0.000 
#
# Total GULP energy -297722.829153 kJ/mol
# GULP energy per Si atom -12405.117881 kJ/mol
# Density = 1.990607 g / cm^3
# Si number density = 19.951484 Si / 1000 Ang^3
#
#
#
# Elastic Constant Matrix: (Units=GPa)
#
#
# Indices 1 2 3 4 5 6 
#
# 1 51.6255 30.6245 17.6802 0.0000 0.0000 0.0000
# 2 30.6245 100.0760 44.8678 0.0000 0.0000 0.0000
# 3 17.6802 44.8678 110.9344 0.0000 0.0000 0.0000
# 4 0.0000 0.0000 0.0000 33.6556 0.0000 0.0000
# 5 0.0000 0.0000 0.0000 0.0000 16.0796 0.0000
# 6 0.0000 0.0000 0.0000 0.0000 0.0000 30.0265
#
#
#
# Elastic Compliance Matrix: (Units=1/GPa)
#
#
# Indices 1 2 3 4 5 6 
#
# 1 0.023763 -0.006808 -0.001034 0.000000 0.000000 0.000000
# 2 -0.006808 0.014156 -0.004640 0.000000 0.000000 0.000000
# 3 -0.001034 -0.004640 0.011056 0.000000 0.000000 0.000000
# 4 0.000000 0.000000 0.000000 0.029713 0.000000 0.000000
# 5 0.000000 0.000000 0.000000 0.000000 0.062191 0.000000
# 6 0.000000 0.000000 0.000000 0.000000 0.000000 0.033304
#
#
# Mechanical properties :
#
#
# Convention : Reuss Voigt Hill
#
# Bulk Modulus (GPa) = 41.64861 49.88675 45.76768
# Shear Modulus (GPa) = 24.13700 27.24990 25.69345
#
# Velocity S-wave (km/s) = 3.48197 3.69969 3.59248
# Velocity P-wave (km/s) = 6.08981 6.58093 6.34012
#
# Compressibility (1/GPa) = 0.02401041
#
# Stress axis : x y z
#
# Youngs Moduli (GPa) = 42.08217 70.63962 90.44925
#
# Poissons Ratio (x) = 0.48094 0.09349
# Poissons Ratio (y) = 0.28651 0.41973
# Poissons Ratio (z) = 0.04350 0.32780
#
# Static dielectric constant tensor:
#      x y z
#    x 3.534700 0.000000 0.000000 
#    y 0.000000 3.860200 0.000000 
#    z 0.000000 0.000000 3.649580 
# 
# 
# High freq. dielectric constant tensor:
#      x y z
#    x 1.772270 0.000000 0.000000 
#    y 0.000000 1.791430 0.000000 
#    z 0.000000 0.000000 1.782250 
# 
# From -- ./inp_files/3741.got.cif
#   From: 2010.03.12/outbox.cif.g09.slc.cpg/sg38_2_cif.got.tgz:3741.got - 2010.04.14 02:38:36.
