data_PCOD8179779
_publ_section_title
;
Structure prediction by ZEFSAII (Michael W. Deem and Ramdas Pophale) SiO2 
 PCOD8179779
Probable space group: A M M 2
;
_chemical_formula_sum "Si O2"
_cell_formula_units_Z 56
_cell_length_a 23.218409
_cell_length_b 7.837323
_cell_length_c 15.033982
_cell_angle_alpha 90.000000
_cell_angle_beta 90.000000
_cell_angle_gamma 90.000000
_cell_volume 2735.736274
_symmetry_space_group_name_H-M "A M M 2"
_symmetry_group_IT_number 38
_symmetry_cell_setting 'orthorhombic'
loop_
_space_group_symop_operation_xyz
x,y,z
-x,-y,z
-x,y,z
x,-y,z
x,1/2+y,1/2+z
-x,1/2-y,1/2+z
-x,1/2+y,1/2+z
x,1/2-y,1/2+z
loop_
_atom_site_type_symbol
_atom_site_label
_atom_site_fract_x
_atom_site_fract_y
_atom_site_fract_z
Si Si1 0.935850 0.000000 0.917161
Si Si2 0.436372 0.202710 0.716530
Si Si3 0.145033 0.304390 0.707722
Si Si4 0.773341 0.190937 0.050823
Si Si5 0.646797 0.306862 0.067224
Si Si6 0.936151 0.000000 0.706639
Si Si7 0.433923 0.800598 0.916786
Si Si8 0.857020 0.689975 0.911880
O O1 0.940618 0.000000 0.811985
O O2 0.902811 0.828417 0.948458
O O3 0.000000 0.000000 0.959241
O O4 0.500000 0.275418 0.693154
O O5 0.389568 0.277991 0.647967
O O6 0.438415 0.000000 0.708281
O O7 0.419381 0.256060 0.816247
O O8 0.123315 0.500000 0.694721
O O9 0.201228 0.265255 0.648295
O O10 0.095838 0.172869 0.675227
O O11 0.161679 0.269159 0.810436
O O12 0.704892 0.203296 0.053493
O O13 0.790168 0.000000 0.023788
O O14 0.800357 0.308757 0.973806
O O15 0.663838 0.500000 0.090141
O O16 0.608090 0.305759 0.979179
O O17 0.000000 0.000000 0.664351
O O18 0.500000 0.755713 0.939524
O O19 0.422279 0.000000 0.930407
O O20 0.884521 0.500000 0.917061
#
# Coordination Sequence:
#
# PCOD8179779 Si02
#       8
#     4   8   8   8   8   4   8   8
#     4   9  18  36  60  90 119 151 192 235 287 343
#     4   8  16  33  55  78 108 144 183 227 278 340
#     4   9  21  38  59  84 116 153 190 238 290 340
#     4  11  23  40  58  78 114 154 193 242 289 342
#     4  11  22  34  53  83 109 143 187 235 283 336
#     4   9  18  34  62  90 115 149 192 235 283 347
#     4   9  18  35  57  79 108 146 184 227 281 340
#     4  10  20  38  61  86 115 153 194 237 290 343
#
# _framework density 20.469809000000001
#
# number of rings (size 3 to 8) (size 9 to 14) (size 15 to 20)
#    0.000    2.429    0.714    2.143    2.000    2.571 
#    0.000    7.857    0.000    1.714    0.000    0.000 
#    0.000    0.000    0.000    0.000    0.000    0.000 
#
# Total GULP energy -347155.044709 kJ/mol
# GULP energy per Si atom -12398.394454 kJ/mol
# Density = 2.042322 g / cm^3
# Si number density = 20.469809 Si / 1000 Ang^3
#
#
#
# Elastic Constant Matrix: (Units=GPa)
#
#
# Indices 1 2 3 4 5 6 
#
# 1 138.3600 40.1130 63.6583 0.0000 0.0000 0.0000
# 2 40.1130 83.9471 31.1746 0.0000 0.0000 0.0000
# 3 63.6583 31.1746 97.4554 0.0000 0.0000 0.0000
# 4 0.0000 0.0000 0.0000 23.0933 0.0000 0.0000
# 5 0.0000 0.0000 0.0000 0.0000 17.3249 0.0000
# 6 0.0000 0.0000 0.0000 0.0000 0.0000 26.9656
#
#
#
# Elastic Compliance Matrix: (Units=1/GPa)
#
#
# Indices 1 2 3 4 5 6 
#
# 1 0.010928 -0.002918 -0.006205 0.000000 0.000000 0.000000
# 2 -0.002918 0.014297 -0.002668 0.000000 0.000000 0.000000
# 3 -0.006205 -0.002668 0.015168 0.000000 0.000000 0.000000
# 4 0.000000 0.000000 0.000000 0.043303 0.000000 0.000000
# 5 0.000000 0.000000 0.000000 0.000000 0.057720 0.000000
# 6 0.000000 0.000000 0.000000 0.000000 0.000000 0.037084
#
#
# Mechanical properties :
#
#
# Convention : Reuss Voigt Hill
#
# Bulk Modulus (GPa) = 59.48027 65.51714 62.49871
# Shear Modulus (GPa) = 24.07489 25.79784 24.93637
#
# Velocity S-wave (km/s) = 3.43318 3.55390 3.49406
# Velocity P-wave (km/s) = 6.69599 6.99403 6.84663
#
# Compressibility (1/GPa) = 0.01681230
#
# Stress axis : x y z
#
# Youngs Moduli (GPa) = 91.50536 69.94443 65.92975
#
# Poissons Ratio (x) = 0.20407 0.40910
# Poissons Ratio (y) = 0.26698 0.17588
# Poissons Ratio (z) = 0.56780 0.18659
#
# Static dielectric constant tensor:
#      x y z
#    x 3.675380 0.000000 0.000000 
#    y 0.000000 3.623440 0.000000 
#    z 0.000000 0.000000 3.709430 
# 
# 
# High freq. dielectric constant tensor:
#      x y z
#    x 1.783520 0.000000 0.000000 
#    y 0.000000 1.797750 0.000000 
#    z 0.000000 0.000000 1.798460 
# 
# From -- ./inp_files/15552.got.cif
#   From: 2010.03.12/outbox.cif.g09.slc.cpg/sg38_8_cif.got.tgz:15552.got - 2010.04.14 02:38:36.
