data_PCOD8179903
_publ_section_title
;
Structure prediction by ZEFSAII (Michael W. Deem and Ramdas Pophale) SiO2 
 PCOD8179903
Probable space group: A M M 2
;
_chemical_formula_sum "Si O2"
_cell_formula_units_Z 56
_cell_length_a 13.638248
_cell_length_b 22.911635
_cell_length_c 9.985134
_cell_angle_alpha 90.000000
_cell_angle_beta 90.000000
_cell_angle_gamma 90.000000
_cell_volume 3120.100355
_symmetry_space_group_name_H-M "A M M 2"
_symmetry_group_IT_number 38
_symmetry_cell_setting 'orthorhombic'
loop_
_space_group_symop_operation_xyz
x,y,z
-x,-y,z
-x,y,z
x,-y,z
x,1/2+y,1/2+z
-x,1/2-y,1/2+z
-x,1/2+y,1/2+z
x,1/2-y,1/2+z
loop_
_atom_site_type_symbol
_atom_site_label
_atom_site_fract_x
_atom_site_fract_y
_atom_site_fract_z
Si Si1 0.613134 0.383110 0.278350
Si Si2 0.382760 0.500000 0.841544
Si Si3 0.307024 0.622334 0.775325
Si Si4 0.891245 0.681283 0.734651
Si Si5 0.689487 0.685841 0.042405
Si Si6 0.385744 0.313408 0.526713
Si Si7 0.382833 0.000000 0.649995
Si Si8 0.891548 0.723106 0.021798
O O1 0.500000 0.396207 0.299082
O O2 0.626739 0.332073 0.170056
O O3 0.656879 0.360031 0.418522
O O4 0.661995 0.443347 0.226070
O O5 0.500000 0.500000 0.827375
O O6 0.336640 0.554985 0.764053
O O7 0.348004 0.500000 0.996015
O O8 0.190614 0.630911 0.748768
O O9 0.369421 0.660537 0.672501
O O10 0.340941 0.644431 0.920580
O O11 0.875741 0.714449 0.593667
O O12 0.000000 0.652463 0.737640
O O13 0.881414 0.727275 0.859243
O O14 0.670730 0.752998 0.005793
O O15 0.806412 0.679300 0.072794
O O16 0.500000 0.301458 0.501507
O O17 0.500000 0.000000 0.652063
O O18 0.000000 0.698822 0.060124
#
# Coordination Sequence:
#
# PCOD8179903 Si02
#       8
#     8   4   8   8   8   8   4   8
#     4  10  21  35  53  75 103 141 182 221 260 310
#     4  11  22  37  56  76 105 148 193 227 260 314
#     4  11  22  36  55  80 109 143 186 224 266 323
#     4   9  18  34  55  80 110 140 176 222 271 325
#     4  11  20  33  54  78 109 140 174 217 265 329
#     4  11  23  34  49  78 112 140 171 221 278 318
#     4   9  18  37  57  72  93 136 192 225 251 306
#     4   9  18  31  50  76 107 139 169 210 264 324
#
# _framework density 17.948141
#
# number of rings (size 3 to 8) (size 9 to 14) (size 15 to 20)
#    0.000    1.857    2.857    1.714    2.000    3.429 
#    0.000    1.786    0.000    0.000    0.000    0.500 
#    0.000    0.000    0.000    0.000    0.000    0.000 
#
# Total GULP energy -347072.581918 kJ/mol
# GULP energy per Si atom -12395.449354 kJ/mol
# Density = 1.790729 g / cm^3
# Si number density = 17.948141 Si / 1000 Ang^3
#
#
#
# Elastic Constant Matrix: (Units=GPa)
#
#
# Indices 1 2 3 4 5 6 
#
# 1 59.2713 34.2939 29.0852 0.0000 0.0000 0.0000
# 2 34.2939 98.5185 20.8373 0.0000 0.0000 0.0000
# 3 29.0852 20.8373 57.5516 0.0000 0.0000 0.0000
# 4 0.0000 0.0000 0.0000 26.6388 0.0000 0.0000
# 5 0.0000 0.0000 0.0000 0.0000 21.7106 0.0000
# 6 0.0000 0.0000 0.0000 0.0000 0.0000 18.4642
#
#
#
# Elastic Compliance Matrix: (Units=1/GPa)
#
#
# Indices 1 2 3 4 5 6 
#
# 1 0.026065 -0.006808 -0.010708 0.000000 0.000000 0.000000
# 2 -0.006808 0.012771 -0.001183 0.000000 0.000000 0.000000
# 3 -0.010708 -0.001183 0.023215 0.000000 0.000000 0.000000
# 4 0.000000 0.000000 0.000000 0.037539 0.000000 0.000000
# 5 0.000000 0.000000 0.000000 0.000000 0.046060 0.000000
# 6 0.000000 0.000000 0.000000 0.000000 0.000000 0.054159
#
#
# Mechanical properties :
#
#
# Convention : Reuss Voigt Hill
#
# Bulk Modulus (GPa) = 40.56277 42.64156 41.60216
# Shear Modulus (GPa) = 20.37279 22.10440 21.23859
#
# Velocity S-wave (km/s) = 3.37277 3.51318 3.44369
# Velocity P-wave (km/s) = 6.14951 6.34558 6.24831
#
# Compressibility (1/GPa) = 0.02465315
#
# Stress axis : x y z
#
# Youngs Moduli (GPa) = 38.36523 78.30504 43.07492
#
# Poissons Ratio (x) = 0.53314 0.46123
# Poissons Ratio (y) = 0.26121 0.05095
# Poissons Ratio (z) = 0.41080 0.09263
#
# Static dielectric constant tensor:
#      x y z
#    x 3.418480 0.000000 0.000000 
#    y 0.000000 3.198020 0.000000 
#    z 0.000000 0.000000 3.450040 
# 
# 
# High freq. dielectric constant tensor:
#      x y z
#    x 1.688500 0.000000 0.000000 
#    y 0.000000 1.664910 0.000000 
#    z 0.000000 0.000000 1.704090 
# 
# From -- ./inp_files/5746.got.cif
#   From: 2010.03.12/outbox.cif.g09.slc.cpg/sg38_3_cif.got.tgz:5746.got - 2010.04.14 02:38:36.
