data_PCOD8179185
_publ_section_title
;
Structure prediction by ZEFSAII (Michael W. Deem and Ramdas Pophale) SiO2 
 PCOD8179185
Probable space group: A M M 2
;
_chemical_formula_sum "Si O2"
_cell_formula_units_Z 64
_cell_length_a 8.891992
_cell_length_b 19.354999
_cell_length_c 20.335082
_cell_angle_alpha 90.000000
_cell_angle_beta 90.000000
_cell_angle_gamma 90.000000
_cell_volume 3499.759044
_symmetry_space_group_name_H-M "A M M 2"
_symmetry_group_IT_number 38
_symmetry_cell_setting 'orthorhombic'
loop_
_space_group_symop_operation_xyz
x,y,z
-x,-y,z
-x,y,z
x,-y,z
x,1/2+y,1/2+z
-x,1/2-y,1/2+z
-x,1/2+y,1/2+z
x,1/2-y,1/2+z
loop_
_atom_site_type_symbol
_atom_site_label
_atom_site_fract_x
_atom_site_fract_y
_atom_site_fract_z
Si Si1 0.674306 0.665591 0.901740
Si Si2 0.672219 0.081026 0.158610
Si Si3 0.824101 0.920495 0.515487
Si Si4 0.324573 0.825491 0.897184
Si Si5 0.678527 0.076242 0.011431
Si Si6 0.323010 0.079300 0.650733
Si Si7 0.175419 0.171269 0.761558
Si Si8 0.174675 0.669750 0.766686
O O1 0.500000 0.646362 0.907857
O O2 0.767011 0.623541 0.954748
O O3 0.705047 0.746065 0.914491
O O4 0.730420 0.644813 0.829422
O O5 0.500000 0.104977 0.169471
O O6 0.727707 0.098365 0.084725
O O7 0.782525 0.122189 0.205840
O O8 0.687391 0.000000 0.172849
O O9 0.745348 0.894459 0.582048
O O10 0.000000 0.909105 0.524179
O O11 0.783031 0.000000 0.501665
O O12 0.500000 0.839685 0.883959
O O13 0.233043 0.849736 0.833583
O O14 0.260345 0.869327 0.958392
O O15 0.500000 0.073669 0.009848
O O16 0.742541 0.000000 0.994547
O O17 0.500000 0.088195 0.646622
O O18 0.261669 0.125954 0.708830
O O19 0.276155 0.000000 0.664108
O O20 0.212818 0.251371 0.748164
O O21 0.000000 0.155213 0.756567
O O22 0.000000 0.661108 0.783714
#
# Coordination Sequence:
#
# PCOD8179185 Si02
#       8
#     8   8   8   8   8   8   8   8
#     4  10  20  34  53  77 105 137 174 216 258 305
#     4   9  18  33  53  77 104 135 171 212 260 311
#     4  10  21  37  56  78 106 138 171 213 265 317
#     4   9  18  33  53  78 105 135 174 215 254 300
#     4   8  15  30  52  76 102 131 164 204 249 298
#     4  10  21  37  57  80 105 136 176 218 259 310
#     4  10  21  36  53  76 107 140 173 213 263 314
#     4  10  21  36  53  75 104 139 177 216 262 313
#
# _framework density 18.286973
#
# number of rings (size 3 to 8) (size 9 to 14) (size 15 to 20)
#    0.000    2.500    0.000    2.625    0.000    5.750 
#    0.000    3.125    0.000    0.750    0.000    0.000 
#    0.000    0.000    0.000    0.000    0.000    0.000 
#
# Total GULP energy -396872.428527 kJ/mol
# GULP energy per Si atom -12402.263391 kJ/mol
# Density = 1.824535 g / cm^3
# Si number density = 18.286973 Si / 1000 Ang^3
#
#
#
# Elastic Constant Matrix: (Units=GPa)
#
#
# Indices 1 2 3 4 5 6 
#
# 1 58.9660 32.1121 38.7724 0.0000 0.0000 0.0000
# 2 32.1121 70.9620 71.0585 0.0000 0.0000 0.0000
# 3 38.7724 71.0585 134.6056 0.0000 0.0000 0.0000
# 4 0.0000 0.0000 0.0000 34.0087 0.0000 0.0000
# 5 0.0000 0.0000 0.0000 0.0000 17.5205 0.0000
# 6 0.0000 0.0000 0.0000 0.0000 0.0000 30.0721
#
#
#
# Elastic Compliance Matrix: (Units=1/GPa)
#
#
# Indices 1 2 3 4 5 6 
#
# 1 0.022860 -0.007958 -0.002384 0.000000 0.000000 0.000000
# 2 -0.007958 0.032665 -0.014952 0.000000 0.000000 0.000000
# 3 -0.002384 -0.014952 0.016009 0.000000 0.000000 0.000000
# 4 0.000000 0.000000 0.000000 0.029404 0.000000 0.000000
# 5 0.000000 0.000000 0.000000 0.000000 0.057076 0.000000
# 6 0.000000 0.000000 0.000000 0.000000 0.000000 0.033253
#
#
# Mechanical properties :
#
#
# Convention : Reuss Voigt Hill
#
# Bulk Modulus (GPa) = 47.73855 60.93551 54.33703
# Shear Modulus (GPa) = 20.09345 24.49297 22.29321
#
# Velocity S-wave (km/s) = 3.31839 3.66371 3.49531
# Velocity P-wave (km/s) = 6.39094 7.16178 6.78732
#
# Compressibility (1/GPa) = 0.02094743
#
# Stress axis : x y z
#
# Youngs Moduli (GPa) = 43.74447 30.61349 62.46519
#
# Poissons Ratio (x) = 0.24361 0.14891
# Poissons Ratio (y) = 0.34810 0.93398
# Poissons Ratio (z) = 0.10428 0.45773
#
# Static dielectric constant tensor:
#      x y z
#    x 3.363980 0.000000 0.000000 
#    y 0.000000 3.395710 0.000000 
#    z 0.000000 0.000000 3.501320 
# 
# 
# High freq. dielectric constant tensor:
#      x y z
#    x 1.704570 0.000000 0.000000 
#    y 0.000000 1.705060 0.000000 
#    z 0.000000 0.000000 1.718150 
# 
# From -- ./inp_files/17168.got.cif
#   From: 2010.03.12/outbox.cif.g09.slc.cpg/sg38_9_cif.got.tgz:17168.got - 2010.04.14 02:38:36.
