data_PCOD8179051
_publ_section_title
;
Structure prediction by ZEFSAII (Michael W. Deem and Ramdas Pophale) SiO2 
 PCOD8179051
Probable space group: A M M 2
;
_chemical_formula_sum "Si O2"
_cell_formula_units_Z 48
_cell_length_a 7.640558
_cell_length_b 9.227420
_cell_length_c 33.870883
_cell_angle_alpha 90.000000
_cell_angle_beta 90.000000
_cell_angle_gamma 90.000000
_cell_volume 2387.986593
_symmetry_space_group_name_H-M "A M M 2"
_symmetry_group_IT_number 38
_symmetry_cell_setting 'orthorhombic'
loop_
_space_group_symop_operation_xyz
x,y,z
-x,-y,z
-x,y,z
x,-y,z
x,1/2+y,1/2+z
-x,1/2-y,1/2+z
-x,1/2+y,1/2+z
x,1/2-y,1/2+z
loop_
_atom_site_type_symbol
_atom_site_label
_atom_site_fract_x
_atom_site_fract_y
_atom_site_fract_z
Si Si1 0.794056 0.661085 0.230430
Si Si2 0.500000 0.167532 0.942304
Si Si3 0.297471 0.661734 0.654294
Si Si4 0.196784 0.666951 0.568297
Si Si5 0.791939 0.162299 0.304190
Si Si6 0.500000 0.827511 0.523661
Si Si7 0.800026 0.167368 0.881146
O O1 0.713458 0.500000 0.232409
O O2 0.747495 0.727696 0.188511
O O3 0.712736 0.755628 0.266045
O O4 0.000000 0.654088 0.235618
O O5 0.675158 0.202544 0.917770
O O6 0.500000 0.000000 0.956076
O O7 0.500000 0.273819 0.978988
O O8 0.500000 0.667726 0.643588
O O9 0.241362 0.500000 0.667858
O O10 0.196250 0.706891 0.614658
O O11 0.256512 0.500000 0.562535
O O12 0.325635 0.770910 0.544736
O O13 0.000000 0.690337 0.552120
O O14 0.731091 0.241767 0.343919
O O15 0.000000 0.160852 0.301909
O O16 0.715696 0.000000 0.304390
O O17 0.500000 0.000000 0.524791
O O18 0.000000 0.208192 0.892682
O O19 0.786612 0.000000 0.868854
#
# Coordination Sequence:
#
# PCOD8179051 Si02
#       7
#     8   4   8   8   8   4   8
#     4  10  20  33  51  78 113 153 197 242 288 342
#     4  10  22  40  62  87 116 151 194 238 287 352
#     4  10  20  36  58  83 114 150 194 247 296 345
#     4  10  21  41  69  93 117 157 205 249 297 359
#     4   9  17  31  53  79 109 148 193 240 287 338
#     4  12  26  42  62  91 130 161 190 244 303 360
#     4   9  18  35  59  85 113 147 189 239 294 349
#
# _framework density 20.100617
#
# number of rings (size 3 to 8) (size 9 to 14) (size 15 to 20)
#    0.000    2.167    0.833    2.250    0.000    6.333 
#    1.500    1.667    0.000    0.000    0.000    0.000 
#    0.000    0.000    0.000    0.000    0.000    0.000 
#
# Total GULP energy -297631.244707 kJ/mol
# GULP energy per Si atom -12401.301863 kJ/mol
# Density = 2.005487 g / cm^3
# Si number density = 20.100617 Si / 1000 Ang^3
#
#
#
# Elastic Constant Matrix: (Units=GPa)
#
#
# Indices 1 2 3 4 5 6 
#
# 1 80.2301 50.4307 49.0200 0.0000 0.0000 0.0000
# 2 50.4307 153.1195 93.9173 0.0000 0.0000 0.0000
# 3 49.0200 93.9173 137.0930 0.0000 0.0000 0.0000
# 4 0.0000 0.0000 0.0000 40.9097 0.0000 0.0000
# 5 0.0000 0.0000 0.0000 0.0000 21.4773 0.0000
# 6 0.0000 0.0000 0.0000 0.0000 0.0000 19.3372
#
#
#
# Elastic Compliance Matrix: (Units=1/GPa)
#
#
# Indices 1 2 3 4 5 6 
#
# 1 0.016805 -0.003189 -0.003824 0.000000 0.000000 0.000000
# 2 -0.003189 0.011869 -0.006991 0.000000 0.000000 0.000000
# 3 -0.003824 -0.006991 0.013451 0.000000 0.000000 0.000000
# 4 0.000000 0.000000 0.000000 0.024444 0.000000 0.000000
# 5 0.000000 0.000000 0.000000 0.000000 0.046561 0.000000
# 6 0.000000 0.000000 0.000000 0.000000 0.000000 0.051714
#
#
# Mechanical properties :
#
#
# Convention : Reuss Voigt Hill
#
# Bulk Modulus (GPa) = 70.83704 84.13095 77.48400
# Shear Modulus (GPa) = 25.30906 28.14982 26.72944
#
# Velocity S-wave (km/s) = 3.55226 3.74631 3.65057
# Velocity P-wave (km/s) = 7.22097 7.78838 7.51004
#
# Compressibility (1/GPa) = 0.01411691
#
# Stress axis : x y z
#
# Youngs Moduli (GPa) = 59.50455 84.25274 74.34542
#
# Poissons Ratio (x) = 0.26871 0.28431
# Poissons Ratio (y) = 0.18978 0.51972
# Poissons Ratio (z) = 0.22755 0.58898
#
# Static dielectric constant tensor:
#      x y z
#    x 3.672130 0.000000 0.000000 
#    y 0.000000 3.719270 0.000000 
#    z 0.000000 0.000000 3.577330 
# 
# 
# High freq. dielectric constant tensor:
#      x y z
#    x 1.782530 0.000000 0.000000 
#    y 0.000000 1.780250 0.000000 
#    z 0.000000 0.000000 1.781850 
# 
# From -- ./inp_files/24324.got.cif
#   From: 2010.03.12/outbox.cif.g09.slc.cpg/sg38_13_cif.got.tgz:24324.got - 2010.04.14 02:38:36.
