data_PCOD8179738
_publ_section_title
;
Structure prediction by ZEFSAII (Michael W. Deem and Ramdas Pophale) SiO2 
 PCOD8179738
Probable space group: A M M 2
;
_chemical_formula_sum "Si O2"
_cell_formula_units_Z 48
_cell_length_a 8.748666
_cell_length_b 18.085169
_cell_length_c 14.902341
_cell_angle_alpha 90.000000
_cell_angle_beta 90.000000
_cell_angle_gamma 90.000000
_cell_volume 2357.864832
_symmetry_space_group_name_H-M "A M M 2"
_symmetry_group_IT_number 38
_symmetry_cell_setting 'orthorhombic'
loop_
_space_group_symop_operation_xyz
x,y,z
-x,-y,z
-x,y,z
x,-y,z
x,1/2+y,1/2+z
-x,1/2-y,1/2+z
-x,1/2+y,1/2+z
x,1/2-y,1/2+z
loop_
_atom_site_type_symbol
_atom_site_label
_atom_site_fract_x
_atom_site_fract_y
_atom_site_fract_z
Si Si1 0.180560 0.347540 0.744130
Si Si2 0.674552 0.770569 0.082948
Si Si3 0.674718 0.418701 0.324950
Si Si4 0.679219 0.000000 0.307138
Si Si5 0.178918 0.273176 0.390681
Si Si6 0.329041 0.893780 0.623407
Si Si7 0.824688 0.000000 0.495812
O O1 0.229975 0.327871 0.642717
O O2 0.250695 0.426934 0.763773
O O3 0.238613 0.285826 0.816231
O O4 0.000000 0.353362 0.748451
O O5 0.500000 0.797991 0.077455
O O6 0.690329 0.693286 0.133790
O O7 0.737514 0.758339 0.983714
O O8 0.500000 0.394192 0.344343
O O9 0.707560 0.500000 0.368110
O O10 0.788173 0.357619 0.363559
O O11 0.703232 0.428428 0.219644
O O12 0.713848 0.000000 0.411829
O O13 0.500000 0.000000 0.289959
O O14 0.000000 0.263262 0.405029
O O15 0.500000 0.914198 0.590306
O O16 0.207939 0.926702 0.553523
O O17 0.000000 0.000000 0.463960
#
# Coordination Sequence:
#
# PCOD8179738 Si02
#       7
#     8   8   8   4   8   8   4
#     4  11  24  44  68  95 131 167 208 266 326 380
#     4  11  23  40  66  94 123 166 216 261 310 378
#     4  10  20  38  63  90 124 162 205 256 309 370
#     4  12  26  44  66  91 124 167 216 262 314 378
#     4  11  24  41  64  94 129 167 209 261 319 379
#     4  10  20  37  61  90 124 162 205 255 312 376
#     4  12  24  36  58  93 130 165 206 260 322 380
#
# _framework density 20.357399999999998
#
# number of rings (size 3 to 8) (size 9 to 14) (size 15 to 20)
#    0.000    1.167    2.500    4.000    0.000    7.000 
#    1.500    0.000    0.000    0.000    0.000    0.000 
#    0.000    0.000    0.000    0.000    0.000    0.000 
#
# Total GULP energy -297637.798440 kJ/mol
# GULP energy per Si atom -12401.574935 kJ/mol
# Density = 2.031107 g / cm^3
# Si number density = 20.357400 Si / 1000 Ang^3
#
#
#
# Elastic Constant Matrix: (Units=GPa)
#
#
# Indices 1 2 3 4 5 6 
#
# 1 96.9872 40.4193 36.4948 0.0000 0.0000 0.0000
# 2 40.4193 118.4898 33.1647 0.0000 0.0000 0.0000
# 3 36.4948 33.1647 80.2909 0.0000 0.0000 0.0000
# 4 0.0000 0.0000 0.0000 41.7210 0.0000 0.0000
# 5 0.0000 0.0000 0.0000 0.0000 35.1221 0.0000
# 6 0.0000 0.0000 0.0000 0.0000 0.0000 36.0755
#
#
#
# Elastic Compliance Matrix: (Units=1/GPa)
#
#
# Indices 1 2 3 4 5 6 
#
# 1 0.013465 -0.003257 -0.004775 0.000000 0.000000 0.000000
# 2 -0.003257 0.010330 -0.002787 0.000000 0.000000 0.000000
# 3 -0.004775 -0.002787 0.015776 0.000000 0.000000 0.000000
# 4 0.000000 0.000000 0.000000 0.023969 0.000000 0.000000
# 5 0.000000 0.000000 0.000000 0.000000 0.028472 0.000000
# 6 0.000000 0.000000 0.000000 0.000000 0.000000 0.027720
#
#
# Mechanical properties :
#
#
# Convention : Reuss Voigt Hill
#
# Bulk Modulus (GPa) = 55.75839 57.32505 56.54172
# Shear Modulus (GPa) = 33.93362 34.96299 34.44830
#
# Velocity S-wave (km/s) = 4.08719 4.14872 4.11807
# Velocity P-wave (km/s) = 7.05143 7.15329 7.10255
#
# Compressibility (1/GPa) = 0.01793452
#
# Stress axis : x y z
#
# Youngs Moduli (GPa) = 74.26918 96.80114 63.38664
#
# Poissons Ratio (x) = 0.31524 0.30267
# Poissons Ratio (y) = 0.24186 0.17665
# Poissons Ratio (z) = 0.35463 0.26977
#
# Static dielectric constant tensor:
#      x y z
#    x 3.657150 0.000000 0.000000 
#    y 0.000000 3.711610 0.000000 
#    z 0.000000 0.000000 3.591430 
# 
# 
# High freq. dielectric constant tensor:
#      x y z
#    x 1.794350 0.000000 0.000000 
#    y 0.000000 1.807740 0.000000 
#    z 0.000000 0.000000 1.789610 
# 
# From -- ./inp_files/12116.got.cif
#   From: 2010.03.12/outbox.cif.g09.slc.cpg/sg38_7_cif.got.tgz:12116.got - 2010.04.14 02:38:36.
