data_PCOD8179133
_publ_section_title
;
Structure prediction by ZEFSAII (Michael W. Deem and Ramdas Pophale) SiO2 
 PCOD8179133
Probable space group: A M M 2
;
_chemical_formula_sum "Si O2"
_cell_formula_units_Z 64
_cell_length_a 8.924114
_cell_length_b 19.744414
_cell_length_c 20.243490
_cell_angle_alpha 90.000000
_cell_angle_beta 90.000000
_cell_angle_gamma 90.000000
_cell_volume 3566.931307
_symmetry_space_group_name_H-M "A M M 2"
_symmetry_group_IT_number 38
_symmetry_cell_setting 'orthorhombic'
loop_
_space_group_symop_operation_xyz
x,y,z
-x,-y,z
-x,y,z
x,-y,z
x,1/2+y,1/2+z
-x,1/2-y,1/2+z
-x,1/2+y,1/2+z
x,1/2-y,1/2+z
loop_
_atom_site_type_symbol
_atom_site_label
_atom_site_fract_x
_atom_site_fract_y
_atom_site_fract_z
Si Si1 0.323191 0.681896 0.146360
Si Si2 0.824928 0.826535 0.288411
Si Si3 0.326179 0.920954 0.037612
Si Si4 0.824636 0.326357 0.283819
Si Si5 0.177365 0.077034 0.400607
Si Si6 0.675088 0.076930 0.535151
Si Si7 0.178283 0.323172 0.640801
Si Si8 0.826286 0.921955 0.902139
O O1 0.500000 0.693233 0.148703
O O2 0.266410 0.657684 0.217696
O O3 0.275279 0.623239 0.095986
O O4 0.245990 0.750674 0.121159
O O5 0.788195 0.749429 0.308700
O O6 0.752057 0.877144 0.341933
O O7 0.764510 0.841773 0.214666
O O8 0.000000 0.840007 0.288268
O O9 0.500000 0.902427 0.043280
O O10 0.233995 0.881053 0.092293
O O11 0.295716 0.000000 0.049663
O O12 0.269064 0.899367 0.965421
O O13 0.771103 0.377960 0.340177
O O14 0.000000 0.334498 0.267760
O O15 0.242192 0.103372 0.469727
O O16 0.000000 0.084152 0.404117
O O17 0.227494 0.000000 0.386927
O O18 0.500000 0.082419 0.521467
O O19 0.723052 0.000000 0.551772
O O20 0.000000 0.317557 0.637674
O O21 0.000000 0.908123 0.918030
O O22 0.797147 0.000000 0.884166
#
# Coordination Sequence:
#
# PCOD8179133 Si02
#       8
#     8   8   8   8   8   8   8   8
#     4  10  20  34  52  74 102 135 170 211 257 306
#     4   8  16  31  49  70  96 125 159 200 246 295
#     4  10  21  36  53  76 107 138 170 212 258 306
#     4   9  18  33  51  72  99 130 166 209 253 298
#     4   9  17  30  49  72  96 123 159 203 246 290
#     4   9  19  35  51  70 100 135 168 203 247 300
#     4  10  20  35  55  76 101 135 172 211 255 305
#     4   9  18  33  52  74 101 134 172 212 254 303
#
# _framework density 17.942595000000001
#
# number of rings (size 3 to 8) (size 9 to 14) (size 15 to 20)
#    0.000    2.750    0.000    1.875    0.000    4.250 
#    0.000    5.625    0.000    1.500    0.000    0.000 
#    0.000    0.000    0.000    0.000    0.000    0.000 
#
# Total GULP energy -396813.188338 kJ/mol
# GULP energy per Si atom -12400.412136 kJ/mol
# Density = 1.790176 g / cm^3
# Si number density = 17.942595 Si / 1000 Ang^3
#
#
#
# Elastic Constant Matrix: (Units=GPa)
#
#
# Indices 1 2 3 4 5 6 
#
# 1 54.8190 39.0822 47.2083 0.0000 0.0000 0.0000
# 2 39.0822 98.3598 88.2517 0.0000 0.0000 0.0000
# 3 47.2083 88.2517 135.9042 0.0000 0.0000 0.0000
# 4 0.0000 0.0000 0.0000 40.7105 0.0000 0.0000
# 5 0.0000 0.0000 0.0000 0.0000 17.2810 0.0000
# 6 0.0000 0.0000 0.0000 0.0000 0.0000 22.1791
#
#
#
# Elastic Compliance Matrix: (Units=1/GPa)
#
#
# Indices 1 2 3 4 5 6 
#
# 1 0.027255 -0.005595 -0.005834 0.000000 0.000000 0.000000
# 2 -0.005595 0.025508 -0.014621 0.000000 0.000000 0.000000
# 3 -0.005834 -0.014621 0.018879 0.000000 0.000000 0.000000
# 4 0.000000 0.000000 0.000000 0.024564 0.000000 0.000000
# 5 0.000000 0.000000 0.000000 0.000000 0.057867 0.000000
# 6 0.000000 0.000000 0.000000 0.000000 0.000000 0.045088
#
#
# Mechanical properties :
#
#
# Convention : Reuss Voigt Hill
#
# Bulk Modulus (GPa) = 51.17083 70.90750 61.03917
# Shear Modulus (GPa) = 19.39693 23.67016 21.53355
#
# Velocity S-wave (km/s) = 3.29151 3.63604 3.46806
# Velocity P-wave (km/s) = 6.55946 7.56522 7.08022
#
# Compressibility (1/GPa) = 0.01954238
#
# Stress axis : x y z
#
# Youngs Moduli (GPa) = 36.69079 39.20387 52.96926
#
# Poissons Ratio (x) = 0.21933 0.30905
# Poissons Ratio (y) = 0.20527 0.77444
# Poissons Ratio (z) = 0.21407 0.57318
#
# Static dielectric constant tensor:
#      x y z
#    x 3.187320 0.000000 0.000000 
#    y 0.000000 3.440900 0.000000 
#    z 0.000000 0.000000 3.464230 
# 
# 
# High freq. dielectric constant tensor:
#      x y z
#    x 1.683290 0.000000 0.000000 
#    y 0.000000 1.695260 0.000000 
#    z 0.000000 0.000000 1.699920 
# 
# From -- ./inp_files/17231.got.cif
#   From: 2010.03.12/outbox.cif.g09.slc.cpg/sg38_9_cif.got.tgz:17231.got - 2010.04.14 02:38:36.
