data_PCOD8179533
_publ_section_title
;
Structure prediction by ZEFSAII (Michael W. Deem and Ramdas Pophale) SiO2 
 PCOD8179533
Probable space group: A M M 2
;
_chemical_formula_sum "Si O2"
_cell_formula_units_Z 32
_cell_length_a 8.987417
_cell_length_b 7.659131
_cell_length_c 24.176973
_cell_angle_alpha 90.000000
_cell_angle_beta 90.000000
_cell_angle_gamma 90.000000
_cell_volume 1664.241378
_symmetry_space_group_name_H-M "A M M 2"
_symmetry_group_IT_number 38
_symmetry_cell_setting 'orthorhombic'
loop_
_space_group_symop_operation_xyz
x,y,z
-x,-y,z
-x,y,z
x,-y,z
x,1/2+y,1/2+z
-x,1/2-y,1/2+z
-x,1/2+y,1/2+z
x,1/2-y,1/2+z
loop_
_atom_site_type_symbol
_atom_site_label
_atom_site_fract_x
_atom_site_fract_y
_atom_site_fract_z
Si Si1 0.823105 0.299649 0.357670
Si Si2 0.673344 0.000000 0.289986
Si Si3 0.826018 0.195574 0.595499
Si Si4 0.833224 0.795444 0.979022
Si Si5 0.326947 0.500000 0.660771
O O1 0.783165 0.500000 0.343085
O O2 0.745505 0.174787 0.314062
O O3 0.759639 0.252430 0.419357
O O4 0.000000 0.273278 0.355730
O O5 0.706283 0.000000 0.225390
O O6 0.500000 0.000000 0.303796
O O7 0.757733 0.207197 0.532881
O O8 0.742684 0.325359 0.636028
O O9 0.000000 0.246880 0.594247
O O10 0.801692 0.000000 0.618045
O O11 0.000000 0.723340 0.975384
O O12 0.830667 0.000000 0.989688
O O13 0.500000 0.500000 0.647076
#
# Coordination Sequence:
#
# PCOD8179533 Si02
#       5
#     8   4   8   8   4
#     4   9  19  36  61  90 115 145 187 237 288 339
#     4  11  25  41  57  79 113 161 202 233 280 339
#     4  10  20  35  61  91 114 144 188 239 290 340
#     4   8  14  29  56  87 118 145 174 223 287 344
#     4  11  25  43  57  75 115 163 200 235 280 337
#
# _framework density 19.227979999999999
#
# number of rings (size 3 to 8) (size 9 to 14) (size 15 to 20)
#    0.000    2.500    1.250    2.250    1.750    4.000 
#    0.000    6.250    0.000    0.000    0.000    0.000 
#    0.000    0.000    0.000    0.000    0.000    0.000 
#
# Total GULP energy -198291.891683 kJ/mol
# GULP energy per Si atom -12393.243230 kJ/mol
# Density = 1.918422 g / cm^3
# Si number density = 19.227980 Si / 1000 Ang^3
#
#
#
# Elastic Constant Matrix: (Units=GPa)
#
#
# Indices 1 2 3 4 5 6 
#
# 1 64.2998 56.7853 65.4171 0.0000 0.0000 0.0000
# 2 56.7853 132.2201 84.6888 0.0000 0.0000 0.0000
# 3 65.4171 84.6888 126.2893 0.0000 0.0000 0.0000
# 4 0.0000 0.0000 0.0000 13.7229 0.0000 0.0000
# 5 0.0000 0.0000 0.0000 0.0000 -44.0625 0.0000
# 6 0.0000 0.0000 0.0000 0.0000 0.0000 3.1656
#
#
#
# Elastic Compliance Matrix: (Units=1/GPa)
#
#
# Indices 1 2 3 4 5 6 
#
# 1 0.035458 -0.006072 -0.014295 0.000000 0.000000 0.000000
# 2 -0.006072 0.014297 -0.006442 0.000000 0.000000 0.000000
# 3 -0.014295 -0.006442 0.019643 0.000000 0.000000 0.000000
# 4 0.000000 0.000000 0.000000 0.072871 0.000000 0.000000
# 5 0.000000 0.000000 0.000000 0.000000 -0.022695 0.000000
# 6 0.000000 0.000000 0.000000 0.000000 0.000000 0.315891
#
#
# Mechanical properties :
#
#
# Convention : Reuss Voigt Hill
#
# Bulk Modulus (GPa) = 63.37331 81.84350 72.60840
# Shear Modulus (GPa) = 10.11439 2.29309 6.20374
#
# Velocity S-wave (km/s) = 2.29601 1.09324 1.79817
# Velocity P-wave (km/s) = 6.32924 6.65212 6.49269
#
# Compressibility (1/GPa) = 0.01577951
#
# Stress axis : x y z
#
# Youngs Moduli (GPa) = 28.20213 69.94237 50.90768
#
# Poissons Ratio (x) = 0.42471 0.72774
# Poissons Ratio (y) = 0.17125 0.32797
# Poissons Ratio (z) = 0.40315 0.45060
#
# Static dielectric constant tensor:
#      x y z
#    x 3.165960 0.000000 0.000000 
#    y 0.000000 3.510050 0.000000 
#    z 0.000000 0.000000 3.697400 
# 
# 
# High freq. dielectric constant tensor:
#      x y z
#    x 1.702870 0.000000 0.000000 
#    y 0.000000 1.757840 0.000000 
#    z 0.000000 0.000000 1.757330 
# 
# From -- ./inp_files/21638.got.cif
#   From: 2010.03.12/outbox.cif.g09.slc.cpg/sg38_11_cif.got.tgz:21638.got - 2010.04.14 02:38:36.
