data_PCOD8179048
_publ_section_title
;
Structure prediction by ZEFSAII (Michael W. Deem and Ramdas Pophale) SiO2 
 PCOD8179048
Probable space group: A M M 2
;
_chemical_formula_sum "Si O2"
_cell_formula_units_Z 48
_cell_length_a 9.079102
_cell_length_b 8.659307
_cell_length_c 31.446570
_cell_angle_alpha 90.000000
_cell_angle_beta 90.000000
_cell_angle_gamma 90.000000
_cell_volume 2472.289443
_symmetry_space_group_name_H-M "A M M 2"
_symmetry_group_IT_number 38
_symmetry_cell_setting 'orthorhombic'
loop_
_space_group_symop_operation_xyz
x,y,z
-x,-y,z
-x,y,z
x,-y,z
x,1/2+y,1/2+z
-x,1/2-y,1/2+z
-x,1/2+y,1/2+z
x,1/2-y,1/2+z
loop_
_atom_site_type_symbol
_atom_site_label
_atom_site_fract_x
_atom_site_fract_y
_atom_site_fract_z
Si Si1 0.324435 0.321865 0.955270
Si Si2 0.332458 0.683568 0.138591
Si Si3 0.835607 0.817173 0.719779
Si Si4 0.829217 0.678657 0.376909
Si Si5 0.662808 0.182872 0.547201
Si Si6 0.669409 0.820541 0.298270
O O1 0.500000 0.299764 0.952789
O O2 0.283395 0.500000 0.945875
O O3 0.244752 0.211816 0.922075
O O4 0.263036 0.268433 0.002242
O O5 0.500000 0.744636 0.143205
O O6 0.332908 0.500000 0.142002
O O7 0.234504 0.753851 0.176609
O O8 0.262399 0.733708 0.092264
O O9 0.737120 0.774128 0.759715
O O10 0.000000 0.749012 0.725217
O O11 0.842085 0.000000 0.716649
O O12 0.807014 0.500000 0.365129
O O13 0.753068 0.783043 0.341560
O O14 0.000000 0.723084 0.379123
O O15 0.500000 0.254802 0.548247
O O16 0.649816 0.000000 0.546117
O O17 0.500000 0.771926 0.303711
O O18 0.686333 0.000000 0.288160
#
# Coordination Sequence:
#
# PCOD8179048 Si02
#       6
#     8   8   8   8   8   8
#     4   9  17  31  53  80 107 135 171 214 256 299
#     4   8  13  24  45  72 102 137 174 211 251 292
#     4  10  20  33  51  78 110 140 170 206 250 301
#     4  11  24  39  54  75 104 136 169 206 251 305
#     4   7  11  22  43  72 103 133 168 211 253 291
#     4  11  24  40  58  79 100 126 166 213 257 304
#
# _framework density 19.415203999999999
#
# number of rings (size 3 to 8) (size 9 to 14) (size 15 to 20)
#    0.000    2.667    0.000    4.500    0.000    8.000 
#    0.000    0.833    0.000    4.000    0.000    2.333 
#    0.000    0.000    0.000    0.000    0.000    0.000 
#
# Total GULP energy -297375.190776 kJ/mol
# GULP energy per Si atom -12390.632949 kJ/mol
# Density = 1.937101 g / cm^3
# Si number density = 19.415204 Si / 1000 Ang^3
#
#
#
# Elastic Constant Matrix: (Units=GPa)
#
#
# Indices 1 2 3 4 5 6 
#
# 1 88.1405 21.2163 51.7381 0.0000 0.0000 0.0000
# 2 21.2163 18.1881 9.6650 0.0000 0.0000 0.0000
# 3 51.7381 9.6650 162.0580 0.0000 0.0000 0.0000
# 4 0.0000 0.0000 0.0000 21.9184 0.0000 0.0000
# 5 0.0000 0.0000 0.0000 0.0000 -7.3733 0.0000
# 6 0.0000 0.0000 0.0000 0.0000 0.0000 20.2964
#
#
#
# Elastic Compliance Matrix: (Units=1/GPa)
#
#
# Indices 1 2 3 4 5 6 
#
# 1 0.018883 -0.019439 -0.004869 0.000000 0.000000 0.000000
# 2 -0.019439 0.076793 0.001626 0.000000 0.000000 0.000000
# 3 -0.004869 0.001626 0.007628 0.000000 0.000000 0.000000
# 4 0.000000 0.000000 0.000000 0.045624 0.000000 0.000000
# 5 0.000000 0.000000 0.000000 0.000000 -0.135624 0.000000
# 6 0.000000 0.000000 0.000000 0.000000 0.000000 0.049270
#
#
# Mechanical properties :
#
#
# Convention : Reuss Voigt Hill
#
# Bulk Modulus (GPa) = 17.25941 48.18060 32.72001
# Shear Modulus (GPa) = 39.29228 19.35277 29.32252
#
# Velocity S-wave (km/s) = 4.50353 3.16061 3.89046
# Velocity P-wave (km/s) = 5.99595 6.17973 6.08853
#
# Compressibility (1/GPa) = 0.05793939
#
# Stress axis : x y z
#
# Youngs Moduli (GPa) = 52.95781 13.02205 131.09340
#
# Poissons Ratio (x) = 0.25314 0.63831
# Poissons Ratio (y) = 1.02947 -0.21320
# Poissons Ratio (z) = 0.25786 -0.02118
#
# Static dielectric constant tensor:
#      x y z
#    x 3.525200 0.000000 0.000000 
#    y 0.000000 3.085200 0.000000 
#    z 0.000000 0.000000 4.061630 
# 
# 
# High freq. dielectric constant tensor:
#      x y z
#    x 1.734300 0.000000 0.000000 
#    y 0.000000 1.711380 0.000000 
#    z 0.000000 0.000000 1.785320 
# 
# From -- ./inp_files/24285.got.cif
#   From: 2010.03.12/outbox.cif.g09.slc.cpg/sg38_13_cif.got.tgz:24285.got - 2010.04.14 02:38:36.
