data_PCOD8179067
_publ_section_title
;
Structure prediction by ZEFSAII (Michael W. Deem and Ramdas Pophale) SiO2 
 PCOD8179067
Probable space group: A M M 2
;
_chemical_formula_sum "Si O2"
_cell_formula_units_Z 48
_cell_length_a 8.997221
_cell_length_b 7.552845
_cell_length_c 34.295178
_cell_angle_alpha 90.000000
_cell_angle_beta 90.000000
_cell_angle_gamma 90.000000
_cell_volume 2330.515639
_symmetry_space_group_name_H-M "A M M 2"
_symmetry_group_IT_number 38
_symmetry_cell_setting 'orthorhombic'
loop_
_space_group_symop_operation_xyz
x,y,z
-x,-y,z
-x,y,z
x,-y,z
x,1/2+y,1/2+z
-x,1/2-y,1/2+z
-x,1/2+y,1/2+z
x,1/2-y,1/2+z
loop_
_atom_site_type_symbol
_atom_site_label
_atom_site_fract_x
_atom_site_fract_y
_atom_site_fract_z
Si Si1 0.834381 0.290150 0.458820
Si Si2 0.671807 0.798077 0.686756
Si Si3 0.674638 0.293837 0.380107
Si Si4 0.662777 0.797785 0.032253
Si Si5 0.176323 0.000000 0.329350
Si Si6 0.327658 0.000000 0.247978
Si Si7 0.167694 0.708944 0.108930
O O1 0.844656 0.500000 0.461785
O O2 0.735129 0.233144 0.422107
O O3 0.760821 0.208017 0.498020
O O4 0.000000 0.209998 0.454363
O O5 0.500000 0.782513 0.675152
O O6 0.709455 0.675711 0.723415
O O7 0.763588 0.727867 0.649753
O O8 0.714630 0.000000 0.697666
O O9 0.500000 0.255733 0.378762
O O10 0.709759 0.500000 0.371839
O O11 0.756111 0.178028 0.347651
O O12 0.500000 0.705943 0.034604
O O13 0.741707 0.790978 0.073676
O O14 0.640709 0.000000 0.020318
O O15 0.217819 0.000000 0.284151
O O16 0.000000 0.000000 0.334682
O O17 0.500000 0.000000 0.261350
O O18 0.176305 0.500000 0.105466
O O19 0.000000 0.779652 0.106657
#
# Coordination Sequence:
#
# PCOD8179067 Si02
#       7
#     8   8   8   8   4   4   8
#     4   9  17  32  55  83 116 152 193 241 296 354
#     4   9  19  37  60  84 113 151 193 240 293 351
#     4  10  21  40  66  91 120 161 205 250 302 362
#     4  10  20  33  52  79 111 149 195 242 287 342
#     4  12  26  42  62  94 130 160 200 252 306 368
#     4  10  22  40  62  88 118 152 198 246 294 362
#     4  10  21  36  53  77 111 148 189 238 292 349
#
# _framework density 20.596298999999998
#
# number of rings (size 3 to 8) (size 9 to 14) (size 15 to 20)
#    0.000    2.167    0.000    2.750    1.167    6.333 
#    1.500    1.667    0.000    0.000    0.000    0.000 
#    0.000    0.000    0.000    0.000    0.000    0.000 
#
# Total GULP energy -297621.267646 kJ/mol
# GULP energy per Si atom -12400.886152 kJ/mol
# Density = 2.054942 g / cm^3
# Si number density = 20.596299 Si / 1000 Ang^3
#
#
#
# Elastic Constant Matrix: (Units=GPa)
#
#
# Indices 1 2 3 4 5 6 
#
# 1 169.9847 40.8197 84.3899 0.0000 0.0000 0.0000
# 2 40.8197 68.9682 46.1883 0.0000 0.0000 0.0000
# 3 84.3899 46.1883 150.1861 0.0000 0.0000 0.0000
# 4 0.0000 0.0000 0.0000 70.0390 0.0000 0.0000
# 5 0.0000 0.0000 0.0000 0.0000 36.2097 0.0000
# 6 0.0000 0.0000 0.0000 0.0000 0.0000 19.9180
#
#
#
# Elastic Compliance Matrix: (Units=1/GPa)
#
#
# Indices 1 2 3 4 5 6 
#
# 1 0.008437 -0.002290 -0.004036 0.000000 0.000000 0.000000
# 2 -0.002290 0.018882 -0.004520 0.000000 0.000000 0.000000
# 3 -0.004036 -0.004520 0.010316 0.000000 0.000000 0.000000
# 4 0.000000 0.000000 0.000000 0.014278 0.000000 0.000000
# 5 0.000000 0.000000 0.000000 0.000000 0.027617 0.000000
# 6 0.000000 0.000000 0.000000 0.000000 0.000000 0.050206
#
#
# Mechanical properties :
#
#
# Convention : Reuss Voigt Hill
#
# Bulk Modulus (GPa) = 62.72721 81.32607 72.02664
# Shear Modulus (GPa) = 31.89936 39.74943 35.82439
#
# Velocity S-wave (km/s) = 3.93974 4.39786 4.17509
# Velocity P-wave (km/s) = 7.15661 8.08454 7.63468
#
# Compressibility (1/GPa) = 0.01594204
#
# Stress axis : x y z
#
# Youngs Moduli (GPa) = 118.53008 52.96030 96.93221
#
# Poissons Ratio (x) = 0.12129 0.39124
# Poissons Ratio (y) = 0.27147 0.43814
# Poissons Ratio (z) = 0.47842 0.23939
#
# Static dielectric constant tensor:
#      x y z
#    x 3.996370 0.000000 0.000000 
#    y 0.000000 3.618150 0.000000 
#    z 0.000000 0.000000 3.652810 
# 
# 
# High freq. dielectric constant tensor:
#      x y z
#    x 1.815570 0.000000 0.000000 
#    y 0.000000 1.797040 0.000000 
#    z 0.000000 0.000000 1.803320 
# 
# From -- ./inp_files/24369.got.cif
#   From: 2010.03.12/outbox.cif.g09.slc.cpg/sg38_13_cif.got.tgz:24369.got - 2010.04.14 02:38:36.
