data_PCOD8179990
_publ_section_title
;
Structure prediction by ZEFSAII (Michael W. Deem and Ramdas Pophale) SiO2 
 PCOD8179990
Probable space group: A M M 2
;
_chemical_formula_sum "Si O2"
_cell_formula_units_Z 64
_cell_length_a 13.760128
_cell_length_b 9.313337
_cell_length_c 25.841323
_cell_angle_alpha 90.000000
_cell_angle_beta 90.000000
_cell_angle_gamma 90.000000
_cell_volume 3311.635552
_symmetry_space_group_name_H-M "A M M 2"
_symmetry_group_IT_number 38
_symmetry_cell_setting 'orthorhombic'
loop_
_space_group_symop_operation_xyz
x,y,z
-x,-y,z
-x,y,z
x,-y,z
x,1/2+y,1/2+z
-x,1/2-y,1/2+z
-x,1/2+y,1/2+z
x,1/2-y,1/2+z
loop_
_atom_site_type_symbol
_atom_site_label
_atom_site_fract_x
_atom_site_fract_y
_atom_site_fract_z
Si Si1 0.115590 0.841774 0.004750
Si Si2 0.712795 0.669628 0.154348
Si Si3 0.615243 0.337110 0.963068
Si Si4 0.111522 0.831939 0.120262
Si Si5 0.615568 0.336290 0.561564
Si Si6 0.107387 0.665812 0.908477
Si Si7 0.610407 0.832081 0.761443
Si Si8 0.703313 0.166190 0.354963
O O1 0.152619 0.800800 0.062203
O O2 0.000000 0.839091 0.008130
O O3 0.152287 0.000000 0.989514
O O4 0.152697 0.734224 0.960613
O O5 0.717832 0.500000 0.144299
O O6 0.821293 0.736353 0.157647
O O7 0.650698 0.744176 0.109871
O O8 0.660802 0.707590 0.207817
O O9 0.500000 0.331589 0.962955
O O10 0.652298 0.500000 0.972723
O O11 0.651573 0.281147 0.907498
O O12 0.656636 0.233901 0.008385
O O13 0.000000 0.782435 0.127073
O O14 0.121331 0.000000 0.133588
O O15 0.500000 0.332313 0.561333
O O16 0.654122 0.500000 0.565463
O O17 0.099530 0.500000 0.921503
O O18 0.180519 0.692911 0.860943
O O19 0.000000 0.728399 0.894679
O O20 0.500000 0.775635 0.759903
O O21 0.667837 0.756940 0.807152
O O22 0.613809 0.000000 0.772204
O O23 0.679450 0.000000 0.344516
#
# Coordination Sequence:
#
# PCOD8179990 Si02
#       8
#     8   8   8   8   8   8   8   8
#     4   8  15  29  49  74 107 147 186 224 267 315
#     4  11  23  38  59  84 113 149 191 237 289 346
#     4   9  18  33  52  77 111 146 180 226 287 347
#     4   9  19  36  56  82 118 154 191 236 282 331
#     4  10  21  36  55  82 114 148 188 233 285 348
#     4   9  18  32  50  77 115 152 187 227 269 321
#     4  10  23  43  63  83 108 141 185 238 294 347
#     4  10  21  36  57  84 112 145 189 234 282 337
#
# _framework density 19.325797999999999
#
# number of rings (size 3 to 8) (size 9 to 14) (size 15 to 20)
#    0.000    2.500    0.000    2.250    1.750    4.750 
#    0.000    3.125    0.000    2.250    0.000    0.000 
#    0.000    0.000    0.000    0.000    0.000    0.000 
#
# Total GULP energy -396775.776259 kJ/mol
# GULP energy per Si atom -12399.243008 kJ/mol
# Density = 1.928181 g / cm^3
# Si number density = 19.325798 Si / 1000 Ang^3
#
#
#
# Elastic Constant Matrix: (Units=GPa)
#
#
# Indices 1 2 3 4 5 6 
#
# 1 68.6261 44.3969 57.1217 0.0000 0.0000 0.0000
# 2 44.3969 79.5856 68.5396 0.0000 0.0000 0.0000
# 3 57.1217 68.5396 136.1720 0.0000 0.0000 0.0000
# 4 0.0000 0.0000 0.0000 37.0894 0.0000 0.0000
# 5 0.0000 0.0000 0.0000 0.0000 28.6759 0.0000
# 6 0.0000 0.0000 0.0000 0.0000 0.0000 27.5595
#
#
#
# Elastic Compliance Matrix: (Units=1/GPa)
#
#
# Indices 1 2 3 4 5 6 
#
# 1 0.025487 -0.008844 -0.006240 0.000000 0.000000 0.000000
# 2 -0.008844 0.025248 -0.008998 0.000000 0.000000 0.000000
# 3 -0.006240 -0.008998 0.014490 0.000000 0.000000 0.000000
# 4 0.000000 0.000000 0.000000 0.026962 0.000000 0.000000
# 5 0.000000 0.000000 0.000000 0.000000 0.034872 0.000000
# 6 0.000000 0.000000 0.000000 0.000000 0.000000 0.036285
#
#
# Mechanical properties :
#
#
# Convention : Reuss Voigt Hill
#
# Bulk Modulus (GPa) = 58.61316 69.38890 64.00103
# Shear Modulus (GPa) = 23.02063 26.28668 24.65366
#
# Velocity S-wave (km/s) = 3.45510 3.69207 3.57555
# Velocity P-wave (km/s) = 6.80528 7.35921 7.08766
#
# Compressibility (1/GPa) = 0.01706102
#
# Stress axis : x y z
#
# Youngs Moduli (GPa) = 39.23537 39.60691 69.01222
#
# Poissons Ratio (x) = 0.35030 0.43062
# Poissons Ratio (y) = 0.34701 0.62098
# Poissons Ratio (z) = 0.24482 0.35639
#
# Static dielectric constant tensor:
#      x y z
#    x 3.774710 0.000000 0.000000 
#    y 0.000000 3.579570 0.000000 
#    z 0.000000 0.000000 3.412170 
# 
# 
# High freq. dielectric constant tensor:
#      x y z
#    x 1.770710 0.000000 0.000000 
#    y 0.000000 1.746860 0.000000 
#    z 0.000000 0.000000 1.733320 
# 
# From -- ./inp_files/22953.got.cif
#   From: 2010.03.12/outbox.cif.g09.slc.cpg/sg38_12_cif.got.tgz:22953.got - 2010.04.14 02:38:36.
