data_PCOD8179155
_publ_section_title
;
Structure prediction by ZEFSAII (Michael W. Deem and Ramdas Pophale) SiO2 
 PCOD8179155
Probable space group: A M M 2
;
_chemical_formula_sum "Si O2"
_cell_formula_units_Z 64
_cell_length_a 14.410454
_cell_length_b 24.197556
_cell_length_c 9.364240
_cell_angle_alpha 90.000000
_cell_angle_beta 90.000000
_cell_angle_gamma 90.000000
_cell_volume 3265.289584
_symmetry_space_group_name_H-M "A M M 2"
_symmetry_group_IT_number 38
_symmetry_cell_setting 'orthorhombic'
loop_
_space_group_symop_operation_xyz
x,y,z
-x,-y,z
-x,y,z
x,-y,z
x,1/2+y,1/2+z
-x,1/2-y,1/2+z
-x,1/2+y,1/2+z
x,1/2-y,1/2+z
loop_
_atom_site_type_symbol
_atom_site_label
_atom_site_fract_x
_atom_site_fract_y
_atom_site_fract_z
Si Si1 0.775804 0.939903 0.629840
Si Si2 0.895129 0.843329 0.106908
Si Si3 0.107043 0.624095 0.923396
Si Si4 0.393294 0.439115 0.951112
Si Si5 0.389970 0.287345 0.232707
Si Si6 0.103288 0.784880 0.646521
Si Si7 0.773819 0.846529 0.847147
Si Si8 0.608118 0.183300 0.412837
O O1 0.830785 0.925275 0.484543
O O2 0.665992 0.939185 0.595939
O O3 0.800169 0.900048 0.757259
O O4 0.808019 0.000000 0.680208
O O5 0.867295 0.867910 0.259130
O O6 0.892773 0.778005 0.104957
O O7 0.000000 0.862910 0.063709
O O8 0.812696 0.862425 0.002240
O O9 0.000000 0.608515 0.943322
O O10 0.132947 0.680369 0.006817
O O11 0.500000 0.434739 0.996895
O O12 0.376692 0.500000 0.871883
O O13 0.365651 0.380899 0.870372
O O14 0.500000 0.298186 0.249525
O O15 0.335446 0.330345 0.337863
O O16 0.361809 0.225148 0.285803
O O17 0.352652 0.297581 0.069948
O O18 0.170298 0.795060 0.780275
O O19 0.000000 0.801938 0.696044
O O20 0.500000 0.188971 0.432583
#
# Coordination Sequence:
#
# PCOD8179155 Si02
#       8
#     8   8   8   8   8   8   8   8
#     4  10  21  37  56  78 101 133 182 233 272 316
#     4  10  20  34  52  78 109 139 172 215 270 332
#     4   9  19  35  53  74 104 139 174 215 267 327
#     4   9  17  32  55  79 103 137 182 227 264 306
#     4  10  21  35  51  78 116 150 179 219 269 326
#     4   9  18  33  52  77 108 139 172 213 262 322
#     4  11  21  32  54  80 107 143 180 224 271 331
#     4   9  18  34  52  76 110 144 181 224 270 321
#
# _framework density 19.600099
#
# number of rings (size 3 to 8) (size 9 to 14) (size 15 to 20)
#    0.000    2.375    1.250    1.125    1.750    3.750 
#    0.000    0.625    0.000    0.750    0.000    0.875 
#    0.000   11.000    0.000    0.000    0.000    0.000 
#
# Total GULP energy -396417.787117 kJ/mol
# GULP energy per Si atom -12388.055847 kJ/mol
# Density = 1.955549 g / cm^3
# Si number density = 19.600099 Si / 1000 Ang^3
#
#
#
# Elastic Constant Matrix: (Units=GPa)
#
#
# Indices 1 2 3 4 5 6 
#
# 1 67.1789 24.3053 38.3442 0.0000 0.0000 0.0000
# 2 24.3053 120.8939 42.3824 0.0000 0.0000 0.0000
# 3 38.3442 42.3824 77.6521 0.0000 0.0000 0.0000
# 4 0.0000 0.0000 0.0000 9.4289 0.0000 0.0000
# 5 0.0000 0.0000 0.0000 0.0000 20.7948 0.0000
# 6 0.0000 0.0000 0.0000 0.0000 0.0000 18.3009
#
#
#
# Elastic Compliance Matrix: (Units=1/GPa)
#
#
# Indices 1 2 3 4 5 6 
#
# 1 0.020778 -0.000718 -0.009868 0.000000 0.000000 0.000000
# 2 -0.000718 0.010254 -0.005242 0.000000 0.000000 0.000000
# 3 -0.009868 -0.005242 0.020612 0.000000 0.000000 0.000000
# 4 0.000000 0.000000 0.000000 0.106057 0.000000 0.000000
# 5 0.000000 0.000000 0.000000 0.000000 0.048089 0.000000
# 6 0.000000 0.000000 0.000000 0.000000 0.000000 0.054642
#
#
# Mechanical properties :
#
#
# Convention : Reuss Voigt Hill
#
# Bulk Modulus (GPa) = 50.03142 52.86543 51.44842
# Shear Modulus (GPa) = 16.73637 20.41778 18.57707
#
# Velocity S-wave (km/s) = 2.92531 3.23107 3.08198
# Velocity P-wave (km/s) = 6.08206 6.39924 6.24267
#
# Compressibility (1/GPa) = 0.01998744
#
# Stress axis : x y z
#
# Youngs Moduli (GPa) = 48.12806 97.52521 48.51553
#
# Poissons Ratio (x) = 0.07000 0.47876
# Poissons Ratio (y) = 0.03454 0.25432
# Poissons Ratio (z) = 0.47494 0.51123
#
# Static dielectric constant tensor:
#      x y z
#    x 3.757550 0.000000 0.000000 
#    y 0.000000 3.803570 0.000000 
#    z 0.000000 0.000000 3.432630 
# 
# 
# High freq. dielectric constant tensor:
#      x y z
#    x 1.774990 0.000000 0.000000 
#    y 0.000000 1.753300 0.000000 
#    z 0.000000 0.000000 1.727850 
# 
# From -- ./inp_files/5907.got.cif
#   From: 2010.03.12/outbox.cif.g09.slc.cpg/sg38_3_cif.got.tgz:5907.got - 2010.04.14 02:38:36.
