data_PCOD8179889
_publ_section_title
;
Structure prediction by ZEFSAII (Michael W. Deem and Ramdas Pophale) SiO2 
 PCOD8179889
Probable space group: A M M 2
;
_chemical_formula_sum "Si O2"
_cell_formula_units_Z 64
_cell_length_a 14.715666
_cell_length_b 9.496763
_cell_length_c 24.343931
_cell_angle_alpha 90.000000
_cell_angle_beta 90.000000
_cell_angle_gamma 90.000000
_cell_volume 3402.093385
_symmetry_space_group_name_H-M "A M M 2"
_symmetry_group_IT_number 38
_symmetry_cell_setting 'orthorhombic'
loop_
_space_group_symop_operation_xyz
x,y,z
-x,-y,z
-x,y,z
x,-y,z
x,1/2+y,1/2+z
-x,1/2-y,1/2+z
-x,1/2+y,1/2+z
x,1/2-y,1/2+z
loop_
_atom_site_type_symbol
_atom_site_label
_atom_site_fract_x
_atom_site_fract_y
_atom_site_fract_z
Si Si1 0.394213 0.662743 0.362640
Si Si2 0.103088 0.837390 0.085468
Si Si3 0.107960 0.155845 0.484807
Si Si4 0.262096 0.165610 0.290074
Si Si5 0.607412 0.663311 0.086971
Si Si6 0.100381 0.167529 0.364546
Si Si7 0.392102 0.156382 0.984912
Si Si8 0.265640 0.836493 0.163292
O O1 0.500000 0.695283 0.357512
O O2 0.373393 0.500000 0.350221
O O3 0.346913 0.758611 0.317532
O O4 0.358816 0.701590 0.424091
O O5 0.144267 0.756682 0.032813
O O6 0.167238 0.804184 0.137083
O O7 0.000000 0.789185 0.100114
O O8 0.104573 0.000000 0.069653
O O9 0.136062 0.216227 0.424854
O O10 0.000000 0.148985 0.486608
O O11 0.148876 0.000000 0.494588
O O12 0.169462 0.221597 0.318220
O O13 0.257787 0.206086 0.226547
O O14 0.273919 0.000000 0.299069
O O15 0.500000 0.684110 0.094477
O O16 0.634542 0.500000 0.086532
O O17 0.655894 0.741277 0.137201
O O18 0.642493 0.731791 0.029841
O O19 0.000000 0.230037 0.351789
O O20 0.094150 0.000000 0.365126
O O21 0.500000 0.150925 0.983965
O O22 0.355108 0.000000 0.000042
O O23 0.292344 0.000000 0.155707
#
# Coordination Sequence:
#
# PCOD8179889 Si02
#       8
#     8   8   8   8   8   8   8   8
#     4   9  19  36  56  77 104 138 169 201 252 313
#     4   9  18  33  52  74 101 132 167 209 253 298
#     4   8  14  27  49  76 103 130 161 199 250 310
#     4  10  21  35  52  76 102 132 177 223 254 290
#     4  10  21  36  55  79 104 132 169 213 257 301
#     4   8  15  30  52  76 102 131 163 204 254 304
#     4   8  15  31  55  80 105 133 164 200 251 314
#     4  10  22  37  51  72 103 138 176 215 257 304
#
# _framework density 18.811945999999999
#
# number of rings (size 3 to 8) (size 9 to 14) (size 15 to 20)
#    0.000    3.000    0.000    1.875    0.000    4.500 
#    0.000    9.375    0.000    1.125    0.000    1.750 
#    0.000    0.000    0.000    0.000    0.000    0.000 
#
# Total GULP energy -396709.972368 kJ/mol
# GULP energy per Si atom -12397.186636 kJ/mol
# Density = 1.876913 g / cm^3
# Si number density = 18.811946 Si / 1000 Ang^3
#
#
#
# Elastic Constant Matrix: (Units=GPa)
#
#
# Indices 1 2 3 4 5 6 
#
# 1 68.3723 44.6178 63.4642 0.0000 0.0000 0.0000
# 2 44.6178 76.8729 75.0070 0.0000 0.0000 0.0000
# 3 63.4642 75.0070 177.2330 0.0000 0.0000 0.0000
# 4 0.0000 0.0000 0.0000 12.4199 0.0000 0.0000
# 5 0.0000 0.0000 0.0000 0.0000 32.8223 0.0000
# 6 0.0000 0.0000 0.0000 0.0000 0.0000 20.2657
#
#
#
# Elastic Compliance Matrix: (Units=1/GPa)
#
#
# Indices 1 2 3 4 5 6 
#
# 1 0.025868 -0.010179 -0.004955 0.000000 0.000000 0.000000
# 2 -0.010179 0.026164 -0.007428 0.000000 0.000000 0.000000
# 3 -0.004955 -0.007428 0.010560 0.000000 0.000000 0.000000
# 4 0.000000 0.000000 0.000000 0.080516 0.000000 0.000000
# 5 0.000000 0.000000 0.000000 0.000000 0.030467 0.000000
# 6 0.000000 0.000000 0.000000 0.000000 0.000000 0.049344
#
#
# Mechanical properties :
#
#
# Convention : Reuss Voigt Hill
#
# Bulk Modulus (GPa) = 57.24774 76.51736 66.88255
# Shear Modulus (GPa) = 18.25708 22.39420 20.32564
#
# Velocity S-wave (km/s) = 3.11867 3.45400 3.29061
# Velocity P-wave (km/s) = 6.59286 7.52795 7.07587
#
# Compressibility (1/GPa) = 0.01746794
#
# Stress axis : x y z
#
# Youngs Moduli (GPa) = 38.65836 38.21991 94.69577
#
# Poissons Ratio (x) = 0.38905 0.46920
# Poissons Ratio (y) = 0.39352 0.70340
# Poissons Ratio (z) = 0.19154 0.28390
#
# Static dielectric constant tensor:
#      x y z
#    x 3.411140 0.000000 0.000000 
#    y 0.000000 3.435570 0.000000 
#    z 0.000000 0.000000 3.594010 
# 
# 
# High freq. dielectric constant tensor:
#      x y z
#    x 1.724460 0.000000 0.000000 
#    y 0.000000 1.711690 0.000000 
#    z 0.000000 0.000000 1.731140 
# 
# From -- ./inp_files/22939.got.cif
#   From: 2010.03.12/outbox.cif.g09.slc.cpg/sg38_12_cif.got.tgz:22939.got - 2010.04.14 02:38:36.
