data_PCOD8179286
_publ_section_title
;
Structure prediction by ZEFSAII (Michael W. Deem and Ramdas Pophale) SiO2 
 PCOD8179286
Probable space group: A M M 2
;
_chemical_formula_sum "Si O2"
_cell_formula_units_Z 40
_cell_length_a 8.720799
_cell_length_b 25.847407
_cell_length_c 9.129593
_cell_angle_alpha 90.000000
_cell_angle_beta 90.000000
_cell_angle_gamma 90.000000
_cell_volume 2057.901934
_symmetry_space_group_name_H-M "A M M 2"
_symmetry_group_IT_number 38
_symmetry_cell_setting 'orthorhombic'
loop_
_space_group_symop_operation_xyz
x,y,z
-x,-y,z
-x,y,z
x,-y,z
x,1/2+y,1/2+z
-x,1/2-y,1/2+z
-x,1/2+y,1/2+z
x,1/2-y,1/2+z
loop_
_atom_site_type_symbol
_atom_site_label
_atom_site_fract_x
_atom_site_fract_y
_atom_site_fract_z
Si Si1 0.682612 0.389603 0.616850
Si Si2 0.331083 0.000000 0.788128
Si Si3 0.679727 0.705736 0.815225
Si Si4 0.176904 0.293787 0.128988
Si Si5 0.823074 0.604650 0.305746
Si Si6 0.667806 0.000000 0.135701
O O1 0.500000 0.393634 0.602480
O O2 0.733512 0.345216 0.727779
O O3 0.745323 0.376804 0.456220
O O4 0.749628 0.445349 0.677036
O O5 0.244056 0.948189 0.737564
O O6 0.500000 0.000000 0.716141
O O7 0.344701 0.000000 0.961413
O O8 0.500000 0.703954 0.853197
O O9 0.713561 0.755453 0.717152
O O10 0.779943 0.708812 0.959895
O O11 0.205830 0.351626 0.185071
O O12 0.000000 0.277174 0.148867
O O13 0.000000 0.595700 0.339993
O O14 0.500000 0.000000 0.209039
#
# Coordination Sequence:
#
# PCOD8179286 Si02
#       6
#     8   4   8   8   8   4
#     4   9  18  33  55  82 110 142 181 227 275 321
#     4   9  17  31  54  81 110 144 180 222 270 319
#     4  11  23  38  58  83 110 143 188 237 279 329
#     4  11  24  40  57  79 111 149 185 227 283 339
#     4  10  20  34  55  82 111 145 184 224 268 326
#     4   7  12  27  50  75 104 136 170 210 262 319
#
# _framework density 19.437270999999999
#
# number of rings (size 3 to 8) (size 9 to 14) (size 15 to 20)
#    0.000    2.200    0.000    4.500    0.000    8.000 
#    0.000    1.000    0.000    1.200    0.000    0.000 
#    0.000    0.000    0.000    0.000    0.000    0.000 
#
# Total GULP energy -247945.074208 kJ/mol
# GULP energy per Si atom -12397.253710 kJ/mol
# Density = 1.939303 g / cm^3
# Si number density = 19.437271 Si / 1000 Ang^3
#
#
#
# Elastic Constant Matrix: (Units=GPa)
#
#
# Indices 1 2 3 4 5 6 
#
# 1 54.9306 35.6393 17.9137 0.0000 0.0000 0.0000
# 2 35.6393 136.4281 43.4564 0.0000 0.0000 0.0000
# 3 17.9137 43.4564 81.6871 0.0000 0.0000 0.0000
# 4 0.0000 0.0000 0.0000 29.2821 0.0000 0.0000
# 5 0.0000 0.0000 0.0000 0.0000 28.3038 0.0000
# 6 0.0000 0.0000 0.0000 0.0000 0.0000 30.7222
#
#
#
# Elastic Compliance Matrix: (Units=1/GPa)
#
#
# Indices 1 2 3 4 5 6 
#
# 1 0.022229 -0.005122 -0.002150 0.000000 0.000000 0.000000
# 2 -0.005122 0.010006 -0.004200 0.000000 0.000000 0.000000
# 3 -0.002150 -0.004200 0.014947 0.000000 0.000000 0.000000
# 4 0.000000 0.000000 0.000000 0.034151 0.000000 0.000000
# 5 0.000000 0.000000 0.000000 0.000000 0.035331 0.000000
# 6 0.000000 0.000000 0.000000 0.000000 0.000000 0.032550
#
#
# Mechanical properties :
#
#
# Convention : Reuss Voigt Hill
#
# Bulk Modulus (GPa) = 41.25581 51.89607 46.57594
# Shear Modulus (GPa) = 27.74134 29.39738 28.56936
#
# Velocity S-wave (km/s) = 3.78196 3.89321 3.83799
# Velocity P-wave (km/s) = 6.35155 6.85322 6.60715
#
# Compressibility (1/GPa) = 0.02423901
#
# Stress axis : x y z
#
# Youngs Moduli (GPa) = 44.98588 99.94368 66.90118
#
# Poissons Ratio (x) = 0.51193 0.14383
# Poissons Ratio (y) = 0.23043 0.28096
# Poissons Ratio (z) = 0.09671 0.41972
#
# Static dielectric constant tensor:
#      x y z
#    x 3.524550 0.000000 0.000000 
#    y 0.000000 4.106840 0.000000 
#    z 0.000000 0.000000 3.221120 
# 
# 
# High freq. dielectric constant tensor:
#      x y z
#    x 1.751810 0.000000 0.000000 
#    y 0.000000 1.781710 0.000000 
#    z 0.000000 0.000000 1.726860 
# 
# From -- ./inp_files/3483.got.cif
#   From: 2010.03.12/outbox.cif.g09.slc.cpg/sg38_2_cif.got.tgz:3483.got - 2010.04.14 02:38:36.
