data_PCOD8179462
_publ_section_title
;
Structure prediction by ZEFSAII (Michael W. Deem and Ramdas Pophale) SiO2 
 PCOD8179462
Probable space group: A M M 2
;
_chemical_formula_sum "Si O2"
_cell_formula_units_Z 48
_cell_length_a 9.435335
_cell_length_b 7.849912
_cell_length_c 33.597448
_cell_angle_alpha 90.000000
_cell_angle_beta 90.000000
_cell_angle_gamma 90.000000
_cell_volume 2488.447043
_symmetry_space_group_name_H-M "A M M 2"
_symmetry_group_IT_number 38
_symmetry_cell_setting 'orthorhombic'
loop_
_space_group_symop_operation_xyz
x,y,z
-x,-y,z
-x,y,z
x,-y,z
x,1/2+y,1/2+z
-x,1/2-y,1/2+z
-x,1/2+y,1/2+z
x,1/2-y,1/2+z
loop_
_atom_site_type_symbol
_atom_site_label
_atom_site_fract_x
_atom_site_fract_y
_atom_site_fract_z
Si Si1 0.332295 0.500000 0.667400
Si Si2 0.164033 0.000000 0.248309
Si Si3 0.662461 0.689613 0.113183
Si Si4 0.661156 0.699607 0.384509
Si Si5 0.161908 0.693214 0.542347
Si Si6 0.163749 0.195443 0.807079
Si Si7 0.842431 0.805361 0.457852
O O1 0.500000 0.500000 0.673973
O O2 0.259405 0.500000 0.709736
O O3 0.280787 0.669515 0.644165
O O4 0.201193 0.172628 0.272209
O O5 0.000000 0.000000 0.235954
O O6 0.500000 0.729987 0.102976
O O7 0.680096 0.500000 0.131809
O O8 0.746243 0.692372 0.071786
O O9 0.500000 0.765049 0.381180
O O10 0.668106 0.500000 0.391444
O O11 0.742379 0.751255 0.344499
O O12 0.734911 0.787214 0.421725
O O13 0.177640 0.500000 0.556728
O O14 0.215573 0.707135 0.496759
O O15 0.000000 0.756676 0.544492
O O16 0.000000 0.213185 0.819657
O O17 0.197368 0.000000 0.793681
O O18 0.000000 0.737280 0.445818
O O19 0.851837 0.000000 0.470419
#
# Coordination Sequence:
#
# PCOD8179462 Si02
#       7
#     4   4   8   8   8   8   8
#     4  10  22  40  58  84 118 150 186 232 288 346
#     4  10  22  38  60  88 114 144 190 236 282 344
#     4  10  21  38  60  84 113 152 192 231 281 341
#     4  10  21  36  54  79 110 145 188 235 283 335
#     4  10  20  35  57  83 111 146 191 239 287 337
#     4   9  19  37  59  82 112 149 186 231 285 339
#     4  10  21  35  52  77 110 148 190 235 283 336
#
# _framework density 19.289137
#
# number of rings (size 3 to 8) (size 9 to 14) (size 15 to 20)
#    0.000    2.167    0.833    1.500    1.167    5.667 
#    0.000    0.000    0.000    0.000    0.000    0.000 
#    0.000    0.000    0.000    0.000    0.000    0.000 
#
# Total GULP energy -297620.776532 kJ/mol
# GULP energy per Si atom -12400.865689 kJ/mol
# Density = 1.924523 g / cm^3
# Si number density = 19.289137 Si / 1000 Ang^3
#
#
#
# Elastic Constant Matrix: (Units=GPa)
#
#
# Indices 1 2 3 4 5 6 
#
# 1 83.1358 38.9917 68.3875 0.0000 0.0000 0.0000
# 2 38.9917 101.6842 59.0939 0.0000 0.0000 0.0000
# 3 68.3875 59.0939 135.8178 0.0000 0.0000 0.0000
# 4 0.0000 0.0000 0.0000 26.0176 0.0000 0.0000
# 5 0.0000 0.0000 0.0000 0.0000 386.9952 0.0000
# 6 0.0000 0.0000 0.0000 0.0000 0.0000 20.8090
#
#
#
# Elastic Compliance Matrix: (Units=1/GPa)
#
#
# Indices 1 2 3 4 5 6 
#
# 1 0.021018 -0.002555 -0.009471 0.000000 0.000000 0.000000
# 2 -0.002555 0.013473 -0.004576 0.000000 0.000000 0.000000
# 3 -0.009471 -0.004576 0.014123 0.000000 0.000000 0.000000
# 4 0.000000 0.000000 0.000000 0.038436 0.000000 0.000000
# 5 0.000000 0.000000 0.000000 0.000000 0.002584 0.000000
# 6 0.000000 0.000000 0.000000 0.000000 0.000000 0.048056
#
#
# Mechanical properties :
#
#
# Convention : Reuss Voigt Hill
#
# Bulk Modulus (GPa) = 64.89410 72.62044 68.75727
# Shear Modulus (GPa) = 28.40418 97.04202 62.72310
#
# Velocity S-wave (km/s) = 3.84154 7.10059 5.70858
# Velocity P-wave (km/s) = 7.30701 10.24473 8.89795
#
# Compressibility (1/GPa) = 0.01540972
#
# Stress axis : x y z
#
# Youngs Moduli (GPa) = 47.57816 74.22085 70.80844
#
# Poissons Ratio (x) = 0.18966 0.67065
# Poissons Ratio (y) = 0.12158 0.32399
# Poissons Ratio (z) = 0.45063 0.33960
#
# Static dielectric constant tensor:
#      x y z
#    x 3.060690 0.000000 0.000000 
#    y 0.000000 3.717740 0.000000 
#    z 0.000000 0.000000 3.300160 
# 
# 
# High freq. dielectric constant tensor:
#      x y z
#    x 1.743810 0.000000 0.000000 
#    y 0.000000 1.763270 0.000000 
#    z 0.000000 0.000000 1.739340 
# 
# From -- ./inp_files/24327.got.cif
#   From: 2010.03.12/outbox.cif.g09.slc.cpg/sg38_13_cif.got.tgz:24327.got - 2010.04.14 02:38:36.
