data_PCOD8179571
_publ_section_title
;
Structure prediction by ZEFSAII (Michael W. Deem and Ramdas Pophale) SiO2 
 PCOD8179571
Probable space group: A M M 2
;
_chemical_formula_sum "Si O2"
_cell_formula_units_Z 64
_cell_length_a 19.516583
_cell_length_b 9.042444
_cell_length_c 20.028561
_cell_angle_alpha 90.000000
_cell_angle_beta 90.000000
_cell_angle_gamma 90.000000
_cell_volume 3534.592554
_symmetry_space_group_name_H-M "A M M 2"
_symmetry_group_IT_number 38
_symmetry_cell_setting 'orthorhombic'
loop_
_space_group_symop_operation_xyz
x,y,z
-x,-y,z
-x,y,z
x,-y,z
x,1/2+y,1/2+z
-x,1/2-y,1/2+z
-x,1/2+y,1/2+z
x,1/2-y,1/2+z
loop_
_atom_site_type_symbol
_atom_site_label
_atom_site_fract_x
_atom_site_fract_y
_atom_site_fract_z
Si Si1 0.292569 0.671642 0.114880
Si Si2 0.146872 0.329253 0.068332
Si Si3 0.425392 0.827354 0.118388
Si Si4 0.720160 0.170154 0.769236
Si Si5 0.078473 0.168435 0.708212
Si Si6 0.572982 0.167961 0.755870
Si Si7 0.847903 0.325355 0.825259
Si Si8 0.920525 0.326069 0.447287
O O1 0.308095 0.500000 0.113538
O O2 0.227638 0.710520 0.068209
O O3 0.359962 0.750123 0.083518
O O4 0.278172 0.719887 0.191559
O O5 0.134083 0.500000 0.048151
O O6 0.121468 0.298319 0.142707
O O7 0.105539 0.222341 0.019826
O O8 0.500000 0.786011 0.085853
O O9 0.427182 0.780759 0.195219
O O10 0.412774 0.000000 0.113818
O O11 0.642496 0.194969 0.798602
O O12 0.770786 0.270330 0.812269
O O13 0.743841 0.000000 0.776005
O O14 0.102082 0.277607 0.765988
O O15 0.000000 0.199668 0.691424
O O16 0.090001 0.000000 0.732620
O O17 0.500000 0.187630 0.795844
O O18 0.577653 0.000000 0.727385
O O19 0.847543 0.500000 0.831799
O O20 0.874967 0.258445 0.893799
O O21 0.910208 0.500000 0.438694
O O22 0.000000 0.282158 0.438908
#
# Coordination Sequence:
#
# PCOD8179571 Si02
#       8
#     8   8   8   8   8   8   8   8
#     4   9  17  30  50  74 103 139 175 212 257 313
#     4  10  20  37  59  82 107 137 174 216 266 320
#     4   9  16  24  37  63 101 140 175 214 258 300
#     4   9  16  30  50  73 105 140 175 215 261 313
#     4  10  20  36  58  80 105 137 170 210 265 322
#     4   8  14  25  42  65  96 136 176 211 253 308
#     4  12  24  36  54  79 107 140 179 222 264 311
#     4  11  25  43  60  78 104 138 176 220 270 323
#
# _framework density 18.106755
#
# number of rings (size 3 to 8) (size 9 to 14) (size 15 to 20)
#    0.000    2.250    1.250    3.375    0.000    7.000 
#    0.000    0.000    0.000    0.000    0.000    0.875 
#    0.000    5.000    0.000    0.000    0.000    0.000 
#
# Total GULP energy -396580.601259 kJ/mol
# GULP energy per Si atom -12393.143789 kJ/mol
# Density = 1.806554 g / cm^3
# Si number density = 18.106755 Si / 1000 Ang^3
#
#
#
# Elastic Constant Matrix: (Units=GPa)
#
#
# Indices 1 2 3 4 5 6 
#
# 1 127.1150 44.0297 14.1233 0.0000 0.0000 0.0000
# 2 44.0297 72.0191 20.6732 0.0000 0.0000 0.0000
# 3 14.1233 20.6732 29.4995 0.0000 0.0000 0.0000
# 4 0.0000 0.0000 0.0000 23.2800 0.0000 0.0000
# 5 0.0000 0.0000 0.0000 0.0000 17.8600 0.0000
# 6 0.0000 0.0000 0.0000 0.0000 0.0000 29.1061
#
#
#
# Elastic Compliance Matrix: (Units=1/GPa)
#
#
# Indices 1 2 3 4 5 6 
#
# 1 0.009990 -0.005927 -0.000629 0.000000 0.000000 0.000000
# 2 -0.005927 0.020898 -0.011808 0.000000 0.000000 0.000000
# 3 -0.000629 -0.011808 0.042475 0.000000 0.000000 0.000000
# 4 0.000000 0.000000 0.000000 0.042955 0.000000 0.000000
# 5 0.000000 0.000000 0.000000 0.000000 0.055991 0.000000
# 6 0.000000 0.000000 0.000000 0.000000 0.000000 0.034357
#
#
# Mechanical properties :
#
#
# Convention : Reuss Voigt Hill
#
# Bulk Modulus (GPa) = 27.29618 42.92069 35.10844
# Shear Modulus (GPa) = 19.56142 24.03640 21.79891
#
# Velocity S-wave (km/s) = 3.29042 3.64742 3.47351
# Velocity P-wave (km/s) = 5.43541 6.44158 5.95976
#
# Compressibility (1/GPa) = 0.03663516
#
# Stress axis : x y z
#
# Youngs Moduli (GPa) = 100.10338 47.85150 23.54323
#
# Poissons Ratio (x) = 0.28360 0.01482
# Poissons Ratio (y) = 0.59328 0.27799
# Poissons Ratio (z) = 0.06300 0.56502
#
# Static dielectric constant tensor:
#      x y z
#    x 3.992210 0.000000 0.000000 
#    y 0.000000 3.297210 0.000000 
#    z 0.000000 0.000000 2.881400 
# 
# 
# High freq. dielectric constant tensor:
#      x y z
#    x 1.733900 0.000000 0.000000 
#    y 0.000000 1.697820 0.000000 
#    z 0.000000 0.000000 1.641130 
# 
# From -- ./inp_files/18907.got.cif
#   From: 2010.03.12/outbox.cif.g09.slc.cpg/sg38_10_cif.got.tgz:18907.got - 2010.04.14 02:38:36.
