data_PCOD8179095
_publ_section_title
;
Structure prediction by ZEFSAII (Michael W. Deem and Ramdas Pophale) SiO2 
 PCOD8179095
Probable space group: A M M 2
;
_chemical_formula_sum "Si O2"
_cell_formula_units_Z 64
_cell_length_a 18.961813
_cell_length_b 9.002895
_cell_length_c 20.614833
_cell_angle_alpha 90.000000
_cell_angle_beta 90.000000
_cell_angle_gamma 90.000000
_cell_volume 3519.183115
_symmetry_space_group_name_H-M "A M M 2"
_symmetry_group_IT_number 38
_symmetry_cell_setting 'orthorhombic'
loop_
_space_group_symop_operation_xyz
x,y,z
-x,-y,z
-x,y,z
x,-y,z
x,1/2+y,1/2+z
-x,1/2-y,1/2+z
-x,1/2+y,1/2+z
x,1/2-y,1/2+z
loop_
_atom_site_type_symbol
_atom_site_label
_atom_site_fract_x
_atom_site_fract_y
_atom_site_fract_z
Si Si1 0.788532 0.675857 0.416810
Si Si2 0.291192 0.672450 0.799659
Si Si3 0.797968 0.172395 0.171535
Si Si4 0.919820 0.670938 0.233710
Si Si5 0.288378 0.825132 0.047409
Si Si6 0.080104 0.173897 0.369571
Si Si7 0.419449 0.328227 0.245240
Si Si8 0.421021 0.825663 0.596846
O O1 0.795057 0.500000 0.412308
O O2 0.746058 0.735710 0.355696
O O3 0.748954 0.727226 0.481683
O O4 0.867125 0.745205 0.419112
O O5 0.291125 0.500000 0.818397
O O6 0.251163 0.704053 0.732882
O O7 0.371198 0.728787 0.791970
O O8 0.869843 0.266535 0.177221
O O9 0.758230 0.231174 0.107779
O O10 0.817852 0.000000 0.165160
O O11 0.902110 0.500000 0.248995
O O12 0.905340 0.765687 0.297894
O O13 0.000000 0.689641 0.209797
O O14 0.366057 0.755140 0.049931
O O15 0.297901 0.000000 0.050314
O O16 0.000000 0.207326 0.391645
O O17 0.096577 0.000000 0.368446
O O18 0.500000 0.304201 0.267134
O O19 0.397815 0.500000 0.252471
O O20 0.409383 0.275411 0.171113
O O21 0.500000 0.781534 0.574628
O O22 0.409812 0.000000 0.590780
#
# Coordination Sequence:
#
# PCOD8179095 Si02
#       8
#     8   8   8   8   8   8   8   8
#     4  11  23  38  57  80 111 148 186 226 270 326
#     4  11  21  34  56  83 111 141 179 228 275 323
#     4  10  20  35  55  80 110 141 179 225 272 323
#     4  10  20  33  53  83 113 142 181 226 272 324
#     4  10  22  39  56  80 111 146 186 225 269 323
#     4  10  20  35  56  81 109 142 181 225 274 326
#     4   9  18  33  54  82 114 145 181 226 276 328
#     4   9  18  33  55  83 111 141 179 223 272 325
#
# _framework density 18.186039999999998
#
# number of rings (size 3 to 8) (size 9 to 14) (size 15 to 20)
#    0.000    2.000    2.500    2.250    0.000    4.000 
#    0.000    2.500    0.000    4.500    0.000    0.000 
#    0.000    0.000    0.000    0.000    0.000    0.000 
#
# Total GULP energy -396893.516220 kJ/mol
# GULP energy per Si atom -12402.922382 kJ/mol
# Density = 1.814465 g / cm^3
# Si number density = 18.186040 Si / 1000 Ang^3
#
#
#
# Elastic Constant Matrix: (Units=GPa)
#
#
# Indices 1 2 3 4 5 6 
#
# 1 140.8118 57.3488 56.4735 0.0000 0.0000 0.0000
# 2 57.3488 70.9730 40.2830 0.0000 0.0000 0.0000
# 3 56.4735 40.2830 87.8967 0.0000 0.0000 0.0000
# 4 0.0000 0.0000 0.0000 24.3371 0.0000 0.0000
# 5 0.0000 0.0000 0.0000 0.0000 29.3026 0.0000
# 6 0.0000 0.0000 0.0000 0.0000 0.0000 38.2071
#
#
#
# Elastic Compliance Matrix: (Units=1/GPa)
#
#
# Indices 1 2 3 4 5 6 
#
# 1 0.011673 -0.006995 -0.004294 0.000000 0.000000 0.000000
# 2 -0.006995 0.023235 -0.006155 0.000000 0.000000 0.000000
# 3 -0.004294 -0.006155 0.016956 0.000000 0.000000 0.000000
# 4 0.000000 0.000000 0.000000 0.041089 0.000000 0.000000
# 5 0.000000 0.000000 0.000000 0.000000 0.034127 0.000000
# 6 0.000000 0.000000 0.000000 0.000000 0.000000 0.026173
#
#
# Mechanical properties :
#
#
# Convention : Reuss Voigt Hill
#
# Bulk Modulus (GPa) = 58.90065 67.54356 63.22210
# Shear Modulus (GPa) = 25.79996 28.07445 26.93720
#
# Velocity S-wave (km/s) = 3.77061 3.93330 3.85281
# Velocity P-wave (km/s) = 7.17041 7.60584 7.39133
#
# Compressibility (1/GPa) = 0.01697774
#
# Stress axis : x y z
#
# Youngs Moduli (GPa) = 85.67125 43.03850 58.97466
#
# Poissons Ratio (x) = 0.30104 0.25323
# Poissons Ratio (y) = 0.59924 0.36296
# Poissons Ratio (z) = 0.36787 0.26488
#
# Static dielectric constant tensor:
#      x y z
#    x 3.554460 0.000000 0.000000 
#    y 0.000000 3.317070 0.000000 
#    z 0.000000 0.000000 3.171990 
# 
# 
# High freq. dielectric constant tensor:
#      x y z
#    x 1.719350 0.000000 0.000000 
#    y 0.000000 1.708830 0.000000 
#    z 0.000000 0.000000 1.674180 
# 
# From -- ./inp_files/21337.got.cif
#   From: 2010.03.12/outbox.cif.g09.slc.cpg/sg38_11_cif.got.tgz:21337.got - 2010.04.14 02:38:36.
