data_PCOD8179949
_publ_section_title
;
Structure prediction by ZEFSAII (Michael W. Deem and Ramdas Pophale) SiO2 
 PCOD8179949
Probable space group: A M M 2
;
_chemical_formula_sum "Si O2"
_cell_formula_units_Z 56
_cell_length_a 9.685080
_cell_length_b 23.563468
_cell_length_c 13.648844
_cell_angle_alpha 90.000000
_cell_angle_beta 90.000000
_cell_angle_gamma 90.000000
_cell_volume 3114.858276
_symmetry_space_group_name_H-M "A M M 2"
_symmetry_group_IT_number 38
_symmetry_cell_setting 'orthorhombic'
loop_
_space_group_symop_operation_xyz
x,y,z
-x,-y,z
-x,y,z
x,-y,z
x,1/2+y,1/2+z
-x,1/2-y,1/2+z
-x,1/2+y,1/2+z
x,1/2-y,1/2+z
loop_
_atom_site_type_symbol
_atom_site_label
_atom_site_fract_x
_atom_site_fract_y
_atom_site_fract_z
Si Si1 0.657767 0.156909 0.697340
Si Si2 0.836375 0.437510 0.731593
Si Si3 0.160135 0.934091 0.011667
Si Si4 0.158624 0.564882 0.105432
Si Si5 0.339724 0.774983 0.509372
Si Si6 0.658206 0.658330 0.418910
Si Si7 0.840305 0.633411 0.912208
O O1 0.500000 0.138056 0.681130
O O2 0.750856 0.101758 0.679602
O O3 0.695894 0.207537 0.621378
O O4 0.682685 0.179214 0.807253
O O5 0.773948 0.500000 0.753552
O O6 0.794323 0.418404 0.622393
O O7 0.781900 0.392400 0.810702
O O8 0.000000 0.441907 0.739581
O O9 0.000000 0.920119 0.994890
O O10 0.189603 0.000000 0.989624
O O11 0.248666 0.896372 0.938084
O O12 0.207649 0.500000 0.111997
O O13 0.000000 0.571338 0.137694
O O14 0.179894 0.585565 0.994548
O O15 0.500000 0.785336 0.484381
O O16 0.300571 0.709334 0.492235
O O17 0.249768 0.811584 0.434403
O O18 0.500000 0.640301 0.435037
O O19 0.000000 0.651907 0.904086
#
# Coordination Sequence:
#
# PCOD8179949 Si02
#       7
#     8   8   8   8   8   8   8
#     4   9  19  35  51  69  96 128 161 197 240 290
#     4   8  14  27  48  73 101 131 160 193 239 291
#     4   9  19  35  53  74 100 128 159 197 240 285
#     4   9  17  29  47  73 102 130 162 200 239 279
#     4   9  19  35  51  69  97 129 160 198 242 286
#     4  10  21  36  54  73  94 126 163 197 239 289
#     4   9  16  28  49  75 100 128 163 200 237 281
#
# _framework density 17.978345999999998
#
# number of rings (size 3 to 8) (size 9 to 14) (size 15 to 20)
#    0.000    3.000    0.000    1.286    0.000    5.143 
#    0.000    5.000    0.000    2.143    0.000    0.000 
#    0.000    0.000    0.000    0.000    0.000    0.000 
#
# Total GULP energy -347157.629416 kJ/mol
# GULP energy per Si atom -12398.486765 kJ/mol
# Density = 1.793743 g / cm^3
# Si number density = 17.978346 Si / 1000 Ang^3
#
#
#
# Elastic Constant Matrix: (Units=GPa)
#
#
# Indices 1 2 3 4 5 6 
#
# 1 56.5144 52.6196 38.0515 0.0000 0.0000 0.0000
# 2 52.6196 107.5151 53.3423 0.0000 0.0000 0.0000
# 3 38.0515 53.3423 94.3878 0.0000 0.0000 0.0000
# 4 0.0000 0.0000 0.0000 26.0670 0.0000 0.0000
# 5 0.0000 0.0000 0.0000 0.0000 23.0682 0.0000
# 6 0.0000 0.0000 0.0000 0.0000 0.0000 29.9921
#
#
#
# Elastic Compliance Matrix: (Units=1/GPa)
#
#
# Indices 1 2 3 4 5 6 
#
# 1 0.034891 -0.014032 -0.006136 0.000000 0.000000 0.000000
# 2 -0.014032 0.018568 -0.004837 0.000000 0.000000 0.000000
# 3 -0.006136 -0.004837 0.015802 0.000000 0.000000 0.000000
# 4 0.000000 0.000000 0.000000 0.038363 0.000000 0.000000
# 5 0.000000 0.000000 0.000000 0.000000 0.043350 0.000000
# 6 0.000000 0.000000 0.000000 0.000000 0.000000 0.033342
#
#
# Mechanical properties :
#
#
# Convention : Reuss Voigt Hill
#
# Bulk Modulus (GPa) = 51.94404 60.71602 56.33003
# Shear Modulus (GPa) = 20.76918 23.45238 22.11078
#
# Velocity S-wave (km/s) = 3.40256 3.61568 3.51074
# Velocity P-wave (km/s) = 6.66272 7.16072 6.91620
#
# Compressibility (1/GPa) = 0.01925149
#
# Stress axis : x y z
#
# Youngs Moduli (GPa) = 28.66090 53.85563 63.28433
#
# Poissons Ratio (x) = 0.75569 0.38831
# Poissons Ratio (y) = 0.40217 0.30610
# Poissons Ratio (z) = 0.17586 0.26049
#
# Static dielectric constant tensor:
#      x y z
#    x 3.171990 0.000000 0.000000 
#    y 0.000000 3.223150 0.000000 
#    z 0.000000 0.000000 3.412600 
# 
# 
# High freq. dielectric constant tensor:
#      x y z
#    x 1.677680 0.000000 0.000000 
#    y 0.000000 1.687610 0.000000 
#    z 0.000000 0.000000 1.698440 
# 
# From -- ./inp_files/9378.got.cif
#   From: 2010.03.12/outbox.cif.g09.slc.cpg/sg38_5_cif.got.tgz:9378.got - 2010.04.14 02:38:36.
