data_PCOD8179505
_publ_section_title
;
Structure prediction by ZEFSAII (Michael W. Deem and Ramdas Pophale) SiO2 
 PCOD8179505
Probable space group: A M M 2
;
_chemical_formula_sum "Si O2"
_cell_formula_units_Z 40
_cell_length_a 11.346199
_cell_length_b 9.005873
_cell_length_c 19.914645
_cell_angle_alpha 90.000000
_cell_angle_beta 90.000000
_cell_angle_gamma 90.000000
_cell_volume 2034.926763
_symmetry_space_group_name_H-M "A M M 2"
_symmetry_group_IT_number 38
_symmetry_cell_setting 'orthorhombic'
loop_
_space_group_symop_operation_xyz
x,y,z
-x,-y,z
-x,y,z
x,-y,z
x,1/2+y,1/2+z
-x,1/2-y,1/2+z
-x,1/2+y,1/2+z
x,1/2-y,1/2+z
loop_
_atom_site_type_symbol
_atom_site_label
_atom_site_fract_x
_atom_site_fract_y
_atom_site_fract_z
Si Si1 0.500000 0.671179 0.687110
Si Si2 0.865559 0.832061 0.093654
Si Si3 0.249074 0.171416 0.232761
Si Si4 0.742911 0.674694 0.978220
Si Si5 0.864569 0.824856 0.855796
Si Si6 0.500000 0.824476 0.543657
O O1 0.500000 0.500000 0.664505
O O2 0.388354 0.706535 0.734672
O O3 0.500000 0.762976 0.618707
O O4 0.788476 0.788833 0.157453
O O5 0.838483 0.720096 0.033613
O O6 0.000000 0.814526 0.115191
O O7 0.838081 0.000000 0.069536
O O8 0.177264 0.276235 0.282328
O O9 0.221335 0.000000 0.250384
O O10 0.745665 0.500000 0.967163
O O11 0.614345 0.730278 0.002354
O O12 0.776549 0.750042 0.908374
O O13 0.000000 0.774344 0.867532
O O14 0.853632 0.000000 0.862428
O O15 0.500000 0.000000 0.550550
#
# Coordination Sequence:
#
# PCOD8179505 Si02
#       6
#     4   8   8   8   8   4
#     4  10  20  37  64  93 121 155 197 243 292 353
#     4  10  20  35  58  88 119 153 197 246 295 352
#     4  10  21  38  62  90 120 157 197 242 297 354
#     4  11  23  39  61  87 118 158 199 245 299 353
#     4  11  25  43  61  85 120 160 202 249 299 354
#     4  10  22  39  60  89 123 155 195 247 296 351
#
# _framework density 19.656727
#
# number of rings (size 3 to 8) (size 9 to 14) (size 15 to 20)
#    0.000    1.600    2.000    2.400    0.000    8.400 
#    0.000    4.000    0.000    0.000    0.000    0.000 
#    0.000    0.000    0.000    0.000    0.000    0.000 
#
# Total GULP energy -248078.856434 kJ/mol
# GULP energy per Si atom -12403.942822 kJ/mol
# Density = 1.961199 g / cm^3
# Si number density = 19.656727 Si / 1000 Ang^3
#
#
#
# Elastic Constant Matrix: (Units=GPa)
#
#
# Indices 1 2 3 4 5 6 
#
# 1 95.5939 31.4337 25.0771 0.0000 0.0000 0.0000
# 2 31.4337 55.3575 31.7836 0.0000 0.0000 0.0000
# 3 25.0771 31.7836 69.6043 0.0000 0.0000 0.0000
# 4 0.0000 0.0000 0.0000 40.7254 0.0000 0.0000
# 5 0.0000 0.0000 0.0000 0.0000 34.5927 0.0000
# 6 0.0000 0.0000 0.0000 0.0000 0.0000 28.6691
#
#
#
# Elastic Compliance Matrix: (Units=1/GPa)
#
#
# Indices 1 2 3 4 5 6 
#
# 1 0.013024 -0.006372 -0.001783 0.000000 0.000000 0.000000
# 2 -0.006372 0.027601 -0.010308 0.000000 0.000000 0.000000
# 3 -0.001783 -0.010308 0.019716 0.000000 0.000000 0.000000
# 4 0.000000 0.000000 0.000000 0.024555 0.000000 0.000000
# 5 0.000000 0.000000 0.000000 0.000000 0.028908 0.000000
# 6 0.000000 0.000000 0.000000 0.000000 0.000000 0.034881
#
#
# Mechanical properties :
#
#
# Convention : Reuss Voigt Hill
#
# Bulk Modulus (GPa) = 42.70557 44.12715 43.41636
# Shear Modulus (GPa) = 25.85134 29.61485 27.73309
#
# Velocity S-wave (km/s) = 3.63042 3.88571 3.76023
# Velocity P-wave (km/s) = 6.27265 6.52911 6.40216
#
# Compressibility (1/GPa) = 0.02341615
#
# Stress axis : x y z
#
# Youngs Moduli (GPa) = 76.78274 36.23097 50.72010
#
# Poissons Ratio (x) = 0.23086 0.09042
# Poissons Ratio (y) = 0.48924 0.52281
# Poissons Ratio (z) = 0.13688 0.37346
#
# Static dielectric constant tensor:
#      x y z
#    x 3.892960 0.000000 0.000000 
#    y 0.000000 3.522970 0.000000 
#    z 0.000000 0.000000 3.432630 
# 
# 
# High freq. dielectric constant tensor:
#      x y z
#    x 1.783580 0.000000 0.000000 
#    y 0.000000 1.759970 0.000000 
#    z 0.000000 0.000000 1.763830 
# 
# From -- ./inp_files/20483.got.cif
#   From: 2010.03.12/outbox.cif.g09.slc.cpg/sg38_11_cif.got.tgz:20483.got - 2010.04.14 02:38:36.
