data_PCOD8179248
_publ_section_title
;
Structure prediction by ZEFSAII (Michael W. Deem and Ramdas Pophale) SiO2 
 PCOD8179248
Probable space group: A M M 2
;
_chemical_formula_sum "Si O2"
_cell_formula_units_Z 64
_cell_length_a 9.120368
_cell_length_b 15.436393
_cell_length_c 22.975191
_cell_angle_alpha 90.000000
_cell_angle_beta 90.000000
_cell_angle_gamma 90.000000
_cell_volume 3234.575700
_symmetry_space_group_name_H-M "A M M 2"
_symmetry_group_IT_number 38
_symmetry_cell_setting 'orthorhombic'
loop_
_space_group_symop_operation_xyz
x,y,z
-x,-y,z
-x,y,z
x,-y,z
x,1/2+y,1/2+z
-x,1/2-y,1/2+z
-x,1/2+y,1/2+z
x,1/2-y,1/2+z
loop_
_atom_site_type_symbol
_atom_site_label
_atom_site_fract_x
_atom_site_fract_y
_atom_site_fract_z
Si Si1 0.832979 0.829629 0.739600
Si Si2 0.673571 0.402483 0.914011
Si Si3 0.331707 0.256224 0.134342
Si Si4 0.172941 0.899219 0.949347
Si Si5 0.659848 0.098242 0.836951
Si Si6 0.164733 0.646146 0.798492
Si Si7 0.330569 0.744333 0.002394
Si Si8 0.833109 0.904292 0.173127
O O1 0.764827 0.817178 0.675813
O O2 0.739918 0.900290 0.774547
O O3 0.818838 0.745297 0.779679
O O4 0.000000 0.860267 0.732027
O O5 0.500000 0.401016 0.913686
O O6 0.729316 0.500000 0.929468
O O7 0.725801 0.375983 0.850047
O O8 0.731909 0.332802 0.961378
O O9 0.500000 0.260280 0.154585
O O10 0.313088 0.288921 0.068474
O O11 0.277011 0.157226 0.138628
O O12 0.238026 0.864076 0.888134
O O13 0.000000 0.887010 0.946897
O O14 0.212243 0.000000 0.963304
O O15 0.240242 0.834132 0.996987
O O16 0.500000 0.145802 0.835194
O O17 0.631836 0.000000 0.853167
O O18 0.205642 0.589990 0.741647
O O19 0.000000 0.625561 0.819725
O O20 0.500000 0.764793 0.988000
O O21 0.000000 0.868262 0.166771
O O22 0.819069 0.000000 0.145905
#
# Coordination Sequence:
#
# PCOD8179248 Si02
#       8
#     8   8   8   8   8   8   8   8
#     4  10  20  35  55  78 106 140 175 215 267 324
#     4  10  21  36  54  77 104 136 176 221 267 314
#     4  10  21  36  53  74 101 136 181 227 269 317
#     4  10  21  36  56  84 115 146 181 222 271 329
#     4  10  20  34  54  81 111 140 172 215 268 325
#     4   9  18  32  51  77 106 134 164 202 254 315
#     4  10  22  39  56  75 105 146 187 228 275 325
#     4   9  18  33  52  75 106 140 169 204 259 324
#
# _framework density 19.786213
#
# number of rings (size 3 to 8) (size 9 to 14) (size 15 to 20)
#    0.000    2.250    0.000    3.375    0.000    9.000 
#    0.000    3.125    0.000    2.250    0.000    0.000 
#    0.000    0.000    0.000    0.000    0.000    0.000 
#
# Total GULP energy -396716.711624 kJ/mol
# GULP energy per Si atom -12397.397238 kJ/mol
# Density = 1.974118 g / cm^3
# Si number density = 19.786213 Si / 1000 Ang^3
#
#
#
# Elastic Constant Matrix: (Units=GPa)
#
#
# Indices 1 2 3 4 5 6 
#
# 1 96.0627 23.4033 37.5237 0.0000 0.0000 0.0000
# 2 23.4033 52.8648 25.1297 0.0000 0.0000 0.0000
# 3 37.5237 25.1297 86.7032 0.0000 0.0000 0.0000
# 4 0.0000 0.0000 0.0000 16.2563 0.0000 0.0000
# 5 0.0000 0.0000 0.0000 0.0000 23.3813 0.0000
# 6 0.0000 0.0000 0.0000 0.0000 0.0000 25.4689
#
#
#
# Elastic Compliance Matrix: (Units=1/GPa)
#
#
# Indices 1 2 3 4 5 6 
#
# 1 0.013092 -0.003598 -0.004623 0.000000 0.000000 0.000000
# 2 -0.003598 0.022928 -0.005088 0.000000 0.000000 0.000000
# 3 -0.004623 -0.005088 0.015009 0.000000 0.000000 0.000000
# 4 0.000000 0.000000 0.000000 0.061515 0.000000 0.000000
# 5 0.000000 0.000000 0.000000 0.000000 0.042769 0.000000
# 6 0.000000 0.000000 0.000000 0.000000 0.000000 0.039264
#
#
# Mechanical properties :
#
#
# Convention : Reuss Voigt Hill
#
# Bulk Modulus (GPa) = 40.96651 45.30491 43.13571
# Shear Modulus (GPa) = 21.80240 22.99291 22.39765
#
# Velocity S-wave (km/s) = 3.32309 3.41261 3.36815
# Velocity P-wave (km/s) = 5.95595 6.20280 6.08063
#
# Compressibility (1/GPa) = 0.02441018
#
# Stress axis : x y z
#
# Youngs Moduli (GPa) = 76.37995 43.61523 66.62607
#
# Poissons Ratio (x) = 0.15694 0.30803
# Poissons Ratio (y) = 0.27484 0.33899
# Poissons Ratio (z) = 0.35312 0.22191
#
# Static dielectric constant tensor:
#      x y z
#    x 3.667950 0.000000 0.000000 
#    y 0.000000 3.605800 0.000000 
#    z 0.000000 0.000000 3.459610 
# 
# 
# High freq. dielectric constant tensor:
#      x y z
#    x 1.773060 0.000000 0.000000 
#    y 0.000000 1.758060 0.000000 
#    z 0.000000 0.000000 1.763200 
# 
# From -- ./inp_files/22191.got.cif
#   From: 2010.03.12/outbox.cif.g09.slc.cpg/sg38_12_cif.got.tgz:22191.got - 2010.04.14 02:38:36.
