data_PCOD8179021
_publ_section_title
;
Structure prediction by ZEFSAII (Michael W. Deem and Ramdas Pophale) SiO2 
 PCOD8179021
Probable space group: A M M 2
;
_chemical_formula_sum "Si O2"
_cell_formula_units_Z 48
_cell_length_a 9.476669
_cell_length_b 9.078744
_cell_length_c 30.907568
_cell_angle_alpha 90.000000
_cell_angle_beta 90.000000
_cell_angle_gamma 90.000000
_cell_volume 2659.171304
_symmetry_space_group_name_H-M "A M M 2"
_symmetry_group_IT_number 38
_symmetry_cell_setting 'orthorhombic'
loop_
_space_group_symop_operation_xyz
x,y,z
-x,-y,z
-x,y,z
x,-y,z
x,1/2+y,1/2+z
-x,1/2-y,1/2+z
-x,1/2+y,1/2+z
x,1/2-y,1/2+z
loop_
_atom_site_type_symbol
_atom_site_label
_atom_site_fract_x
_atom_site_fract_y
_atom_site_fract_z
Si Si1 0.332077 0.833997 0.753380
Si Si2 0.836675 0.669434 0.505396
Si Si3 0.668139 0.333880 0.837173
Si Si4 0.335126 0.828061 0.167274
Si Si5 0.835294 0.329050 0.092738
Si Si6 0.336717 0.828596 0.922522
O O1 0.500000 0.834107 0.755139
O O2 0.270764 0.754037 0.795943
O O3 0.279453 0.747520 0.711105
O O4 0.272820 0.000000 0.751739
O O5 0.801084 0.500000 0.516621
O O6 0.792011 0.769528 0.545710
O O7 0.748203 0.725219 0.464398
O O8 0.000000 0.689467 0.493834
O O9 0.500000 0.330462 0.835963
O O10 0.725637 0.500000 0.835303
O O11 0.722600 0.258431 0.881092
O O12 0.500000 0.797009 0.160142
O O13 0.252103 0.760705 0.127489
O O14 0.302494 0.000000 0.170739
O O15 0.795288 0.500000 0.095573
O O16 0.000000 0.301702 0.101423
O O17 0.500000 0.792906 0.930895
O O18 0.311842 0.000000 0.913295
#
# Coordination Sequence:
#
# PCOD8179021 Si02
#       6
#     8   8   8   8   8   8
#     4   9  16  27  45  69  98 130 161 195 238 287
#     4   9  18  33  51  69  92 125 162 198 240 291
#     4   9  16  26  42  66  96 127 158 193 235 284
#     4  10  20  33  51  76 103 130 163 204 248 292
#     4  10  21  36  53  73  98 130 167 204 245 296
#     4   9  17  29  46  69  95 122 155 196 240 284
#
# _framework density 18.050737000000002
#
# number of rings (size 3 to 8) (size 9 to 14) (size 15 to 20)
#    0.000    2.667    0.000    2.000    0.000    7.333 
#    0.000    1.667    0.000    1.000    0.000    2.333 
#    0.000    0.000    0.000    0.000    0.000    0.000 
#
# Total GULP energy -297638.807603 kJ/mol
# GULP energy per Si atom -12401.616983 kJ/mol
# Density = 1.800965 g / cm^3
# Si number density = 18.050737 Si / 1000 Ang^3
#
#
#
# Elastic Constant Matrix: (Units=GPa)
#
#
# Indices 1 2 3 4 5 6 
#
# 1 33.3031 36.5105 52.3505 0.0000 0.0000 0.0000
# 2 36.5105 130.8044 91.3300 0.0000 0.0000 0.0000
# 3 52.3505 91.3300 176.0770 0.0000 0.0000 0.0000
# 4 0.0000 0.0000 0.0000 41.6148 0.0000 0.0000
# 5 0.0000 0.0000 0.0000 0.0000 -6.4520 0.0000
# 6 0.0000 0.0000 0.0000 0.0000 0.0000 18.3329
#
#
#
# Elastic Compliance Matrix: (Units=1/GPa)
#
#
# Indices 1 2 3 4 5 6 
#
# 1 0.059919 -0.006720 -0.014329 0.000000 0.000000 0.000000
# 2 -0.006720 0.012739 -0.004610 0.000000 0.000000 0.000000
# 3 -0.014329 -0.004610 0.012331 0.000000 0.000000 0.000000
# 4 0.000000 0.000000 0.000000 0.024030 0.000000 0.000000
# 5 0.000000 0.000000 0.000000 0.000000 -0.154991 0.000000
# 6 0.000000 0.000000 0.000000 0.000000 0.000000 0.054547
#
#
# Mechanical properties :
#
#
# Convention : Reuss Voigt Hill
#
# Bulk Modulus (GPa) = 29.69897 77.84073 53.76985
# Shear Modulus (GPa) = 70.30643 21.36537 45.83590
#
# Velocity S-wave (km/s) = 6.24771 3.44412 5.04460
# Velocity P-wave (km/s) = 8.27852 7.68329 7.98645
#
# Compressibility (1/GPa) = 0.03367120
#
# Stress axis : x y z
#
# Youngs Moduli (GPa) = 16.68912 78.49666 81.09742
#
# Poissons Ratio (x) = 0.52748 1.16208
# Poissons Ratio (y) = 0.11215 0.37385
# Poissons Ratio (z) = 0.23915 0.36187
#
# Static dielectric constant tensor:
#      x y z
#    x 2.950540 0.000000 0.000000 
#    y 0.000000 3.479620 0.000000 
#    z 0.000000 0.000000 3.512370 
# 
# 
# High freq. dielectric constant tensor:
#      x y z
#    x 1.652080 0.000000 0.000000 
#    y 0.000000 1.709750 0.000000 
#    z 0.000000 0.000000 1.714310 
# 
# From -- ./inp_files/22417.got.cif
#   From: 2010.03.12/outbox.cif.g09.slc.cpg/sg38_12_cif.got.tgz:22417.got - 2010.04.14 02:38:36.
