data_PCOD8179017
_publ_section_title
;
Structure prediction by ZEFSAII (Michael W. Deem and Ramdas Pophale) SiO2 
 PCOD8179017
Probable space group: A M M 2
;
_chemical_formula_sum "Si O2"
_cell_formula_units_Z 48
_cell_length_a 13.174967
_cell_length_b 18.665482
_cell_length_c 10.136860
_cell_angle_alpha 90.000000
_cell_angle_beta 90.000000
_cell_angle_gamma 90.000000
_cell_volume 2492.827309
_symmetry_space_group_name_H-M "A M M 2"
_symmetry_group_IT_number 38
_symmetry_cell_setting 'orthorhombic'
loop_
_space_group_symop_operation_xyz
x,y,z
-x,-y,z
-x,y,z
x,-y,z
x,1/2+y,1/2+z
-x,1/2-y,1/2+z
-x,1/2+y,1/2+z
x,1/2-y,1/2+z
loop_
_atom_site_type_symbol
_atom_site_label
_atom_site_fract_x
_atom_site_fract_y
_atom_site_fract_z
Si Si1 0.276878 0.919995 0.717650
Si Si2 0.704032 0.082059 0.012769
Si Si3 0.884800 0.814898 0.008085
Si Si4 0.382522 0.319409 0.726321
Si Si5 0.193039 0.724789 0.237274
Si Si6 0.618605 0.578052 0.952373
O O1 0.188662 0.860369 0.704738
O O2 0.358616 0.904046 0.604160
O O3 0.229349 0.000000 0.703992
O O4 0.331515 0.912772 0.860251
O O5 0.626631 0.129477 0.098527
O O6 0.703348 0.000000 0.062676
O O7 0.817881 0.113564 0.026336
O O8 0.844655 0.765560 0.887429
O O9 0.000000 0.839166 0.983330
O O10 0.880747 0.767142 0.140048
O O11 0.500000 0.295123 0.740225
O O12 0.310052 0.250401 0.716895
O O13 0.338709 0.362303 0.853152
O O14 0.500000 0.576065 0.931180
O O15 0.665030 0.500000 0.915753
#
# Coordination Sequence:
#
# PCOD8179017 Si02
#       6
#     8   8   8   8   8   8
#     4   9  18  33  50  69  98 132 165 210 260 302
#     4   9  19  34  52  77 106 135 172 214 258 314
#     4  10  20  35  56  78 103 136 171 215 268 316
#     4  10  20  33  51  75 105 140 174 213 260 309
#     4  10  20  35  53  78 104 133 175 216 258 315
#     4   9  17  29  46  68  94 130 173 208 245 297
#
# _framework density 19.255244999999999
#
# number of rings (size 3 to 8) (size 9 to 14) (size 15 to 20)
#    0.000    2.500    0.000    2.000    0.000    2.667 
#    0.000   11.667    0.000    1.500    0.000    0.000 
#    0.000    0.000    0.000    0.000    0.000    0.000 
#
# Total GULP energy -297478.479099 kJ/mol
# GULP energy per Si atom -12394.936629 kJ/mol
# Density = 1.921142 g / cm^3
# Si number density = 19.255245 Si / 1000 Ang^3
#
#
#
# Elastic Constant Matrix: (Units=GPa)
#
#
# Indices 1 2 3 4 5 6 
#
# 1 73.8454 15.0812 14.1805 0.0000 0.0000 0.0000
# 2 15.0812 80.1595 26.1271 0.0000 0.0000 0.0000
# 3 14.1805 26.1271 88.0958 0.0000 0.0000 0.0000
# 4 0.0000 0.0000 0.0000 28.0451 0.0000 0.0000
# 5 0.0000 0.0000 0.0000 0.0000 19.4238 0.0000
# 6 0.0000 0.0000 0.0000 0.0000 0.0000 12.4216
#
#
#
# Elastic Compliance Matrix: (Units=1/GPa)
#
#
# Indices 1 2 3 4 5 6 
#
# 1 0.014300 -0.002148 -0.001665 0.000000 0.000000 0.000000
# 2 -0.002148 0.014133 -0.003846 0.000000 0.000000 0.000000
# 3 -0.001665 -0.003846 0.012760 0.000000 0.000000 0.000000
# 4 0.000000 0.000000 0.000000 0.035657 0.000000 0.000000
# 5 0.000000 0.000000 0.000000 0.000000 0.051483 0.000000
# 6 0.000000 0.000000 0.000000 0.000000 0.000000 0.080505
#
#
# Mechanical properties :
#
#
# Convention : Reuss Voigt Hill
#
# Bulk Modulus (GPa) = 38.64592 39.20869 38.92730
# Shear Modulus (GPa) = 21.47955 24.42557 22.95256
#
# Velocity S-wave (km/s) = 3.34356 3.56549 3.45630
# Velocity P-wave (km/s) = 5.91775 6.11204 6.01568
#
# Compressibility (1/GPa) = 0.02587595
#
# Stress axis : x y z
#
# Youngs Moduli (GPa) = 69.92933 70.75800 78.37115
#
# Poissons Ratio (x) = 0.15197 0.13048
# Poissons Ratio (y) = 0.15019 0.30139
# Poissons Ratio (z) = 0.11642 0.27211
#
# Static dielectric constant tensor:
#      x y z
#    x 3.079950 0.000000 0.000000 
#    y 0.000000 3.719180 0.000000 
#    z 0.000000 0.000000 3.777230 
# 
# 
# High freq. dielectric constant tensor:
#      x y z
#    x 1.705330 0.000000 0.000000 
#    y 0.000000 1.754320 0.000000 
#    z 0.000000 0.000000 1.766070 
# 
# From -- ./inp_files/9213.got.cif
#   From: 2010.03.12/outbox.cif.g09.slc.cpg/sg38_5_cif.got.tgz:9213.got - 2010.04.14 02:38:36.
