data_PCOD8179510
_publ_section_title
;
Structure prediction by ZEFSAII (Michael W. Deem and Ramdas Pophale) SiO2 
 PCOD8179510
Probable space group: A M M 2
;
_chemical_formula_sum "Si O2"
_cell_formula_units_Z 40
_cell_length_a 8.752556
_cell_length_b 14.504214
_cell_length_c 14.777944
_cell_angle_alpha 90.000000
_cell_angle_beta 90.000000
_cell_angle_gamma 90.000000
_cell_volume 1876.044404
_symmetry_space_group_name_H-M "A M M 2"
_symmetry_group_IT_number 38
_symmetry_cell_setting 'orthorhombic'
loop_
_space_group_symop_operation_xyz
x,y,z
-x,-y,z
-x,y,z
x,-y,z
x,1/2+y,1/2+z
-x,1/2-y,1/2+z
-x,1/2+y,1/2+z
x,1/2-y,1/2+z
loop_
_atom_site_type_symbol
_atom_site_label
_atom_site_fract_x
_atom_site_fract_y
_atom_site_fract_z
Si Si1 0.180855 0.000000 0.053290
Si Si2 0.820674 0.844427 0.916166
Si Si3 0.666221 0.895866 0.740786
Si Si4 0.320304 0.144702 0.394576
Si Si5 0.834170 0.102897 0.573607
Si Si6 0.818025 0.000000 0.261687
O O1 0.238974 0.000000 0.156971
O O2 0.237172 0.092783 0.000808
O O3 0.000000 0.000000 0.049262
O O4 0.780894 0.897661 0.824734
O O5 0.730014 0.749506 0.908398
O O6 0.000000 0.825125 0.922450
O O7 0.500000 0.848833 0.761648
O O8 0.745811 0.843962 0.655053
O O9 0.633910 0.000000 0.711712
O O10 0.500000 0.137158 0.381204
O O11 0.269321 0.094386 0.485328
O O12 0.242930 0.093249 0.309258
O O13 0.000000 0.151517 0.554884
O O14 0.867751 0.000000 0.607256
O O15 0.000000 0.000000 0.267660
#
# Coordination Sequence:
#
# PCOD8179510 Si02
#       6
#     4   8   8   8   8   4
#     4   9  22  43  70  97 126 167 223 278 330 387
#     4  11  22  41  66  94 127 169 219 272 325 396
#     4  10  20  35  58  90 125 158 196 252 318 380
#     4  12  25  41  62  94 132 171 215 272 331 395
#     4  10  20  36  61  89 118 158 204 252 309 378
#     4  11  23  45  70  95 128 175 225 278 334 403
#
# _framework density 21.321456999999999
#
# number of rings (size 3 to 8) (size 9 to 14) (size 15 to 20)
#    0.000    1.400    2.000    3.900    0.000    3.200 
#    0.000   10.000    0.000    0.000    0.000    0.000 
#    0.000    0.000    0.000    0.000    0.000    0.000 
#
# Total GULP energy -247828.459496 kJ/mol
# GULP energy per Si atom -12391.422975 kJ/mol
# Density = 2.127293 g / cm^3
# Si number density = 21.321457 Si / 1000 Ang^3
#
#
#
# Elastic Constant Matrix: (Units=GPa)
#
#
# Indices 1 2 3 4 5 6 
#
# 1 130.8068 33.4192 54.7579 0.0000 0.0000 0.0000
# 2 33.4192 100.2549 47.8342 0.0000 0.0000 0.0000
# 3 54.7579 47.8342 186.2115 0.0000 0.0000 0.0000
# 4 0.0000 0.0000 0.0000 -25.7421 0.0000 0.0000
# 5 0.0000 0.0000 0.0000 0.0000 27.1747 0.0000
# 6 0.0000 0.0000 0.0000 0.0000 0.0000 22.8214
#
#
#
# Elastic Compliance Matrix: (Units=1/GPa)
#
#
# Indices 1 2 3 4 5 6 
#
# 1 0.009054 -0.001992 -0.002151 0.000000 0.000000 0.000000
# 2 -0.001992 0.011806 -0.002447 0.000000 0.000000 0.000000
# 3 -0.002151 -0.002447 0.006631 0.000000 0.000000 0.000000
# 4 0.000000 0.000000 0.000000 -0.038847 0.000000 0.000000
# 5 0.000000 0.000000 0.000000 0.000000 0.036799 0.000000
# 6 0.000000 0.000000 0.000000 0.000000 0.000000 0.043819
#
#
# Mechanical properties :
#
#
# Convention : Reuss Voigt Hill
#
# Bulk Modulus (GPa) = 69.87115 76.58843 73.22979
# Shear Modulus (GPa) = 57.33142 23.60160 40.46651
#
# Velocity S-wave (km/s) = 5.19109 3.33068 4.36124
# Velocity P-wave (km/s) = 8.29285 7.12671 7.73180
#
# Compressibility (1/GPa) = 0.01431206
#
# Stress axis : x y z
#
# Youngs Moduli (GPa) = 110.44690 84.70199 150.80000
#
# Poissons Ratio (x) = 0.16872 0.32434
# Poissons Ratio (y) = 0.22000 0.36901
# Poissons Ratio (z) = 0.23755 0.20727
#
# Static dielectric constant tensor:
#      x y z
#    x 4.221710 0.000000 0.000000 
#    y 0.000000 15.775710 0.000000 
#    z 0.000000 0.000000 4.079680 
# 
# 
# High freq. dielectric constant tensor:
#      x y z
#    x 1.844370 0.000000 0.000000 
#    y 0.000000 1.815360 0.000000 
#    z 0.000000 0.000000 1.843380 
# 
# From -- ./inp_files/11683.got.cif
#   From: 2010.03.12/outbox.cif.g09.slc.cpg/sg38_6_cif.got.tgz:11683.got - 2010.04.14 02:38:36.
