data_PCOD8179119
_publ_section_title
;
Structure prediction by ZEFSAII (Michael W. Deem and Ramdas Pophale) SiO2 
 PCOD8179119
Probable space group: A M M 2
;
_chemical_formula_sum "Si O2"
_cell_formula_units_Z 64
_cell_length_a 23.791511
_cell_length_b 19.651204
_cell_length_c 7.784534
_cell_angle_alpha 90.000000
_cell_angle_beta 90.000000
_cell_angle_gamma 90.000000
_cell_volume 3639.517474
_symmetry_space_group_name_H-M "A M M 2"
_symmetry_group_IT_number 38
_symmetry_cell_setting 'orthorhombic'
loop_
_space_group_symop_operation_xyz
x,y,z
-x,-y,z
-x,y,z
x,-y,z
x,1/2+y,1/2+z
-x,1/2-y,1/2+z
-x,1/2+y,1/2+z
x,1/2-y,1/2+z
loop_
_atom_site_type_symbol
_atom_site_label
_atom_site_fract_x
_atom_site_fract_y
_atom_site_fract_z
Si Si1 0.564018 0.324900 0.544070
Si Si2 0.063013 0.419104 0.033610
Si Si3 0.264009 0.919292 0.842883
Si Si4 0.564018 0.175101 0.641696
Si Si5 0.138030 0.418562 0.342883
Si Si6 0.341285 0.421823 0.650880
Si Si7 0.658715 0.078177 0.534887
Si Si8 0.936987 0.919104 0.152156
O O1 0.500000 0.333804 0.607747
O O2 0.585968 0.250000 0.592883
O O3 0.569473 0.337332 0.342883
O O4 0.601152 0.380128 0.641717
O O5 0.063373 0.500000 0.040207
O O6 0.106308 0.389917 0.174102
O O7 0.000000 0.393058 0.075814
O O8 0.081262 0.394405 0.842883
O O9 0.201182 0.888867 0.842883
O O10 0.296142 0.893406 0.672087
O O11 0.260151 0.000000 0.842879
O O12 0.296141 0.893407 0.013681
O O13 0.500000 0.166197 0.578019
O O14 0.601151 0.119872 0.544048
O O15 0.138172 0.500000 0.342884
O O16 0.106308 0.389917 0.511664
O O17 0.355917 0.500000 0.608755
O O18 0.315864 0.414633 0.842884
O O19 0.644083 0.000000 0.577012
O O20 0.000000 0.893058 0.109952
O O21 0.936628 0.000000 0.145558
#
# Coordination Sequence:
#
# PCOD8179119 Si02
#       8
#     8   8   8   8   8   8   8   8
#     4  10  20  34  53  76 100 122 150 193 239 287
#     4   8  13  20  30  47  72 102 140 186 231 271
#     4   9  18  31  43  61  87 118 160 199 231 273
#     4  10  20  34  53  76 100 122 150 193 239 287
#     4   9  15  22  35  51  72 105 147 192 229 265
#     4  10  20  34  51  69  94 127 159 195 238 284
#     4  10  20  34  51  69  94 127 159 195 238 284
#     4   8  13  20  30  47  72 102 140 186 231 271
#
# _framework density 17.58475
#
# number of rings (size 3 to 8) (size 9 to 14) (size 15 to 20)
#    0.000    2.750    1.250    1.875    0.000    4.500 
#    0.000    7.500    0.000    0.000    0.000    0.000 
#    0.000    0.000    0.000    0.000    0.000    5.000 
#
# Total GULP energy -396705.348607 kJ/mol
# GULP energy per Si atom -12397.042144 kJ/mol
# Density = 1.754473 g / cm^3
# Si number density = 17.584750 Si / 1000 Ang^3
#
#
#
# Elastic Constant Matrix: (Units=GPa)
#
#
# Indices 1 2 3 4 5 6 
#
# 1 127.8106 33.6707 74.7953 0.0000 0.0000 0.0000
# 2 33.6707 34.4348 24.8499 0.0000 0.0000 0.0000
# 3 74.7953 24.8499 137.9332 0.0000 0.0000 0.0000
# 4 0.0000 0.0000 0.0000 15.1302 0.0000 0.0000
# 5 0.0000 0.0000 0.0000 0.0000 20.3901 0.0000
# 6 0.0000 0.0000 0.0000 0.0000 0.0000 -0.3786
#
#
#
# Elastic Compliance Matrix: (Units=1/GPa)
#
#
# Indices 1 2 3 4 5 6 
#
# 1 0.013580 -0.009155 -0.005715 0.000000 0.000000 0.000000
# 2 -0.009155 0.039552 -0.002161 0.000000 0.000000 0.000000
# 3 -0.005715 -0.002161 0.010738 0.000000 0.000000 0.000000
# 4 0.000000 0.000000 0.000000 0.066093 0.000000 0.000000
# 5 0.000000 0.000000 0.000000 0.000000 0.049043 0.000000
# 6 0.000000 0.000000 0.000000 0.000000 0.000000 -2.641350
#
#
# Mechanical properties :
#
#
# Convention : Reuss Voigt Hill
#
# Bulk Modulus (GPa) = 33.54750 62.97896 48.26323
# Shear Modulus (GPa) = -2.06753 18.15253 8.04250
#
# Velocity S-wave (km/s) = -1.08550 3.21641 2.14091
# Velocity P-wave (km/s) = 4.18903 7.04883 5.79802
#
# Compressibility (1/GPa) = 0.02980848
#
# Stress axis : x y z
#
# Youngs Moduli (GPa) = 73.63766 25.28326 93.12697
#
# Poissons Ratio (x) = 0.23146 0.53218
# Poissons Ratio (y) = 0.67414 0.20128
# Poissons Ratio (z) = 0.42081 0.05465
#
# Static dielectric constant tensor:
#      x y z
#    x 3.381220 0.000000 0.000000 
#    y 0.000000 2.704360 0.000000 
#    z 0.000000 0.000000 3.581090 
# 
# 
# High freq. dielectric constant tensor:
#      x y z
#    x 1.672780 0.000000 0.000000 
#    y 0.000000 1.611100 0.000000 
#    z 0.000000 0.000000 1.701370 
# 
# From -- ./inp_files/6867.got.cif
#   From: 2010.03.12/outbox.cif.g09.slc.cpg/sg38_4_cif.got.tgz:6867.got - 2010.04.14 02:38:36.
