data_PCOD8179327
_publ_section_title
;
Structure prediction by ZEFSAII (Michael W. Deem and Ramdas Pophale) SiO2 
 PCOD8179327
Probable space group: A M M 2
;
_chemical_formula_sum "Si O2"
_cell_formula_units_Z 48
_cell_length_a 9.020820
_cell_length_b 20.245785
_cell_length_c 14.362611
_cell_angle_alpha 90.000000
_cell_angle_beta 90.000000
_cell_angle_gamma 90.000000
_cell_volume 2623.095097
_symmetry_space_group_name_H-M "A M M 2"
_symmetry_group_IT_number 38
_symmetry_cell_setting 'orthorhombic'
loop_
_space_group_symop_operation_xyz
x,y,z
-x,-y,z
-x,y,z
x,-y,z
x,1/2+y,1/2+z
-x,1/2-y,1/2+z
-x,1/2+y,1/2+z
x,1/2-y,1/2+z
loop_
_atom_site_type_symbol
_atom_site_label
_atom_site_fract_x
_atom_site_fract_y
_atom_site_fract_z
Si Si1 0.170360 0.576341 0.925350
Si Si2 0.826049 0.122917 0.627049
Si Si3 0.325773 0.184354 0.309472
Si Si4 0.674295 0.691700 0.436650
Si Si5 0.824034 0.273498 0.624542
Si Si6 0.670600 0.925820 0.806244
O O1 0.189553 0.500000 0.900116
O O2 0.276298 0.616723 0.857402
O O3 0.000000 0.599460 0.912660
O O4 0.221792 0.588680 0.031040
O O5 0.768048 0.198021 0.627461
O O6 0.755145 0.081811 0.709780
O O7 0.000000 0.120400 0.641682
O O8 0.500000 0.183309 0.290532
O O9 0.279760 0.245614 0.374457
O O10 0.241456 0.188211 0.212143
O O11 0.500000 0.691491 0.458377
O O12 0.763848 0.692088 0.532032
O O13 0.727375 0.625713 0.383372
O O14 0.000000 0.278528 0.625543
O O15 0.500000 0.911005 0.784749
O O16 0.695477 0.000000 0.844455
#
# Coordination Sequence:
#
# PCOD8179327 Si02
#       6
#     8   8   8   8   8   8
#     4  10  21  38  58  83 118 154 190 234 284 338
#     4  10  20  34  56  85 117 148 182 231 284 338
#     4  11  22  37  59  84 115 151 191 236 281 337
#     4  10  21  37  57  82 113 149 189 234 282 332
#     4  11  22  36  59  87 113 146 191 236 281 335
#     4  10  21  37  57  83 116 151 186 228 281 339
#
# _framework density 18.298994
#
# number of rings (size 3 to 8) (size 9 to 14) (size 15 to 20)
#    0.000    1.667    3.333    1.500    0.000    4.000 
#    0.000    0.833    0.000    3.000    0.000    0.000 
#    0.000    0.000    0.000    0.000    0.000    0.000 
#
# Total GULP energy -297728.652224 kJ/mol
# GULP energy per Si atom -12405.360509 kJ/mol
# Density = 1.825734 g / cm^3
# Si number density = 18.298994 Si / 1000 Ang^3
#
#
#
# Elastic Constant Matrix: (Units=GPa)
#
#
# Indices 1 2 3 4 5 6 
#
# 1 53.3364 33.1333 47.5144 0.0000 0.0000 0.0000
# 2 33.1333 110.2723 52.9116 0.0000 0.0000 0.0000
# 3 47.5144 52.9116 129.1479 0.0000 0.0000 0.0000
# 4 0.0000 0.0000 0.0000 28.5928 0.0000 0.0000
# 5 0.0000 0.0000 0.0000 0.0000 34.1377 0.0000
# 6 0.0000 0.0000 0.0000 0.0000 0.0000 26.1055
#
#
#
# Elastic Compliance Matrix: (Units=1/GPa)
#
#
# Indices 1 2 3 4 5 6 
#
# 1 0.029632 -0.004571 -0.009029 0.000000 0.000000 0.000000
# 2 -0.004571 0.011993 -0.003232 0.000000 0.000000 0.000000
# 3 -0.009029 -0.003232 0.012389 0.000000 0.000000 0.000000
# 4 0.000000 0.000000 0.000000 0.034974 0.000000 0.000000
# 5 0.000000 0.000000 0.000000 0.000000 0.029293 0.000000
# 6 0.000000 0.000000 0.000000 0.000000 0.000000 0.038306
#
#
# Mechanical properties :
#
#
# Convention : Reuss Voigt Hill
#
# Bulk Modulus (GPa) = 49.14005 62.20834 55.67420
# Shear Modulus (GPa) = 25.37642 28.38035 26.87838
#
# Velocity S-wave (km/s) = 3.72797 3.94245 3.83671
# Velocity P-wave (km/s) = 6.74111 7.40224 7.07940
#
# Compressibility (1/GPa) = 0.02035000
#
# Stress axis : x y z
#
# Youngs Moduli (GPa) = 33.74725 83.38525 80.71756
#
# Poissons Ratio (x) = 0.38116 0.72880
# Poissons Ratio (y) = 0.15426 0.26085
# Poissons Ratio (z) = 0.30471 0.26947
#
# Static dielectric constant tensor:
#      x y z
#    x 3.307930 0.000000 0.000000 
#    y 0.000000 3.431150 0.000000 
#    z 0.000000 0.000000 3.332710 
# 
# 
# High freq. dielectric constant tensor:
#      x y z
#    x 1.707640 0.000000 0.000000 
#    y 0.000000 1.710250 0.000000 
#    z 0.000000 0.000000 1.709990 
# 
# From -- ./inp_files/8139.got.cif
#   From: 2010.03.12/outbox.cif.g09.slc.cpg/sg38_5_cif.got.tgz:8139.got - 2010.04.14 02:38:36.
