data_PCOD8179687
_publ_section_title
;
Structure prediction by ZEFSAII (Michael W. Deem and Ramdas Pophale) SiO2 
 PCOD8179687
Probable space group: A M M 2
;
_chemical_formula_sum "Si O2"
_cell_formula_units_Z 48
_cell_length_a 10.050636
_cell_length_b 8.968994
_cell_length_c 27.391137
_cell_angle_alpha 90.000000
_cell_angle_beta 90.000000
_cell_angle_gamma 90.000000
_cell_volume 2469.149228
_symmetry_space_group_name_H-M "A M M 2"
_symmetry_group_IT_number 38
_symmetry_cell_setting 'orthorhombic'
loop_
_space_group_symop_operation_xyz
x,y,z
-x,-y,z
-x,y,z
x,-y,z
x,1/2+y,1/2+z
-x,1/2-y,1/2+z
-x,1/2+y,1/2+z
x,1/2-y,1/2+z
loop_
_atom_site_type_symbol
_atom_site_label
_atom_site_fract_x
_atom_site_fract_y
_atom_site_fract_z
Si Si1 0.848206 0.671597 0.134060
Si Si2 0.500000 0.822504 0.767821
Si Si3 0.000000 0.176681 0.906790
Si Si4 0.500000 0.823073 0.877919
Si Si5 0.000000 0.326682 0.803125
Si Si6 0.651492 0.171924 0.549152
Si Si7 0.236315 0.175081 0.231258
Si Si8 0.273977 0.823299 0.949326
O O1 0.817320 0.500000 0.148054
O O2 0.750455 0.727445 0.091352
O O3 0.825508 0.776646 0.180056
O O4 0.000000 0.689514 0.115882
O O5 0.500000 0.758767 0.823120
O O6 0.371362 0.763883 0.739923
O O7 0.500000 0.000000 0.766456
O O8 0.872533 0.236197 0.936330
O O9 0.000000 0.233528 0.852051
O O10 0.000000 0.000000 0.903636
O O11 0.370620 0.763990 0.906562
O O12 0.500000 0.000000 0.875574
O O13 0.131124 0.282442 0.773031
O O14 0.000000 0.500000 0.816029
O O15 0.500000 0.198891 0.566637
O O16 0.679151 0.264124 0.500905
O O17 0.677886 0.000000 0.536971
O O18 0.265724 0.000000 0.230250
O O19 0.279029 0.000000 0.951982
#
# Coordination Sequence:
#
# PCOD8179687 Si02
#       8
#     8   4   4   4   4   8   8   8
#     4  10  22  40  62  87 115 153 198 243 294 357
#     4  11  23  39  62  91 120 161 206 247 292 349
#     4  10  22  36  57  88 119 153 200 247 285 344
#     4   9  18  35  58  81 112 151 194 239 284 339
#     4  10  22  40  61  86 123 161 196 245 303 358
#     4  10  22  39  59  86 117 149 191 242 293 349
#     4  11  23  41  61  89 125 158 196 248 304 359
#     4  10  20  37  58  84 117 152 192 240 291 344
#
# _framework density 19.439893999999999
#
# number of rings (size 3 to 8) (size 9 to 14) (size 15 to 20)
#    0.000    1.833    1.667    1.750    2.333    4.000 
#    0.000    1.667    0.000    0.000    0.000    0.000 
#    0.000    0.000    0.000    0.000    0.000    0.000 
#
# Total GULP energy -297690.755999 kJ/mol
# GULP energy per Si atom -12403.781500 kJ/mol
# Density = 1.939565 g / cm^3
# Si number density = 19.439894 Si / 1000 Ang^3
#
#
#
# Elastic Constant Matrix: (Units=GPa)
#
#
# Indices 1 2 3 4 5 6 
#
# 1 148.2560 29.5635 38.5214 0.0000 0.0000 0.0000
# 2 29.5635 40.7740 20.5213 0.0000 0.0000 0.0000
# 3 38.5214 20.5213 89.4234 0.0000 0.0000 0.0000
# 4 0.0000 0.0000 0.0000 32.4778 0.0000 0.0000
# 5 0.0000 0.0000 0.0000 0.0000 41.2278 0.0000
# 6 0.0000 0.0000 0.0000 0.0000 0.0000 14.0221
#
#
#
# Elastic Compliance Matrix: (Units=1/GPa)
#
#
# Indices 1 2 3 4 5 6 
#
# 1 0.008350 -0.004798 -0.002496 0.000000 0.000000 0.000000
# 2 -0.004798 0.030485 -0.004929 0.000000 0.000000 0.000000
# 3 -0.002496 -0.004929 0.013389 0.000000 0.000000 0.000000
# 4 0.000000 0.000000 0.000000 0.030790 0.000000 0.000000
# 5 0.000000 0.000000 0.000000 0.000000 0.024255 0.000000
# 6 0.000000 0.000000 0.000000 0.000000 0.000000 0.071316
#
#
# Mechanical properties :
#
#
# Convention : Reuss Voigt Hill
#
# Bulk Modulus (GPa) = 35.99940 50.62952 43.31446
# Shear Modulus (GPa) = 23.55242 30.20202 26.87722
#
# Velocity S-wave (km/s) = 3.48451 3.94586 3.72234
# Velocity P-wave (km/s) = 5.89471 6.84547 6.38780
#
# Compressibility (1/GPa) = 0.02777824
#
# Stress axis : x y z
#
# Youngs Moduli (GPa) = 119.75394 32.80291 74.68773
#
# Poissons Ratio (x) = 0.15740 0.18642
# Poissons Ratio (y) = 0.57462 0.36813
# Poissons Ratio (z) = 0.29891 0.16168
#
# Static dielectric constant tensor:
#      x y z
#    x 4.032710 0.000000 0.000000 
#    y 0.000000 3.358630 0.000000 
#    z 0.000000 0.000000 3.531210 
# 
# 
# High freq. dielectric constant tensor:
#      x y z
#    x 1.778340 0.000000 0.000000 
#    y 0.000000 1.741350 0.000000 
#    z 0.000000 0.000000 1.760840 
# 
# From -- ./inp_files/24481.got.cif
#   From: 2010.03.12/outbox.cif.g09.slc.cpg/sg38_13_cif.got.tgz:24481.got - 2010.04.14 02:38:36.
