data_PCOD8179196
_publ_section_title
;
Structure prediction by ZEFSAII (Michael W. Deem and Ramdas Pophale) SiO2 
 PCOD8179196
Probable space group: A M M 2
;
_chemical_formula_sum "Si O2"
_cell_formula_units_Z 48
_cell_length_a 18.785560
_cell_length_b 8.589968
_cell_length_c 15.097770
_cell_angle_alpha 90.000000
_cell_angle_beta 90.000000
_cell_angle_gamma 90.000000
_cell_volume 2436.287276
_symmetry_space_group_name_H-M "A M M 2"
_symmetry_group_IT_number 38
_symmetry_cell_setting 'orthorhombic'
loop_
_space_group_symop_operation_xyz
x,y,z
-x,-y,z
-x,y,z
x,-y,z
x,1/2+y,1/2+z
-x,1/2-y,1/2+z
-x,1/2+y,1/2+z
x,1/2-y,1/2+z
loop_
_atom_site_type_symbol
_atom_site_label
_atom_site_fract_x
_atom_site_fract_y
_atom_site_fract_z
Si Si1 0.326602 0.316245 0.019150
Si Si2 0.159608 0.682744 0.202479
Si Si3 0.679749 0.183097 0.716059
Si Si4 0.917042 0.679213 0.862684
Si Si5 0.823796 0.818537 0.013523
Si Si6 0.418417 0.683671 0.371168
O O1 0.313966 0.500000 0.016957
O O2 0.343026 0.257412 0.118845
O O3 0.254888 0.234925 0.983999
O O4 0.393613 0.267272 0.960592
O O5 0.146435 0.500000 0.212652
O O6 0.238759 0.730702 0.234697
O O7 0.103847 0.774574 0.262764
O O8 0.148820 0.727413 0.100047
O O9 0.627886 0.254995 0.790276
O O10 0.670925 0.000000 0.719209
O O11 0.897438 0.500000 0.879442
O O12 0.876161 0.786202 0.932443
O O13 0.000000 0.710398 0.875009
O O14 0.823248 0.000000 0.035118
O O15 0.500000 0.726798 0.353223
O O16 0.407377 0.500000 0.381938
#
# Coordination Sequence:
#
# PCOD8179196 Si02
#       6
#     8   8   8   8   8   8
#     4  10  20  36  58  82 109 142 186 236 283 336
#     4  10  20  37  61  86 113 148 192 237 284 341
#     4   8  17  34  55  78 104 140 182 223 270 326
#     4  11  24  40  58  84 118 153 190 234 284 338
#     4  11  22  38  61  86 114 149 191 238 288 340
#     4  10  20  34  53  79 112 148 185 227 279 340
#
# _framework density 19.702110999999999
#
# number of rings (size 3 to 8) (size 9 to 14) (size 15 to 20)
#    0.000    2.000    0.000    5.000    0.000    4.333 
#    0.000    5.833    0.000    0.000    0.000    0.000 
#    0.000    0.000    0.000    0.000    0.000    0.000 
#
# Total GULP energy -297678.183273 kJ/mol
# GULP energy per Si atom -12403.257636 kJ/mol
# Density = 1.965727 g / cm^3
# Si number density = 19.702111 Si / 1000 Ang^3
#
#
#
# Elastic Constant Matrix: (Units=GPa)
#
#
# Indices 1 2 3 4 5 6 
#
# 1 69.4583 35.8064 37.9378 0.0000 0.0000 0.0000
# 2 35.8064 58.6658 21.8970 0.0000 0.0000 0.0000
# 3 37.9378 21.8970 87.4313 0.0000 0.0000 0.0000
# 4 0.0000 0.0000 0.0000 33.1532 0.0000 0.0000
# 5 0.0000 0.0000 0.0000 0.0000 21.9806 0.0000
# 6 0.0000 0.0000 0.0000 0.0000 0.0000 27.2519
#
#
#
# Elastic Compliance Matrix: (Units=1/GPa)
#
#
# Indices 1 2 3 4 5 6 
#
# 1 0.025009 -0.012370 -0.007754 0.000000 0.000000 0.000000
# 2 -0.012370 0.024922 -0.000874 0.000000 0.000000 0.000000
# 3 -0.007754 -0.000874 0.015021 0.000000 0.000000 0.000000
# 4 0.000000 0.000000 0.000000 0.030163 0.000000 0.000000
# 5 0.000000 0.000000 0.000000 0.000000 0.045495 0.000000
# 6 0.000000 0.000000 0.000000 0.000000 0.000000 0.036695
#
#
# Mechanical properties :
#
#
# Convention : Reuss Voigt Hill
#
# Bulk Modulus (GPa) = 43.56136 45.20421 44.38279
# Shear Modulus (GPa) = 22.03105 24.47141 23.25123
#
# Velocity S-wave (km/s) = 3.34759 3.52813 3.43904
# Velocity P-wave (km/s) = 6.09096 6.29210 6.19235
#
# Compressibility (1/GPa) = 0.02295613
#
# Stress axis : x y z
#
# Youngs Moduli (GPa) = 39.98546 40.12520 66.57368
#
# Poissons Ratio (x) = 0.49635 0.51620
# Poissons Ratio (y) = 0.49462 0.05819
# Poissons Ratio (z) = 0.31004 0.03507
#
# Static dielectric constant tensor:
#      x y z
#    x 3.577030 0.000000 0.000000 
#    y 0.000000 3.433950 0.000000 
#    z 0.000000 0.000000 3.773650 
# 
# 
# High freq. dielectric constant tensor:
#      x y z
#    x 1.760790 0.000000 0.000000 
#    y 0.000000 1.759060 0.000000 
#    z 0.000000 0.000000 1.779610 
# 
# From -- ./inp_files/14970.got.cif
#   From: 2010.03.12/outbox.cif.g09.slc.cpg/sg38_8_cif.got.tgz:14970.got - 2010.04.14 02:38:36.
