data_PCOD8179482
_publ_section_title
;
Structure prediction by ZEFSAII (Michael W. Deem and Ramdas Pophale) SiO2 
 PCOD8179482
Probable space group: A M M 2
;
_chemical_formula_sum "Si O2"
_cell_formula_units_Z 64
_cell_length_a 18.417866
_cell_length_b 18.585394
_cell_length_c 9.516519
_cell_angle_alpha 90.000000
_cell_angle_beta 90.000000
_cell_angle_gamma 90.000000
_cell_volume 3257.535823
_symmetry_space_group_name_H-M "A M M 2"
_symmetry_group_IT_number 38
_symmetry_cell_setting 'orthorhombic'
loop_
_space_group_symop_operation_xyz
x,y,z
-x,-y,z
-x,y,z
x,-y,z
x,1/2+y,1/2+z
-x,1/2-y,1/2+z
-x,1/2+y,1/2+z
x,1/2-y,1/2+z
loop_
_atom_site_type_symbol
_atom_site_label
_atom_site_fract_x
_atom_site_fract_y
_atom_site_fract_z
Si Si1 0.859337 0.677591 0.534920
Si Si2 0.281087 0.413467 0.591917
Si Si3 0.580445 0.585555 0.101442
Si Si4 0.083964 0.299774 0.847015
Si Si5 0.859285 0.415305 0.031258
Si Si6 0.419759 0.414752 0.415443
Si Si7 0.293990 0.915469 0.410564
Si Si8 0.918347 0.578811 0.319348
O O1 0.782531 0.635693 0.526568
O O2 0.885031 0.696068 0.690483
O O3 0.862567 0.749403 0.439796
O O4 0.916218 0.624228 0.461394
O O5 0.265378 0.500000 0.576536
O O6 0.355882 0.389253 0.518151
O O7 0.288782 0.387765 0.752100
O O8 0.500000 0.609040 0.052942
O O9 0.587361 0.500000 0.102322
O O10 0.596452 0.614499 0.258523
O O11 0.637683 0.619831 0.991889
O O12 0.087214 0.378114 0.918889
O O13 0.000000 0.272763 0.844062
O O14 0.874585 0.500000 0.020110
O O15 0.777262 0.394005 0.996006
O O16 0.873067 0.386906 0.189847
O O17 0.500000 0.387365 0.465736
O O18 0.421285 0.500000 0.412044
O O19 0.304547 0.000000 0.405559
O O20 0.887008 0.500000 0.353867
O O21 0.000000 0.574312 0.264505
#
# Coordination Sequence:
#
# PCOD8179482 Si02
#       8
#     8   8   8   8   8   8   8   8
#     4  12  25  42  60  84 113 151 197 247 297 356
#     4  10  20  35  57  88 124 158 194 240 293 347
#     4   8  14  25  44  74 114 157 194 228 275 335
#     4  12  25  42  63  82 111 151 194 245 300 359
#     4  10  21  38  60  88 117 147 186 236 294 358
#     4   8  15  28  49  82 122 160 196 235 282 335
#     4   9  17  30  49  78 115 151 186 227 278 337
#     4  10  21  37  58  84 113 145 186 236 294 357
#
# _framework density 19.646753
#
# number of rings (size 3 to 8) (size 9 to 14) (size 15 to 20)
#    0.000    2.125    1.250    3.375    1.750    1.750 
#    0.000    2.500    0.000    0.000    0.000    1.750 
#    0.000    0.000    0.000    0.000    0.000    0.000 
#
# Total GULP energy -396582.424875 kJ/mol
# GULP energy per Si atom -12393.200777 kJ/mol
# Density = 1.960204 g / cm^3
# Si number density = 19.646753 Si / 1000 Ang^3
#
#
#
# Elastic Constant Matrix: (Units=GPa)
#
#
# Indices 1 2 3 4 5 6 
#
# 1 128.2408 33.1717 61.8752 0.0000 0.0000 0.0000
# 2 33.1717 51.6615 45.5559 0.0000 0.0000 0.0000
# 3 61.8752 45.5559 140.2262 0.0000 0.0000 0.0000
# 4 0.0000 0.0000 0.0000 25.6320 0.0000 0.0000
# 5 0.0000 0.0000 0.0000 0.0000 37.6352 0.0000
# 6 0.0000 0.0000 0.0000 0.0000 0.0000 15.5538
#
#
#
# Elastic Compliance Matrix: (Units=1/GPa)
#
#
# Indices 1 2 3 4 5 6 
#
# 1 0.010384 -0.003682 -0.003386 0.000000 0.000000 0.000000
# 2 -0.003682 0.028434 -0.007613 0.000000 0.000000 0.000000
# 3 -0.003386 -0.007613 0.011099 0.000000 0.000000 0.000000
# 4 0.000000 0.000000 0.000000 0.039014 0.000000 0.000000
# 5 0.000000 0.000000 0.000000 0.000000 0.026571 0.000000
# 6 0.000000 0.000000 0.000000 0.000000 0.000000 0.064293
#
#
# Mechanical properties :
#
#
# Convention : Reuss Voigt Hill
#
# Bulk Modulus (GPa) = 48.64883 66.81489 57.73186
# Shear Modulus (GPa) = 23.14744 27.73257 25.44000
#
# Velocity S-wave (km/s) = 3.43619 3.76115 3.60233
# Velocity P-wave (km/s) = 6.36857 7.27623 6.83748
#
# Compressibility (1/GPa) = 0.02055548
#
# Stress axis : x y z
#
# Youngs Moduli (GPa) = 96.30394 35.16916 90.10198
#
# Poissons Ratio (x) = 0.12949 0.30506
# Poissons Ratio (y) = 0.35457 0.68594
# Poissons Ratio (z) = 0.32606 0.26774
#
# Static dielectric constant tensor:
#      x y z
#    x 3.812030 0.000000 0.000000 
#    y 0.000000 3.288050 0.000000 
#    z 0.000000 0.000000 3.790970 
# 
# 
# High freq. dielectric constant tensor:
#      x y z
#    x 1.769690 0.000000 0.000000 
#    y 0.000000 1.721170 0.000000 
#    z 0.000000 0.000000 1.775720 
# 
# From -- ./inp_files/6468.got.cif
#   From: 2010.03.12/outbox.cif.g09.slc.cpg/sg38_4_cif.got.tgz:6468.got - 2010.04.14 02:38:36.
