data_PCOD8179069
_publ_section_title
;
Structure prediction by ZEFSAII (Michael W. Deem and Ramdas Pophale) SiO2 
 PCOD8179069
Probable space group: A M M 2
;
_chemical_formula_sum "Si O2"
_cell_formula_units_Z 64
_cell_length_a 9.226100
_cell_length_b 15.859624
_cell_length_c 23.018414
_cell_angle_alpha 90.000000
_cell_angle_beta 90.000000
_cell_angle_gamma 90.000000
_cell_volume 3368.111353
_symmetry_space_group_name_H-M "A M M 2"
_symmetry_group_IT_number 38
_symmetry_cell_setting 'orthorhombic'
loop_
_space_group_symop_operation_xyz
x,y,z
-x,-y,z
-x,y,z
x,-y,z
x,1/2+y,1/2+z
-x,1/2-y,1/2+z
-x,1/2+y,1/2+z
x,1/2-y,1/2+z
loop_
_atom_site_type_symbol
_atom_site_label
_atom_site_fract_x
_atom_site_fract_y
_atom_site_fract_z
Si Si1 0.839062 0.813030 0.461280
Si Si2 0.166327 0.365562 0.409644
Si Si3 0.332797 0.596326 0.292001
Si Si4 0.664743 0.905554 0.023903
Si Si5 0.672635 0.905944 0.250952
Si Si6 0.654444 0.403042 0.876372
Si Si7 0.172653 0.262303 0.581697
Si Si8 0.671103 0.732999 0.194677
O O1 0.828555 0.734551 0.417399
O O2 0.746402 0.886420 0.433501
O O3 0.782138 0.791306 0.525220
O O4 0.000000 0.847861 0.466439
O O5 0.234939 0.390233 0.348377
O O6 0.256687 0.407324 0.461550
O O7 0.000000 0.397856 0.412156
O O8 0.500000 0.612465 0.308953
O O9 0.311611 0.500000 0.269350
O O10 0.284812 0.663004 0.242419
O O11 0.500000 0.870900 0.017094
O O12 0.752331 0.853058 0.072414
O O13 0.661017 0.000000 0.048471
O O14 0.500000 0.908770 0.254962
O O15 0.733090 0.881199 0.315162
O O16 0.721761 0.828627 0.210395
O O17 0.728722 0.000000 0.230881
O O18 0.500000 0.353934 0.881142
O O19 0.619986 0.500000 0.874990
O O20 0.238593 0.212855 0.636587
O O21 0.000000 0.273810 0.587031
O O22 0.500000 0.728922 0.182291
#
# Coordination Sequence:
#
# PCOD8179069 Si02
#       8
#     8   8   8   8   8   8   8   8
#     4   9  19  34  50  71 101 136 169 205 256 313
#     4  10  20  33  52  80 111 140 172 213 264 321
#     4  10  21  36  54  78 107 140 181 225 268 318
#     4  10  20  34  54  80 108 138 172 210 257 317
#     4   8  15  29  50  77 106 132 161 200 249 307
#     4   9  17  30  51  79 105 129 162 205 253 307
#     4  10  22  38  53  72 101 136 176 220 264 314
#     4  10  20  35  55  76 101 138 180 223 267 307
#
# _framework density 19.001747999999999
#
# number of rings (size 3 to 8) (size 9 to 14) (size 15 to 20)
#    0.000    2.500    0.000    3.750    0.000    8.000 
#    0.000    2.500    0.000    3.000    0.000    0.000 
#    0.000    0.000    0.000    0.000    0.000    0.000 
#
# Total GULP energy -396572.664172 kJ/mol
# GULP energy per Si atom -12392.895755 kJ/mol
# Density = 1.895850 g / cm^3
# Si number density = 19.001748 Si / 1000 Ang^3
#
#
#
# Elastic Constant Matrix: (Units=GPa)
#
#
# Indices 1 2 3 4 5 6 
#
# 1 72.9230 18.5101 40.0269 0.0000 0.0000 0.0000
# 2 18.5101 45.0358 43.3490 0.0000 0.0000 0.0000
# 3 40.0269 43.3490 99.6946 0.0000 0.0000 0.0000
# 4 0.0000 0.0000 0.0000 15.2975 0.0000 0.0000
# 5 0.0000 0.0000 0.0000 0.0000 37.4233 0.0000
# 6 0.0000 0.0000 0.0000 0.0000 0.0000 15.4391
#
#
#
# Elastic Compliance Matrix: (Units=1/GPa)
#
#
# Indices 1 2 3 4 5 6 
#
# 1 0.017604 -0.000743 -0.006745 0.000000 0.000000 0.000000
# 2 -0.000743 0.038219 -0.016320 0.000000 0.000000 0.000000
# 3 -0.006745 -0.016320 0.019835 0.000000 0.000000 0.000000
# 4 0.000000 0.000000 0.000000 0.065370 0.000000 0.000000
# 5 0.000000 0.000000 0.000000 0.000000 0.026721 0.000000
# 6 0.000000 0.000000 0.000000 0.000000 0.000000 0.064771
#
#
# Mechanical properties :
#
#
# Convention : Reuss Voigt Hill
#
# Bulk Modulus (GPa) = 35.66107 46.82506 41.24306
# Shear Modulus (GPa) = 17.27225 21.34980 19.31102
#
# Velocity S-wave (km/s) = 3.01820 3.35561 3.19137
# Velocity P-wave (km/s) = 5.56364 6.30154 5.94405
#
# Compressibility (1/GPa) = 0.02804178
#
# Stress axis : x y z
#
# Youngs Moduli (GPa) = 56.80567 26.16533 50.41671
#
# Poissons Ratio (x) = 0.01945 0.34004
# Poissons Ratio (y) = 0.04222 0.82278
# Poissons Ratio (z) = 0.38314 0.42701
#
# Static dielectric constant tensor:
#      x y z
#    x 3.367050 0.000000 0.000000 
#    y 0.000000 3.480640 0.000000 
#    z 0.000000 0.000000 3.442720 
# 
# 
# High freq. dielectric constant tensor:
#      x y z
#    x 1.726780 0.000000 0.000000 
#    y 0.000000 1.729620 0.000000 
#    z 0.000000 0.000000 1.732930 
# 
# From -- ./inp_files/20056.got.cif
#   From: 2010.03.12/outbox.cif.g09.slc.cpg/sg38_11_cif.got.tgz:20056.got - 2010.04.14 02:38:36.
