data_PCOD8179344
_publ_section_title
;
Structure prediction by ZEFSAII (Michael W. Deem and Ramdas Pophale) SiO2 
 PCOD8179344
Probable space group: A M M 2
;
_chemical_formula_sum "Si O2"
_cell_formula_units_Z 56
_cell_length_a 16.443447
_cell_length_b 8.709614
_cell_length_c 19.939538
_cell_angle_alpha 90.000000
_cell_angle_beta 90.000000
_cell_angle_gamma 90.000000
_cell_volume 2855.662394
_symmetry_space_group_name_H-M "A M M 2"
_symmetry_group_IT_number 38
_symmetry_cell_setting 'orthorhombic'
loop_
_space_group_symop_operation_xyz
x,y,z
-x,-y,z
-x,y,z
x,-y,z
x,1/2+y,1/2+z
-x,1/2-y,1/2+z
-x,1/2+y,1/2+z
x,1/2-y,1/2+z
loop_
_atom_site_type_symbol
_atom_site_label
_atom_site_fract_x
_atom_site_fract_y
_atom_site_fract_z
Si Si1 0.408092 0.180033 0.275660
Si Si2 0.592486 0.825116 0.634644
Si Si3 0.248673 0.321407 0.315230
Si Si4 0.173204 0.824601 0.189143
Si Si5 0.728516 0.322429 0.556684
Si Si6 0.170200 0.318409 0.940813
Si Si7 0.000000 0.176382 0.140270
Si Si8 0.000000 0.319482 0.996454
O O1 0.500000 0.233723 0.294269
O O2 0.389213 0.217652 0.198270
O O3 0.342739 0.267144 0.322187
O O4 0.397622 0.000000 0.286606
O O5 0.500000 0.809351 0.610815
O O6 0.646299 0.769572 0.572563
O O7 0.613294 0.000000 0.654804
O O8 0.243504 0.500000 0.331829
O O9 0.216849 0.289268 0.240381
O O10 0.190409 0.228017 0.364993
O O11 0.206106 0.792728 0.114851
O O12 0.077391 0.788174 0.186963
O O13 0.190386 0.000000 0.211337
O O14 0.707058 0.500000 0.548234
O O15 0.762889 0.259604 0.487499
O O16 0.174726 0.500000 0.949662
O O17 0.080610 0.254200 0.959844
O O18 0.000000 0.000000 0.115879
O O19 0.000000 0.279513 0.074475
O O20 0.000000 0.500000 0.989284
#
# Coordination Sequence:
#
# PCOD8179344 Si02
#       8
#     8   8   8   8   8   8   4   4
#     4  10  20  36  60  88 118 154 196 244 299 356
#     4  10  20  34  56  88 123 158 199 247 296 347
#     4  12  25  40  60  88 123 160 201 247 297 356
#     4  10  21  37  60  88 119 155 195 244 298 350
#     4  11  21  36  61  90 120 155 198 244 295 353
#     4  11  24  42  63  86 121 161 200 246 300 360
#     4  10  20  37  62  89 119 155 197 249 298 349
#     4  10  22  39  62  89 115 153 199 245 296 357
#
# _framework density 19.610161999999999
#
# number of rings (size 3 to 8) (size 9 to 14) (size 15 to 20)
#    0.000    1.429    2.857    3.000    0.000    4.000 
#    0.000    3.571    0.000    4.286    0.000    0.000 
#    0.000    0.000    0.000    0.000    0.000    0.000 
#
# Total GULP energy -347336.174316 kJ/mol
# GULP energy per Si atom -12404.863368 kJ/mol
# Density = 1.956553 g / cm^3
# Si number density = 19.610162 Si / 1000 Ang^3
#
#
#
# Elastic Constant Matrix: (Units=GPa)
#
#
# Indices 1 2 3 4 5 6 
#
# 1 120.0696 31.5272 23.0365 0.0000 0.0000 0.0000
# 2 31.5272 60.1632 11.1247 0.0000 0.0000 0.0000
# 3 23.0365 11.1247 52.6063 0.0000 0.0000 0.0000
# 4 0.0000 0.0000 0.0000 33.5972 0.0000 0.0000
# 5 0.0000 0.0000 0.0000 0.0000 27.7317 0.0000
# 6 0.0000 0.0000 0.0000 0.0000 0.0000 27.7606
#
#
#
# Elastic Compliance Matrix: (Units=1/GPa)
#
#
# Indices 1 2 3 4 5 6 
#
# 1 0.010236 -0.004720 -0.003484 0.000000 0.000000 0.000000
# 2 -0.004720 0.019474 -0.002051 0.000000 0.000000 0.000000
# 3 -0.003484 -0.002051 0.020969 0.000000 0.000000 0.000000
# 4 0.000000 0.000000 0.000000 0.029764 0.000000 0.000000
# 5 0.000000 0.000000 0.000000 0.000000 0.036060 0.000000
# 6 0.000000 0.000000 0.000000 0.000000 0.000000 0.036022
#
#
# Mechanical properties :
#
#
# Convention : Reuss Voigt Hill
#
# Bulk Modulus (GPa) = 33.14775 40.46843 36.80809
# Shear Modulus (GPa) = 27.30853 28.96127 28.13490
#
# Velocity S-wave (km/s) = 3.73576 3.84715 3.79187
# Velocity P-wave (km/s) = 5.96221 6.35731 6.16293
#
# Compressibility (1/GPa) = 0.03016796
#
# Stress axis : x y z
#
# Youngs Moduli (GPa) = 97.69131 51.35025 47.68993
#
# Poissons Ratio (x) = 0.24236 0.16617
# Poissons Ratio (y) = 0.46109 0.09783
# Poissons Ratio (z) = 0.34040 0.10534
#
# Static dielectric constant tensor:
#      x y z
#    x 3.928240 0.000000 0.000000 
#    y 0.000000 3.534530 0.000000 
#    z 0.000000 0.000000 3.227210 
# 
# 
# High freq. dielectric constant tensor:
#      x y z
#    x 1.782050 0.000000 0.000000 
#    y 0.000000 1.767240 0.000000 
#    z 0.000000 0.000000 1.737780 
# 
# From -- ./inp_files/21120.got.cif
#   From: 2010.03.12/outbox.cif.g09.slc.cpg/sg38_11_cif.got.tgz:21120.got - 2010.04.14 02:38:36.
