data_PCOD8179615
_publ_section_title
;
Structure prediction by ZEFSAII (Michael W. Deem and Ramdas Pophale) SiO2 
 PCOD8179615
Probable space group: A M M 2
;
_chemical_formula_sum "Si O2"
_cell_formula_units_Z 48
_cell_length_a 15.536911
_cell_length_b 8.816131
_cell_length_c 17.836539
_cell_angle_alpha 90.000000
_cell_angle_beta 90.000000
_cell_angle_gamma 90.000000
_cell_volume 2443.167826
_symmetry_space_group_name_H-M "A M M 2"
_symmetry_group_IT_number 38
_symmetry_cell_setting 'orthorhombic'
loop_
_space_group_symop_operation_xyz
x,y,z
-x,-y,z
-x,y,z
x,-y,z
x,1/2+y,1/2+z
-x,1/2-y,1/2+z
-x,1/2+y,1/2+z
x,1/2-y,1/2+z
loop_
_atom_site_type_symbol
_atom_site_label
_atom_site_fract_x
_atom_site_fract_y
_atom_site_fract_z
Si Si1 0.835634 0.679244 0.292070
Si Si2 0.340227 0.321895 0.371514
Si Si3 0.000000 0.680719 0.039617
Si Si4 0.169108 0.680103 0.122029
Si Si5 0.500000 0.322415 0.788405
Si Si6 0.000000 0.820275 0.369539
Si Si7 0.334340 0.176744 0.531604
Si Si8 0.500000 0.326684 0.131207
O O1 0.851203 0.500000 0.294674
O O2 0.750631 0.728236 0.336646
O O3 0.826593 0.739082 0.207084
O O4 0.915880 0.760864 0.328878
O O5 0.353880 0.500000 0.364430
O O6 0.415148 0.243035 0.325808
O O7 0.343921 0.273924 0.457294
O O8 0.916129 0.745134 0.082015
O O9 0.000000 0.500000 0.041553
O O10 0.000000 0.740790 0.954705
O O11 0.168577 0.500000 0.121981
O O12 0.251900 0.738516 0.076748
O O13 0.500000 0.500000 0.801077
O O14 0.500000 0.285171 0.700916
O O15 0.000000 0.000000 0.367737
O O16 0.416929 0.207247 0.581947
O O17 0.325129 0.000000 0.510438
O O18 0.500000 0.500000 0.160342
#
# Coordination Sequence:
#
# PCOD8179615 Si02
#       8
#     8   8   4   8   4   4   8   4
#     4  10  21  38  60  84 112 151 194 235 286 347
#     4  11  23  39  60  87 120 155 194 242 293 347
#     4   9  17  29  49  77 106 139 182 230 276 325
#     4   9  17  32  55  79 105 143 191 235 274 331
#     4  12  25  40  61  87 117 155 197 242 293 348
#     4  11  22  35  55  85 118 149 186 240 296 343
#     4  10  20  36  59  85 114 150 192 236 286 347
#     4  10  21  38  59  83 113 149 191 238 287 344
#
# _framework density 19.646623000000002
#
# number of rings (size 3 to 8) (size 9 to 14) (size 15 to 20)
#    0.000    1.833    0.000    4.500    0.000    8.000 
#    0.000    0.833    0.000    6.000    0.000    0.000 
#    0.000    0.000    0.000    0.000    0.000    0.000 
#
# Total GULP energy -297701.094977 kJ/mol
# GULP energy per Si atom -12404.212291 kJ/mol
# Density = 1.960191 g / cm^3
# Si number density = 19.646623 Si / 1000 Ang^3
#
#
#
# Elastic Constant Matrix: (Units=GPa)
#
#
# Indices 1 2 3 4 5 6 
#
# 1 186.5101 53.5450 75.8290 0.0000 0.0000 0.0000
# 2 53.5450 58.5314 41.0095 0.0000 0.0000 0.0000
# 3 75.8290 41.0095 145.4180 0.0000 0.0000 0.0000
# 4 0.0000 0.0000 0.0000 30.8977 0.0000 0.0000
# 5 0.0000 0.0000 0.0000 0.0000 28.4078 0.0000
# 6 0.0000 0.0000 0.0000 0.0000 0.0000 4.7680
#
#
#
# Elastic Compliance Matrix: (Units=1/GPa)
#
#
# Indices 1 2 3 4 5 6 
#
# 1 0.008003 -0.005480 -0.002628 0.000000 0.000000 0.000000
# 2 -0.005480 0.025045 -0.004205 0.000000 0.000000 0.000000
# 3 -0.002628 -0.004205 0.009433 0.000000 0.000000 0.000000
# 4 0.000000 0.000000 0.000000 0.032365 0.000000 0.000000
# 5 0.000000 0.000000 0.000000 0.000000 0.035202 0.000000
# 6 0.000000 0.000000 0.000000 0.000000 0.000000 0.209730
#
#
# Mechanical properties :
#
#
# Convention : Reuss Voigt Hill
#
# Bulk Modulus (GPa) = 56.00914 81.24739 68.62826
# Shear Modulus (GPa) = 14.27122 27.48643 20.87883
#
# Velocity S-wave (km/s) = 2.69810 3.74443 3.26347
# Velocity P-wave (km/s) = 6.18680 7.75490 7.01481
#
# Compressibility (1/GPa) = 0.01785423
#
# Stress axis : x y z
#
# Youngs Moduli (GPa) = 124.94669 39.92882 106.01149
#
# Poissons Ratio (x) = 0.21882 0.27859
# Poissons Ratio (y) = 0.68475 0.44579
# Poissons Ratio (z) = 0.32835 0.16790
#
# Static dielectric constant tensor:
#      x y z
#    x 3.941700 0.000000 0.000000 
#    y 0.000000 3.294170 0.000000 
#    z 0.000000 0.000000 3.791830 
# 
# 
# High freq. dielectric constant tensor:
#      x y z
#    x 1.789200 0.000000 0.000000 
#    y 0.000000 1.735170 0.000000 
#    z 0.000000 0.000000 1.784670 
# 
# From -- ./inp_files/18227.got.cif
#   From: 2010.03.12/outbox.cif.g09.slc.cpg/sg38_10_cif.got.tgz:18227.got - 2010.04.14 02:38:36.
