data_PCOD8179160
_publ_section_title
;
Structure prediction by ZEFSAII (Michael W. Deem and Ramdas Pophale) SiO2 
 PCOD8179160
Probable space group: A M M 2
;
_chemical_formula_sum "Si O2"
_cell_formula_units_Z 48
_cell_length_a 16.999215
_cell_length_b 8.028853
_cell_length_c 18.710159
_cell_angle_alpha 90.000000
_cell_angle_beta 90.000000
_cell_angle_gamma 90.000000
_cell_volume 2553.641052
_symmetry_space_group_name_H-M "A M M 2"
_symmetry_group_IT_number 38
_symmetry_cell_setting 'orthorhombic'
loop_
_space_group_symop_operation_xyz
x,y,z
-x,-y,z
-x,y,z
x,-y,z
x,1/2+y,1/2+z
-x,1/2-y,1/2+z
-x,1/2+y,1/2+z
x,1/2-y,1/2+z
loop_
_atom_site_type_symbol
_atom_site_label
_atom_site_fract_x
_atom_site_fract_y
_atom_site_fract_z
Si Si1 0.360262 0.809133 0.298910
Si Si2 0.351336 0.187754 0.952452
Si Si3 0.815750 0.314757 0.784988
Si Si4 0.500000 0.805077 0.703466
Si Si5 0.500000 0.194999 0.538376
Si Si6 0.910115 0.000000 0.954557
Si Si7 0.910633 0.500000 0.283906
Si Si8 0.816256 0.818030 0.453834
O O1 0.378824 0.705889 0.370309
O O2 0.274355 0.767689 0.266870
O O3 0.422427 0.771460 0.237845
O O4 0.364381 0.000000 0.322572
O O5 0.275988 0.299465 0.972025
O O6 0.324005 0.000000 0.964666
O O7 0.422666 0.228645 0.004034
O O8 0.837490 0.500000 0.754249
O O9 0.870077 0.168015 0.752357
O O10 0.827242 0.317896 0.869368
O O11 0.500000 0.755752 0.620995
O O12 0.500000 0.000000 0.715980
O O13 0.500000 0.000000 0.525129
O O14 0.868279 0.833235 0.986024
O O15 0.904069 0.000000 0.869212
O O16 0.000000 0.000000 0.980593
O O17 0.000000 0.500000 0.257492
O O18 0.843432 0.000000 0.483936
#
# Coordination Sequence:
#
# PCOD8179160 Si02
#       8
#     8   8   8   4   4   4   4   8
#     4  10  20  34  53  74  99 135 175 216 257 303
#     4  11  20  33  54  76  98 135 182 218 256 308
#     4   8  16  27  42  65  92 128 167 204 245 295
#     4  11  24  37  52  73 101 137 168 217 265 311
#     4  11  24  39  50  71 105 137 168 216 268 314
#     4   9  16  26  40  65  99 133 167 206 256 309
#     4   9  16  24  40  63  95 133 159 202 254 295
#     4   9  16  28  44  66  96 131 170 211 254 300
#
# _framework density 18.796690000000002
#
# number of rings (size 3 to 8) (size 9 to 14) (size 15 to 20)
#    0.000    2.333    0.833    4.000    4.667    2.000 
#    0.000    3.333    0.000    0.000    0.000    0.000 
#    0.000    1.333    0.667    0.000    0.000    0.000 
#
# Total GULP energy -297524.074910 kJ/mol
# GULP energy per Si atom -12396.836455 kJ/mol
# Density = 1.875391 g / cm^3
# Si number density = 18.796690 Si / 1000 Ang^3
#
#
#
# Elastic Constant Matrix: (Units=GPa)
#
#
# Indices 1 2 3 4 5 6 
#
# 1 127.5045 76.6428 28.5319 0.0000 0.0000 0.0000
# 2 76.6428 152.0987 23.8218 0.0000 0.0000 0.0000
# 3 28.5319 23.8218 30.9669 0.0000 0.0000 0.0000
# 4 0.0000 0.0000 0.0000 14.4533 0.0000 0.0000
# 5 0.0000 0.0000 0.0000 0.0000 -1.1755 0.0000
# 6 0.0000 0.0000 0.0000 0.0000 0.0000 26.7292
#
#
#
# Elastic Compliance Matrix: (Units=1/GPa)
#
#
# Indices 1 2 3 4 5 6 
#
# 1 0.012682 -0.005185 -0.007696 0.000000 0.000000 0.000000
# 2 -0.005185 0.009595 -0.002604 0.000000 0.000000 0.000000
# 3 -0.007696 -0.002604 0.041386 0.000000 0.000000 0.000000
# 4 0.000000 0.000000 0.000000 0.069188 0.000000 0.000000
# 5 0.000000 0.000000 0.000000 0.000000 -0.850684 0.000000
# 6 0.000000 0.000000 0.000000 0.000000 0.000000 0.037412
#
#
# Mechanical properties :
#
#
# Convention : Reuss Voigt Hill
#
# Bulk Modulus (GPa) = 30.58699 63.17368 46.88034
# Shear Modulus (GPa) = -7.83022 20.10630 6.13804
#
# Velocity S-wave (km/s) = -2.04323 3.27413 1.80903
# Velocity P-wave (km/s) = 3.27742 6.92641 5.41833
#
# Compressibility (1/GPa) = 0.03269364
#
# Stress axis : x y z
#
# Youngs Moduli (GPa) = 78.85410 104.21825 24.16251
#
# Poissons Ratio (x) = 0.54037 0.18595
# Poissons Ratio (y) = 0.40886 0.06292
# Poissons Ratio (z) = 0.60685 0.27139
#
# Static dielectric constant tensor:
#      x y z
#    x 3.456570 0.000000 0.000000 
#    y 0.000000 3.891860 0.000000 
#    z 0.000000 0.000000 2.824270 
# 
# 
# High freq. dielectric constant tensor:
#      x y z
#    x 1.732960 0.000000 0.000000 
#    y 0.000000 1.755820 0.000000 
#    z 0.000000 0.000000 1.654270 
# 
# From -- ./inp_files/18272.got.cif
#   From: 2010.03.12/outbox.cif.g09.slc.cpg/sg38_10_cif.got.tgz:18272.got - 2010.04.14 02:38:36.
