data_PCOD8179475
_publ_section_title
;
Structure prediction by ZEFSAII (Michael W. Deem and Ramdas Pophale) SiO2 
 PCOD8179475
Probable space group: A M M 2
;
_chemical_formula_sum "Si O2"
_cell_formula_units_Z 64
_cell_length_a 23.889316
_cell_length_b 8.782177
_cell_length_c 15.468777
_cell_angle_alpha 90.000000
_cell_angle_beta 90.000000
_cell_angle_gamma 90.000000
_cell_volume 3245.352532
_symmetry_space_group_name_H-M "A M M 2"
_symmetry_group_IT_number 38
_symmetry_cell_setting 'orthorhombic'
loop_
_space_group_symop_operation_xyz
x,y,z
-x,-y,z
-x,y,z
x,-y,z
x,1/2+y,1/2+z
-x,1/2-y,1/2+z
-x,1/2+y,1/2+z
x,1/2-y,1/2+z
loop_
_atom_site_type_symbol
_atom_site_label
_atom_site_fract_x
_atom_site_fract_y
_atom_site_fract_z
Si Si1 0.634335 0.319113 0.594670
Si Si2 0.874262 0.823369 0.836082
Si Si3 0.364727 0.675967 0.400854
Si Si4 0.240172 0.673853 0.422047
Si Si5 0.435120 0.678576 0.242201
Si Si6 0.751671 0.678345 0.101336
Si Si7 0.861283 0.679435 0.662986
Si Si8 0.062791 0.318888 0.506042
O O1 0.637424 0.500000 0.594791
O O2 0.623168 0.256776 0.496793
O O3 0.584638 0.262164 0.655481
O O4 0.693381 0.255573 0.629001
O O5 0.808569 0.795539 0.853980
O O6 0.891319 0.725758 0.752465
O O7 0.910552 0.761597 0.916316
O O8 0.886987 0.000000 0.818409
O O9 0.380401 0.500000 0.403852
O O10 0.299716 0.703019 0.375871
O O11 0.402891 0.749710 0.325668
O O12 0.237124 0.500000 0.457592
O O13 0.232527 0.785197 0.502666
O O14 0.500000 0.713277 0.255800
O O15 0.422755 0.500000 0.231552
O O16 0.745748 0.500000 0.115929
O O17 0.800911 0.740784 0.161837
O O18 0.853434 0.500000 0.656550
O O19 0.899939 0.742205 0.585284
O O20 0.062430 0.500000 0.507922
O O21 0.000000 0.253531 0.514460
#
# Coordination Sequence:
#
# PCOD8179475 Si02
#       8
#     8   8   8   8   8   8   8   8
#     4  10  21  38  59  85 115 151 193 239 292 346
#     4  10  20  35  57  86 116 151 193 237 288 347
#     4   8  17  34  56  79 109 148 187 224 276 344
#     4   9  17  34  57  82 114 151 190 235 289 348
#     4  10  21  37  57  83 114 152 197 240 284 344
#     4  11  21  35  58  86 118 153 192 238 296 352
#     4  11  22  37  57  86 119 153 195 240 291 348
#     4   9  19  38  61  81 112 159 200 238 291 352
#
# _framework density 19.720507999999999
#
# number of rings (size 3 to 8) (size 9 to 14) (size 15 to 20)
#    0.000    2.250    1.250    2.625    1.750    1.750 
#    0.000    4.375    0.000    2.625    0.000    0.000 
#    0.000    0.000    0.000    0.000    0.000    0.000 
#
# Total GULP energy -396807.931909 kJ/mol
# GULP energy per Si atom -12400.247872 kJ/mol
# Density = 1.967562 g / cm^3
# Si number density = 19.720508 Si / 1000 Ang^3
#
#
#
# Elastic Constant Matrix: (Units=GPa)
#
#
# Indices 1 2 3 4 5 6 
#
# 1 114.1815 30.1914 58.2245 0.0000 0.0000 0.0000
# 2 30.1914 60.5007 27.8330 0.0000 0.0000 0.0000
# 3 58.2245 27.8330 121.9869 0.0000 0.0000 0.0000
# 4 0.0000 0.0000 0.0000 30.6921 0.0000 0.0000
# 5 0.0000 0.0000 0.0000 0.0000 26.7124 0.0000
# 6 0.0000 0.0000 0.0000 0.0000 0.0000 17.9278
#
#
#
# Elastic Compliance Matrix: (Units=1/GPa)
#
#
# Indices 1 2 3 4 5 6 
#
# 1 0.012329 -0.003849 -0.005006 0.000000 0.000000 0.000000
# 2 -0.003849 0.019669 -0.002651 0.000000 0.000000 0.000000
# 3 -0.005006 -0.002651 0.011192 0.000000 0.000000 0.000000
# 4 0.000000 0.000000 0.000000 0.032582 0.000000 0.000000
# 5 0.000000 0.000000 0.000000 0.000000 0.037436 0.000000
# 6 0.000000 0.000000 0.000000 0.000000 0.000000 0.055779
#
#
# Mechanical properties :
#
#
# Convention : Reuss Voigt Hill
#
# Bulk Modulus (GPa) = 49.56010 58.79629 54.17820
# Shear Modulus (GPa) = 25.16054 27.09447 26.12751
#
# Velocity S-wave (km/s) = 3.57579 3.71067 3.64385
# Velocity P-wave (km/s) = 6.49878 6.94538 6.72579
#
# Compressibility (1/GPa) = 0.02017752
#
# Stress axis : x y z
#
# Youngs Moduli (GPa) = 81.11237 50.84158 89.35101
#
# Poissons Ratio (x) = 0.19570 0.44731
# Poissons Ratio (y) = 0.31222 0.23683
# Poissons Ratio (z) = 0.40606 0.13476
#
# Static dielectric constant tensor:
#      x y z
#    x 3.678220 0.000000 0.000000 
#    y 0.000000 3.257470 0.000000 
#    z 0.000000 0.000000 3.695270 
# 
# 
# High freq. dielectric constant tensor:
#      x y z
#    x 1.768020 0.000000 0.000000 
#    y 0.000000 1.736080 0.000000 
#    z 0.000000 0.000000 1.774070 
# 
# From -- ./inp_files/15843.got.cif
#   From: 2010.03.12/outbox.cif.g09.slc.cpg/sg38_8_cif.got.tgz:15843.got - 2010.04.14 02:38:36.
