data_PCOD8179349
_publ_section_title
;
Structure prediction by ZEFSAII (Michael W. Deem and Ramdas Pophale) SiO2 
 PCOD8179349
Probable space group: A M M 2
;
_chemical_formula_sum "Si O2"
_cell_formula_units_Z 48
_cell_length_a 10.115782
_cell_length_b 8.892040
_cell_length_c 27.694026
_cell_angle_alpha 90.000000
_cell_angle_beta 90.000000
_cell_angle_gamma 90.000000
_cell_volume 2491.075927
_symmetry_space_group_name_H-M "A M M 2"
_symmetry_group_IT_number 38
_symmetry_cell_setting 'orthorhombic'
loop_
_space_group_symop_operation_xyz
x,y,z
-x,-y,z
-x,y,z
x,-y,z
x,1/2+y,1/2+z
-x,1/2-y,1/2+z
-x,1/2+y,1/2+z
x,1/2-y,1/2+z
loop_
_atom_site_type_symbol
_atom_site_label
_atom_site_fract_x
_atom_site_fract_y
_atom_site_fract_z
Si Si1 0.500000 0.677818 0.022071
Si Si2 0.280007 0.677721 0.457988
Si Si3 0.228011 0.677558 0.671985
Si Si4 0.149626 0.321773 0.776522
Si Si5 0.500000 0.177053 0.125529
Si Si6 0.000000 0.320432 0.603332
Si Si7 0.000000 0.822193 0.995315
Si Si8 0.650592 0.675797 0.350296
O O1 0.500000 0.500000 0.018608
O O2 0.500000 0.728225 0.077147
O O3 0.630901 0.740937 0.997267
O O4 0.297666 0.500000 0.465197
O O5 0.324493 0.728649 0.404986
O O6 0.129246 0.730994 0.466195
O O7 0.211153 0.500000 0.674487
O O8 0.192337 0.744794 0.724452
O O9 0.375304 0.724473 0.657767
O O10 0.128597 0.741071 0.631427
O O11 0.159005 0.500000 0.776232
O O12 0.248800 0.262091 0.816483
O O13 0.000000 0.269044 0.788181
O O14 0.500000 0.000000 0.112784
O O15 0.000000 0.252891 0.549312
O O16 0.000000 0.500000 0.601353
O O17 0.000000 0.000000 0.999704
O O18 0.500000 0.715733 0.335886
O O19 0.678535 0.500000 0.345249
#
# Coordination Sequence:
#
# PCOD8179349 Si02
#       8
#     4   8   8   8   4   4   4   8
#     4  12  24  38  57  84 119 157 190 227 285 348
#     4  10  20  39  62  85 113 147 192 240 283 333
#     4   9  17  31  53  81 111 144 185 234 278 325
#     4  10  21  37  58  87 120 150 186 235 290 344
#     4  10  20  34  57  84 109 145 194 241 281 326
#     4   9  14  26  47  77 111 135 169 227 282 319
#     4   9  18  30  58  93 109 135 187 241 282 325
#     4  10  22  39  59  83 113 150 192 239 287 338
#
# _framework density 19.268782000000002
#
# number of rings (size 3 to 8) (size 9 to 14) (size 15 to 20)
#    0.000    2.167    1.667    1.750    2.333    4.000 
#    0.000    1.250    0.000    0.000    0.000    0.000 
#    0.000    0.000    0.000    0.000    0.000    0.000 
#
# Total GULP energy -297617.593968 kJ/mol
# GULP energy per Si atom -12400.733082 kJ/mol
# Density = 1.922493 g / cm^3
# Si number density = 19.268782 Si / 1000 Ang^3
#
#
#
# Elastic Constant Matrix: (Units=GPa)
#
#
# Indices 1 2 3 4 5 6 
#
# 1 170.8549 32.3308 60.6777 0.0000 0.0000 0.0000
# 2 32.3308 32.3806 28.3599 0.0000 0.0000 0.0000
# 3 60.6777 28.3599 111.7086 0.0000 0.0000 0.0000
# 4 0.0000 0.0000 0.0000 25.0484 0.0000 0.0000
# 5 0.0000 0.0000 0.0000 0.0000 42.1143 0.0000
# 6 0.0000 0.0000 0.0000 0.0000 0.0000 20.6439
#
#
#
# Elastic Compliance Matrix: (Units=1/GPa)
#
#
# Indices 1 2 3 4 5 6 
#
# 1 0.007904 -0.005313 -0.002944 0.000000 0.000000 0.000000
# 2 -0.005313 0.043284 -0.008103 0.000000 0.000000 0.000000
# 3 -0.002944 -0.008103 0.012608 0.000000 0.000000 0.000000
# 4 0.000000 0.000000 0.000000 0.039923 0.000000 0.000000
# 5 0.000000 0.000000 0.000000 0.000000 0.023745 0.000000
# 6 0.000000 0.000000 0.000000 0.000000 0.000000 0.048440
#
#
# Mechanical properties :
#
#
# Convention : Reuss Voigt Hill
#
# Bulk Modulus (GPa) = 32.17915 61.96452 47.07183
# Shear Modulus (GPa) = 22.83274 30.46637 26.64955
#
# Velocity S-wave (km/s) = 3.44606 3.98065 3.72296
# Velocity P-wave (km/s) = 5.70703 7.30447 6.55459
#
# Compressibility (1/GPa) = 0.03107602
#
# Stress axis : x y z
#
# Youngs Moduli (GPa) = 126.51832 23.10309 79.31273
#
# Poissons Ratio (x) = 0.12275 0.23353
# Poissons Ratio (y) = 0.67219 0.64266
# Poissons Ratio (z) = 0.37253 0.18720
#
# Static dielectric constant tensor:
#      x y z
#    x 3.874200 0.000000 0.000000 
#    y 0.000000 3.043060 0.000000 
#    z 0.000000 0.000000 3.717670 
# 
# 
# High freq. dielectric constant tensor:
#      x y z
#    x 1.770920 0.000000 0.000000 
#    y 0.000000 1.697250 0.000000 
#    z 0.000000 0.000000 1.761890 
# 
# From -- ./inp_files/24486.got.cif
#   From: 2010.03.12/outbox.cif.g09.slc.cpg/sg38_13_cif.got.tgz:24486.got - 2010.04.14 02:38:36.
