data_PCOD8179457
_publ_section_title
;
Structure prediction by ZEFSAII (Michael W. Deem and Ramdas Pophale) SiO2 
 PCOD8179457
Probable space group: A M M 2
;
_chemical_formula_sum "Si O2"
_cell_formula_units_Z 40
_cell_length_a 9.075819
_cell_length_b 8.963336
_cell_length_c 25.735934
_cell_angle_alpha 90.000000
_cell_angle_beta 90.000000
_cell_angle_gamma 90.000000
_cell_volume 2093.608327
_symmetry_space_group_name_H-M "A M M 2"
_symmetry_group_IT_number 38
_symmetry_cell_setting 'orthorhombic'
loop_
_space_group_symop_operation_xyz
x,y,z
-x,-y,z
-x,y,z
x,-y,z
x,1/2+y,1/2+z
-x,1/2-y,1/2+z
-x,1/2+y,1/2+z
x,1/2-y,1/2+z
loop_
_atom_site_type_symbol
_atom_site_label
_atom_site_fract_x
_atom_site_fract_y
_atom_site_fract_z
Si Si1 0.330786 0.175600 0.627230
Si Si2 0.833980 0.822615 0.335328
Si Si3 0.830154 0.675171 0.533241
Si Si4 0.672774 0.826604 0.438101
Si Si5 0.671129 0.671752 0.733574
O O1 0.500000 0.220951 0.615581
O O2 0.224326 0.250895 0.586059
O O3 0.282821 0.231985 0.683878
O O4 0.309326 0.000000 0.624476
O O5 0.745974 0.764074 0.385463
O O6 0.759416 0.762411 0.282720
O O7 0.000000 0.761610 0.338399
O O8 0.828611 0.000000 0.334638
O O9 0.807093 0.500000 0.538170
O O10 0.734803 0.734250 0.485790
O O11 0.000000 0.717985 0.524154
O O12 0.500000 0.799848 0.433841
O O13 0.710559 0.000000 0.447057
O O14 0.500000 0.688802 0.746820
O O15 0.712383 0.500000 0.722403
#
# Coordination Sequence:
#
# PCOD8179457 Si02
#       5
#     8   8   8   8   8
#     4  10  21  37  57  81 108 140 180 223 267 318
#     4   9  17  30  51  79 109 141 178 220 265 313
#     4  11  24  39  55  78 108 141 178 221 270 323
#     4  10  20  35  57  83 109 140 180 222 264 315
#     4   9  17  31  52  77 106 141 180 221 264 312
#
# _framework density 19.10577
#
# number of rings (size 3 to 8) (size 9 to 14) (size 15 to 20)
#    0.000    2.200    0.000    3.000    0.000    9.600 
#    0.000    3.000    0.000    3.600    0.000    0.000 
#    0.000    0.000    0.000    0.000    0.000    0.000 
#
# Total GULP energy -248069.832276 kJ/mol
# GULP energy per Si atom -12403.491614 kJ/mol
# Density = 1.906228 g / cm^3
# Si number density = 19.105770 Si / 1000 Ang^3
#
#
#
# Elastic Constant Matrix: (Units=GPa)
#
#
# Indices 1 2 3 4 5 6 
#
# 1 90.7446 37.4472 68.0792 0.0000 0.0000 0.0000
# 2 37.4472 52.3100 40.0416 0.0000 0.0000 0.0000
# 3 68.0792 40.0416 148.2604 0.0000 0.0000 0.0000
# 4 0.0000 0.0000 0.0000 31.7254 0.0000 0.0000
# 5 0.0000 0.0000 0.0000 0.0000 21.6379 0.0000
# 6 0.0000 0.0000 0.0000 0.0000 0.0000 23.3100
#
#
#
# Elastic Compliance Matrix: (Units=1/GPa)
#
#
# Indices 1 2 3 4 5 6 
#
# 1 0.019713 -0.009055 -0.006606 0.000000 0.000000 0.000000
# 2 -0.009055 0.028258 -0.003474 0.000000 0.000000 0.000000
# 3 -0.006606 -0.003474 0.010717 0.000000 0.000000 0.000000
# 4 0.000000 0.000000 0.000000 0.031520 0.000000 0.000000
# 5 0.000000 0.000000 0.000000 0.000000 0.046215 0.000000
# 6 0.000000 0.000000 0.000000 0.000000 0.000000 0.042900
#
#
# Mechanical properties :
#
#
# Convention : Reuss Voigt Hill
#
# Bulk Modulus (GPa) = 48.97822 64.71678 56.84750
# Shear Modulus (GPa) = 22.28167 25.05113 23.66640
#
# Velocity S-wave (km/s) = 3.41871 3.62495 3.52334
# Velocity P-wave (km/s) = 6.42452 7.17404 6.80960
#
# Compressibility (1/GPa) = 0.02041724
#
# Stress axis : x y z
#
# Youngs Moduli (GPa) = 50.72828 35.38799 93.31238
#
# Poissons Ratio (x) = 0.32043 0.61646
# Poissons Ratio (y) = 0.45934 0.32417
# Poissons Ratio (z) = 0.33513 0.12294
#
# Static dielectric constant tensor:
#      x y z
#    x 3.623860 0.000000 0.000000 
#    y 0.000000 3.277950 0.000000 
#    z 0.000000 0.000000 3.688600 
# 
# 
# High freq. dielectric constant tensor:
#      x y z
#    x 1.748960 0.000000 0.000000 
#    y 0.000000 1.718240 0.000000 
#    z 0.000000 0.000000 1.760270 
# 
# From -- ./inp_files/21661.got.cif
#   From: 2010.03.12/outbox.cif.g09.slc.cpg/sg38_11_cif.got.tgz:21661.got - 2010.04.14 02:38:36.
