data_PCOD8179281
_publ_section_title
;
Structure prediction by ZEFSAII (Michael W. Deem and Ramdas Pophale) SiO2 
 PCOD8179281
Probable space group: A M M 2
;
_chemical_formula_sum "Si O2"
_cell_formula_units_Z 64
_cell_length_a 9.235162
_cell_length_b 33.053866
_cell_length_c 11.481436
_cell_angle_alpha 90.000000
_cell_angle_beta 90.000000
_cell_angle_gamma 90.000000
_cell_volume 3504.797977
_symmetry_space_group_name_H-M "A M M 2"
_symmetry_group_IT_number 38
_symmetry_cell_setting 'orthorhombic'
loop_
_space_group_symop_operation_xyz
x,y,z
-x,-y,z
-x,y,z
x,-y,z
x,1/2+y,1/2+z
-x,1/2-y,1/2+z
-x,1/2+y,1/2+z
x,1/2-y,1/2+z
loop_
_atom_site_type_symbol
_atom_site_label
_atom_site_fract_x
_atom_site_fract_y
_atom_site_fract_z
Si Si1 0.829264 0.723495 0.309300
Si Si2 0.328641 0.624001 0.927805
Si Si3 0.337097 0.303381 0.761175
Si Si4 0.336795 0.677839 0.493124
Si Si5 0.834786 0.645907 0.159775
Si Si6 0.672416 0.045150 0.295720
Si Si7 0.339870 0.547004 0.534983
Si Si8 0.833288 0.104684 0.895701
O O1 0.774791 0.766813 0.268944
O O2 0.751844 0.713796 0.431461
O O3 0.788873 0.689410 0.213306
O O4 0.000000 0.724286 0.331057
O O5 0.500000 0.622059 0.938870
O O6 0.281274 0.659577 0.840164
O O7 0.269179 0.580399 0.881948
O O8 0.265836 0.633910 0.053599
O O9 0.500000 0.290129 0.798748
O O10 0.337572 0.317464 0.629893
O O11 0.500000 0.677715 0.443373
O O12 0.259686 0.635868 0.469611
O O13 0.813946 0.611480 0.257892
O O14 0.000000 0.647701 0.116374
O O15 0.500000 0.044441 0.296055
O O16 0.723159 0.055865 0.164383
O O17 0.729275 0.000000 0.332815
O O18 0.500000 0.567054 0.520659
O O19 0.355726 0.500000 0.515507
O O20 0.229010 0.561628 0.435184
O O21 0.000000 0.109421 0.930893
#
# Coordination Sequence:
#
# PCOD8179281 Si02
#       8
#     8   8   8   8   8   8   8   8
#     4  10  22  38  55  76 105 140 180 224 273 327
#     4  10  20  34  55  82 107 138 182 226 269 322
#     4  10  22  36  53  80 109 137 174 224 275 326
#     4  10  20  36  57  78 103 135 175 221 268 320
#     4   9  21  39  53  71 103 144 183 220 267 323
#     4   8  15  31  55  82 112 142 174 220 276 326
#     4   9  17  31  55  84 111 140 176 221 273 328
#     4  10  20  35  54  76 106 142 179 219 269 325
#
# _framework density 18.260681000000002
#
# number of rings (size 3 to 8) (size 9 to 14) (size 15 to 20)
#    0.000    2.500    0.000    3.375    1.750    6.750 
#    0.000    2.500    0.000    3.375    0.000    0.000 
#    0.000    0.000    0.000    0.000    0.000    0.000 
#
# Total GULP energy -396712.485917 kJ/mol
# GULP energy per Si atom -12397.265185 kJ/mol
# Density = 1.821912 g / cm^3
# Si number density = 18.260681 Si / 1000 Ang^3
#
#
#
# Elastic Constant Matrix: (Units=GPa)
#
#
# Indices 1 2 3 4 5 6 
#
# 1 83.7769 43.0500 49.5753 0.0000 0.0000 0.0000
# 2 43.0500 95.2148 60.2187 0.0000 0.0000 0.0000
# 3 49.5753 60.2187 98.9592 0.0000 0.0000 0.0000
# 4 0.0000 0.0000 0.0000 16.9405 0.0000 0.0000
# 5 0.0000 0.0000 0.0000 0.0000 12.0040 0.0000
# 6 0.0000 0.0000 0.0000 0.0000 0.0000 21.6995
#
#
#
# Elastic Compliance Matrix: (Units=1/GPa)
#
#
# Indices 1 2 3 4 5 6 
#
# 1 0.017823 -0.003920 -0.006543 0.000000 0.000000 0.000000
# 2 -0.003920 0.017936 -0.008950 0.000000 0.000000 0.000000
# 3 -0.006543 -0.008950 0.018830 0.000000 0.000000 0.000000
# 4 0.000000 0.000000 0.000000 0.059030 0.000000 0.000000
# 5 0.000000 0.000000 0.000000 0.000000 0.083305 0.000000
# 6 0.000000 0.000000 0.000000 0.000000 0.000000 0.046084
#
#
# Mechanical properties :
#
#
# Convention : Reuss Voigt Hill
#
# Bulk Modulus (GPa) = 63.44878 64.84877 64.14877
# Shear Modulus (GPa) = 17.41624 18.46927 17.94276
#
# Velocity S-wave (km/s) = 3.09165 3.18374 3.13803
# Velocity P-wave (km/s) = 6.89680 7.00748 6.95236
#
# Compressibility (1/GPa) = 0.01576074
#
# Stress axis : x y z
#
# Youngs Moduli (GPa) = 56.10788 55.75488 53.10794
#
# Poissons Ratio (x) = 0.21856 0.34750
# Poissons Ratio (y) = 0.21995 0.47534
# Poissons Ratio (z) = 0.36712 0.49903
#
# Static dielectric constant tensor:
#      x y z
#    x 3.359830 0.000000 0.000000 
#    y 0.000000 3.610450 0.000000 
#    z 0.000000 0.000000 3.319200 
# 
# 
# High freq. dielectric constant tensor:
#      x y z
#    x 1.697990 0.000000 0.000000 
#    y 0.000000 1.710090 0.000000 
#    z 0.000000 0.000000 1.701320 
# 
# From -- ./inp_files/8582.got.cif
#   From: 2010.03.12/outbox.cif.g09.slc.cpg/sg38_5_cif.got.tgz:8582.got - 2010.04.14 02:38:36.
