data_PCOD8179652
_publ_section_title
;
Structure prediction by ZEFSAII (Michael W. Deem and Ramdas Pophale) SiO2 
 PCOD8179652
Probable space group: A M M 2
;
_chemical_formula_sum "Si O2"
_cell_formula_units_Z 48
_cell_length_a 8.957035
_cell_length_b 22.896333
_cell_length_c 11.602451
_cell_angle_alpha 90.000000
_cell_angle_beta 90.000000
_cell_angle_gamma 90.000000
_cell_volume 2379.468429
_symmetry_space_group_name_H-M "A M M 2"
_symmetry_group_IT_number 38
_symmetry_cell_setting 'orthorhombic'
loop_
_space_group_symop_operation_xyz
x,y,z
-x,-y,z
-x,y,z
x,-y,z
x,1/2+y,1/2+z
-x,1/2-y,1/2+z
-x,1/2+y,1/2+z
x,1/2-y,1/2+z
loop_
_atom_site_type_symbol
_atom_site_label
_atom_site_fract_x
_atom_site_fract_y
_atom_site_fract_z
Si Si1 0.665486 0.565390 0.440420
Si Si2 0.171374 0.357758 0.022176
Si Si3 0.323350 0.932341 0.337145
Si Si4 0.827169 0.368553 0.628131
Si Si5 0.828996 0.772378 0.953069
Si Si6 0.332025 0.339537 0.258343
O O1 0.500000 0.572677 0.497640
O O2 0.700371 0.500000 0.406140
O O3 0.792782 0.585173 0.528245
O O4 0.671575 0.598611 0.320659
O O5 0.191520 0.296576 0.957172
O O6 0.226904 0.346558 0.150004
O O7 0.000000 0.377247 0.025634
O O8 0.262858 0.409113 0.959487
O O9 0.500000 0.929229 0.338934
O O10 0.264473 0.887489 0.240373
O O11 0.271626 0.000000 0.316784
O O12 0.781638 0.304878 0.573933
O O13 0.000000 0.370224 0.663083
O O14 0.000000 0.790161 0.927829
O O15 0.727893 0.790819 0.845982
O O16 0.500000 0.322259 0.220768
#
# Coordination Sequence:
#
# PCOD8179652 Si02
#       6
#     8   8   8   8   8   8
#     4   9  18  34  56  82 115 154 192 236 291 345
#     4  11  24  41  62  86 118 159 202 249 304 363
#     4  11  25  43  61  86 123 164 206 253 306 362
#     4  10  20  36  60  90 120 154 196 245 299 356
#     4   9  21  40  61  86 119 156 195 246 305 358
#     4  10  21  37  58  87 118 151 195 244 296 356
#
# _framework density 20.172571999999999
#
# number of rings (size 3 to 8) (size 9 to 14) (size 15 to 20)
#    0.000    2.000    0.000    2.500    2.333    7.000 
#    0.000    1.667    0.000    0.000    0.000    0.000 
#    0.000    0.000    0.000    0.000    0.000    0.000 
#
# Total GULP energy -297553.560949 kJ/mol
# GULP energy per Si atom -12398.065040 kJ/mol
# Density = 2.012666 g / cm^3
# Si number density = 20.172572 Si / 1000 Ang^3
#
#
#
# Elastic Constant Matrix: (Units=GPa)
#
#
# Indices 1 2 3 4 5 6 
#
# 1 82.1370 41.2163 37.8352 0.0000 0.0000 0.0000
# 2 41.2163 69.5686 18.0084 0.0000 0.0000 0.0000
# 3 37.8352 18.0084 81.0809 0.0000 0.0000 0.0000
# 4 0.0000 0.0000 0.0000 13.1263 0.0000 0.0000
# 5 0.0000 0.0000 0.0000 0.0000 39.6259 0.0000
# 6 0.0000 0.0000 0.0000 0.0000 0.0000 27.7427
#
#
#
# Elastic Compliance Matrix: (Units=1/GPa)
#
#
# Indices 1 2 3 4 5 6 
#
# 1 0.020807 -0.010413 -0.007397 0.000000 0.000000 0.000000
# 2 -0.010413 0.020462 0.000314 0.000000 0.000000 0.000000
# 3 -0.007397 0.000314 0.015715 0.000000 0.000000 0.000000
# 4 0.000000 0.000000 0.000000 0.076183 0.000000 0.000000
# 5 0.000000 0.000000 0.000000 0.000000 0.025236 0.000000
# 6 0.000000 0.000000 0.000000 0.000000 0.000000 0.036046
#
#
# Mechanical properties :
#
#
# Convention : Reuss Voigt Hill
#
# Bulk Modulus (GPa) = 45.46678 47.43405 46.45041
# Shear Modulus (GPa) = 21.11757 25.14741 23.13249
#
# Velocity S-wave (km/s) = 3.23901 3.53457 3.39001
# Velocity P-wave (km/s) = 6.04782 6.34214 6.19673
#
# Compressibility (1/GPa) = 0.02199408
#
# Stress axis : x y z
#
# Youngs Moduli (GPa) = 48.06095 48.87124 63.63311
#
# Poissons Ratio (x) = 0.50887 0.47067
# Poissons Ratio (y) = 0.50044 -0.01999
# Poissons Ratio (z) = 0.35549 -0.01535
#
# Static dielectric constant tensor:
#      x y z
#    x 3.808160 0.000000 0.000000 
#    y 0.000000 3.847120 0.000000 
#    z 0.000000 0.000000 3.534280 
# 
# 
# High freq. dielectric constant tensor:
#      x y z
#    x 1.793340 0.000000 0.000000 
#    y 0.000000 1.790260 0.000000 
#    z 0.000000 0.000000 1.784510 
# 
# From -- ./inp_files/8120.got.cif
#   From: 2010.03.12/outbox.cif.g09.slc.cpg/sg38_5_cif.got.tgz:8120.got - 2010.04.14 02:38:36.
