data_PCOD8179868
_publ_section_title
;
Structure prediction by ZEFSAII (Michael W. Deem and Ramdas Pophale) SiO2 
 PCOD8179868
Probable space group: A M M 2
;
_chemical_formula_sum "Si O2"
_cell_formula_units_Z 64
_cell_length_a 9.309902
_cell_length_b 18.458271
_cell_length_c 20.770655
_cell_angle_alpha 90.000000
_cell_angle_beta 90.000000
_cell_angle_gamma 90.000000
_cell_volume 3569.326855
_symmetry_space_group_name_H-M "A M M 2"
_symmetry_group_IT_number 38
_symmetry_cell_setting 'orthorhombic'
loop_
_space_group_symop_operation_xyz
x,y,z
-x,-y,z
-x,y,z
x,-y,z
x,1/2+y,1/2+z
-x,1/2-y,1/2+z
-x,1/2+y,1/2+z
x,1/2-y,1/2+z
loop_
_atom_site_type_symbol
_atom_site_label
_atom_site_fract_x
_atom_site_fract_y
_atom_site_fract_z
Si Si1 0.665044 0.835083 0.721320
Si Si2 0.333161 0.584071 0.092743
Si Si3 0.666839 0.584072 0.844780
Si Si4 0.334956 0.164917 0.216203
Si Si5 0.171445 0.917603 0.107525
Si Si6 0.828555 0.917603 0.829998
Si Si7 0.837661 0.413877 0.968761
Si Si8 0.843568 0.585586 0.468761
O O1 0.500000 0.855668 0.734743
O O2 0.716426 0.870449 0.654548
O O3 0.688729 0.750000 0.718762
O O4 0.761395 0.864643 0.778435
O O5 0.500000 0.596017 0.076804
O O6 0.299497 0.500000 0.106431
O O7 0.243264 0.614455 0.032338
O O8 0.500000 0.596017 0.860719
O O9 0.700504 0.500000 0.831094
O O10 0.716426 0.629550 0.782975
O O11 0.756735 0.614457 0.905186
O O12 0.500000 0.144331 0.202780
O O13 0.238605 0.135357 0.159088
O O14 0.000000 0.910551 0.108276
O O15 0.217449 0.000000 0.123346
O O16 0.233342 0.893660 0.036484
O O17 0.766657 0.893660 0.901038
O O18 0.000000 0.910551 0.829247
O O19 0.782551 0.000000 0.814176
O O20 0.834072 0.500000 0.968759
O O21 0.000000 0.383981 0.968762
O O22 0.865285 0.500000 0.468762
O O23 0.000000 0.622993 0.468761
#
# Coordination Sequence:
#
# PCOD8179868 Si02
#       8
#     8   8   8   8   8   8   8   8
#     4  10  21  35  49  69 100 135 168 202 241 286
#     4   9  17  31  51  71  93 126 163 196 238 292
#     4   9  17  31  51  71  93 126 163 196 238 292
#     4  10  21  35  49  69 100 135 168 202 241 286
#     4   9  17  31  53  77  99 127 163 201 242 290
#     4   9  17  31  53  77  99 127 163 201 242 290
#     4   9  17  29  48  75 100 118 148 201 250 285
#     4   7  12  26  48  73  98 122 152 193 242 293
#
# _framework density 17.930551999999999
#
# number of rings (size 3 to 8) (size 9 to 14) (size 15 to 20)
#    0.000    3.000    0.000    2.625    0.000    4.500 
#    0.000    4.375    0.000    6.750    0.000    0.000 
#    0.000    0.000    0.000    0.000    0.000    0.000 
#
# Total GULP energy -396609.818750 kJ/mol
# GULP energy per Si atom -12394.056836 kJ/mol
# Density = 1.788974 g / cm^3
# Si number density = 17.930552 Si / 1000 Ang^3
#
#
#
# Elastic Constant Matrix: (Units=GPa)
#
#
# Indices 1 2 3 4 5 6 
#
# 1 56.8823 27.1801 63.0861 0.0000 0.0000 0.0000
# 2 27.1801 54.2586 55.3377 0.0000 0.0000 0.0000
# 3 63.0861 55.3377 182.8510 0.0000 0.0000 0.0000
# 4 0.0000 0.0000 0.0000 -0.8358 0.0000 0.0000
# 5 0.0000 0.0000 0.0000 0.0000 23.8365 0.0000
# 6 0.0000 0.0000 0.0000 0.0000 0.0000 15.9686
#
#
#
# Elastic Compliance Matrix: (Units=1/GPa)
#
#
# Indices 1 2 3 4 5 6 
#
# 1 0.029964 -0.006461 -0.008383 0.000000 0.000000 0.000000
# 2 -0.006461 0.028052 -0.006260 0.000000 0.000000 0.000000
# 3 -0.008383 -0.006260 0.010256 0.000000 0.000000 0.000000
# 4 0.000000 0.000000 0.000000 -1.196416 0.000000 0.000000
# 5 0.000000 0.000000 0.000000 0.000000 0.041952 0.000000
# 6 0.000000 0.000000 0.000000 0.000000 0.000000 0.062623
#
#
# Mechanical properties :
#
#
# Convention : Reuss Voigt Hill
#
# Bulk Modulus (GPa) = 38.36743 65.02219 51.69481
# Shear Modulus (GPa) = -5.14048 17.68640 6.27296
#
# Velocity S-wave (km/s) = -1.69502 3.14408 1.87245
# Velocity P-wave (km/s) = 4.19684 7.03722 5.79378
#
# Compressibility (1/GPa) = 0.02606377
#
# Stress axis : x y z
#
# Youngs Moduli (GPa) = 33.37291 35.64856 97.50584
#
# Poissons Ratio (x) = 0.23031 0.81738
# Poissons Ratio (y) = 0.21561 0.61043
# Poissons Ratio (z) = 0.27976 0.22318
#
# Static dielectric constant tensor:
#      x y z
#    x 3.145200 0.000000 0.000000 
#    y 0.000000 2.980300 0.000000 
#    z 0.000000 0.000000 3.660720 
# 
# 
# High freq. dielectric constant tensor:
#      x y z
#    x 1.673280 0.000000 0.000000 
#    y 0.000000 1.661290 0.000000 
#    z 0.000000 0.000000 1.715480 
# 
# From -- ./inp_files/20062.got.cif
#   From: 2010.03.12/outbox.cif.g09.slc.cpg/sg38_11_cif.got.tgz:20062.got - 2010.04.14 02:38:36.
