data_PCOD8179426
_publ_section_title
;
Structure prediction by ZEFSAII (Michael W. Deem and Ramdas Pophale) SiO2 
 PCOD8179426
Probable space group: A M M 2
;
_chemical_formula_sum "Si O2"
_cell_formula_units_Z 48
_cell_length_a 8.796482
_cell_length_b 16.326008
_cell_length_c 18.373602
_cell_angle_alpha 90.000000
_cell_angle_beta 90.000000
_cell_angle_gamma 90.000000
_cell_volume 2638.659359
_symmetry_space_group_name_H-M "A M M 2"
_symmetry_group_IT_number 38
_symmetry_cell_setting 'orthorhombic'
loop_
_space_group_symop_operation_xyz
x,y,z
-x,-y,z
-x,y,z
x,-y,z
x,1/2+y,1/2+z
-x,1/2-y,1/2+z
-x,1/2+y,1/2+z
x,1/2-y,1/2+z
loop_
_atom_site_type_symbol
_atom_site_label
_atom_site_fract_x
_atom_site_fract_y
_atom_site_fract_z
Si Si1 0.673363 0.837352 0.278010
Si Si2 0.179505 0.833903 0.021672
Si Si3 0.821827 0.000000 0.257980
Si Si4 0.176394 0.404954 0.232098
Si Si5 0.324202 0.178886 0.867224
Si Si6 0.180406 0.000000 0.094667
Si Si7 0.319808 0.230944 0.642407
O O1 0.500000 0.863801 0.269930
O O2 0.696358 0.772434 0.342220
O O3 0.731421 0.798323 0.202116
O O4 0.767242 0.918235 0.298852
O O5 0.240688 0.919698 0.053508
O O6 0.261871 0.759510 0.063606
O O7 0.000000 0.824177 0.031329
O O8 0.221887 0.832753 0.937630
O O9 0.753624 0.000000 0.176293
O O10 0.000000 0.000000 0.257293
O O11 0.200530 0.500000 0.214575
O O12 0.267259 0.382746 0.305193
O O13 0.242049 0.355109 0.163246
O O14 0.000000 0.383248 0.243698
O O15 0.500000 0.159243 0.883950
O O16 0.000000 0.000000 0.095727
O O17 0.500000 0.218326 0.642506
#
# Coordination Sequence:
#
# PCOD8179426 Si02
#       7
#     8   8   4   8   8   4   8
#     4   9  19  35  53  76 108 143 179 220 266 318
#     4  11  21  36  56  80 114 149 182 222 269 326
#     4  11  19  31  55  83 109 136 177 222 263 317
#     4  10  21  37  58  83 109 142 184 229 275 326
#     4  10  22  38  55  80 112 146 183 224 274 328
#     4   9  20  33  49  81 115 142 173 216 267 317
#     4  10  20  35  56  81 109 144 184 225 271 325
#
# _framework density 18.191054999999999
#
# number of rings (size 3 to 8) (size 9 to 14) (size 15 to 20)
#    0.000    2.000    1.667    3.250    1.167    4.667 
#    0.000    1.250    1.833    0.000    0.000    0.000 
#    0.000    0.000    0.000    0.000    0.000    0.000 
#
# Total GULP energy -297676.955784 kJ/mol
# GULP energy per Si atom -12403.206491 kJ/mol
# Density = 1.814965 g / cm^3
# Si number density = 18.191055 Si / 1000 Ang^3
#
#
#
# Elastic Constant Matrix: (Units=GPa)
#
#
# Indices 1 2 3 4 5 6 
#
# 1 72.4198 47.7429 12.8823 0.0000 0.0000 0.0000
# 2 47.7429 117.5065 29.0517 0.0000 0.0000 0.0000
# 3 12.8823 29.0517 63.2334 0.0000 0.0000 0.0000
# 4 0.0000 0.0000 0.0000 20.1834 0.0000 0.0000
# 5 0.0000 0.0000 0.0000 0.0000 32.3659 0.0000
# 6 0.0000 0.0000 0.0000 0.0000 0.0000 29.9097
#
#
#
# Elastic Compliance Matrix: (Units=1/GPa)
#
#
# Indices 1 2 3 4 5 6 
#
# 1 0.018868 -0.007576 -0.000363 0.000000 0.000000 0.000000
# 2 -0.007576 0.012643 -0.004265 0.000000 0.000000 0.000000
# 3 -0.000363 -0.004265 0.017848 0.000000 0.000000 0.000000
# 4 0.000000 0.000000 0.000000 0.049546 0.000000 0.000000
# 5 0.000000 0.000000 0.000000 0.000000 0.030897 0.000000
# 6 0.000000 0.000000 0.000000 0.000000 0.000000 0.033434
#
#
# Mechanical properties :
#
#
# Convention : Reuss Voigt Hill
#
# Bulk Modulus (GPa) = 40.08064 48.05703 44.06884
# Shear Modulus (GPa) = 25.51546 27.39067 26.45306
#
# Velocity S-wave (km/s) = 3.74924 3.88457 3.81751
# Velocity P-wave (km/s) = 6.38932 6.82607 6.61130
#
# Compressibility (1/GPa) = 0.02494970
#
# Stress axis : x y z
#
# Youngs Moduli (GPa) = 53.00114 79.09631 56.02891
#
# Poissons Ratio (x) = 0.59924 0.02034
# Poissons Ratio (y) = 0.40154 0.23897
# Poissons Ratio (z) = 0.01924 0.33735
#
# Static dielectric constant tensor:
#      x y z
#    x 3.347860 0.000000 0.000000 
#    y 0.000000 3.399630 0.000000 
#    z 0.000000 0.000000 3.179240 
# 
# 
# High freq. dielectric constant tensor:
#      x y z
#    x 1.712130 0.000000 0.000000 
#    y 0.000000 1.706800 0.000000 
#    z 0.000000 0.000000 1.684630 
# 
# From -- ./inp_files/12108.got.cif
#   From: 2010.03.12/outbox.cif.g09.slc.cpg/sg38_7_cif.got.tgz:12108.got - 2010.04.14 02:38:36.
