data_PCOD8179880
_publ_section_title
;
Structure prediction by ZEFSAII (Michael W. Deem and Ramdas Pophale) SiO2 
 PCOD8179880
Probable space group: A M M 2
;
_chemical_formula_sum "Si O2"
_cell_formula_units_Z 48
_cell_length_a 8.767558
_cell_length_b 29.379044
_cell_length_c 10.044782
_cell_angle_alpha 90.000000
_cell_angle_beta 90.000000
_cell_angle_gamma 90.000000
_cell_volume 2587.359781
_symmetry_space_group_name_H-M "A M M 2"
_symmetry_group_IT_number 38
_symmetry_cell_setting 'orthorhombic'
loop_
_space_group_symop_operation_xyz
x,y,z
-x,-y,z
-x,y,z
x,-y,z
x,1/2+y,1/2+z
-x,1/2-y,1/2+z
-x,1/2+y,1/2+z
x,1/2-y,1/2+z
loop_
_atom_site_type_symbol
_atom_site_label
_atom_site_fract_x
_atom_site_fract_y
_atom_site_fract_z
Si Si1 0.822954 0.051560 0.090080
Si Si2 0.321457 0.622700 0.101575
Si Si3 0.179178 0.282094 0.078141
Si Si4 0.672702 0.386184 0.799377
Si Si5 0.680314 0.551016 0.317411
Si Si6 0.323248 0.219530 0.295851
O O1 0.785992 0.083242 0.214511
O O2 0.000000 0.054289 0.058835
O O3 0.771796 0.000000 0.123568
O O4 0.736138 0.069700 0.959493
O O5 0.500000 0.633909 0.121382
O O6 0.227262 0.668252 0.129997
O O7 0.259927 0.584324 0.202111
O O8 0.290971 0.604268 0.953571
O O9 0.220980 0.246105 0.191016
O O10 0.000000 0.280871 0.049838
O O11 0.268317 0.268658 0.944265
O O12 0.500000 0.400307 0.765272
O O13 0.700430 0.333569 0.765984
O O14 0.500000 0.550356 0.316916
O O15 0.744968 0.500000 0.292156
O O16 0.500000 0.233676 0.283274
#
# Coordination Sequence:
#
# PCOD8179880 Si02
#       6
#     8   8   8   8   8   8
#     4  10  21  35  51  75 108 142 174 212 261 314
#     4   9  19  36  56  79 107 138 174 217 267 319
#     4  11  22  36  56  83 111 140 178 222 267 316
#     4   9  19  35  56  79 102 134 175 217 260 309
#     4   9  18  34  56  79 103 135 177 221 261 307
#     4  10  21  39  59  79 107 143 180 219 268 321
#
# _framework density 18.551731
#
# number of rings (size 3 to 8) (size 9 to 14) (size 15 to 20)
#    0.000    2.333    0.000    3.500    0.000    7.000 
#    0.000    3.333    0.000    2.000    0.000    0.000 
#    0.000    0.000    0.000    0.000    0.000    0.000 
#
# Total GULP energy -297676.228461 kJ/mol
# GULP energy per Si atom -12403.176186 kJ/mol
# Density = 1.850951 g / cm^3
# Si number density = 18.551731 Si / 1000 Ang^3
#
#
#
# Elastic Constant Matrix: (Units=GPa)
#
#
# Indices 1 2 3 4 5 6 
#
# 1 46.6904 25.2566 17.4839 0.0000 0.0000 0.0000
# 2 25.2566 76.7259 63.3027 0.0000 0.0000 0.0000
# 3 17.4839 63.3027 100.7360 0.0000 0.0000 0.0000
# 4 0.0000 0.0000 0.0000 39.3556 0.0000 0.0000
# 5 0.0000 0.0000 0.0000 0.0000 21.5932 0.0000
# 6 0.0000 0.0000 0.0000 0.0000 0.0000 27.4683
#
#
#
# Elastic Compliance Matrix: (Units=1/GPa)
#
#
# Indices 1 2 3 4 5 6 
#
# 1 0.026216 -0.010125 0.001813 0.000000 0.000000 0.000000
# 2 -0.010125 0.030977 -0.017709 0.000000 0.000000 0.000000
# 3 0.001813 -0.017709 0.020740 0.000000 0.000000 0.000000
# 4 0.000000 0.000000 0.000000 0.025409 0.000000 0.000000
# 5 0.000000 0.000000 0.000000 0.000000 0.046311 0.000000
# 6 0.000000 0.000000 0.000000 0.000000 0.000000 0.036406
#
#
# Mechanical properties :
#
#
# Convention : Reuss Voigt Hill
#
# Bulk Modulus (GPa) = 38.62356 48.47097 43.54727
# Shear Modulus (GPa) = 20.26489 25.55735 22.91112
#
# Velocity S-wave (km/s) = 3.30865 3.71567 3.51805
# Velocity P-wave (km/s) = 5.95490 6.67775 6.32666
#
# Compressibility (1/GPa) = 0.02589093
#
# Stress axis : x y z
#
# Youngs Moduli (GPa) = 38.14453 32.28210 48.21499
#
# Poissons Ratio (x) = 0.32687 -0.08740
# Poissons Ratio (y) = 0.38623 0.85382
# Poissons Ratio (z) = -0.06914 0.57167
#
# Static dielectric constant tensor:
#      x y z
#    x 3.329450 0.000000 0.000000 
#    y 0.000000 3.485140 0.000000 
#    z 0.000000 0.000000 3.416550 
# 
# 
# High freq. dielectric constant tensor:
#      x y z
#    x 1.718070 0.000000 0.000000 
#    y 0.000000 1.717420 0.000000 
#    z 0.000000 0.000000 1.724470 
# 
# From -- ./inp_files/3739.got.cif
#   From: 2010.03.12/outbox.cif.g09.slc.cpg/sg38_2_cif.got.tgz:3739.got - 2010.04.14 02:38:36.
