data_PCOD8179141
_publ_section_title
;
Structure prediction by ZEFSAII (Michael W. Deem and Ramdas Pophale) SiO2 
 PCOD8179141
Probable space group: A M M 2
;
_chemical_formula_sum "Si O2"
_cell_formula_units_Z 56
_cell_length_a 14.127261
_cell_length_b 8.902516
_cell_length_c 25.626276
_cell_angle_alpha 90.000000
_cell_angle_beta 90.000000
_cell_angle_gamma 90.000000
_cell_volume 3222.969762
_symmetry_space_group_name_H-M "A M M 2"
_symmetry_group_IT_number 38
_symmetry_cell_setting 'orthorhombic'
loop_
_space_group_symop_operation_xyz
x,y,z
-x,-y,z
-x,y,z
x,-y,z
x,1/2+y,1/2+z
-x,1/2-y,1/2+z
-x,1/2+y,1/2+z
x,1/2-y,1/2+z
loop_
_atom_site_type_symbol
_atom_site_label
_atom_site_fract_x
_atom_site_fract_y
_atom_site_fract_z
Si Si1 0.392349 0.325168 0.829710
Si Si2 0.217536 0.822926 0.177639
Si Si3 0.607036 0.823848 0.719456
Si Si4 0.109143 0.173409 0.074482
Si Si5 0.110267 0.325752 0.967955
Si Si6 0.221266 0.676395 0.375852
Si Si7 0.109670 0.824984 0.772171
O O1 0.500000 0.295813 0.847931
O O2 0.372810 0.500000 0.820724
O O3 0.369658 0.240263 0.776217
O O4 0.322733 0.259336 0.873527
O O5 0.322015 0.750474 0.178172
O O6 0.169776 0.772446 0.123769
O O7 0.154247 0.767985 0.225404
O O8 0.227060 0.000000 0.181451
O O9 0.500000 0.784710 0.702414
O O10 0.625027 0.000000 0.721747
O O11 0.000000 0.199740 0.089038
O O12 0.128340 0.000000 0.060552
O O13 0.140128 0.274821 0.025773
O O14 0.134565 0.500000 0.960805
O O15 0.168789 0.227978 0.927569
O O16 0.000000 0.292261 0.958618
O O17 0.238690 0.500000 0.378568
O O18 0.158549 0.722956 0.326129
O O19 0.000000 0.783024 0.777017
O O20 0.125189 0.000000 0.760558
#
# Coordination Sequence:
#
# PCOD8179141 Si02
#       7
#     8   8   8   8   8   8   8
#     4  10  20  34  53  78 107 138 175 219 264 311
#     4  11  21  33  53  79 107 139 175 218 268 315
#     4  10  20  34  52  75 105 141 179 216 259 315
#     4   9  19  36  55  76 104 139 178 218 263 316
#     4  10  21  36  55  79 105 138 181 225 266 309
#     4  11  21  34  54  78 107 143 178 214 262 317
#     4  10  21  34  48  72 107 144 177 209 254 313
#
# _framework density 17.375278999999999
#
# number of rings (size 3 to 8) (size 9 to 14) (size 15 to 20)
#    0.000    1.857    1.429    3.000    0.000    5.714 
#    0.000    1.429    0.000    0.857    0.000    4.000 
#    0.000    0.000    0.000    0.000    0.000    0.000 
#
# Total GULP energy -347320.191611 kJ/mol
# GULP energy per Si atom -12404.292558 kJ/mol
# Density = 1.733573 g / cm^3
# Si number density = 17.375279 Si / 1000 Ang^3
#
#
#
# Elastic Constant Matrix: (Units=GPa)
#
#
# Indices 1 2 3 4 5 6 
#
# 1 111.5821 45.7325 60.4613 0.0000 0.0000 0.0000
# 2 45.7325 67.5378 42.1880 0.0000 0.0000 0.0000
# 3 60.4613 42.1880 101.6813 0.0000 0.0000 0.0000
# 4 0.0000 0.0000 0.0000 30.9272 0.0000 0.0000
# 5 0.0000 0.0000 0.0000 0.0000 21.9680 0.0000
# 6 0.0000 0.0000 0.0000 0.0000 0.0000 31.8348
#
#
#
# Elastic Compliance Matrix: (Units=1/GPa)
#
#
# Indices 1 2 3 4 5 6 
#
# 1 0.014901 -0.006149 -0.006309 0.000000 0.000000 0.000000
# 2 -0.006149 0.022524 -0.005689 0.000000 0.000000 0.000000
# 3 -0.006309 -0.005689 0.015946 0.000000 0.000000 0.000000
# 4 0.000000 0.000000 0.000000 0.032334 0.000000 0.000000
# 5 0.000000 0.000000 0.000000 0.000000 0.045521 0.000000
# 6 0.000000 0.000000 0.000000 0.000000 0.000000 0.031412
#
#
# Mechanical properties :
#
#
# Convention : Reuss Voigt Hill
#
# Bulk Modulus (GPa) = 58.55747 64.17386 61.36567
# Shear Modulus (GPa) = 24.43505 25.77398 25.10452
#
# Velocity S-wave (km/s) = 3.75415 3.85563 3.80523
# Velocity P-wave (km/s) = 7.25026 7.53893 7.39600
#
# Compressibility (1/GPa) = 0.01707724
#
# Stress axis : x y z
#
# Youngs Moduli (GPa) = 67.11075 44.39734 62.70986
#
# Poissons Ratio (x) = 0.27300 0.39564
# Poissons Ratio (y) = 0.41266 0.35676
# Poissons Ratio (z) = 0.42340 0.25258
#
# Static dielectric constant tensor:
#      x y z
#    x 3.414970 0.000000 0.000000 
#    y 0.000000 3.296190 0.000000 
#    z 0.000000 0.000000 3.107380 
# 
# 
# High freq. dielectric constant tensor:
#      x y z
#    x 1.675710 0.000000 0.000000 
#    y 0.000000 1.683930 0.000000 
#    z 0.000000 0.000000 1.652600 
# 
# From -- ./inp_files/21009.got.cif
#   From: 2010.03.12/outbox.cif.g09.slc.cpg/sg38_11_cif.got.tgz:21009.got - 2010.04.14 02:38:36.
