data_PCOD8179878
_publ_section_title
;
Structure prediction by ZEFSAII (Michael W. Deem and Ramdas Pophale) SiO2 
 PCOD8179878
Probable space group: A M M 2
;
_chemical_formula_sum "Si O2"
_cell_formula_units_Z 48
_cell_length_a 14.013472
_cell_length_b 20.220621
_cell_length_c 9.093571
_cell_angle_alpha 90.000000
_cell_angle_beta 90.000000
_cell_angle_gamma 90.000000
_cell_volume 2576.764338
_symmetry_space_group_name_H-M "A M M 2"
_symmetry_group_IT_number 38
_symmetry_cell_setting 'orthorhombic'
loop_
_space_group_symop_operation_xyz
x,y,z
-x,-y,z
-x,y,z
x,-y,z
x,1/2+y,1/2+z
-x,1/2-y,1/2+z
-x,1/2+y,1/2+z
x,1/2-y,1/2+z
loop_
_atom_site_type_symbol
_atom_site_label
_atom_site_fract_x
_atom_site_fract_y
_atom_site_fract_z
Si Si1 0.894100 0.229753 0.843340
Si Si2 0.718369 0.576041 0.543127
Si Si3 0.304957 0.185314 0.822615
Si Si4 0.387566 0.072404 0.336576
Si Si5 0.388418 0.698597 0.010459
Si Si6 0.895120 0.659106 0.636416
O O1 0.806133 0.188981 0.771932
O O2 0.880269 0.306766 0.796327
O O3 0.000000 0.205577 0.788769
O O4 0.886741 0.219743 0.019170
O O5 0.730376 0.500000 0.498465
O O6 0.679646 0.614534 0.400107
O O7 0.641153 0.587400 0.669700
O O8 0.819417 0.602401 0.603277
O O9 0.327609 0.241916 0.942490
O O10 0.374148 0.194661 0.685116
O O11 0.500000 0.071322 0.343298
O O12 0.349159 0.129835 0.442834
O O13 0.346975 0.000000 0.385234
O O14 0.500000 0.710016 0.977115
O O15 0.000000 0.625992 0.627330
#
# Coordination Sequence:
#
# PCOD8179878 Si02
#       6
#     8   8   8   8   8   8
#     4   9  17  30  49  74 100 127 163 206 252 301
#     4  10  21  35  51  73 102 137 176 215 257 305
#     4  11  21  34  53  77 105 136 171 214 262 306
#     4   9  19  36  55  74 100 135 171 210 259 311
#     4  11  22  35  54  79 106 134 168 212 260 313
#     4   9  17  30  50  75 102 131 165 208 257 308
#
# _framework density 18.628012999999999
#
# number of rings (size 3 to 8) (size 9 to 14) (size 15 to 20)
#    0.000    2.167    0.000    4.500    0.000    3.667 
#    0.000    0.000    0.000    0.000    0.000    0.000 
#    0.000    6.667    0.000    0.000    0.000    0.000 
#
# Total GULP energy -297441.208962 kJ/mol
# GULP energy per Si atom -12393.383707 kJ/mol
# Density = 1.858561 g / cm^3
# Si number density = 18.628013 Si / 1000 Ang^3
#
#
#
# Elastic Constant Matrix: (Units=GPa)
#
#
# Indices 1 2 3 4 5 6 
#
# 1 39.4273 27.2765 10.0082 0.0000 0.0000 0.0000
# 2 27.2765 125.1766 56.8680 0.0000 0.0000 0.0000
# 3 10.0082 56.8680 71.7031 0.0000 0.0000 0.0000
# 4 0.0000 0.0000 0.0000 34.2067 0.0000 0.0000
# 5 0.0000 0.0000 0.0000 0.0000 24.4449 0.0000
# 6 0.0000 0.0000 0.0000 0.0000 0.0000 24.3174
#
#
#
# Elastic Compliance Matrix: (Units=1/GPa)
#
#
# Indices 1 2 3 4 5 6 
#
# 1 0.029976 -0.007240 0.001558 0.000000 0.000000 0.000000
# 2 -0.007240 0.014237 -0.010281 0.000000 0.000000 0.000000
# 3 0.001558 -0.010281 0.021883 0.000000 0.000000 0.000000
# 4 0.000000 0.000000 0.000000 0.029234 0.000000 0.000000
# 5 0.000000 0.000000 0.000000 0.000000 0.040908 0.000000
# 6 0.000000 0.000000 0.000000 0.000000 0.000000 0.041123
#
#
# Mechanical properties :
#
#
# Convention : Reuss Voigt Hill
#
# Bulk Modulus (GPa) = 29.26512 47.17915 38.22213
# Shear Modulus (GPa) = 22.65762 26.07077 24.36419
#
# Velocity S-wave (km/s) = 3.49136 3.74511 3.62046
# Velocity P-wave (km/s) = 5.65661 6.63951 6.16767
#
# Compressibility (1/GPa) = 0.03417037
#
# Stress axis : x y z
#
# Youngs Moduli (GPa) = 33.35980 70.24041 45.69826
#
# Poissons Ratio (x) = 0.50851 -0.07118
# Poissons Ratio (y) = 0.24151 0.46981
# Poissons Ratio (z) = -0.05196 0.72213
#
# Static dielectric constant tensor:
#      x y z
#    x 3.602400 0.000000 0.000000 
#    y 0.000000 3.504690 0.000000 
#    z 0.000000 0.000000 3.363970 
# 
# 
# High freq. dielectric constant tensor:
#      x y z
#    x 1.736170 0.000000 0.000000 
#    y 0.000000 1.703260 0.000000 
#    z 0.000000 0.000000 1.713650 
# 
# From -- ./inp_files/5452.got.cif
#   From: 2010.03.12/outbox.cif.g09.slc.cpg/sg38_3_cif.got.tgz:5452.got - 2010.04.14 02:38:36.
