data_PCOD8179240
_publ_section_title
;
Structure prediction by ZEFSAII (Michael W. Deem and Ramdas Pophale) SiO2 
 PCOD8179240
Probable space group: A M M 2
;
_chemical_formula_sum "Si O2"
_cell_formula_units_Z 48
_cell_length_a 7.720263
_cell_length_b 9.150813
_cell_length_c 34.096116
_cell_angle_alpha 90.000000
_cell_angle_beta 90.000000
_cell_angle_gamma 90.000000
_cell_volume 2408.777499
_symmetry_space_group_name_H-M "A M M 2"
_symmetry_group_IT_number 38
_symmetry_cell_setting 'orthorhombic'
loop_
_space_group_symop_operation_xyz
x,y,z
-x,-y,z
-x,y,z
x,-y,z
x,1/2+y,1/2+z
-x,1/2-y,1/2+z
-x,1/2+y,1/2+z
x,1/2-y,1/2+z
loop_
_atom_site_type_symbol
_atom_site_label
_atom_site_fract_x
_atom_site_fract_y
_atom_site_fract_z
Si Si1 0.500000 0.672474 0.237651
Si Si2 0.192329 0.833116 0.682709
Si Si3 0.794510 0.667039 0.032129
Si Si4 0.198635 0.170204 0.378529
Si Si5 0.794576 0.335842 0.456175
Si Si6 0.302329 0.835024 0.109043
Si Si7 0.500000 0.670039 0.819737
O O1 0.500000 0.500000 0.243194
O O2 0.670480 0.726393 0.214348
O O3 0.500000 0.742360 0.279921
O O4 0.191867 0.739873 0.643077
O O5 0.000000 0.821429 0.701191
O O6 0.238186 0.000000 0.671466
O O7 0.731447 0.500000 0.031500
O O8 0.713167 0.746937 0.069056
O O9 0.000000 0.677423 0.034638
O O10 0.722014 0.745675 0.993148
O O11 0.264997 0.258527 0.416254
O O12 0.325762 0.213109 0.343144
O O13 0.000000 0.210528 0.367116
O O14 0.214051 0.000000 0.389030
O O15 0.718930 0.500000 0.457343
O O16 0.000000 0.338202 0.458089
O O17 0.500000 0.834329 0.122953
O O18 0.234245 0.000000 0.102533
O O19 0.500000 0.500000 0.809712
#
# Coordination Sequence:
#
# PCOD8179240 Si02
#       7
#     4   8   8   8   8   8   4
#     4  10  22  40  60  85 118 147 178 230 283 334
#     4  10  21  39  63  87 112 149 192 230 279 342
#     4  10  20  34  54  80 110 149 195 237 281 336
#     4   9  18  35  57  80 110 148 188 230 278 334
#     4   9  17  31  53  80 110 145 187 236 283 328
#     4  11  23  37  54  80 115 151 190 238 287 334
#     4  10  22  38  58  85 114 145 184 228 277 338
#
# _framework density 19.927122000000001
#
# number of rings (size 3 to 8) (size 9 to 14) (size 15 to 20)
#    0.000    2.167    0.833    2.000    0.000    8.333 
#    1.500    0.000    0.000    0.000    0.000    0.000 
#    0.000    0.000    0.000    0.000    0.000    0.000 
#
# Total GULP energy -297649.758921 kJ/mol
# GULP energy per Si atom -12402.073288 kJ/mol
# Density = 1.988177 g / cm^3
# Si number density = 19.927122 Si / 1000 Ang^3
#
#
#
# Elastic Constant Matrix: (Units=GPa)
#
#
# Indices 1 2 3 4 5 6 
#
# 1 92.6269 34.8985 54.7123 0.0000 0.0000 0.0000
# 2 34.8985 115.9060 71.4541 0.0000 0.0000 0.0000
# 3 54.7123 71.4541 159.8744 0.0000 0.0000 0.0000
# 4 0.0000 0.0000 0.0000 43.8710 0.0000 0.0000
# 5 0.0000 0.0000 0.0000 0.0000 28.5670 0.0000
# 6 0.0000 0.0000 0.0000 0.0000 0.0000 15.7433
#
#
#
# Elastic Compliance Matrix: (Units=1/GPa)
#
#
# Indices 1 2 3 4 5 6 
#
# 1 0.013773 -0.001713 -0.003948 0.000000 0.000000 0.000000
# 2 -0.001713 0.012122 -0.004831 0.000000 0.000000 0.000000
# 3 -0.003948 -0.004831 0.009765 0.000000 0.000000 0.000000
# 4 0.000000 0.000000 0.000000 0.022794 0.000000 0.000000
# 5 0.000000 0.000000 0.000000 0.000000 0.035005 0.000000
# 6 0.000000 0.000000 0.000000 0.000000 0.000000 0.063519
#
#
# Mechanical properties :
#
#
# Convention : Reuss Voigt Hill
#
# Bulk Modulus (GPa) = 68.14052 76.72635 72.43344
# Shear Modulus (GPa) = 27.34385 31.45909 29.40147
#
# Velocity S-wave (km/s) = 3.70833 3.97761 3.84533
# Velocity P-wave (km/s) = 7.25291 7.72542 7.49289
#
# Compressibility (1/GPa) = 0.01467555
#
# Stress axis : x y z
#
# Youngs Moduli (GPa) = 72.60392 82.49409 102.40341
#
# Poissons Ratio (x) = 0.14134 0.40427
# Poissons Ratio (y) = 0.12439 0.49476
# Poissons Ratio (z) = 0.28662 0.39857
#
# Static dielectric constant tensor:
#      x y z
#    x 3.612560 0.000000 0.000000 
#    y 0.000000 3.744390 0.000000 
#    z 0.000000 0.000000 3.488400 
# 
# 
# High freq. dielectric constant tensor:
#      x y z
#    x 1.776140 0.000000 0.000000 
#    y 0.000000 1.779720 0.000000 
#    z 0.000000 0.000000 1.769940 
# 
# From -- ./inp_files/24341.got.cif
#   From: 2010.03.12/outbox.cif.g09.slc.cpg/sg38_13_cif.got.tgz:24341.got - 2010.04.14 02:38:36.
