data_PCOD8179778
_publ_section_title
;
Structure prediction by ZEFSAII (Michael W. Deem and Ramdas Pophale) SiO2 
 PCOD8179778
Probable space group: A M M 2
;
_chemical_formula_sum "Si O2"
_cell_formula_units_Z 48
_cell_length_a 10.074842
_cell_length_b 9.092433
_cell_length_c 27.495261
_cell_angle_alpha 90.000000
_cell_angle_beta 90.000000
_cell_angle_gamma 90.000000
_cell_volume 2518.698596
_symmetry_space_group_name_H-M "A M M 2"
_symmetry_group_IT_number 38
_symmetry_cell_setting 'orthorhombic'
loop_
_space_group_symop_operation_xyz
x,y,z
-x,-y,z
-x,y,z
x,-y,z
x,1/2+y,1/2+z
-x,1/2-y,1/2+z
-x,1/2+y,1/2+z
x,1/2-y,1/2+z
loop_
_atom_site_type_symbol
_atom_site_label
_atom_site_fract_x
_atom_site_fract_y
_atom_site_fract_z
Si Si1 0.000000 0.327017 0.564210
Si Si2 0.781516 0.826125 0.739667
Si Si3 0.649879 0.827440 0.420374
Si Si4 0.500000 0.326556 0.202335
Si Si5 0.740541 0.173307 0.528061
Si Si6 0.500000 0.325109 0.093765
Si Si7 0.000000 0.173485 0.177164
Si Si8 0.849253 0.328176 0.348176
O O1 0.126121 0.260327 0.537575
O O2 0.000000 0.284266 0.620687
O O3 0.000000 0.500000 0.556293
O O4 0.629545 0.775911 0.731891
O O5 0.868889 0.742957 0.700141
O O6 0.825260 0.775619 0.793078
O O7 0.801622 0.000000 0.732214
O O8 0.500000 0.772256 0.410334
O O9 0.689393 0.784631 0.474796
O O10 0.749222 0.752994 0.383203
O O11 0.659935 0.000000 0.412448
O O12 0.500000 0.500000 0.196522
O O13 0.500000 0.258182 0.148087
O O14 0.631268 0.230486 0.566329
O O15 0.766709 0.000000 0.533209
O O16 0.500000 0.500000 0.093288
O O17 0.000000 0.000000 0.185933
O O18 0.820967 0.500000 0.352434
O O19 0.000000 0.289370 0.363082
#
# Coordination Sequence:
#
# PCOD8179778 Si02
#       8
#     4   8   8   4   8   4   4   8
#     4  11  25  39  54  85 124 155 188 233 282 343
#     4  10  20  38  61  86 115 149 193 241 283 334
#     4  10  22  40  61  87 117 148 189 240 290 343
#     4   9  18  30  56  91 113 139 185 237 284 331
#     4  10  20  38  62  85 112 150 194 239 284 335
#     4   9  16  32  58  87 113 139 183 241 288 327
#     4  11  23  39  58  83 118 157 192 231 286 345
#     4  10  22  39  59  85 117 152 191 237 287 341
#
# _framework density 19.057462000000001
#
# number of rings (size 3 to 8) (size 9 to 14) (size 15 to 20)
#    0.000    2.000    1.667    1.500    2.333    4.667 
#    0.000    0.833    0.000    3.000    0.000    0.000 
#    0.000    0.000    0.000    0.000    0.000    0.000 
#
# Total GULP energy -297664.460187 kJ/mol
# GULP energy per Si atom -12402.685841 kJ/mol
# Density = 1.901409 g / cm^3
# Si number density = 19.057462 Si / 1000 Ang^3
#
#
#
# Elastic Constant Matrix: (Units=GPa)
#
#
# Indices 1 2 3 4 5 6 
#
# 1 165.9167 43.0672 61.7167 0.0000 0.0000 0.0000
# 2 43.0672 40.7439 40.3947 0.0000 0.0000 0.0000
# 3 61.7167 40.3947 107.5758 0.0000 0.0000 0.0000
# 4 0.0000 0.0000 0.0000 27.7247 0.0000 0.0000
# 5 0.0000 0.0000 0.0000 0.0000 50.5792 0.0000
# 6 0.0000 0.0000 0.0000 0.0000 0.0000 17.0769
#
#
#
# Elastic Compliance Matrix: (Units=1/GPa)
#
#
# Indices 1 2 3 4 5 6 
#
# 1 0.008693 -0.006761 -0.002448 0.000000 0.000000 0.000000
# 2 -0.006761 0.044358 -0.012778 0.000000 0.000000 0.000000
# 3 -0.002448 -0.012778 0.015498 0.000000 0.000000 0.000000
# 4 0.000000 0.000000 0.000000 0.036069 0.000000 0.000000
# 5 0.000000 0.000000 0.000000 0.000000 0.019771 0.000000
# 6 0.000000 0.000000 0.000000 0.000000 0.000000 0.058559
#
#
# Mechanical properties :
#
#
# Convention : Reuss Voigt Hill
#
# Bulk Modulus (GPa) = 40.69118 67.17707 53.93413
# Shear Modulus (GPa) = 21.26625 30.34668 25.80646
#
# Velocity S-wave (km/s) = 3.34414 3.99479 3.68386
# Velocity P-wave (km/s) = 6.02571 7.52357 6.81591
#
# Compressibility (1/GPa) = 0.02457535
#
# Stress axis : x y z
#
# Youngs Moduli (GPa) = 115.03720 22.54360 64.52294
#
# Poissons Ratio (x) = 0.15242 0.15797
# Poissons Ratio (y) = 0.77779 0.82445
# Poissons Ratio (z) = 0.28164 0.28805
#
# Static dielectric constant tensor:
#      x y z
#    x 3.697790 0.000000 0.000000 
#    y 0.000000 3.245790 0.000000 
#    z 0.000000 0.000000 3.636940 
# 
# 
# High freq. dielectric constant tensor:
#      x y z
#    x 1.761230 0.000000 0.000000 
#    y 0.000000 1.712230 0.000000 
#    z 0.000000 0.000000 1.752740 
# 
# From -- ./inp_files/24459.got.cif
#   From: 2010.03.12/outbox.cif.g09.slc.cpg/sg38_13_cif.got.tgz:24459.got - 2010.04.14 02:38:36.
