data_PCOD8179709
_publ_section_title
;
Structure prediction by ZEFSAII (Michael W. Deem and Ramdas Pophale) SiO2 
 PCOD8179709
Probable space group: A M M 2
;
_chemical_formula_sum "Si O2"
_cell_formula_units_Z 48
_cell_length_a 16.901021
_cell_length_b 8.786030
_cell_length_c 15.792696
_cell_angle_alpha 90.000000
_cell_angle_beta 90.000000
_cell_angle_gamma 90.000000
_cell_volume 2345.102873
_symmetry_space_group_name_H-M "A M M 2"
_symmetry_group_IT_number 38
_symmetry_cell_setting 'orthorhombic'
loop_
_space_group_symop_operation_xyz
x,y,z
-x,-y,z
-x,y,z
x,-y,z
x,1/2+y,1/2+z
-x,1/2-y,1/2+z
-x,1/2+y,1/2+z
x,1/2-y,1/2+z
loop_
_atom_site_type_symbol
_atom_site_label
_atom_site_fract_x
_atom_site_fract_y
_atom_site_fract_z
Si Si1 0.160838 0.174737 0.564810
Si Si2 0.832979 0.174952 0.370816
Si Si3 0.686554 0.180397 0.130795
Si Si4 0.000000 0.680167 0.616402
Si Si5 0.410683 0.681108 0.468917
Si Si6 0.318480 0.320580 0.303919
Si Si7 0.000000 0.179777 0.309450
O O1 0.189792 0.189384 0.468623
O O2 0.223734 0.260040 0.623754
O O3 0.076287 0.253285 0.570723
O O4 0.154451 0.000000 0.593488
O O5 0.772755 0.275430 0.316664
O O6 0.921030 0.241940 0.355083
O O7 0.827172 0.000000 0.339775
O O8 0.649049 0.244013 0.217790
O O9 0.687245 0.000000 0.133414
O O10 0.634992 0.242426 0.051888
O O11 0.000000 0.734750 0.713088
O O12 0.000000 0.500000 0.607835
O O13 0.500000 0.743801 0.471681
O O14 0.409096 0.500000 0.469120
O O15 0.369586 0.741883 0.383129
O O16 0.326358 0.500000 0.294801
O O17 0.000000 0.000000 0.317542
#
# Coordination Sequence:
#
# PCOD8179709 Si02
#       7
#     8   8   8   4   8   8   4
#     4  11  22  37  59  86 119 159 208 259 306 355
#     4  10  20  37  60  83 115 157 203 250 304 357
#     4  11  22  39  63  90 123 163 206 250 305 370
#     4  11  22  35  55  83 120 163 210 252 300 363
#     4   9  20  40  64  89 122 161 199 248 310 373
#     4  11  22  38  62  92 123 157 203 252 306 367
#     4   9  19  35  53  77 108 151 198 242 288 345
#
# _framework density 20.468184999999998
#
# number of rings (size 3 to 8) (size 9 to 14) (size 15 to 20)
#    0.000    1.667    1.667    3.250    0.000    4.000 
#    0.000    1.250    0.000    7.000    0.000    0.000 
#    0.000    0.000    0.000    0.000    0.000    0.000 
#
# Total GULP energy -297686.289824 kJ/mol
# GULP energy per Si atom -12403.595409 kJ/mol
# Density = 2.042160 g / cm^3
# Si number density = 20.468185 Si / 1000 Ang^3
#
#
#
# Elastic Constant Matrix: (Units=GPa)
#
#
# Indices 1 2 3 4 5 6 
#
# 1 130.5124 27.3191 58.3911 0.0000 0.0000 0.0000
# 2 27.3191 74.5414 43.9642 0.0000 0.0000 0.0000
# 3 58.3911 43.9642 147.5067 0.0000 0.0000 0.0000
# 4 0.0000 0.0000 0.0000 31.4445 0.0000 0.0000
# 5 0.0000 0.0000 0.0000 0.0000 27.0248 0.0000
# 6 0.0000 0.0000 0.0000 0.0000 0.0000 19.4105
#
#
#
# Elastic Compliance Matrix: (Units=1/GPa)
#
#
# Indices 1 2 3 4 5 6 
#
# 1 0.009452 -0.001525 -0.003287 0.000000 0.000000 0.000000
# 2 -0.001525 0.016523 -0.004321 0.000000 0.000000 0.000000
# 3 -0.003287 -0.004321 0.009368 0.000000 0.000000 0.000000
# 4 0.000000 0.000000 0.000000 0.031802 0.000000 0.000000
# 5 0.000000 0.000000 0.000000 0.000000 0.037003 0.000000
# 6 0.000000 0.000000 0.000000 0.000000 0.000000 0.051519
#
#
# Mechanical properties :
#
#
# Convention : Reuss Voigt Hill
#
# Bulk Modulus (GPa) = 58.55909 67.98990 63.27449
# Shear Modulus (GPa) = 27.83572 30.43503 29.13537
#
# Velocity S-wave (km/s) = 3.69175 3.86027 3.77695
# Velocity P-wave (km/s) = 6.84426 7.29098 7.07115
#
# Compressibility (1/GPa) = 0.01707677
#
# Stress axis : x y z
#
# Youngs Moduli (GPa) = 105.79770 60.52249 106.74309
#
# Poissons Ratio (x) = 0.09233 0.35086
# Poissons Ratio (y) = 0.16139 0.46121
# Poissons Ratio (z) = 0.34775 0.26150
#
# Static dielectric constant tensor:
#      x y z
#    x 3.733710 0.000000 0.000000 
#    y 0.000000 3.436290 0.000000 
#    z 0.000000 0.000000 3.916110 
# 
# 
# High freq. dielectric constant tensor:
#      x y z
#    x 1.798480 0.000000 0.000000 
#    y 0.000000 1.777130 0.000000 
#    z 0.000000 0.000000 1.815480 
# 
# From -- ./inp_files/14994.got.cif
#   From: 2010.03.12/outbox.cif.g09.slc.cpg/sg38_8_cif.got.tgz:14994.got - 2010.04.14 02:38:36.
