data_PCOD8179683
_publ_section_title
;
Structure prediction by ZEFSAII (Michael W. Deem and Ramdas Pophale) SiO2 
 PCOD8179683
Probable space group: A M M 2
;
_chemical_formula_sum "Si O2"
_cell_formula_units_Z 64
_cell_length_a 18.058701
_cell_length_b 13.266902
_cell_length_c 13.893821
_cell_angle_alpha 90.000000
_cell_angle_beta 90.000000
_cell_angle_gamma 90.000000
_cell_volume 3328.723545
_symmetry_space_group_name_H-M "A M M 2"
_symmetry_group_IT_number 38
_symmetry_cell_setting 'orthorhombic'
loop_
_space_group_symop_operation_xyz
x,y,z
-x,-y,z
-x,y,z
x,-y,z
x,1/2+y,1/2+z
-x,1/2-y,1/2+z
-x,1/2+y,1/2+z
x,1/2-y,1/2+z
loop_
_atom_site_type_symbol
_atom_site_label
_atom_site_fract_x
_atom_site_fract_y
_atom_site_fract_z
Si Si1 0.781703 0.883051 0.655290
Si Si2 0.083293 0.799857 0.938967
Si Si3 0.915302 0.256523 0.651819
Si Si4 0.913629 0.110507 0.326136
Si Si5 0.227298 0.886645 0.873265
Si Si6 0.414970 0.618172 0.656277
Si Si7 0.413029 0.614402 0.874615
Si Si8 0.681572 0.748061 0.015715
O O1 0.865614 0.843139 0.649578
O O2 0.749470 0.866719 0.762939
O O3 0.730040 0.825239 0.580751
O O4 0.782733 0.000000 0.627423
O O5 0.103236 0.681972 0.917383
O O6 0.138404 0.873351 0.882409
O O7 0.000000 0.823345 0.902068
O O8 0.089981 0.817356 0.052298
O O9 0.882740 0.333335 0.731303
O O10 0.000000 0.223810 0.673549
O O11 0.000000 0.093482 0.312112
O O12 0.875481 0.000000 0.339332
O O13 0.265899 0.809973 0.945092
O O14 0.248787 0.000000 0.902811
O O15 0.500000 0.648393 0.637169
O O16 0.403668 0.500000 0.639006
O O17 0.392673 0.646827 0.765628
O O18 0.363541 0.676941 0.582903
O O19 0.500000 0.624310 0.890734
O O20 0.387082 0.500000 0.892524
O O21 0.374143 0.684965 0.951219
#
# Coordination Sequence:
#
# PCOD8179683 Si02
#       8
#     8   8   8   8   8   8   8   8
#     4  11  24  39  55  80 115 153 193 238 285 335
#     4  10  20  37  58  81 107 141 191 244 291 340
#     4  10  20  37  58  81 107 141 191 244 291 340
#     4   9  18  34  57  81 105 133 173 236 298 339
#     4  11  24  39  55  80 115 153 193 238 285 335
#     4   9  19  37  62  91 118 145 184 231 274 323
#     4   9  19  37  62  91 118 145 184 231 274 323
#     4  12  21  38  59  84 116 158 188 222 277 344
#
# _framework density 19.226590000000002
#
# number of rings (size 3 to 8) (size 9 to 14) (size 15 to 20)
#    0.000    1.875    2.500    2.625    0.000    1.500 
#    0.000    3.750    0.000    0.000    0.000   10.500 
#    0.000    0.000    0.000    0.000    0.000    0.000 
#
# Total GULP energy -396748.971349 kJ/mol
# GULP energy per Si atom -12398.405355 kJ/mol
# Density = 1.918283 g / cm^3
# Si number density = 19.226590 Si / 1000 Ang^3
#
#
#
# Elastic Constant Matrix: (Units=GPa)
#
#
# Indices 1 2 3 4 5 6 
#
# 1 57.1335 27.7239 28.8374 0.0000 0.0000 0.0000
# 2 27.7239 73.5303 33.3320 0.0000 0.0000 0.0000
# 3 28.8374 33.3320 91.3946 0.0000 0.0000 0.0000
# 4 0.0000 0.0000 0.0000 49.4091 0.0000 0.0000
# 5 0.0000 0.0000 0.0000 0.0000 6.5260 0.0000
# 6 0.0000 0.0000 0.0000 0.0000 0.0000 -51.1517
#
#
#
# Elastic Compliance Matrix: (Units=1/GPa)
#
#
# Indices 1 2 3 4 5 6 
#
# 1 0.023143 -0.006488 -0.004936 0.000000 0.000000 0.000000
# 2 -0.006488 0.018113 -0.004559 0.000000 0.000000 0.000000
# 3 -0.004936 -0.004559 0.014161 0.000000 0.000000 0.000000
# 4 0.000000 0.000000 0.000000 0.020239 0.000000 0.000000
# 5 0.000000 0.000000 0.000000 0.000000 0.153233 0.000000
# 6 0.000000 0.000000 0.000000 0.000000 0.000000 -0.019550
#
#
# Mechanical properties :
#
#
# Convention : Reuss Voigt Hill
#
# Bulk Modulus (GPa) = 42.64126 44.64945 43.64536
# Shear Modulus (GPa) = 20.07053 9.76769 14.91911
#
# Velocity S-wave (km/s) = 3.23444 2.25640 2.78863
# Velocity P-wave (km/s) = 6.01458 5.48285 5.75486
#
# Compressibility (1/GPa) = 0.02345147
#
# Stress axis : x y z
#
# Youngs Moduli (GPa) = 43.21043 55.21023 70.61418
#
# Poissons Ratio (x) = 0.35822 0.34854
# Poissons Ratio (y) = 0.28036 0.32190
# Poissons Ratio (z) = 0.21328 0.25168
#
# Static dielectric constant tensor:
#      x y z
#    x 3.380370 0.000000 0.000000 
#    y 0.000000 3.484750 0.000000 
#    z 0.000000 0.000000 3.650810 
# 
# 
# High freq. dielectric constant tensor:
#      x y z
#    x 1.733190 0.000000 0.000000 
#    y 0.000000 1.743760 0.000000 
#    z 0.000000 0.000000 1.763790 
# 
# From -- ./inp_files/15264.got.cif
#   From: 2010.03.12/outbox.cif.g09.slc.cpg/sg38_8_cif.got.tgz:15264.got - 2010.04.14 02:38:36.
