data_PCOD8179597
_publ_section_title
;
Structure prediction by ZEFSAII (Michael W. Deem and Ramdas Pophale) SiO2 
 PCOD8179597
Probable space group: A M M 2
;
_chemical_formula_sum "Si O2"
_cell_formula_units_Z 40
_cell_length_a 9.225239
_cell_length_b 7.658116
_cell_length_c 29.518882
_cell_angle_alpha 90.000000
_cell_angle_beta 90.000000
_cell_angle_gamma 90.000000
_cell_volume 2085.448511
_symmetry_space_group_name_H-M "A M M 2"
_symmetry_group_IT_number 38
_symmetry_cell_setting 'orthorhombic'
loop_
_space_group_symop_operation_xyz
x,y,z
-x,-y,z
-x,y,z
x,-y,z
x,1/2+y,1/2+z
-x,1/2-y,1/2+z
-x,1/2+y,1/2+z
x,1/2-y,1/2+z
loop_
_atom_site_type_symbol
_atom_site_label
_atom_site_fract_x
_atom_site_fract_y
_atom_site_fract_z
Si Si1 0.161519 0.792210 0.360600
Si Si2 0.828543 0.306882 0.957880
Si Si3 0.832254 0.695140 0.554334
Si Si4 0.327185 0.000000 0.605112
Si Si5 0.328232 0.000000 0.707639
Si Si6 0.671157 0.698568 0.772902
O O1 0.224675 0.725839 0.409531
O O2 0.263870 0.729475 0.319962
O O3 0.000000 0.718228 0.351555
O O4 0.157441 0.000000 0.363174
O O5 0.762567 0.500000 0.965967
O O6 0.000000 0.320566 0.953256
O O7 0.784986 0.192006 0.001370
O O8 0.809535 0.500000 0.573565
O O9 0.732045 0.825776 0.581978
O O10 0.000000 0.754213 0.558805
O O11 0.500000 0.000000 0.602097
O O12 0.269262 0.000000 0.656617
O O13 0.272514 0.824833 0.732875
O O14 0.500000 0.000000 0.707257
O O15 0.500000 0.707692 0.777922
O O16 0.722349 0.500000 0.762255
#
# Coordination Sequence:
#
# PCOD8179597 Si02
#       6
#     8   8   8   4   4   8
#     4   8  14  26  47  75 105 137 170 207 255 307
#     4   8  13  26  50  75 103 141 178 211 254 317
#     4  10  20  36  59  83 109 145 187 228 274 334
#     4  11  23  39  59  81 109 145 185 239 288 327
#     4   9  20  37  55  75  99 135 181 217 264 329
#     4   9  17  32  53  73  97 132 172 213 256 310
#
# _framework density 19.180524999999999
#
# number of rings (size 3 to 8) (size 9 to 14) (size 15 to 20)
#    0.000    3.000    1.000    1.500    0.000    1.200 
#    1.800    5.500    0.000    2.400    0.000    0.000 
#    0.000    0.000    0.000    0.000    0.000    0.000 
#
# Total GULP energy -247830.966212 kJ/mol
# GULP energy per Si atom -12391.548311 kJ/mol
# Density = 1.913687 g / cm^3
# Si number density = 19.180525 Si / 1000 Ang^3
#
#
#
# Elastic Constant Matrix: (Units=GPa)
#
#
# Indices 1 2 3 4 5 6 
#
# 1 44.2160 32.0089 44.2783 0.0000 0.0000 0.0000
# 2 32.0089 95.6536 63.3149 0.0000 0.0000 0.0000
# 3 44.2783 63.3149 171.2310 0.0000 0.0000 0.0000
# 4 0.0000 0.0000 0.0000 10.0179 0.0000 0.0000
# 5 0.0000 0.0000 0.0000 0.0000 29.0922 0.0000
# 6 0.0000 0.0000 0.0000 0.0000 0.0000 14.0071
#
#
#
# Elastic Compliance Matrix: (Units=1/GPa)
#
#
# Indices 1 2 3 4 5 6 
#
# 1 0.034035 -0.007367 -0.006077 0.000000 0.000000 0.000000
# 2 -0.007367 0.015437 -0.003803 0.000000 0.000000 0.000000
# 3 -0.006077 -0.003803 0.008818 0.000000 0.000000 0.000000
# 4 0.000000 0.000000 0.000000 0.099822 0.000000 0.000000
# 5 0.000000 0.000000 0.000000 0.000000 0.034373 0.000000
# 6 0.000000 0.000000 0.000000 0.000000 0.000000 0.071392
#
#
# Mechanical properties :
#
#
# Convention : Reuss Voigt Hill
#
# Bulk Modulus (GPa) = 42.02422 65.58942 53.80682
# Shear Modulus (GPa) = 16.32377 22.05669 19.19023
#
# Velocity S-wave (km/s) = 2.92046 3.39477 3.16651
# Velocity P-wave (km/s) = 5.77317 7.04529 6.44071
#
# Compressibility (1/GPa) = 0.02379580
#
# Stress axis : x y z
#
# Youngs Moduli (GPa) = 29.38176 64.78025 113.40762
#
# Poissons Ratio (x) = 0.47721 0.68919
# Poissons Ratio (y) = 0.21644 0.43129
# Poissons Ratio (z) = 0.17856 0.24636
#
# Static dielectric constant tensor:
#      x y z
#    x 3.231590 0.000000 0.000000 
#    y 0.000000 3.436950 0.000000 
#    z 0.000000 0.000000 3.906760 
# 
# 
# High freq. dielectric constant tensor:
#      x y z
#    x 1.699100 0.000000 0.000000 
#    y 0.000000 1.739120 0.000000 
#    z 0.000000 0.000000 1.753330 
# 
# From -- ./inp_files/23207.got.cif
#   From: 2010.03.12/outbox.cif.g09.slc.cpg/sg38_12_cif.got.tgz:23207.got - 2010.04.14 02:38:36.
