data_PCOD8179002
_publ_section_title
;
Structure prediction by ZEFSAII (Michael W. Deem and Ramdas Pophale) SiO2 
 PCOD8179002
Probable space group: A M M 2
;
_chemical_formula_sum "Si O2"
_cell_formula_units_Z 52
_cell_length_a 13.676314
_cell_length_b 25.802781
_cell_length_c 8.401896
_cell_angle_alpha 90.000000
_cell_angle_beta 90.000000
_cell_angle_gamma 90.000000
_cell_volume 2964.919328
_symmetry_space_group_name_H-M "A M M 2"
_symmetry_group_IT_number 38
_symmetry_cell_setting 'orthorhombic'
loop_
_space_group_symop_operation_xyz
x,y,z
-x,-y,z
-x,y,z
x,-y,z
x,1/2+y,1/2+z
-x,1/2-y,1/2+z
-x,1/2+y,1/2+z
x,1/2-y,1/2+z
loop_
_atom_site_type_symbol
_atom_site_label
_atom_site_fract_x
_atom_site_fract_y
_atom_site_fract_z
Si Si1 0.112902 0.299710 0.862490
Si Si2 0.390326 0.442298 0.143181
Si Si3 0.885075 0.309108 0.489800
Si Si4 0.768179 0.000000 0.057006
Si Si5 0.782945 0.096599 0.828881
Si Si6 0.886263 0.597976 0.018899
Si Si7 0.610469 0.500000 0.837285
Si Si8 0.112917 0.000000 0.342529
O O1 0.129801 0.308951 0.677535
O O2 0.000000 0.296935 0.908076
O O3 0.155756 0.244668 0.917977
O O4 0.160935 0.347280 0.961818
O O5 0.500000 0.422094 0.177327
O O6 0.376130 0.500000 0.221874
O O7 0.315912 0.400762 0.221309
O O8 0.374250 0.449178 0.951618
O O9 0.810331 0.351348 0.421056
O O10 0.000000 0.319875 0.446134
O O11 0.681350 0.000000 0.186311
O O12 0.869892 0.000000 0.154049
O O13 0.768084 0.948902 0.953039
O O14 0.870959 0.086702 0.705234
O O15 0.000000 0.599833 0.978326
O O16 0.837276 0.550775 0.920770
O O17 0.500000 0.500000 0.769944
O O18 0.000000 0.000000 0.383029
#
# Coordination Sequence:
#
# PCOD8179002 Si02
#       8
#     8   8   8   4   8   8   4   4
#     4   9  18  35  54  71  99 139 185 229 259 288
#     4   8  17  36  55  71  96 133 172 210 256 308
#     4  10  20  33  50  75 103 136 181 226 261 299
#     4  12  22  30  44  72 106 134 166 204 260 312
#     4  12  21  30  49  77 105 135 167 212 261 314
#     4  10  20  34  50  69 100 143 179 212 254 305
#     4   8  17  35  57  73  93 132 174 214 258 306
#     4  10  21  33  45  65 101 144 176 204 246 302
#
# _framework density 17.538421
#
# number of rings (size 3 to 8) (size 9 to 14) (size 15 to 20)
#    0.462    1.692    0.769    3.692    0.000    5.538 
#    0.000    0.000    0.000    0.000    0.000    4.308 
#    0.000    0.000    0.000    0.000    0.000    0.000 
#
# Total GULP energy -322128.902361 kJ/mol
# GULP energy per Si atom -12389.573168 kJ/mol
# Density = 1.749850 g / cm^3
# Si number density = 17.538421 Si / 1000 Ang^3
#
#
#
# Elastic Constant Matrix: (Units=GPa)
#
#
# Indices 1 2 3 4 5 6 
#
# 1 48.7198 51.7986 27.5251 0.0000 0.0000 0.0000
# 2 51.7986 133.0293 65.0115 0.0000 0.0000 0.0000
# 3 27.5251 65.0115 104.6139 0.0000 0.0000 0.0000
# 4 0.0000 0.0000 0.0000 27.1949 0.0000 0.0000
# 5 0.0000 0.0000 0.0000 0.0000 26.0838 0.0000
# 6 0.0000 0.0000 0.0000 0.0000 0.0000 16.4255
#
#
#
# Elastic Compliance Matrix: (Units=1/GPa)
#
#
# Indices 1 2 3 4 5 6 
#
# 1 0.035108 -0.013149 -0.001066 0.000000 0.000000 0.000000
# 2 -0.013149 0.015721 -0.006310 0.000000 0.000000 0.000000
# 3 -0.001066 -0.006310 0.013761 0.000000 0.000000 0.000000
# 4 0.000000 0.000000 0.000000 0.036772 0.000000 0.000000
# 5 0.000000 0.000000 0.000000 0.000000 0.038338 0.000000
# 6 0.000000 0.000000 0.000000 0.000000 0.000000 0.060881
#
#
# Mechanical properties :
#
#
# Convention : Reuss Voigt Hill
#
# Bulk Modulus (GPa) = 42.48185 63.89260 53.18723
# Shear Modulus (GPa) = 20.04199 23.40937 21.72568
#
# Velocity S-wave (km/s) = 3.38412 3.65738 3.52340
# Velocity P-wave (km/s) = 6.28844 7.37187 6.85160
#
# Compressibility (1/GPa) = 0.02353946
#
# Stress axis : x y z
#
# Youngs Moduli (GPa) = 28.48352 63.60972 72.67149
#
# Poissons Ratio (x) = 0.83643 0.07745
# Poissons Ratio (y) = 0.37454 0.45855
# Poissons Ratio (z) = 0.03035 0.40137
#
# Static dielectric constant tensor:
#      x y z
#    x 3.008230 0.000000 0.000000 
#    y 0.000000 3.427730 0.000000 
#    z 0.000000 0.000000 3.274950 
# 
# 
# High freq. dielectric constant tensor:
#      x y z
#    x 1.643630 0.000000 0.000000 
#    y 0.000000 1.665330 0.000000 
#    z 0.000000 0.000000 1.688180 
# 
# From -- ./inp_files/5819.got.cif
#   From: 2010.03.12/outbox.cif.g09.slc.cpg/sg38_3_cif.got.tgz:5819.got - 2010.04.14 02:38:36.
