data_PCOD8179920
_publ_section_title
;
Structure prediction by ZEFSAII (Michael W. Deem and Ramdas Pophale) SiO2 
 PCOD8179920
Probable space group: A M M 2
;
_chemical_formula_sum "Si O2"
_cell_formula_units_Z 56
_cell_length_a 9.157894
_cell_length_b 14.227334
_cell_length_c 23.232569
_cell_angle_alpha 90.000000
_cell_angle_beta 90.000000
_cell_angle_gamma 90.000000
_cell_volume 3027.027561
_symmetry_space_group_name_H-M "A M M 2"
_symmetry_group_IT_number 38
_symmetry_cell_setting 'orthorhombic'
loop_
_space_group_symop_operation_xyz
x,y,z
-x,-y,z
-x,y,z
x,-y,z
x,1/2+y,1/2+z
-x,1/2-y,1/2+z
-x,1/2+y,1/2+z
x,1/2-y,1/2+z
loop_
_atom_site_type_symbol
_atom_site_label
_atom_site_fract_x
_atom_site_fract_y
_atom_site_fract_z
Si Si1 0.173710 0.208427 0.444990
Si Si2 0.834486 0.109950 0.331898
Si Si3 0.827059 0.397682 0.395445
Si Si4 0.669719 0.705951 0.164434
Si Si5 0.165852 0.389921 0.265481
Si Si6 0.173602 0.391658 0.059292
Si Si7 0.668724 0.395100 0.718036
O O1 0.236095 0.156896 0.388434
O O2 0.224181 0.317906 0.440832
O O3 0.236280 0.159367 0.502185
O O4 0.000000 0.198950 0.445820
O O5 0.750431 0.141001 0.274876
O O6 0.000000 0.144723 0.323797
O O7 0.824839 0.000000 0.341952
O O8 0.759730 0.500000 0.412347
O O9 0.781738 0.368681 0.330657
O O10 0.000000 0.406314 0.396081
O O11 0.500000 0.682533 0.155146
O O12 0.721489 0.661879 0.224199
O O13 0.761819 0.663141 0.112989
O O14 0.696578 0.819166 0.167393
O O15 0.172922 0.500000 0.252392
O O16 0.000000 0.353887 0.255143
O O17 0.224984 0.500000 0.059305
O O18 0.000000 0.385234 0.062861
O O19 0.500000 0.398546 0.734519
O O20 0.722595 0.500000 0.698902
#
# Coordination Sequence:
#
# PCOD8179920 Si02
#       7
#     8   8   8   8   8   8   8
#     4   9  16  28  47  69  95 127 159 193 235 282
#     4   9  16  27  48  77 101 121 152 195 238 281
#     4   8  14  25  44  72 101 125 152 189 234 284
#     4  11  22  34  50  71  95 127 166 205 242 280
#     4   9  17  30  50  76 104 132 159 190 236 292
#     4  10  21  36  52  70  95 128 163 198 239 288
#     4   9  19  35  51  69  97 130 160 193 240 295
#
# _framework density 18.499998000000001
#
# number of rings (size 3 to 8) (size 9 to 14) (size 15 to 20)
#    0.000    2.714    0.000    3.000    0.000    6.286 
#    0.000    1.429    0.000    3.429    0.000    0.000 
#    0.000    0.000    0.000    0.000    0.000    0.000 
#
# Total GULP energy -347056.061209 kJ/mol
# GULP energy per Si atom -12394.859329 kJ/mol
# Density = 1.845789 g / cm^3
# Si number density = 18.499998 Si / 1000 Ang^3
#
#
#
# Elastic Constant Matrix: (Units=GPa)
#
#
# Indices 1 2 3 4 5 6 
#
# 1 26.2096 26.6227 22.7225 0.0000 0.0000 0.0000
# 2 26.6227 114.0482 85.3438 0.0000 0.0000 0.0000
# 3 22.7225 85.3438 102.2050 0.0000 0.0000 0.0000
# 4 0.0000 0.0000 0.0000 33.0520 0.0000 0.0000
# 5 0.0000 0.0000 0.0000 0.0000 -2.8881 0.0000
# 6 0.0000 0.0000 0.0000 0.0000 0.0000 19.3293
#
#
#
# Elastic Compliance Matrix: (Units=1/GPa)
#
#
# Indices 1 2 3 4 5 6 
#
# 1 0.050530 -0.009034 -0.003691 0.000000 0.000000 0.000000
# 2 -0.009034 0.024988 -0.018858 0.000000 0.000000 0.000000
# 3 -0.003691 -0.018858 0.026351 0.000000 0.000000 0.000000
# 4 0.000000 0.000000 0.000000 0.030255 0.000000 0.000000
# 5 0.000000 0.000000 0.000000 0.000000 -0.346244 0.000000
# 6 0.000000 0.000000 0.000000 0.000000 0.000000 0.051735
#
#
# Mechanical properties :
#
#
# Convention : Reuss Voigt Hill
#
# Bulk Modulus (GPa) = 25.83595 56.87120 41.35358
# Shear Modulus (GPa) = -57.92413 17.08356 -20.42029
#
# Velocity S-wave (km/s) = -5.60164 3.04211 -3.32595
# Velocity P-wave (km/s) = 5.27656 6.56865 2.76632
#
# Compressibility (1/GPa) = 0.03870575
#
# Stress axis : x y z
#
# Youngs Moduli (GPa) = 19.79040 40.01871 37.94884
#
# Poissons Ratio (x) = 0.36151 0.14005
# Poissons Ratio (y) = 0.17878 0.71562
# Poissons Ratio (z) = 0.07304 0.75465
#
# Static dielectric constant tensor:
#      x y z
#    x 3.072190 0.000000 0.000000 
#    y 0.000000 3.856350 0.000000 
#    z 0.000000 0.000000 3.342580 
# 
# 
# High freq. dielectric constant tensor:
#      x y z
#    x 1.675900 0.000000 0.000000 
#    y 0.000000 1.739550 0.000000 
#    z 0.000000 0.000000 1.700490 
# 
# From -- ./inp_files/19828.got.cif
#   From: 2010.03.12/outbox.cif.g09.slc.cpg/sg38_10_cif.got.tgz:19828.got - 2010.04.14 02:38:36.
