data_PCOD8179460
_publ_section_title
;
Structure prediction by ZEFSAII (Michael W. Deem and Ramdas Pophale) SiO2 
 PCOD8179460
Probable space group: A M M 2
;
_chemical_formula_sum "Si O2"
_cell_formula_units_Z 40
_cell_length_a 8.550123
_cell_length_b 18.333883
_cell_length_c 13.403302
_cell_angle_alpha 90.000000
_cell_angle_beta 90.000000
_cell_angle_gamma 90.000000
_cell_volume 2101.060805
_symmetry_space_group_name_H-M "A M M 2"
_symmetry_group_IT_number 38
_symmetry_cell_setting 'orthorhombic'
loop_
_space_group_symop_operation_xyz
x,y,z
-x,-y,z
-x,y,z
x,-y,z
x,1/2+y,1/2+z
-x,1/2-y,1/2+z
-x,1/2+y,1/2+z
x,1/2-y,1/2+z
loop_
_atom_site_type_symbol
_atom_site_label
_atom_site_fract_x
_atom_site_fract_y
_atom_site_fract_z
Si Si1 0.680271 0.000000 0.541111
Si Si2 0.319319 0.792805 0.254694
Si Si3 0.181455 0.362418 0.939768
Si Si4 0.682400 0.642825 0.354812
Si Si5 0.182737 0.500000 0.255211
Si Si6 0.818099 0.788365 0.042497
O O1 0.713649 0.929147 0.475258
O O2 0.790327 0.000000 0.637303
O O3 0.500000 0.000000 0.574780
O O4 0.500000 0.809864 0.274348
O O5 0.218157 0.846375 0.324144
O O6 0.278625 0.709035 0.280014
O O7 0.278461 0.808129 0.140572
O O8 0.228466 0.292248 0.005450
O O9 0.000000 0.382278 0.951532
O O10 0.500000 0.638147 0.379113
O O11 0.739022 0.570286 0.302495
O O12 0.774178 0.652898 0.458368
O O13 0.000000 0.500000 0.277839
O O14 0.000000 0.793540 0.067240
#
# Coordination Sequence:
#
# PCOD8179460 Si02
#       6
#     4   8   8   8   4   8
#     4  12  24  38  57  82 113 146 182 224 274 326
#     4  10  20  35  57  83 111 145 184 226 272 323
#     4  10  21  37  57  82 112 145 184 227 272 324
#     4  10  21  37  57  82 112 145 184 227 272 324
#     4  12  24  38  57  82 113 146 182 224 274 326
#     4  10  20  35  57  83 111 145 184 226 272 323
#
# _framework density 19.038001999999999
#
# number of rings (size 3 to 8) (size 9 to 14) (size 15 to 20)
#    0.000    1.600    0.000    5.400    0.000    8.000 
#    0.000    1.000    0.000    0.000    0.000    0.000 
#    0.000    0.000    0.000    0.000    0.000    0.000 
#
# Total GULP energy -248133.861914 kJ/mol
# GULP energy per Si atom -12406.693096 kJ/mol
# Density = 1.899467 g / cm^3
# Si number density = 19.038002 Si / 1000 Ang^3
#
#
#
# Elastic Constant Matrix: (Units=GPa)
#
#
# Indices 1 2 3 4 5 6 
#
# 1 59.6941 18.7314 10.3468 0.0000 0.0000 0.0000
# 2 18.7314 93.9507 34.6163 0.0000 0.0000 0.0000
# 3 10.3468 34.6163 112.3864 0.0000 0.0000 0.0000
# 4 0.0000 0.0000 0.0000 22.8019 0.0000 0.0000
# 5 0.0000 0.0000 0.0000 0.0000 36.7395 0.0000
# 6 0.0000 0.0000 0.0000 0.0000 0.0000 30.1689
#
#
#
# Elastic Compliance Matrix: (Units=1/GPa)
#
#
# Indices 1 2 3 4 5 6 
#
# 1 0.017908 -0.003342 -0.000619 0.000000 0.000000 0.000000
# 2 -0.003342 0.012630 -0.003583 0.000000 0.000000 0.000000
# 3 -0.000619 -0.003583 0.010058 0.000000 0.000000 0.000000
# 4 0.000000 0.000000 0.000000 0.043856 0.000000 0.000000
# 5 0.000000 0.000000 0.000000 0.000000 0.027219 0.000000
# 6 0.000000 0.000000 0.000000 0.000000 0.000000 0.033147
#
#
# Mechanical properties :
#
#
# Convention : Reuss Voigt Hill
#
# Bulk Modulus (GPa) = 39.20243 43.71335 41.45789
# Shear Modulus (GPa) = 29.68961 31.43119 30.56040
#
# Velocity S-wave (km/s) = 3.95332 4.06762 4.01088
# Velocity P-wave (km/s) = 6.44009 6.71354 6.57824
#
# Compressibility (1/GPa) = 0.02550862
#
# Stress axis : x y z
#
# Youngs Moduli (GPa) = 55.84039 79.17510 99.41991
#
# Poissons Ratio (x) = 0.26462 0.06157
# Poissons Ratio (y) = 0.18663 0.35618
# Poissons Ratio (z) = 0.03458 0.28365
#
# Static dielectric constant tensor:
#      x y z
#    x 3.568960 0.000000 0.000000 
#    y 0.000000 3.379340 0.000000 
#    z 0.000000 0.000000 3.459880 
# 
# 
# High freq. dielectric constant tensor:
#      x y z
#    x 1.755550 0.000000 0.000000 
#    y 0.000000 1.728180 0.000000 
#    z 0.000000 0.000000 1.745890 
# 
# From -- ./inp_files/7966.got.cif
#   From: 2010.03.12/outbox.cif.g09.slc.cpg/sg38_4_cif.got.tgz:7966.got - 2010.04.14 02:38:36.
