data_PCOD8179524
_publ_section_title
;
Structure prediction by ZEFSAII (Michael W. Deem and Ramdas Pophale) SiO2 
 PCOD8179524
Probable space group: A M M 2
;
_chemical_formula_sum "Si O2"
_cell_formula_units_Z 64
_cell_length_a 23.639831
_cell_length_b 8.727548
_cell_length_c 15.386702
_cell_angle_alpha 90.000000
_cell_angle_beta 90.000000
_cell_angle_gamma 90.000000
_cell_volume 3174.549887
_symmetry_space_group_name_H-M "A M M 2"
_symmetry_group_IT_number 38
_symmetry_cell_setting 'orthorhombic'
loop_
_space_group_symop_operation_xyz
x,y,z
-x,-y,z
-x,y,z
x,-y,z
x,1/2+y,1/2+z
-x,1/2-y,1/2+z
-x,1/2+y,1/2+z
x,1/2-y,1/2+z
loop_
_atom_site_type_symbol
_atom_site_label
_atom_site_fract_x
_atom_site_fract_y
_atom_site_fract_z
Si Si1 0.869120 0.174289 0.822100
Si Si2 0.243157 0.823869 0.058318
Si Si3 0.140243 0.677104 0.129876
Si Si4 0.367970 0.679249 0.882444
Si Si5 0.240080 0.322749 0.877651
Si Si6 0.936978 0.180670 0.474009
Si Si7 0.627968 0.322961 0.567630
Si Si8 0.433680 0.823574 0.726427
O O1 0.890260 0.195472 0.723107
O O2 0.803139 0.221394 0.822330
O O3 0.906735 0.278495 0.884096
O O4 0.875227 0.000000 0.853398
O O5 0.198011 0.776825 0.131591
O O6 0.306495 0.796933 0.093076
O O7 0.235508 0.000000 0.029700
O O8 0.229597 0.712157 0.978581
O O9 0.155558 0.500000 0.112624
O O10 0.098275 0.743888 0.056238
O O11 0.372863 0.500000 0.902976
O O12 0.304257 0.721863 0.852793
O O13 0.409129 0.722890 0.804491
O O14 0.384848 0.769702 0.969488
O O15 0.227494 0.500000 0.859614
O O16 0.000000 0.252569 0.475821
O O17 0.940994 0.000000 0.480869
O O18 0.610834 0.500000 0.575739
O O19 0.590906 0.225499 0.633778
O O20 0.500000 0.794697 0.723489
O O21 0.418545 0.000000 0.743546
#
# Coordination Sequence:
#
# PCOD8179524 Si02
#       8
#     8   8   8   8   8   8   8   8
#     4  11  23  37  58  91 122 156 201 247 298 355
#     4  10  20  35  59  90 123 155 196 246 298 356
#     4  10  22  38  58  87 121 160 198 239 299 360
#     4  10  22  40  63  91 122 162 205 252 309 365
#     4  10  20  36  59  87 123 160 197 242 301 362
#     4  10  22  42  64  84 115 162 208 251 300 356
#     4  10  22  40  62  91 124 161 203 252 308 364
#     4  11  25  43  63  89 122 163 210 256 304 364
#
# _framework density 20.160340000000001
#
# number of rings (size 3 to 8) (size 9 to 14) (size 15 to 20)
#    0.000    1.750    1.250    2.250    1.750    6.250 
#    0.000    1.250    0.000    0.000    0.000    0.000 
#    0.000    0.000    0.000    0.000    0.000    0.000 
#
# Total GULP energy -396899.239620 kJ/mol
# GULP energy per Si atom -12403.101238 kJ/mol
# Density = 2.011445 g / cm^3
# Si number density = 20.160340 Si / 1000 Ang^3
#
#
#
# Elastic Constant Matrix: (Units=GPa)
#
#
# Indices 1 2 3 4 5 6 
#
# 1 105.3045 31.5545 49.8400 0.0000 0.0000 0.0000
# 2 31.5545 39.3320 17.1656 0.0000 0.0000 0.0000
# 3 49.8400 17.1656 98.5152 0.0000 0.0000 0.0000
# 4 0.0000 0.0000 0.0000 31.6209 0.0000 0.0000
# 5 0.0000 0.0000 0.0000 0.0000 22.0650 0.0000
# 6 0.0000 0.0000 0.0000 0.0000 0.0000 24.9576
#
#
#
# Elastic Compliance Matrix: (Units=1/GPa)
#
#
# Indices 1 2 3 4 5 6 
#
# 1 0.015221 -0.009579 -0.006032 0.000000 0.000000 0.000000
# 2 -0.009579 0.033546 -0.000999 0.000000 0.000000 0.000000
# 3 -0.006032 -0.000999 0.013376 0.000000 0.000000 0.000000
# 4 0.000000 0.000000 0.000000 0.031625 0.000000 0.000000
# 5 0.000000 0.000000 0.000000 0.000000 0.045321 0.000000
# 6 0.000000 0.000000 0.000000 0.000000 0.000000 0.040068
#
#
# Mechanical properties :
#
#
# Convention : Reuss Voigt Hill
#
# Bulk Modulus (GPa) = 34.57347 48.91910 41.74629
# Shear Modulus (GPa) = 22.52080 25.36812 23.94446
#
# Velocity S-wave (km/s) = 3.34591 3.55113 3.45004
# Velocity P-wave (km/s) = 5.66686 6.41340 6.05165
#
# Compressibility (1/GPa) = 0.02892391
#
# Stress axis : x y z
#
# Youngs Moduli (GPa) = 65.69713 29.81022 74.75959
#
# Poissons Ratio (x) = 0.28556 0.45092
# Poissons Ratio (y) = 0.62932 0.07468
# Poissons Ratio (z) = 0.39626 0.02978
#
# Static dielectric constant tensor:
#      x y z
#    x 3.781660 0.000000 0.000000 
#    y 0.000000 3.626520 0.000000 
#    z 0.000000 0.000000 3.547190 
# 
# 
# High freq. dielectric constant tensor:
#      x y z
#    x 1.783460 0.000000 0.000000 
#    y 0.000000 1.789470 0.000000 
#    z 0.000000 0.000000 1.788400 
# 
# From -- ./inp_files/15798.got.cif
#   From: 2010.03.12/outbox.cif.g09.slc.cpg/sg38_8_cif.got.tgz:15798.got - 2010.04.14 02:38:36.
