data_PCOD8179741
_publ_section_title
;
Structure prediction by ZEFSAII (Michael W. Deem and Ramdas Pophale) SiO2 
 PCOD8179741
Probable space group: A M M 2
;
_chemical_formula_sum "Si O2"
_cell_formula_units_Z 40
_cell_length_a 11.375779
_cell_length_b 9.084044
_cell_length_c 20.187431
_cell_angle_alpha 90.000000
_cell_angle_beta 90.000000
_cell_angle_gamma 90.000000
_cell_volume 2086.130299
_symmetry_space_group_name_H-M "A M M 2"
_symmetry_group_IT_number 38
_symmetry_cell_setting 'orthorhombic'
loop_
_space_group_symop_operation_xyz
x,y,z
-x,-y,z
-x,y,z
x,-y,z
x,1/2+y,1/2+z
-x,1/2-y,1/2+z
-x,1/2+y,1/2+z
x,1/2-y,1/2+z
loop_
_atom_site_type_symbol
_atom_site_label
_atom_site_fract_x
_atom_site_fract_y
_atom_site_fract_z
Si Si1 0.500000 0.826634 0.794701
Si Si2 0.749250 0.672781 0.093128
Si Si3 0.500000 0.674043 0.146043
Si Si4 0.135071 0.669942 0.955876
Si Si5 0.862964 0.832710 0.210246
Si Si6 0.751660 0.326241 0.332865
O O1 0.500000 0.757348 0.720323
O O2 0.614526 0.778248 0.836412
O O3 0.500000 0.000000 0.784515
O O4 0.765704 0.500000 0.108040
O O5 0.615760 0.726458 0.106364
O O6 0.837664 0.763845 0.138782
O O7 0.783042 0.710198 0.017898
O O8 0.500000 0.500000 0.150242
O O9 0.148054 0.500000 0.936230
O O10 0.177167 0.764106 0.894182
O O11 0.000000 0.708375 0.972628
O O12 0.799315 0.734621 0.264319
O O13 0.000000 0.827856 0.224794
O O14 0.816230 0.000000 0.213120
O O15 0.767290 0.500000 0.332240
#
# Coordination Sequence:
#
# PCOD8179741 Si02
#       6
#     4   8   4   8   8   8
#     4   9  18  35  58  86 116 143 183 244 289 325
#     4  10  20  37  62  86 112 152 193 230 283 346
#     4   9  16  33  60  88 116 143 183 240 287 331
#     4  10  22  39  57  84 122 154 187 238 288 331
#     4  11  23  37  55  83 117 149 188 242 291 331
#     4  11  22  38  61  84 111 153 196 232 283 345
#
# _framework density 19.174258999999999
#
# number of rings (size 3 to 8) (size 9 to 14) (size 15 to 20)
#    0.000    1.800    2.000    2.400    0.000    6.800 
#    0.000    4.500    0.000    0.000    0.000    0.000 
#    0.000    0.000    0.000    0.000    0.000    0.000 
#
# Total GULP energy -248033.712615 kJ/mol
# GULP energy per Si atom -12401.685631 kJ/mol
# Density = 1.913062 g / cm^3
# Si number density = 19.174259 Si / 1000 Ang^3
#
#
#
# Elastic Constant Matrix: (Units=GPa)
#
#
# Indices 1 2 3 4 5 6 
#
# 1 93.2330 32.7901 21.5306 0.0000 0.0000 0.0000
# 2 32.7901 66.0013 39.1762 0.0000 0.0000 0.0000
# 3 21.5306 39.1762 77.9864 0.0000 0.0000 0.0000
# 4 0.0000 0.0000 0.0000 30.6195 0.0000 0.0000
# 5 0.0000 0.0000 0.0000 0.0000 37.8773 0.0000
# 6 0.0000 0.0000 0.0000 0.0000 0.0000 22.8547
#
#
#
# Elastic Compliance Matrix: (Units=1/GPa)
#
#
# Indices 1 2 3 4 5 6 
#
# 1 0.013010 -0.006172 -0.000491 0.000000 0.000000 0.000000
# 2 -0.006172 0.024516 -0.010612 0.000000 0.000000 0.000000
# 3 -0.000491 -0.010612 0.018289 0.000000 0.000000 0.000000
# 4 0.000000 0.000000 0.000000 0.032659 0.000000 0.000000
# 5 0.000000 0.000000 0.000000 0.000000 0.026401 0.000000
# 6 0.000000 0.000000 0.000000 0.000000 0.000000 0.043755
#
#
# Mechanical properties :
#
#
# Convention : Reuss Voigt Hill
#
# Bulk Modulus (GPa) = 47.02457 47.13492 47.07975
# Shear Modulus (GPa) = 24.96652 27.85188 26.40920
#
# Velocity S-wave (km/s) = 3.61236 3.81539 3.71526
# Velocity P-wave (km/s) = 6.47896 6.63667 6.55829
#
# Compressibility (1/GPa) = 0.02126548
#
# Stress axis : x y z
#
# Youngs Moduli (GPa) = 76.86444 40.78939 54.67709
#
# Poissons Ratio (x) = 0.25174 0.02687
# Poissons Ratio (y) = 0.47439 0.58022
# Poissons Ratio (z) = 0.03777 0.43285
#
# Static dielectric constant tensor:
#      x y z
#    x 3.870250 0.000000 0.000000 
#    y 0.000000 3.385600 0.000000 
#    z 0.000000 0.000000 3.443960 
# 
# 
# High freq. dielectric constant tensor:
#      x y z
#    x 1.761690 0.000000 0.000000 
#    y 0.000000 1.728570 0.000000 
#    z 0.000000 0.000000 1.746480 
# 
# From -- ./inp_files/20466.got.cif
#   From: 2010.03.12/outbox.cif.g09.slc.cpg/sg38_11_cif.got.tgz:20466.got - 2010.04.14 02:38:36.
