data_PCOD8179924
_publ_section_title
;
Structure prediction by ZEFSAII (Michael W. Deem and Ramdas Pophale) SiO2 
 PCOD8179924
Probable space group: A M M 2
;
_chemical_formula_sum "Si O2"
_cell_formula_units_Z 64
_cell_length_a 20.670451
_cell_length_b 9.032323
_cell_length_c 18.793509
_cell_angle_alpha 90.000000
_cell_angle_beta 90.000000
_cell_angle_gamma 90.000000
_cell_volume 3508.789288
_symmetry_space_group_name_H-M "A M M 2"
_symmetry_group_IT_number 38
_symmetry_cell_setting 'orthorhombic'
loop_
_space_group_symop_operation_xyz
x,y,z
-x,-y,z
-x,y,z
x,-y,z
x,1/2+y,1/2+z
-x,1/2-y,1/2+z
-x,1/2+y,1/2+z
x,1/2-y,1/2+z
loop_
_atom_site_type_symbol
_atom_site_label
_atom_site_fract_x
_atom_site_fract_y
_atom_site_fract_z
Si Si1 0.929407 0.672683 0.605590
Si Si2 0.207460 0.827983 0.448941
Si Si3 0.317727 0.327072 0.205268
Si Si4 0.574075 0.670549 0.094232
Si Si5 0.068721 0.669610 0.958125
Si Si6 0.676315 0.676174 0.855108
Si Si7 0.196918 0.325745 0.110133
Si Si8 0.575597 0.828582 0.950780
O O1 0.914833 0.500000 0.609567
O O2 0.932924 0.721193 0.524071
O O3 0.869282 0.756514 0.642810
O O4 0.000000 0.708340 0.641228
O O5 0.135305 0.797153 0.414862
O O6 0.262473 0.756544 0.399235
O O7 0.209771 0.765724 0.529780
O O8 0.223410 0.000000 0.451649
O O9 0.314768 0.500000 0.225079
O O10 0.382759 0.289152 0.162064
O O11 0.317391 0.229033 0.274956
O O12 0.256486 0.277176 0.158705
O O13 0.500000 0.704587 0.114966
O O14 0.584041 0.500000 0.072139
O O15 0.597208 0.767769 0.027585
O O16 0.073504 0.500000 0.986258
O O17 0.000000 0.690153 0.915017
O O18 0.673490 0.500000 0.856360
O O19 0.611094 0.740464 0.888520
O O20 0.187987 0.500000 0.109290
O O21 0.500000 0.801202 0.938928
O O22 0.594135 0.000000 0.946399
#
# Coordination Sequence:
#
# PCOD8179924 Si02
#       8
#     8   8   8   8   8   8   8   8
#     4   9  16  25  40  67 100 125 151 199 257 303
#     4   8  15  29  49  73  97 124 163 206 246 290
#     4  10  21  36  52  74 105 138 173 212 253 298
#     4   9  18  35  59  81 101 129 164 203 250 303
#     4   8  13  24  44  67  91 122 161 201 242 295
#     4  11  22  35  52  74 104 140 174 210 251 299
#     4   9  17  31  51  70  93 130 171 208 246 297
#     4  10  21  37  57  80 105 131 163 207 253 299
#
# _framework density 18.239909000000001
#
# number of rings (size 3 to 8) (size 9 to 14) (size 15 to 20)
#    0.000    2.750    0.000    2.625    0.000    5.000 
#    0.000    8.750    0.000    0.750    0.000    1.750 
#    0.000    0.000    0.000    0.000    0.000    0.000 
#
# Total GULP energy -396530.160382 kJ/mol
# GULP energy per Si atom -12391.567512 kJ/mol
# Density = 1.819839 g / cm^3
# Si number density = 18.239909 Si / 1000 Ang^3
#
#
#
# Elastic Constant Matrix: (Units=GPa)
#
#
# Indices 1 2 3 4 5 6 
#
# 1 135.0449 50.1887 65.2965 0.0000 0.0000 0.0000
# 2 50.1887 58.8660 42.0348 0.0000 0.0000 0.0000
# 3 65.2965 42.0348 90.9431 0.0000 0.0000 0.0000
# 4 0.0000 0.0000 0.0000 25.9187 0.0000 0.0000
# 5 0.0000 0.0000 0.0000 0.0000 7.5095 0.0000
# 6 0.0000 0.0000 0.0000 0.0000 0.0000 24.1270
#
#
#
# Elastic Compliance Matrix: (Units=1/GPa)
#
#
# Indices 1 2 3 4 5 6 
#
# 1 0.012819 -0.006503 -0.006198 0.000000 0.000000 0.000000
# 2 -0.006503 0.028656 -0.008576 0.000000 0.000000 0.000000
# 3 -0.006198 -0.008576 0.019410 0.000000 0.000000 0.000000
# 4 0.000000 0.000000 0.000000 0.038582 0.000000 0.000000
# 5 0.000000 0.000000 0.000000 0.000000 0.133165 0.000000
# 6 0.000000 0.000000 0.000000 0.000000 0.000000 0.041447
#
#
# Mechanical properties :
#
#
# Convention : Reuss Voigt Hill
#
# Bulk Modulus (GPa) = 54.55353 66.65489 60.60421
# Shear Modulus (GPa) = 15.49220 19.99997 17.74609
#
# Velocity S-wave (km/s) = 2.91754 3.31493 3.12256
# Velocity P-wave (km/s) = 6.42831 7.16062 6.80432
#
# Compressibility (1/GPa) = 0.01833062
#
# Stress axis : x y z
#
# Youngs Moduli (GPa) = 78.01149 34.89642 51.52076
#
# Poissons Ratio (x) = 0.22695 0.31931
# Poissons Ratio (y) = 0.50734 0.44183
# Poissons Ratio (z) = 0.48350 0.29926
#
# Static dielectric constant tensor:
#      x y z
#    x 3.971910 0.000000 0.000000 
#    y 0.000000 3.234940 0.000000 
#    z 0.000000 0.000000 3.025080 
# 
# 
# High freq. dielectric constant tensor:
#      x y z
#    x 1.735500 0.000000 0.000000 
#    y 0.000000 1.694140 0.000000 
#    z 0.000000 0.000000 1.659970 
# 
# From -- ./inp_files/18861.got.cif
#   From: 2010.03.12/outbox.cif.g09.slc.cpg/sg38_10_cif.got.tgz:18861.got - 2010.04.14 02:38:36.
