data_PCOD8179592
_publ_section_title
;
Structure prediction by ZEFSAII (Michael W. Deem and Ramdas Pophale) SiO2 
 PCOD8179592
Probable space group: A M M 2
;
_chemical_formula_sum "Si O2"
_cell_formula_units_Z 64
_cell_length_a 9.430636
_cell_length_b 17.942530
_cell_length_c 19.113078
_cell_angle_alpha 90.000000
_cell_angle_beta 90.000000
_cell_angle_gamma 90.000000
_cell_volume 3234.113786
_symmetry_space_group_name_H-M "A M M 2"
_symmetry_group_IT_number 38
_symmetry_cell_setting 'orthorhombic'
loop_
_space_group_symop_operation_xyz
x,y,z
-x,-y,z
-x,y,z
x,-y,z
x,1/2+y,1/2+z
-x,1/2-y,1/2+z
-x,1/2+y,1/2+z
x,1/2-y,1/2+z
loop_
_atom_site_type_symbol
_atom_site_label
_atom_site_fract_x
_atom_site_fract_y
_atom_site_fract_z
Si Si1 0.842913 0.086227 0.221420
Si Si2 0.163363 0.307589 0.508359
Si Si3 0.166495 0.084029 0.730006
Si Si4 0.661740 0.588351 0.593277
Si Si5 0.162782 0.799023 0.843099
Si Si6 0.334897 0.658318 0.832590
Si Si7 0.166728 0.843110 0.586809
Si Si8 0.341456 0.583273 0.975066
O O1 0.751448 0.121004 0.158383
O O2 0.753342 0.095946 0.291689
O O3 0.000000 0.123857 0.225260
O O4 0.863315 0.000000 0.207170
O O5 0.264914 0.376906 0.525233
O O6 0.184732 0.298677 0.425887
O O7 0.214662 0.237158 0.555671
O O8 0.000000 0.326519 0.525543
O O9 0.204230 0.123462 0.804286
O O10 0.218538 0.137924 0.666015
O O11 0.000000 0.074614 0.722659
O O12 0.234160 0.000000 0.727821
O O13 0.500000 0.615476 0.600436
O O14 0.669111 0.500000 0.587144
O O15 0.268288 0.737502 0.811591
O O16 0.000000 0.778472 0.824862
O O17 0.500000 0.655061 0.811841
O O18 0.310363 0.642348 0.914097
O O19 0.233337 0.906457 0.538142
O O20 0.000000 0.850194 0.579856
O O21 0.500000 0.595788 0.003979
O O22 0.324035 0.500000 0.944625
#
# Coordination Sequence:
#
# PCOD8179592 Si02
#       8
#     8   8   8   8   8   8   8   8
#     4  10  21  37  58  84 115 151 192 239 289 344
#     4  10  21  36  57  87 118 151 196 250 302 351
#     4   9  19  36  59  86 115 152 195 243 298 350
#     4  10  22  39  59  85 117 153 193 238 294 361
#     4  10  21  38  59  84 115 152 199 247 291 351
#     4  11  22  36  55  82 118 158 196 239 293 356
#     4  10  20  36  58  87 117 147 192 246 297 352
#     4  10  21  36  55  81 115 155 193 234 292 359
#
# _framework density 19.789038000000001
#
# number of rings (size 3 to 8) (size 9 to 14) (size 15 to 20)
#    0.000    2.000    1.250    1.875    1.750    4.750 
#    0.000    1.875    0.000    1.125    0.000    0.000 
#    0.000    0.000    0.000    0.000    0.000    0.000 
#
# Total GULP energy -396664.020071 kJ/mol
# GULP energy per Si atom -12395.750627 kJ/mol
# Density = 1.974400 g / cm^3
# Si number density = 19.789038 Si / 1000 Ang^3
#
#
#
# Elastic Constant Matrix: (Units=GPa)
#
#
# Indices 1 2 3 4 5 6 
#
# 1 99.8458 33.3136 44.3091 0.0000 0.0000 0.0000
# 2 33.3136 72.6747 51.2375 0.0000 0.0000 0.0000
# 3 44.3091 51.2375 90.8152 0.0000 0.0000 0.0000
# 4 0.0000 0.0000 0.0000 34.3604 0.0000 0.0000
# 5 0.0000 0.0000 0.0000 0.0000 24.1906 0.0000
# 6 0.0000 0.0000 0.0000 0.0000 0.0000 28.8228
#
#
#
# Elastic Compliance Matrix: (Units=1/GPa)
#
#
# Indices 1 2 3 4 5 6 
#
# 1 0.013047 -0.002479 -0.004967 0.000000 0.000000 0.000000
# 2 -0.002479 0.023319 -0.011947 0.000000 0.000000 0.000000
# 3 -0.004967 -0.011947 0.020176 0.000000 0.000000 0.000000
# 4 0.000000 0.000000 0.000000 0.029103 0.000000 0.000000
# 5 0.000000 0.000000 0.000000 0.000000 0.041338 0.000000
# 6 0.000000 0.000000 0.000000 0.000000 0.000000 0.034695
#
#
# Mechanical properties :
#
#
# Convention : Reuss Voigt Hill
#
# Bulk Modulus (GPa) = 56.32090 57.89515 57.10803
# Shear Modulus (GPa) = 24.22686 26.43978 25.33332
#
# Velocity S-wave (km/s) = 3.50273 3.65921 3.58183
# Velocity P-wave (km/s) = 6.69935 6.86824 6.78432
#
# Compressibility (1/GPa) = 0.01775540
#
# Stress axis : x y z
#
# Youngs Moduli (GPa) = 76.64760 42.88300 49.56505
#
# Poissons Ratio (x) = 0.10629 0.24620
# Poissons Ratio (y) = 0.18998 0.59217
# Poissons Ratio (z) = 0.38072 0.51234
#
# Static dielectric constant tensor:
#      x y z
#    x 3.579830 0.000000 0.000000 
#    y 0.000000 3.520940 0.000000 
#    z 0.000000 0.000000 3.605020 
# 
# 
# High freq. dielectric constant tensor:
#      x y z
#    x 1.760690 0.000000 0.000000 
#    y 0.000000 1.765440 0.000000 
#    z 0.000000 0.000000 1.770710 
# 
# From -- ./inp_files/20115.got.cif
#   From: 2010.03.12/outbox.cif.g09.slc.cpg/sg38_11_cif.got.tgz:20115.got - 2010.04.14 02:38:36.
