data_PCOD8179025
_publ_section_title
;
Structure prediction by ZEFSAII (Michael W. Deem and Ramdas Pophale) SiO2 
 PCOD8179025
Probable space group: A M M 2
;
_chemical_formula_sum "Si O2"
_cell_formula_units_Z 64
_cell_length_a 15.511456
_cell_length_b 9.334410
_cell_length_c 23.351731
_cell_angle_alpha 90.000000
_cell_angle_beta 90.000000
_cell_angle_gamma 90.000000
_cell_volume 3381.103904
_symmetry_space_group_name_H-M "A M M 2"
_symmetry_group_IT_number 38
_symmetry_cell_setting 'orthorhombic'
loop_
_space_group_symop_operation_xyz
x,y,z
-x,-y,z
-x,y,z
x,-y,z
x,1/2+y,1/2+z
-x,1/2-y,1/2+z
-x,1/2+y,1/2+z
x,1/2-y,1/2+z
loop_
_atom_site_type_symbol
_atom_site_label
_atom_site_fract_x
_atom_site_fract_y
_atom_site_fract_z
Si Si1 0.823941 0.158780 0.020920
Si Si2 0.723093 0.336096 0.411095
Si Si3 0.404799 0.342013 0.978851
Si Si4 0.355621 0.835728 0.083479
Si Si5 0.599939 0.833540 0.697205
Si Si6 0.901220 0.655587 0.107205
Si Si7 0.756397 0.665250 0.280005
Si Si8 0.100816 0.831568 0.215302
O O1 0.742620 0.172817 0.063160
O O2 0.891199 0.274894 0.044292
O O3 0.864077 0.000000 0.025146
O O4 0.801656 0.194421 0.955089
O O5 0.692430 0.500000 0.418868
O O6 0.645375 0.233936 0.427735
O O7 0.749666 0.302307 0.347004
O O8 0.500000 0.358935 0.954513
O O9 0.365028 0.500000 0.991596
O O10 0.410338 0.250089 0.036794
O O11 0.369183 0.763116 0.144684
O O12 0.387374 0.000000 0.086712
O O13 0.500000 0.798470 0.714157
O O14 0.665019 0.797107 0.749666
O O15 0.607832 0.000000 0.679964
O O16 0.853837 0.500000 0.110557
O O17 0.866707 0.763231 0.155636
O O18 0.000000 0.628732 0.118894
O O19 0.780436 0.500000 0.268299
O O20 0.836994 0.763291 0.262473
O O21 0.000000 0.798791 0.229016
O O22 0.117220 0.000000 0.211633
#
# Coordination Sequence:
#
# PCOD8179025 Si02
#       8
#     8   8   8   8   8   8   8   8
#     4   9  18  33  52  75 103 133 168 213 264 316
#     4   9  20  37  55  76 101 134 179 222 260 309
#     4  10  20  33  51  76 104 135 173 218 267 316
#     4  10  20  33  51  76 104 135 174 219 266 318
#     4  10  21  35  51  76 110 144 178 219 269 323
#     4  10  20  33  52  80 109 135 167 208 255 313
#     4  10  21  38  59  80 105 142 186 228 268 312
#     4  10  21  37  58  84 112 142 176 217 269 324
#
# _framework density 18.928730000000002
#
# number of rings (size 3 to 8) (size 9 to 14) (size 15 to 20)
#    0.000    2.250    0.000    3.375    0.000   10.250 
#    0.000    1.875    0.000    3.750    0.000    0.000 
#    0.000    0.000    0.000    0.000    0.000    0.000 
#
# Total GULP energy -396652.931426 kJ/mol
# GULP energy per Si atom -12395.404107 kJ/mol
# Density = 1.888565 g / cm^3
# Si number density = 18.928730 Si / 1000 Ang^3
#
#
#
# Elastic Constant Matrix: (Units=GPa)
#
#
# Indices 1 2 3 4 5 6 
#
# 1 55.1771 44.6045 48.6828 0.0000 0.0000 0.0000
# 2 44.6045 133.8870 78.1001 0.0000 0.0000 0.0000
# 3 48.6828 78.1001 141.1970 0.0000 0.0000 0.0000
# 4 0.0000 0.0000 0.0000 28.6823 0.0000 0.0000
# 5 0.0000 0.0000 0.0000 0.0000 14.3944 0.0000
# 6 0.0000 0.0000 0.0000 0.0000 0.0000 27.4615
#
#
#
# Elastic Compliance Matrix: (Units=1/GPa)
#
#
# Indices 1 2 3 4 5 6 
#
# 1 0.028615 -0.005578 -0.006781 0.000000 0.000000 0.000000
# 2 -0.005578 0.012114 -0.004778 0.000000 0.000000 0.000000
# 3 -0.006781 -0.004778 0.012063 0.000000 0.000000 0.000000
# 4 0.000000 0.000000 0.000000 0.034865 0.000000 0.000000
# 5 0.000000 0.000000 0.000000 0.000000 0.069472 0.000000
# 6 0.000000 0.000000 0.000000 0.000000 0.000000 0.036415
#
#
# Mechanical properties :
#
#
# Convention : Reuss Voigt Hill
#
# Bulk Modulus (GPa) = 53.99615 74.78177 64.38896
# Shear Modulus (GPa) = 21.36855 24.69920 23.03388
#
# Velocity S-wave (km/s) = 3.36355 3.61619 3.49216
# Velocity P-wave (km/s) = 6.60852 7.55173 7.09581
#
# Compressibility (1/GPa) = 0.01851984
#
# Stress axis : x y z
#
# Youngs Moduli (GPa) = 34.94647 82.54875 82.89878
#
# Poissons Ratio (x) = 0.46042 0.56214
# Poissons Ratio (y) = 0.19492 0.39605
# Poissons Ratio (z) = 0.23697 0.39438
#
# Static dielectric constant tensor:
#      x y z
#    x 3.365170 0.000000 0.000000 
#    y 0.000000 3.733700 0.000000 
#    z 0.000000 0.000000 3.397480 
# 
# 
# High freq. dielectric constant tensor:
#      x y z
#    x 1.724580 0.000000 0.000000 
#    y 0.000000 1.747270 0.000000 
#    z 0.000000 0.000000 1.724270 
# 
# From -- ./inp_files/22961.got.cif
#   From: 2010.03.12/outbox.cif.g09.slc.cpg/sg38_12_cif.got.tgz:22961.got - 2010.04.14 02:38:36.
