data_PCOD8179594
_publ_section_title
;
Structure prediction by ZEFSAII (Michael W. Deem and Ramdas Pophale) SiO2 
 PCOD8179594
Probable space group: A M M 2
;
_chemical_formula_sum "Si O2"
_cell_formula_units_Z 44
_cell_length_a 13.663619
_cell_length_b 10.833700
_cell_length_c 14.985874
_cell_angle_alpha 90.000000
_cell_angle_beta 90.000000
_cell_angle_gamma 90.000000
_cell_volume 2218.322200
_symmetry_space_group_name_H-M "A M M 2"
_symmetry_group_IT_number 38
_symmetry_cell_setting 'orthorhombic'
loop_
_space_group_symop_operation_xyz
x,y,z
-x,-y,z
-x,y,z
x,-y,z
x,1/2+y,1/2+z
-x,1/2-y,1/2+z
-x,1/2+y,1/2+z
x,1/2-y,1/2+z
loop_
_atom_site_type_symbol
_atom_site_label
_atom_site_fract_x
_atom_site_fract_y
_atom_site_fract_z
Si Si1 0.777251 0.357667 0.855930
Si Si2 0.388229 0.270928 0.956308
Si Si3 0.611096 0.500000 0.429917
Si Si4 0.887462 0.361030 0.028464
Si Si5 0.616163 0.500000 0.081597
Si Si6 0.253919 0.500000 0.258265
Si Si7 0.885349 0.281268 0.219377
O O1 0.757636 0.500000 0.866209
O O2 0.671677 0.290340 0.863114
O O3 0.841172 0.340120 0.766425
O O4 0.834153 0.305349 0.942839
O O5 0.500000 0.297961 0.932408
O O6 0.373166 0.127122 0.987758
O O7 0.352940 0.373211 0.029307
O O8 0.500000 0.500000 0.393450
O O9 0.681948 0.500000 0.346274
O O10 0.851127 0.500000 0.054233
O O11 0.869034 0.272692 0.113212
O O12 0.000000 0.366601 0.002533
O O13 0.500000 0.500000 0.100260
O O14 0.674482 0.500000 0.173557
O O15 0.180318 0.613763 0.262913
O O16 0.000000 0.301029 0.241281
#
# Coordination Sequence:
#
# PCOD8179594 Si02
#       7
#     8   8   4   8   4   4   8
#     4  11  21  36  61  86 115 161 206 246 303 370
#     4  10  20  36  58  89 121 155 195 246 300 361
#     4  10  21  37  59  85 121 155 192 241 305 363
#     4   9  18  34  56  82 109 146 198 250 294 351
#     4  10  21  37  65  93 119 152 204 254 298 366
#     4  12  20  36  58  86 112 153 202 247 297 359
#     4  11  22  35  56  86 119 152 198 259 305 350
#
# _framework density 19.834810000000001
#
# number of rings (size 3 to 8) (size 9 to 14) (size 15 to 20)
#    0.000    1.636    3.636    2.182    0.000    1.091 
#    0.000    0.000   10.000    0.000    0.000    6.364 
#    0.000    0.000    0.000    0.000    0.000    0.000 
#
# Total GULP energy -272597.345948 kJ/mol
# GULP energy per Si atom -12390.788452 kJ/mol
# Density = 1.978966 g / cm^3
# Si number density = 19.834810 Si / 1000 Ang^3
#
#
#
# Elastic Constant Matrix: (Units=GPa)
#
#
# Indices 1 2 3 4 5 6 
#
# 1 58.9704 34.5091 30.0832 0.0000 0.0000 0.0000
# 2 34.5091 105.6684 36.3696 0.0000 0.0000 0.0000
# 3 30.0832 36.3696 71.5157 0.0000 0.0000 0.0000
# 4 0.0000 0.0000 0.0000 26.8444 0.0000 0.0000
# 5 0.0000 0.0000 0.0000 0.0000 27.1222 0.0000
# 6 0.0000 0.0000 0.0000 0.0000 0.0000 28.1099
#
#
#
# Elastic Compliance Matrix: (Units=1/GPa)
#
#
# Indices 1 2 3 4 5 6 
#
# 1 0.023763 -0.005237 -0.007333 0.000000 0.000000 0.000000
# 2 -0.005237 0.012626 -0.004218 0.000000 0.000000 0.000000
# 3 -0.007333 -0.004218 0.019213 0.000000 0.000000 0.000000
# 4 0.000000 0.000000 0.000000 0.037252 0.000000 0.000000
# 5 0.000000 0.000000 0.000000 0.000000 0.036870 0.000000
# 6 0.000000 0.000000 0.000000 0.000000 0.000000 0.035575
#
#
# Mechanical properties :
#
#
# Convention : Reuss Voigt Hill
#
# Bulk Modulus (GPa) = 45.40048 48.67536 47.03792
# Shear Modulus (GPa) = 24.24664 25.42814 24.83739
#
# Velocity S-wave (km/s) = 3.50012 3.58438 3.54250
# Velocity P-wave (km/s) = 6.26685 6.45941 6.36386
#
# Compressibility (1/GPa) = 0.02202620
#
# Stress axis : x y z
#
# Youngs Moduli (GPa) = 42.08255 79.20475 52.04932
#
# Poissons Ratio (x) = 0.41476 0.38166
# Poissons Ratio (y) = 0.22037 0.21954
# Poissons Ratio (z) = 0.30858 0.33408
#
# Static dielectric constant tensor:
#      x y z
#    x 3.921420 0.000000 0.000000 
#    y 0.000000 3.770730 0.000000 
#    z 0.000000 0.000000 3.384750 
# 
# 
# High freq. dielectric constant tensor:
#      x y z
#    x 1.802340 0.000000 0.000000 
#    y 0.000000 1.763970 0.000000 
#    z 0.000000 0.000000 1.741630 
# 
# From -- ./inp_files/14437.got.cif
#   From: 2010.03.12/outbox.cif.g09.slc.cpg/sg38_8_cif.got.tgz:14437.got - 2010.04.14 02:38:36.
