data_PCOD8179631
_publ_section_title
;
Structure prediction by ZEFSAII (Michael W. Deem and Ramdas Pophale) SiO2 
 PCOD8179631
Probable space group: A M M 2
;
_chemical_formula_sum "Si O2"
_cell_formula_units_Z 24
_cell_length_a 7.650638
_cell_length_b 13.075985
_cell_length_c 13.081594
_cell_angle_alpha 90.000000
_cell_angle_beta 90.000000
_cell_angle_gamma 90.000000
_cell_volume 1308.677794
_symmetry_space_group_name_H-M "A M M 2"
_symmetry_group_IT_number 38
_symmetry_cell_setting 'orthorhombic'
loop_
_space_group_symop_operation_xyz
x,y,z
-x,-y,z
-x,y,z
x,-y,z
x,1/2+y,1/2+z
-x,1/2-y,1/2+z
-x,1/2+y,1/2+z
x,1/2-y,1/2+z
loop_
_atom_site_type_symbol
_atom_site_label
_atom_site_fract_x
_atom_site_fract_y
_atom_site_fract_z
Si Si1 0.803891 0.170206 0.097500
Si Si2 0.500000 0.500000 0.924966
Si Si3 0.500000 0.831142 0.593649
Si Si4 0.500000 0.500000 0.261919
Si Si5 0.306646 0.000000 0.957876
Si Si6 0.799099 0.500000 0.761758
O O1 0.673812 0.264335 0.092804
O O2 0.758602 0.100239 0.194918
O O3 0.000000 0.214116 0.105179
O O4 0.792671 0.101801 0.994664
O O5 0.675561 0.500000 0.859176
O O6 0.500000 0.398776 0.992610
O O7 0.500000 0.898405 0.695285
O O8 0.326475 0.500000 0.334297
O O9 0.500000 0.000000 0.009453
O O10 0.000000 0.500000 0.798778
#
# Coordination Sequence:
#
# PCOD8179631 Si02
#       6
#     8   2   4   2   4   4
#     4  10  20  36  60  85 109 137 178 229 274 321
#     4  11  24  35  56  76 112 155 178 223 264 320
#     4  11  22  39  52  78 114 149 184 217 270 318
#     4   9  22  37  56  74 112 153 182 219 266 322
#     4   9  17  35  59  86 101 140 177 220 277 312
#     4   9  20  37  58  85 108 136 179 227 275 321
#
# _framework density 18.339119
#
# number of rings (size 3 to 8) (size 9 to 14) (size 15 to 20)
#    0.500    1.667    1.667    2.500    2.333    6.667 
#    0.000    9.167    0.000    0.000    0.000    0.000 
#    0.000    0.000    0.000    0.000    0.000    0.000 
#
# Total GULP energy -148785.728860 kJ/mol
# GULP energy per Si atom -12398.810738 kJ/mol
# Density = 1.829738 g / cm^3
# Si number density = 18.339119 Si / 1000 Ang^3
#
#
#
# Elastic Constant Matrix: (Units=GPa)
#
#
# Indices 1 2 3 4 5 6 
#
# 1 137.3523 78.9465 65.3410 0.0000 0.0000 0.0000
# 2 78.9465 142.5120 71.2421 0.0000 0.0000 0.0000
# 3 65.3410 71.2421 141.9789 0.0000 0.0000 0.0000
# 4 0.0000 0.0000 0.0000 10.9659 0.0000 0.0000
# 5 0.0000 0.0000 0.0000 0.0000 5.0988 0.0000
# 6 0.0000 0.0000 0.0000 0.0000 0.0000 -18.3776
#
#
#
# Elastic Compliance Matrix: (Units=1/GPa)
#
#
# Indices 1 2 3 4 5 6 
#
# 1 0.011452 -0.004951 -0.002786 0.000000 0.000000 0.000000
# 2 -0.004951 0.011507 -0.003495 0.000000 0.000000 0.000000
# 3 -0.002786 -0.003495 0.010079 0.000000 0.000000 0.000000
# 4 0.000000 0.000000 0.000000 0.091192 0.000000 0.000000
# 5 0.000000 0.000000 0.000000 0.000000 0.196123 0.000000
# 6 0.000000 0.000000 0.000000 0.000000 0.000000 -0.054414
#
#
# Mechanical properties :
#
#
# Convention : Reuss Voigt Hill
#
# Bulk Modulus (GPa) = 94.57862 94.76693 94.67278
# Shear Modulus (GPa) = 17.12753 13.29167 15.20960
#
# Velocity S-wave (km/s) = 3.05935 2.69508 2.88297
# Velocity P-wave (km/s) = 8.01021 7.84038 7.92575
#
# Compressibility (1/GPa) = 0.01057321
#
# Stress axis : x y z
#
# Youngs Moduli (GPa) = 87.32406 86.90307 99.21308
#
# Poissons Ratio (x) = 0.43027 0.27639
# Poissons Ratio (y) = 0.43235 0.34679
# Poissons Ratio (z) = 0.24327 0.30376
#
# Static dielectric constant tensor:
#      x y z
#    x 3.415530 0.000000 0.000000 
#    y 0.000000 3.285940 0.000000 
#    z 0.000000 0.000000 3.278350 
# 
# 
# High freq. dielectric constant tensor:
#      x y z
#    x 1.718640 0.000000 0.000000 
#    y 0.000000 1.705550 0.000000 
#    z 0.000000 0.000000 1.701890 
# 
# From -- ./inp_files/7449.got.cif
#   From: 2010.03.12/outbox.cif.g09.slc.cpg/sg38_4_cif.got.tgz:7449.got - 2010.04.14 02:38:36.
