data_PCOD8179697
_publ_section_title
;
Structure prediction by ZEFSAII (Michael W. Deem and Ramdas Pophale) SiO2 
 PCOD8179697
Probable space group: A M M 2
;
_chemical_formula_sum "Si O2"
_cell_formula_units_Z 64
_cell_length_a 18.681503
_cell_length_b 9.294656
_cell_length_c 19.690939
_cell_angle_alpha 90.000000
_cell_angle_beta 90.000000
_cell_angle_gamma 90.000000
_cell_volume 3419.098101
_symmetry_space_group_name_H-M "A M M 2"
_symmetry_group_IT_number 38
_symmetry_cell_setting 'orthorhombic'
loop_
_space_group_symop_operation_xyz
x,y,z
-x,-y,z
-x,y,z
x,-y,z
x,1/2+y,1/2+z
-x,1/2-y,1/2+z
-x,1/2+y,1/2+z
x,1/2-y,1/2+z
loop_
_atom_site_type_symbol
_atom_site_label
_atom_site_fract_x
_atom_site_fract_y
_atom_site_fract_z
Si Si1 0.652992 0.833200 0.826020
Si Si2 0.644891 0.166777 0.591745
Si Si3 0.916498 0.835726 0.389440
Si Si4 0.812212 0.166251 0.794582
Si Si5 0.418295 0.335240 0.707154
Si Si6 0.920449 0.328463 0.041446
Si Si7 0.799464 0.329142 0.141350
Si Si8 0.582767 0.336016 0.946417
O O1 0.737858 0.811601 0.834717
O O2 0.631049 0.752745 0.757926
O O3 0.611120 0.770574 0.889612
O O4 0.632925 0.000000 0.818014
O O5 0.589005 0.263493 0.633310
O O6 0.724784 0.221215 0.608532
O O7 0.629887 0.191720 0.512802
O O8 0.633942 0.000000 0.611747
O O9 0.874489 0.745383 0.334137
O O10 0.900271 0.776606 0.465349
O O11 0.000000 0.821168 0.373098
O O12 0.891071 0.000000 0.383514
O O13 0.806492 0.229524 0.718076
O O14 0.833230 0.000000 0.790811
O O15 0.500000 0.325729 0.731689
O O16 0.392558 0.500000 0.704412
O O17 0.920140 0.500000 0.041670
O O18 0.863793 0.265126 0.095377
O O19 0.000000 0.272932 0.061138
O O20 0.802637 0.500000 0.141226
O O21 0.500000 0.302796 0.962221
O O22 0.591972 0.500000 0.920788
#
# Coordination Sequence:
#
# PCOD8179697 Si02
#       8
#     8   8   8   8   8   8   8   8
#     4  11  23  39  57  81 114 150 189 235 285 337
#     4  10  20  37  59  83 112 146 186 233 283 339
#     4   9  19  35  56  84 114 144 182 224 268 325
#     4  10  21  36  54  81 114 144 182 227 270 329
#     4  11  23  38  58  83 111 145 188 234 281 339
#     4   8  15  29  52  82 110 138 178 224 266 312
#     4   9  17  32  53  79 110 141 180 226 269 320
#     4  10  22  38  57  84 113 144 189 238 285 343
#
# _framework density 18.718385000000001
#
# number of rings (size 3 to 8) (size 9 to 14) (size 15 to 20)
#    0.000    2.250    1.250    2.250    1.750    5.500 
#    0.000    1.250    0.000    0.750    0.000    0.000 
#    0.000    0.000    0.000    0.000    0.000    0.000 
#
# Total GULP energy -396833.870884 kJ/mol
# GULP energy per Si atom -12401.058465 kJ/mol
# Density = 1.867578 g / cm^3
# Si number density = 18.718385 Si / 1000 Ang^3
#
#
#
# Elastic Constant Matrix: (Units=GPa)
#
#
# Indices 1 2 3 4 5 6 
#
# 1 91.6141 32.6388 51.0189 0.0000 0.0000 0.0000
# 2 32.6388 72.2972 38.7576 0.0000 0.0000 0.0000
# 3 51.0189 38.7576 99.7534 0.0000 0.0000 0.0000
# 4 0.0000 0.0000 0.0000 29.4738 0.0000 0.0000
# 5 0.0000 0.0000 0.0000 0.0000 42.3351 0.0000
# 6 0.0000 0.0000 0.0000 0.0000 0.0000 26.7327
#
#
#
# Elastic Compliance Matrix: (Units=1/GPa)
#
#
# Indices 1 2 3 4 5 6 
#
# 1 0.015961 -0.003574 -0.006775 0.000000 0.000000 0.000000
# 2 -0.003574 0.018271 -0.005271 0.000000 0.000000 0.000000
# 3 -0.006775 -0.005271 0.015538 0.000000 0.000000 0.000000
# 4 0.000000 0.000000 0.000000 0.033928 0.000000 0.000000
# 5 0.000000 0.000000 0.000000 0.000000 0.023621 0.000000
# 6 0.000000 0.000000 0.000000 0.000000 0.000000 0.037407
#
#
# Mechanical properties :
#
#
# Convention : Reuss Voigt Hill
#
# Bulk Modulus (GPa) = 53.96515 56.49949 55.23232
# Shear Modulus (GPa) = 27.45088 29.12495 28.28791
#
# Velocity S-wave (km/s) = 3.83367 3.94884 3.89168
# Velocity P-wave (km/s) = 6.96338 7.14427 7.05440
#
# Compressibility (1/GPa) = 0.01853048
#
# Stress axis : x y z
#
# Youngs Moduli (GPa) = 62.65077 54.73164 64.35951
#
# Poissons Ratio (x) = 0.19561 0.43603
# Poissons Ratio (y) = 0.22391 0.33924
# Poissons Ratio (z) = 0.42445 0.28849
#
# Static dielectric constant tensor:
#      x y z
#    x 3.537790 0.000000 0.000000 
#    y 0.000000 3.187290 0.000000 
#    z 0.000000 0.000000 3.518240 
# 
# 
# High freq. dielectric constant tensor:
#      x y z
#    x 1.734580 0.000000 0.000000 
#    y 0.000000 1.697160 0.000000 
#    z 0.000000 0.000000 1.733680 
# 
# From -- ./inp_files/18986.got.cif
#   From: 2010.03.12/outbox.cif.g09.slc.cpg/sg38_10_cif.got.tgz:18986.got - 2010.04.14 02:38:36.
