data_PCOD8179315
_publ_section_title
;
Structure prediction by ZEFSAII (Michael W. Deem and Ramdas Pophale) SiO2 
 PCOD8179315
Probable space group: A M M 2
;
_chemical_formula_sum "Si O2"
_cell_formula_units_Z 48
_cell_length_a 7.816730
_cell_length_b 9.385382
_cell_length_c 34.348605
_cell_angle_alpha 90.000000
_cell_angle_beta 90.000000
_cell_angle_gamma 90.000000
_cell_volume 2519.916607
_symmetry_space_group_name_H-M "A M M 2"
_symmetry_group_IT_number 38
_symmetry_cell_setting 'orthorhombic'
loop_
_space_group_symop_operation_xyz
x,y,z
-x,-y,z
-x,y,z
x,-y,z
x,1/2+y,1/2+z
-x,1/2-y,1/2+z
-x,1/2+y,1/2+z
x,1/2-y,1/2+z
loop_
_atom_site_type_symbol
_atom_site_label
_atom_site_fract_x
_atom_site_fract_y
_atom_site_fract_z
Si Si1 0.696941 0.656638 0.939950
Si Si2 0.500000 0.329921 0.232214
Si Si3 0.189365 0.330862 0.597966
Si Si4 0.703596 0.339008 0.369111
Si Si5 0.799664 0.659949 0.511046
Si Si6 0.809523 0.668612 0.285600
Si Si7 0.500000 0.829972 0.151281
O O1 0.500000 0.638182 0.929792
O O2 0.783893 0.500000 0.942346
O O3 0.780617 0.747333 0.904836
O O4 0.710952 0.735334 0.980971
O O5 0.500000 0.500000 0.226034
O O6 0.331503 0.275614 0.255167
O O7 0.500000 0.250261 0.191661
O O8 0.182406 0.500000 0.597365
O O9 0.239347 0.280849 0.554412
O O10 0.331548 0.277098 0.628190
O O11 0.000000 0.271955 0.609672
O O12 0.500000 0.337527 0.367815
O O13 0.770950 0.500000 0.374848
O O14 0.773343 0.271466 0.328846
O O15 0.725118 0.500000 0.505829
O O16 0.000000 0.658311 0.503146
O O17 0.791925 0.500000 0.287935
O O18 0.000000 0.715521 0.271925
O O19 0.500000 0.000000 0.157245
#
# Coordination Sequence:
#
# PCOD8179315 Si02
#       7
#     8   4   8   8   8   8   4
#     4  10  21  33  46  72 109 145 174 206 256 312
#     4  10  20  36  54  77 108 133 161 208 257 306
#     4   8  16  32  53  78 105 131 169 218 257 297
#     4   9  16  30  51  72  96 131 176 222 258 292
#     4   9  18  33  53  75  98 130 176 225 262 296
#     4   9  17  31  54  79 101 131 171 213 257 302
#     4  10  20  34  56  81 102 135 169 200 257 314
#
# _framework density 19.048249999999999
#
# number of rings (size 3 to 8) (size 9 to 14) (size 15 to 20)
#    0.000    2.833    0.833    1.500    1.167    2.667 
#    0.000    3.333    0.000    2.000    0.000    0.000 
#    0.000    0.000    0.000    0.000    0.000    0.000 
#
# Total GULP energy -297487.871576 kJ/mol
# GULP energy per Si atom -12395.327982 kJ/mol
# Density = 1.900490 g / cm^3
# Si number density = 19.048250 Si / 1000 Ang^3
#
#
#
# Elastic Constant Matrix: (Units=GPa)
#
#
# Indices 1 2 3 4 5 6 
#
# 1 96.6249 27.6593 71.1196 0.0000 0.0000 0.0000
# 2 27.6593 67.7561 54.0044 0.0000 0.0000 0.0000
# 3 71.1196 54.0044 169.2610 0.0000 0.0000 0.0000
# 4 0.0000 0.0000 0.0000 28.6646 0.0000 0.0000
# 5 0.0000 0.0000 0.0000 0.0000 14.1297 0.0000
# 6 0.0000 0.0000 0.0000 0.0000 0.0000 9.2815
#
#
#
# Elastic Compliance Matrix: (Units=1/GPa)
#
#
# Indices 1 2 3 4 5 6 
#
# 1 0.015094 -0.001484 -0.005868 0.000000 0.000000 0.000000
# 2 -0.001484 0.019938 -0.005738 0.000000 0.000000 0.000000
# 3 -0.005868 -0.005738 0.010205 0.000000 0.000000 0.000000
# 4 0.000000 0.000000 0.000000 0.034886 0.000000 0.000000
# 5 0.000000 0.000000 0.000000 0.000000 0.070773 0.000000
# 6 0.000000 0.000000 0.000000 0.000000 0.000000 0.107742
#
#
# Mechanical properties :
#
#
# Convention : Reuss Voigt Hill
#
# Bulk Modulus (GPa) = 52.47883 71.02319 61.75101
# Shear Modulus (GPa) = 17.17213 22.47239 19.82226
#
# Velocity S-wave (km/s) = 3.00577 3.43849 3.22939
# Velocity P-wave (km/s) = 6.29734 7.28911 6.81130
#
# Compressibility (1/GPa) = 0.01905530
#
# Stress axis : x y z
#
# Youngs Moduli (GPa) = 66.25359 50.15571 97.99566
#
# Poissons Ratio (x) = 0.07443 0.57508
# Poissons Ratio (y) = 0.09832 0.56228
# Poissons Ratio (z) = 0.38881 0.28778
#
# Static dielectric constant tensor:
#      x y z
#    x 3.645400 0.000000 0.000000 
#    y 0.000000 3.279800 0.000000 
#    z 0.000000 0.000000 3.543320 
# 
# 
# High freq. dielectric constant tensor:
#      x y z
#    x 1.741670 0.000000 0.000000 
#    y 0.000000 1.694640 0.000000 
#    z 0.000000 0.000000 1.743000 
# 
# From -- ./inp_files/24314.got.cif
#   From: 2010.03.12/outbox.cif.g09.slc.cpg/sg38_13_cif.got.tgz:24314.got - 2010.04.14 02:38:36.
