data_PCOD8179978
_publ_section_title
;
Structure prediction by ZEFSAII (Michael W. Deem and Ramdas Pophale) SiO2 
 PCOD8179978
Probable space group: A M M 2
;
_chemical_formula_sum "Si O2"
_cell_formula_units_Z 64
_cell_length_a 8.924366
_cell_length_b 19.573905
_cell_length_c 19.826196
_cell_angle_alpha 90.000000
_cell_angle_beta 90.000000
_cell_angle_gamma 90.000000
_cell_volume 3463.332947
_symmetry_space_group_name_H-M "A M M 2"
_symmetry_group_IT_number 38
_symmetry_cell_setting 'orthorhombic'
loop_
_space_group_symop_operation_xyz
x,y,z
-x,-y,z
-x,y,z
x,-y,z
x,1/2+y,1/2+z
-x,1/2-y,1/2+z
-x,1/2+y,1/2+z
x,1/2-y,1/2+z
loop_
_atom_site_type_symbol
_atom_site_label
_atom_site_fract_x
_atom_site_fract_y
_atom_site_fract_z
Si Si1 0.672946 0.325705 0.863700
Si Si2 0.673316 0.419874 0.111832
Si Si3 0.671416 0.669982 0.356706
Si Si4 0.173932 0.078565 0.749512
Si Si5 0.325970 0.817162 0.010291
Si Si6 0.170925 0.921124 0.260968
Si Si7 0.828742 0.921271 0.105086
Si Si8 0.822938 0.675495 0.004400
O O1 0.500000 0.335547 0.883285
O O2 0.702153 0.248824 0.838300
O O3 0.715890 0.376242 0.803972
O O4 0.769191 0.342903 0.929458
O O5 0.500000 0.399723 0.106967
O O6 0.700047 0.500000 0.101686
O O7 0.733456 0.396381 0.184699
O O8 0.764520 0.382443 0.054019
O O9 0.500000 0.649711 0.341287
O O10 0.780962 0.623079 0.313729
O O11 0.711068 0.657646 0.434935
O O12 0.000000 0.089529 0.733737
O O13 0.210345 0.000000 0.766518
O O14 0.500000 0.799062 0.016980
O O15 0.283594 0.876745 0.061284
O O16 0.235624 0.749026 0.028610
O O17 0.203824 0.905999 0.183033
O O18 0.000000 0.901761 0.278613
O O19 0.200931 0.000000 0.277754
O O20 0.000000 0.902819 0.087215
O O21 0.796559 0.000000 0.088540
O O22 0.000000 0.675994 0.006012
#
# Coordination Sequence:
#
# PCOD8179978 Si02
#       8
#     8   8   8   8   8   8   8   8
#     4  10  21  37  56  80 109 140 178 223 268 317
#     4  10  21  38  59  81 108 142 178 219 267 318
#     4   9  20  37  54  75 106 143 179 218 267 319
#     4  10  21  36  55  81 110 140 178 222 266 316
#     4  10  21  37  56  80 111 143 180 226 271 320
#     4   9  19  36  56  79 108 142 180 221 265 315
#     4   9  19  36  56  79 110 146 184 226 270 318
#     4  11  22  37  58  81 108 142 179 221 268 320
#
# _framework density 18.479309000000001
#
# number of rings (size 3 to 8) (size 9 to 14) (size 15 to 20)
#    0.000    2.250    0.000    4.125    0.000    7.500 
#    0.000    6.250    0.000    0.000    0.000    0.000 
#    0.000    0.000    0.000    0.000    0.000    0.000 
#
# Total GULP energy -396933.330164 kJ/mol
# GULP energy per Si atom -12404.166568 kJ/mol
# Density = 1.843725 g / cm^3
# Si number density = 18.479309 Si / 1000 Ang^3
#
#
#
# Elastic Constant Matrix: (Units=GPa)
#
#
# Indices 1 2 3 4 5 6 
#
# 1 120.5889 54.7321 57.5969 0.0000 0.0000 0.0000
# 2 54.7321 81.7518 63.2952 0.0000 0.0000 0.0000
# 3 57.5969 63.2952 91.6420 0.0000 0.0000 0.0000
# 4 0.0000 0.0000 0.0000 40.1766 0.0000 0.0000
# 5 0.0000 0.0000 0.0000 0.0000 37.3865 0.0000
# 6 0.0000 0.0000 0.0000 0.0000 0.0000 34.7813
#
#
#
# Elastic Compliance Matrix: (Units=1/GPa)
#
#
# Indices 1 2 3 4 5 6 
#
# 1 0.012737 -0.005007 -0.004547 0.000000 0.000000 0.000000
# 2 -0.005007 0.028260 -0.016372 0.000000 0.000000 0.000000
# 3 -0.004547 -0.016372 0.025077 0.000000 0.000000 0.000000
# 4 0.000000 0.000000 0.000000 0.024890 0.000000 0.000000
# 5 0.000000 0.000000 0.000000 0.000000 0.026748 0.000000
# 6 0.000000 0.000000 0.000000 0.000000 0.000000 0.028751
#
#
# Mechanical properties :
#
#
# Convention : Reuss Voigt Hill
#
# Bulk Modulus (GPa) = 70.30831 71.69234 71.00032
# Shear Modulus (GPa) = 24.62397 30.35947 27.49172
#
# Velocity S-wave (km/s) = 3.65432 4.05766 3.86126
# Velocity P-wave (km/s) = 7.47898 7.79955 7.64094
#
# Compressibility (1/GPa) = 0.01422307
#
# Stress axis : x y z
#
# Youngs Moduli (GPa) = 78.51226 35.38629 39.87665
#
# Poissons Ratio (x) = 0.17717 0.18132
# Poissons Ratio (y) = 0.39309 0.65284
# Poissons Ratio (z) = 0.35700 0.57933
#
# Static dielectric constant tensor:
#      x y z
#    x 3.421520 0.000000 0.000000 
#    y 0.000000 3.343390 0.000000 
#    z 0.000000 0.000000 3.362250 
# 
# 
# High freq. dielectric constant tensor:
#      x y z
#    x 1.725750 0.000000 0.000000 
#    y 0.000000 1.716240 0.000000 
#    z 0.000000 0.000000 1.719270 
# 
# From -- ./inp_files/20012.got.cif
#   From: 2010.03.12/outbox.cif.g09.slc.cpg/sg38_11_cif.got.tgz:20012.got - 2010.04.14 02:38:36.
