data_PCOD8179114
_publ_section_title
;
Structure prediction by ZEFSAII (Michael W. Deem and Ramdas Pophale) SiO2 
 PCOD8179114
Probable space group: A M M 2
;
_chemical_formula_sum "Si O2"
_cell_formula_units_Z 64
_cell_length_a 9.001992
_cell_length_b 31.777559
_cell_length_c 11.662429
_cell_angle_alpha 90.000000
_cell_angle_beta 90.000000
_cell_angle_gamma 90.000000
_cell_volume 3336.169973
_symmetry_space_group_name_H-M "A M M 2"
_symmetry_group_IT_number 38
_symmetry_cell_setting 'orthorhombic'
loop_
_space_group_symop_operation_xyz
x,y,z
-x,-y,z
-x,y,z
x,-y,z
x,1/2+y,1/2+z
-x,1/2-y,1/2+z
-x,1/2+y,1/2+z
x,1/2-y,1/2+z
loop_
_atom_site_type_symbol
_atom_site_label
_atom_site_fract_x
_atom_site_fract_y
_atom_site_fract_z
Si Si1 0.670814 0.720710 0.925940
Si Si2 0.172416 0.547846 0.394610
Si Si3 0.833123 0.903739 0.480022
Si Si4 0.825775 0.873258 0.040810
Si Si5 0.325482 0.139389 0.282730
Si Si6 0.673047 0.185058 0.856693
Si Si7 0.664754 0.450503 0.167682
Si Si8 0.833164 0.819134 0.623388
O O1 0.500000 0.715409 0.962690
O O2 0.714360 0.685466 0.832295
O O3 0.703277 0.765526 0.870636
O O4 0.767482 0.717116 0.041518
O O5 0.220704 0.500000 0.427358
O O6 0.208010 0.578857 0.500253
O O7 0.257164 0.565987 0.283434
O O8 0.000000 0.549267 0.362104
O O9 0.743907 0.896878 0.362463
O O10 0.755382 0.939830 0.553686
O O11 0.832968 0.861834 0.553626
O O12 0.000000 0.917993 0.449461
O O13 0.742368 0.864567 0.157917
O O14 0.000000 0.866073 0.058316
O O15 0.767449 0.840274 0.948541
O O16 0.500000 0.132060 0.275386
O O17 0.500000 0.173846 0.870255
O O18 0.728280 0.172854 0.731157
O O19 0.500000 0.430468 0.160941
O O20 0.655543 0.500000 0.175675
O O21 0.000000 0.806513 0.661376
#
# Coordination Sequence:
#
# PCOD8179114 Si02
#       8
#     8   8   8   8   8   8   8   8
#     4   9  21  39  57  77 105 145 188 227 274 335
#     4   9  19  37  59  82 113 152 190 231 283 342
#     4  10  20  36  57  80 109 145 184 226 276 338
#     4  11  23  38  57  85 115 147 192 241 287 342
#     4  10  21  39  60  80 108 149 192 236 284 337
#     4  11  23  37  56  81 112 148 186 229 278 338
#     4  10  20  33  54  86 118 145 181 232 284 334
#     4  10  21  36  55  81 108 137 178 228 278 325
#
# _framework density 19.183675000000001
#
# number of rings (size 3 to 8) (size 9 to 14) (size 15 to 20)
#    0.000    2.000    0.000    3.000    1.750    7.750 
#    0.000    0.625    0.000    2.250    0.000    0.000 
#    0.000    0.000    0.000    0.000    0.000    0.000 
#
# Total GULP energy -396888.563905 kJ/mol
# GULP energy per Si atom -12402.767622 kJ/mol
# Density = 1.914001 g / cm^3
# Si number density = 19.183675 Si / 1000 Ang^3
#
#
#
# Elastic Constant Matrix: (Units=GPa)
#
#
# Indices 1 2 3 4 5 6 
#
# 1 107.0035 33.0638 51.1134 0.0000 0.0000 0.0000
# 2 33.0638 51.7465 31.5895 0.0000 0.0000 0.0000
# 3 51.1134 31.5895 119.7470 0.0000 0.0000 0.0000
# 4 0.0000 0.0000 0.0000 13.7028 0.0000 0.0000
# 5 0.0000 0.0000 0.0000 0.0000 42.1619 0.0000
# 6 0.0000 0.0000 0.0000 0.0000 0.0000 26.4821
#
#
#
# Elastic Compliance Matrix: (Units=1/GPa)
#
#
# Indices 1 2 3 4 5 6 
#
# 1 0.013097 -0.005907 -0.004032 0.000000 0.000000 0.000000
# 2 -0.005907 0.025699 -0.004258 0.000000 0.000000 0.000000
# 3 -0.004032 -0.004258 0.011195 0.000000 0.000000 0.000000
# 4 0.000000 0.000000 0.000000 0.072978 0.000000 0.000000
# 5 0.000000 0.000000 0.000000 0.000000 0.023718 0.000000
# 6 0.000000 0.000000 0.000000 0.000000 0.000000 0.037761
#
#
# Mechanical properties :
#
#
# Convention : Reuss Voigt Hill
#
# Bulk Modulus (GPa) = 46.30323 56.67006 51.48665
# Shear Modulus (GPa) = 22.72308 27.31803 25.02055
#
# Velocity S-wave (km/s) = 3.44539 3.77772 3.61538
# Velocity P-wave (km/s) = 6.32588 6.97375 6.65770
#
# Compressibility (1/GPa) = 0.02159676
#
# Stress axis : x y z
#
# Youngs Moduli (GPa) = 76.35516 38.91268 89.32343
#
# Poissons Ratio (x) = 0.22985 0.36015
# Poissons Ratio (y) = 0.45102 0.38034
# Poissons Ratio (z) = 0.30787 0.16569
#
# Static dielectric constant tensor:
#      x y z
#    x 3.859730 0.000000 0.000000 
#    y 0.000000 3.522410 0.000000 
#    z 0.000000 0.000000 3.561400 
# 
# 
# High freq. dielectric constant tensor:
#      x y z
#    x 1.760280 0.000000 0.000000 
#    y 0.000000 1.739450 0.000000 
#    z 0.000000 0.000000 1.744140 
# 
# From -- ./inp_files/8549.got.cif
#   From: 2010.03.12/outbox.cif.g09.slc.cpg/sg38_5_cif.got.tgz:8549.got - 2010.04.14 02:38:36.
