data_PCOD8179453
_publ_section_title
;
Structure prediction by ZEFSAII (Michael W. Deem and Ramdas Pophale) SiO2 
 PCOD8179453
Probable space group: A M M 2
;
_chemical_formula_sum "Si O2"
_cell_formula_units_Z 40
_cell_length_a 7.731904
_cell_length_b 9.184257
_cell_length_c 28.920484
_cell_angle_alpha 90.000000
_cell_angle_beta 90.000000
_cell_angle_gamma 90.000000
_cell_volume 2053.695436
_symmetry_space_group_name_H-M "A M M 2"
_symmetry_group_IT_number 38
_symmetry_cell_setting 'orthorhombic'
loop_
_space_group_symop_operation_xyz
x,y,z
-x,-y,z
-x,y,z
x,-y,z
x,1/2+y,1/2+z
-x,1/2-y,1/2+z
-x,1/2+y,1/2+z
x,1/2-y,1/2+z
loop_
_atom_site_type_symbol
_atom_site_label
_atom_site_fract_x
_atom_site_fract_y
_atom_site_fract_z
Si Si1 0.500000 0.327661 0.147470
Si Si2 0.797169 0.664980 0.805308
Si Si3 0.802728 0.671708 0.213374
Si Si4 0.500000 0.673570 0.042937
Si Si5 0.805951 0.831069 0.991671
Si Si6 0.303914 0.838834 0.892854
O O1 0.500000 0.500000 0.146928
O O2 0.325598 0.272811 0.173113
O O3 0.500000 0.267625 0.095518
O O4 0.734593 0.500000 0.798641
O O5 0.738148 0.755046 0.760642
O O6 0.710359 0.727462 0.851005
O O7 0.000000 0.676604 0.812196
O O8 0.788956 0.500000 0.220662
O O9 0.000000 0.717866 0.200854
O O10 0.500000 0.500000 0.040081
O O11 0.673934 0.731088 0.019477
O O12 0.805593 0.788445 0.937346
O O13 0.000000 0.802837 0.010520
O O14 0.752550 0.000000 0.997470
O O15 0.500000 0.842881 0.910224
O O16 0.243495 0.000000 0.876346
#
# Coordination Sequence:
#
# PCOD8179453 Si02
#       6
#     4   8   8   4   8   8
#     4   9  20  37  58  83 108 141 186 233 284 339
#     4  10  21  35  51  78 117 151 181 224 279 336
#     4   9  18  35  58  80 106 144 190 234 272 322
#     4  11  23  39  60  89 122 149 184 241 300 355
#     4  10  21  40  64  86 114 154 198 241 284 338
#     4  10  20  35  57  82 110 148 194 236 271 323
#
# _framework density 19.477083
#
# number of rings (size 3 to 8) (size 9 to 14) (size 15 to 20)
#    0.000    2.200    1.000    1.500    1.400    4.400 
#    0.000    4.000    0.000    2.400    0.000    0.000 
#    0.000    0.000    0.000    0.000    0.000    0.000 
#
# Total GULP energy -248004.749603 kJ/mol
# GULP energy per Si atom -12400.237480 kJ/mol
# Density = 1.943275 g / cm^3
# Si number density = 19.477083 Si / 1000 Ang^3
#
#
#
# Elastic Constant Matrix: (Units=GPa)
#
#
# Indices 1 2 3 4 5 6 
#
# 1 107.9734 42.7049 62.8740 0.0000 0.0000 0.0000
# 2 42.7049 70.8560 52.9379 0.0000 0.0000 0.0000
# 3 62.8740 52.9379 136.0195 0.0000 0.0000 0.0000
# 4 0.0000 0.0000 0.0000 27.2365 0.0000 0.0000
# 5 0.0000 0.0000 0.0000 0.0000 17.4372 0.0000
# 6 0.0000 0.0000 0.0000 0.0000 0.0000 24.2787
#
#
#
# Elastic Compliance Matrix: (Units=1/GPa)
#
#
# Indices 1 2 3 4 5 6 
#
# 1 0.013832 -0.005019 -0.004440 0.000000 0.000000 0.000000
# 2 -0.005019 0.021721 -0.006133 0.000000 0.000000 0.000000
# 3 -0.004440 -0.006133 0.011792 0.000000 0.000000 0.000000
# 4 0.000000 0.000000 0.000000 0.036715 0.000000 0.000000
# 5 0.000000 0.000000 0.000000 0.000000 0.057349 0.000000
# 6 0.000000 0.000000 0.000000 0.000000 0.000000 0.041188
#
#
# Mechanical properties :
#
#
# Convention : Reuss Voigt Hill
#
# Bulk Modulus (GPa) = 61.88760 70.20920 66.04840
# Shear Modulus (GPa) = 22.81340 24.21262 23.51301
#
# Velocity S-wave (km/s) = 3.42613 3.52964 3.47827
# Velocity P-wave (km/s) = 6.89164 7.26199 7.07924
#
# Compressibility (1/GPa) = 0.01615833
#
# Stress axis : x y z
#
# Youngs Moduli (GPa) = 72.29372 46.03918 84.80643
#
# Poissons Ratio (x) = 0.23108 0.37658
# Poissons Ratio (y) = 0.36286 0.52015
# Poissons Ratio (z) = 0.32102 0.28238
#
# Static dielectric constant tensor:
#      x y z
#    x 3.707090 0.000000 0.000000 
#    y 0.000000 3.420450 0.000000 
#    z 0.000000 0.000000 3.558110 
# 
# 
# High freq. dielectric constant tensor:
#      x y z
#    x 1.769630 0.000000 0.000000 
#    y 0.000000 1.741460 0.000000 
#    z 0.000000 0.000000 1.752590 
# 
# From -- ./inp_files/23241.got.cif
#   From: 2010.03.12/outbox.cif.g09.slc.cpg/sg38_12_cif.got.tgz:23241.got - 2010.04.14 02:38:36.
