data_PCOD8179382
_publ_section_title
;
Structure prediction by ZEFSAII (Michael W. Deem and Ramdas Pophale) SiO2 
 PCOD8179382
Probable space group: A M M 2
;
_chemical_formula_sum "Si O2"
_cell_formula_units_Z 32
_cell_length_a 7.507647
_cell_length_b 8.897450
_cell_length_c 24.445281
_cell_angle_alpha 90.000000
_cell_angle_beta 90.000000
_cell_angle_gamma 90.000000
_cell_volume 1632.918218
_symmetry_space_group_name_H-M "A M M 2"
_symmetry_group_IT_number 38
_symmetry_cell_setting 'orthorhombic'
loop_
_space_group_symop_operation_xyz
x,y,z
-x,-y,z
-x,y,z
x,-y,z
x,1/2+y,1/2+z
-x,1/2-y,1/2+z
-x,1/2+y,1/2+z
x,1/2-y,1/2+z
loop_
_atom_site_type_symbol
_atom_site_label
_atom_site_fract_x
_atom_site_fract_y
_atom_site_fract_z
Si Si1 0.000000 0.678773 0.710740
Si Si2 0.000000 0.822161 0.593019
Si Si3 0.707681 0.675134 0.520093
Si Si4 0.697523 0.678777 0.792295
Si Si5 0.289090 0.333518 0.911469
O O1 0.000000 0.766131 0.654642
O O2 0.172617 0.733112 0.744485
O O3 0.000000 0.500000 0.700779
O O4 0.179373 0.762953 0.564923
O O5 0.000000 0.000000 0.591179
O O6 0.500000 0.714623 0.528994
O O7 0.744643 0.500000 0.527162
O O8 0.774289 0.723499 0.459737
O O9 0.500000 0.744360 0.780398
O O10 0.689688 0.500000 0.794280
O O11 0.770900 0.731259 0.852117
O O12 0.500000 0.345194 0.910323
O O13 0.208188 0.500000 0.922170
#
# Coordination Sequence:
#
# PCOD8179382 Si02
#       5
#     4   4   8   8   8
#     4  10  20  35  54  75 101 138 188 232 265 312
#     4  12  26  41  56  77 109 148 192 236 277 328
#     4  10  21  38  60  85 113 145 182 227 279 331
#     4   8  15  29  51  79 109 140 174 215 264 320
#     4   8  14  28  52  82 113 142 175 215 263 324
#
# _framework density 19.596817000000001
#
# number of rings (size 3 to 8) (size 9 to 14) (size 15 to 20)
#    0.000    2.750    0.000    3.375    0.000    3.500 
#    0.000    6.250    0.000    1.500    0.000    0.000 
#    0.000    0.000    0.000    0.000    0.000    0.000 
#
# Total GULP energy -198327.243063 kJ/mol
# GULP energy per Si atom -12395.452691 kJ/mol
# Density = 1.955221 g / cm^3
# Si number density = 19.596817 Si / 1000 Ang^3
#
#
#
# Elastic Constant Matrix: (Units=GPa)
#
#
# Indices 1 2 3 4 5 6 
#
# 1 104.6794 45.7078 79.4322 0.0000 0.0000 0.0000
# 2 45.7078 92.6366 68.2495 0.0000 0.0000 0.0000
# 3 79.4322 68.2495 190.8292 0.0000 0.0000 0.0000
# 4 0.0000 0.0000 0.0000 35.2817 0.0000 0.0000
# 5 0.0000 0.0000 0.0000 0.0000 11.6140 0.0000
# 6 0.0000 0.0000 0.0000 0.0000 0.0000 17.8239
#
#
#
# Elastic Compliance Matrix: (Units=1/GPa)
#
#
# Indices 1 2 3 4 5 6 
#
# 1 0.014874 -0.003771 -0.004843 0.000000 0.000000 0.000000
# 2 -0.003771 0.015613 -0.004014 0.000000 0.000000 0.000000
# 3 -0.004843 -0.004014 0.008692 0.000000 0.000000 0.000000
# 4 0.000000 0.000000 0.000000 0.028343 0.000000 0.000000
# 5 0.000000 0.000000 0.000000 0.000000 0.086103 0.000000
# 6 0.000000 0.000000 0.000000 0.000000 0.000000 0.056104
#
#
# Mechanical properties :
#
#
# Convention : Reuss Voigt Hill
#
# Bulk Modulus (GPa) = 71.82437 86.10269 78.96353
# Shear Modulus (GPa) = 20.86579 25.92765 23.39672
#
# Velocity S-wave (km/s) = 3.26660 3.64133 3.45904
# Velocity P-wave (km/s) = 7.13850 7.85567 7.50565
#
# Compressibility (1/GPa) = 0.01392285
#
# Stress axis : x y z
#
# Youngs Moduli (GPa) = 67.22975 64.04869 115.05301
#
# Poissons Ratio (x) = 0.24155 0.55715
# Poissons Ratio (y) = 0.25355 0.46184
# Poissons Ratio (z) = 0.32557 0.25710
#
# Static dielectric constant tensor:
#      x y z
#    x 4.233350 0.000000 0.000000 
#    y 0.000000 3.307490 0.000000 
#    z 0.000000 0.000000 3.815820 
# 
# 
# High freq. dielectric constant tensor:
#      x y z
#    x 1.763660 0.000000 0.000000 
#    y 0.000000 1.727580 0.000000 
#    z 0.000000 0.000000 1.769910 
# 
# From -- ./inp_files/21630.got.cif
#   From: 2010.03.12/outbox.cif.g09.slc.cpg/sg38_11_cif.got.tgz:21630.got - 2010.04.14 02:38:36.
