data_PCOD8179516
_publ_section_title
;
Structure prediction by ZEFSAII (Michael W. Deem and Ramdas Pophale) SiO2 
 PCOD8179516
Probable space group: A M M 2
;
_chemical_formula_sum "Si O2"
_cell_formula_units_Z 32
_cell_length_a 8.507369
_cell_length_b 15.635224
_cell_length_c 12.255530
_cell_angle_alpha 90.000000
_cell_angle_beta 90.000000
_cell_angle_gamma 90.000000
_cell_volume 1630.164665
_symmetry_space_group_name_H-M "A M M 2"
_symmetry_group_IT_number 38
_symmetry_cell_setting 'orthorhombic'
loop_
_space_group_symop_operation_xyz
x,y,z
-x,-y,z
-x,y,z
x,-y,z
x,1/2+y,1/2+z
-x,1/2-y,1/2+z
-x,1/2+y,1/2+z
x,1/2-y,1/2+z
loop_
_atom_site_type_symbol
_atom_site_label
_atom_site_fract_x
_atom_site_fract_y
_atom_site_fract_z
Si Si1 0.186682 0.657377 0.880990
Si Si2 0.812990 0.000000 0.996977
Si Si3 0.813533 0.905648 0.609553
Si Si4 0.314802 0.500000 0.741796
Si Si5 0.187312 0.152152 0.840206
O O1 0.257005 0.585829 0.801570
O O2 0.249851 0.751863 0.855578
O O3 0.000000 0.649577 0.869784
O O4 0.243640 0.647449 0.005568
O O5 0.743862 0.000000 0.117696
O O6 0.753708 0.084976 0.932148
O O7 0.000000 0.000000 0.005437
O O8 0.741569 0.872565 0.722673
O O9 0.000000 0.903533 0.619040
O O10 0.750134 0.000000 0.588921
O O11 0.500000 0.500000 0.742058
O O12 0.000000 0.150255 0.840434
#
# Coordination Sequence:
#
# PCOD8179516 Si02
#       5
#     8   4   8   4   8
#     4  10  20  35  59  87 113 146 187 234 284 337
#     4  10  20  37  60  88 118 149 185 232 285 342
#     4   9  15  28  51  82 115 139 171 226 283 330
#     4  12  26  41  54  76 116 161 197 236 279 332
#     4   9  18  31  56  92 119 140 177 232 289 339
#
# _framework density 19.629919000000001
#
# number of rings (size 3 to 8) (size 9 to 14) (size 15 to 20)
#    0.000    2.250    2.500    1.125    3.500    0.000 
#    0.000    1.250    0.000    3.000    0.000    0.000 
#    0.000    0.000    0.000    0.000    0.000    0.000 
#
# Total GULP energy -198282.363837 kJ/mol
# GULP energy per Si atom -12392.647740 kJ/mol
# Density = 1.958524 g / cm^3
# Si number density = 19.629919 Si / 1000 Ang^3
#
#
#
# Elastic Constant Matrix: (Units=GPa)
#
#
# Indices 1 2 3 4 5 6 
#
# 1 34.2625 26.1699 29.5462 0.0000 0.0000 0.0000
# 2 26.1699 150.0322 67.8858 0.0000 0.0000 0.0000
# 3 29.5462 67.8858 170.3223 0.0000 0.0000 0.0000
# 4 0.0000 0.0000 0.0000 40.3524 0.0000 0.0000
# 5 0.0000 0.0000 0.0000 0.0000 2.7329 0.0000
# 6 0.0000 0.0000 0.0000 0.0000 0.0000 3.9005
#
#
#
# Elastic Compliance Matrix: (Units=1/GPa)
#
#
# Indices 1 2 3 4 5 6 
#
# 1 0.036427 -0.004264 -0.004620 0.000000 0.000000 0.000000
# 2 -0.004264 0.008631 -0.002700 0.000000 0.000000 0.000000
# 3 -0.004620 -0.002700 0.007749 0.000000 0.000000 0.000000
# 4 0.000000 0.000000 0.000000 0.024782 0.000000 0.000000
# 5 0.000000 0.000000 0.000000 0.000000 0.365917 0.000000
# 6 0.000000 0.000000 0.000000 0.000000 0.000000 0.256375
#
#
# Mechanical properties :
#
#
# Convention : Reuss Voigt Hill
#
# Bulk Modulus (GPa) = 33.73916 66.86900 50.30408
# Shear Modulus (GPa) = 6.82197 24.79817 15.81007
#
# Velocity S-wave (km/s) = 1.86624 3.55813 2.84105
# Velocity P-wave (km/s) = 4.67640 7.14277 6.03688
#
# Compressibility (1/GPa) = 0.02963915
#
# Stress axis : x y z
#
# Youngs Moduli (GPa) = 27.45234 115.86437 129.05043
#
# Poissons Ratio (x) = 0.49400 0.59617
# Poissons Ratio (y) = 0.11705 0.34849
# Poissons Ratio (z) = 0.12682 0.31288
#
# Static dielectric constant tensor:
#      x y z
#    x 2.994620 0.000000 0.000000 
#    y 0.000000 3.856510 0.000000 
#    z 0.000000 0.000000 3.903850 
# 
# 
# High freq. dielectric constant tensor:
#      x y z
#    x 1.699790 0.000000 0.000000 
#    y 0.000000 1.780720 0.000000 
#    z 0.000000 0.000000 1.786150 
# 
# From -- ./inp_files/7601.got.cif
#   From: 2010.03.12/outbox.cif.g09.slc.cpg/sg38_4_cif.got.tgz:7601.got - 2010.04.14 02:38:36.
