data_PCOD8179149
_publ_section_title
;
Structure prediction by ZEFSAII (Michael W. Deem and Ramdas Pophale) SiO2 
 PCOD8179149
Probable space group: A M M 2
;
_chemical_formula_sum "Si O2"
_cell_formula_units_Z 64
_cell_length_a 9.064881
_cell_length_b 19.407576
_cell_length_c 20.599138
_cell_angle_alpha 90.000000
_cell_angle_beta 90.000000
_cell_angle_gamma 90.000000
_cell_volume 3623.952110
_symmetry_space_group_name_H-M "A M M 2"
_symmetry_group_IT_number 38
_symmetry_cell_setting 'orthorhombic'
loop_
_space_group_symop_operation_xyz
x,y,z
-x,-y,z
-x,y,z
x,-y,z
x,1/2+y,1/2+z
-x,1/2-y,1/2+z
-x,1/2+y,1/2+z
x,1/2-y,1/2+z
loop_
_atom_site_type_symbol
_atom_site_label
_atom_site_fract_x
_atom_site_fract_y
_atom_site_fract_z
Si Si1 0.170473 0.717759 0.839710
Si Si2 0.327977 0.921468 0.915406
Si Si3 0.329982 0.216869 0.582702
Si Si4 0.173073 0.797632 0.971273
Si Si5 0.827645 0.077882 0.779486
Si Si6 0.327975 0.424960 0.027427
Si Si7 0.169768 0.423713 0.894630
Si Si8 0.671356 0.297628 0.227492
O O1 0.213732 0.751617 0.908626
O O2 0.203333 0.635679 0.841981
O O3 0.270629 0.746880 0.782703
O O4 0.000000 0.733137 0.823472
O O5 0.500000 0.905431 0.906646
O O6 0.257049 0.870814 0.968350
O O7 0.247476 0.906454 0.847966
O O8 0.301738 0.000000 0.938272
O O9 0.500000 0.229310 0.562377
O O10 0.225057 0.260959 0.536870
O O11 0.288291 0.135648 0.577455
O O12 0.302725 0.237789 0.657490
O O13 0.000000 0.811184 0.976176
O O14 0.757640 0.129702 0.727648
O O15 0.000000 0.092598 0.787680
O O16 0.796527 0.000000 0.756240
O O17 0.500000 0.428999 0.015528
O O18 0.269837 0.500000 0.052677
O O19 0.259518 0.406328 0.958551
O O20 0.209283 0.500000 0.866541
O O21 0.000000 0.419879 0.915345
O O22 0.500000 0.312931 0.239261
#
# Coordination Sequence:
#
# PCOD8179149 Si02
#       8
#     8   8   8   8   8   8   8   8
#     4  10  20  34  53  79 107 137 175 221 271 319
#     4  10  20  34  55  82 109 139 176 220 269 319
#     4  10  22  37  52  75 108 144 183 223 265 318
#     4  11  21  34  56  83 108 140 179 222 271 318
#     4  10  20  34  52  76 108 144 181 222 267 318
#     4   9  17  30  49  73 102 136 171 209 254 303
#     4   9  17  31  52  77 104 132 167 212 259 310
#     4  11  23  36  53  77 106 146 186 223 270 319
#
# _framework density 17.660278000000002
#
# number of rings (size 3 to 8) (size 9 to 14) (size 15 to 20)
#    0.000    2.000    2.500    1.500    0.000    4.000 
#    0.000    1.250    0.000    2.250    0.000    3.500 
#    0.000    0.000    0.000    0.000    0.000    0.000 
#
# Total GULP energy -396760.052504 kJ/mol
# GULP energy per Si atom -12398.751641 kJ/mol
# Density = 1.762008 g / cm^3
# Si number density = 17.660278 Si / 1000 Ang^3
#
#
#
# Elastic Constant Matrix: (Units=GPa)
#
#
# Indices 1 2 3 4 5 6 
#
# 1 69.3074 44.9531 39.3615 0.0000 0.0000 0.0000
# 2 44.9531 97.8483 45.0314 0.0000 0.0000 0.0000
# 3 39.3615 45.0314 84.3355 0.0000 0.0000 0.0000
# 4 0.0000 0.0000 0.0000 21.8182 0.0000 0.0000
# 5 0.0000 0.0000 0.0000 0.0000 -4.4808 0.0000
# 6 0.0000 0.0000 0.0000 0.0000 0.0000 28.5326
#
#
#
# Elastic Compliance Matrix: (Units=1/GPa)
#
#
# Indices 1 2 3 4 5 6 
#
# 1 0.023162 -0.007512 -0.006799 0.000000 0.000000 0.000000
# 2 -0.007512 0.015986 -0.005030 0.000000 0.000000 0.000000
# 3 -0.006799 -0.005030 0.017716 0.000000 0.000000 0.000000
# 4 0.000000 0.000000 0.000000 0.045833 0.000000 0.000000
# 5 0.000000 0.000000 0.000000 0.000000 -0.223173 0.000000
# 6 0.000000 0.000000 0.000000 0.000000 0.000000 0.035048
#
#
# Mechanical properties :
#
#
# Convention : Reuss Voigt Hill
#
# Bulk Modulus (GPa) = 54.99785 56.68701 55.84243
# Shear Modulus (GPa) = -122.89738 17.31701 -52.79018
#
# Velocity S-wave (km/s) = -8.35110 3.13479 -5.47329
# Velocity P-wave (km/s) = 7.85990 6.72836 2.87290
#
# Compressibility (1/GPa) = 0.01818253
#
# Stress axis : x y z
#
# Youngs Moduli (GPa) = 43.17360 62.55568 56.44466
#
# Poissons Ratio (x) = 0.46992 0.38379
# Poissons Ratio (y) = 0.32432 0.28390
# Poissons Ratio (z) = 0.29355 0.31463
#
# Static dielectric constant tensor:
#      x y z
#    x 3.380550 0.000000 0.000000 
#    y 0.000000 3.595460 0.000000 
#    z 0.000000 0.000000 3.001220 
# 
# 
# High freq. dielectric constant tensor:
#      x y z
#    x 1.691200 0.000000 0.000000 
#    y 0.000000 1.691070 0.000000 
#    z 0.000000 0.000000 1.649220 
# 
# From -- ./inp_files/17161.got.cif
#   From: 2010.03.12/outbox.cif.g09.slc.cpg/sg38_9_cif.got.tgz:17161.got - 2010.04.14 02:38:36.
