data_PCOD8179914
_publ_section_title
;
Structure prediction by ZEFSAII (Michael W. Deem and Ramdas Pophale) SiO2 
 PCOD8179914
Probable space group: A M M 2
;
_chemical_formula_sum "Si O2"
_cell_formula_units_Z 64
_cell_length_a 23.660897
_cell_length_b 8.874114
_cell_length_c 15.304581
_cell_angle_alpha 90.000000
_cell_angle_beta 90.000000
_cell_angle_gamma 90.000000
_cell_volume 3213.495179
_symmetry_space_group_name_H-M "A M M 2"
_symmetry_group_IT_number 38
_symmetry_cell_setting 'orthorhombic'
loop_
_space_group_symop_operation_xyz
x,y,z
-x,-y,z
-x,y,z
x,-y,z
x,1/2+y,1/2+z
-x,1/2-y,1/2+z
-x,1/2+y,1/2+z
x,1/2-y,1/2+z
loop_
_atom_site_type_symbol
_atom_site_label
_atom_site_fract_x
_atom_site_fract_y
_atom_site_fract_z
Si Si1 0.871449 0.173898 0.834880
Si Si2 0.249222 0.830803 0.094233
Si Si3 0.139994 0.673655 0.141640
Si Si4 0.365829 0.678003 0.891422
Si Si5 0.250083 0.170824 0.891416
Si Si6 0.936592 0.178758 0.487288
Si Si7 0.624486 0.320040 0.577753
Si Si8 0.433648 0.827228 0.736897
O O1 0.890379 0.199557 0.734749
O O2 0.805971 0.224135 0.841247
O O3 0.911661 0.273924 0.894326
O O4 0.877368 0.000000 0.863464
O O5 0.203571 0.735495 0.146793
O O6 0.312922 0.772216 0.110769
O O7 0.243917 0.000000 0.128483
O O8 0.234867 0.818264 0.992703
O O9 0.146734 0.500000 0.119979
O O10 0.101297 0.748345 0.066014
O O11 0.371198 0.500000 0.903522
O O12 0.301430 0.719498 0.866583
O O13 0.405301 0.730868 0.813007
O O14 0.385886 0.759461 0.980074
O O15 0.267658 0.000000 0.866643
O O16 0.000000 0.243202 0.496405
O O17 0.937503 0.000000 0.492603
O O18 0.617785 0.500000 0.575568
O O19 0.579969 0.245323 0.642867
O O20 0.500000 0.818169 0.751434
O O21 0.412465 0.000000 0.739454
#
# Coordination Sequence:
#
# PCOD8179914 Si02
#       8
#     8   8   8   8   8   8   8   8
#     4  10  21  37  58  86 114 151 197 241 292 351
#     4   9  18  34  57  85 119 153 189 237 292 350
#     4  10  21  35  56  86 115 150 191 237 294 350
#     4  11  23  39  62  92 124 164 207 249 305 367
#     4   9  18  35  57  84 121 156 193 246 300 353
#     4  10  22  40  58  80 116 156 195 245 298 350
#     4  10  22  41  63  91 125 162 202 253 309 362
#     4  11  25  44  65  90 122 163 210 257 305 362
#
# _framework density 19.916008000000001
#
# number of rings (size 3 to 8) (size 9 to 14) (size 15 to 20)
#    0.000    2.000    1.250    2.625    1.750    5.750 
#    0.000    1.250    0.000    0.000    0.000    0.000 
#    0.000    0.000    0.000    0.000    0.000    0.000 
#
# Total GULP energy -396835.787535 kJ/mol
# GULP energy per Si atom -12401.118360 kJ/mol
# Density = 1.987068 g / cm^3
# Si number density = 19.916008 Si / 1000 Ang^3
#
#
#
# Elastic Constant Matrix: (Units=GPa)
#
#
# Indices 1 2 3 4 5 6 
#
# 1 80.0336 30.3484 35.3087 0.0000 0.0000 0.0000
# 2 30.3484 71.4516 25.4570 0.0000 0.0000 0.0000
# 3 35.3087 25.4570 78.1606 0.0000 0.0000 0.0000
# 4 0.0000 0.0000 0.0000 30.6049 0.0000 0.0000
# 5 0.0000 0.0000 0.0000 0.0000 23.0585 0.0000
# 6 0.0000 0.0000 0.0000 0.0000 0.0000 29.1524
#
#
#
# Elastic Compliance Matrix: (Units=1/GPa)
#
#
# Indices 1 2 3 4 5 6 
#
# 1 0.017106 -0.005105 -0.006065 0.000000 0.000000 0.000000
# 2 -0.005105 0.017356 -0.003347 0.000000 0.000000 0.000000
# 3 -0.006065 -0.003347 0.016624 0.000000 0.000000 0.000000
# 4 0.000000 0.000000 0.000000 0.032675 0.000000 0.000000
# 5 0.000000 0.000000 0.000000 0.000000 0.043368 0.000000
# 6 0.000000 0.000000 0.000000 0.000000 0.000000 0.034303
#
#
# Mechanical properties :
#
#
# Convention : Reuss Voigt Hill
#
# Bulk Modulus (GPa) = 45.34516 45.76380 45.55448
# Shear Modulus (GPa) = 25.27604 25.79859 25.53732
#
# Velocity S-wave (km/s) = 3.56635 3.60303 3.58474
# Velocity P-wave (km/s) = 6.30683 6.35117 6.32904
#
# Compressibility (1/GPa) = 0.02205307
#
# Stress axis : x y z
#
# Youngs Moduli (GPa) = 58.45834 57.61653 60.15374
#
# Poissons Ratio (x) = 0.29412 0.36483
# Poissons Ratio (y) = 0.29842 0.20132
# Poissons Ratio (z) = 0.35455 0.19283
#
# Static dielectric constant tensor:
#      x y z
#    x 3.658880 0.000000 0.000000 
#    y 0.000000 3.534540 0.000000 
#    z 0.000000 0.000000 3.607080 
# 
# 
# High freq. dielectric constant tensor:
#      x y z
#    x 1.772720 0.000000 0.000000 
#    y 0.000000 1.768810 0.000000 
#    z 0.000000 0.000000 1.782720 
# 
# From -- ./inp_files/15799.got.cif
#   From: 2010.03.12/outbox.cif.g09.slc.cpg/sg38_8_cif.got.tgz:15799.got - 2010.04.14 02:38:36.
