data_PCOD8179802
_publ_section_title
;
Structure prediction by ZEFSAII (Michael W. Deem and Ramdas Pophale) SiO2 
 PCOD8179802
Probable space group: A M M 2
;
_chemical_formula_sum "Si O2"
_cell_formula_units_Z 32
_cell_length_a 10.178142
_cell_length_b 7.511047
_cell_length_c 20.898335
_cell_angle_alpha 90.000000
_cell_angle_beta 90.000000
_cell_angle_gamma 90.000000
_cell_volume 1597.646425
_symmetry_space_group_name_H-M "A M M 2"
_symmetry_group_IT_number 38
_symmetry_cell_setting 'orthorhombic'
loop_
_space_group_symop_operation_xyz
x,y,z
-x,-y,z
-x,y,z
x,-y,z
x,1/2+y,1/2+z
-x,1/2-y,1/2+z
-x,1/2+y,1/2+z
x,1/2-y,1/2+z
loop_
_atom_site_type_symbol
_atom_site_label
_atom_site_fract_x
_atom_site_fract_y
_atom_site_fract_z
Si Si1 0.348224 0.198956 0.554060
Si Si2 0.500000 0.000000 0.879060
Si Si3 0.000000 0.000000 0.875794
Si Si4 0.748667 0.000000 0.966372
Si Si5 0.500000 0.706200 0.777080
Si Si6 0.000000 0.710205 0.766369
Si Si7 0.258680 0.792820 0.189433
O O1 0.500000 0.267946 0.558142
O O2 0.258221 0.324450 0.510294
O O3 0.282047 0.189465 0.623794
O O4 0.344969 0.000000 0.525220
O O5 0.373008 0.000000 0.920808
O O6 0.500000 0.182686 0.841044
O O7 0.877035 0.000000 0.923059
O O8 0.000000 0.822998 0.831834
O O9 0.500000 0.500000 0.796357
O O10 0.627246 0.761302 0.737676
O O11 0.876138 0.763743 0.723105
O O12 0.000000 0.500000 0.784285
O O13 0.262136 0.000000 0.172796
#
# Coordination Sequence:
#
# PCOD8179802 Si02
#       7
#     8   2   2   4   4   4   8
#     4  11  23  40  68 100 130 172 219 281 335 389
#     4  12  24  38  66  86 130 176 220 266 310 400
#     4  12  28  46  70  90 138 192 224 262 324 406
#     4  12  26  46  64  94 138 180 224 272 319 395
#     4  10  22  35  59  95 119 164 216 267 328 378
#     4  10  24  43  63  97 133 174 218 275 326 390
#     4  10  20  38  65  93 134 162 206 279 337 381
#
# _framework density 20.029461000000001
#
# number of rings (size 3 to 8) (size 9 to 14) (size 15 to 20)
#    0.000    1.250    3.750    1.500    3.500    3.000 
#    0.000    1.250    0.000    0.000    0.000    0.000 
#    0.000    0.000    0.000    0.000    0.000    0.000 
#
# Total GULP energy -198438.004612 kJ/mol
# GULP energy per Si atom -12402.375288 kJ/mol
# Density = 1.998387 g / cm^3
# Si number density = 20.029461 Si / 1000 Ang^3
#
#
#
# Elastic Constant Matrix: (Units=GPa)
#
#
# Indices 1 2 3 4 5 6 
#
# 1 159.5197 36.1772 62.1607 0.0000 0.0000 0.0000
# 2 36.1772 105.2311 60.2445 0.0000 0.0000 0.0000
# 3 62.1607 60.2445 126.4083 0.0000 0.0000 0.0000
# 4 0.0000 0.0000 0.0000 91.6479 0.0000 0.0000
# 5 0.0000 0.0000 0.0000 0.0000 21.7416 0.0000
# 6 0.0000 0.0000 0.0000 0.0000 0.0000 -50.2692
#
#
#
# Elastic Compliance Matrix: (Units=1/GPa)
#
#
# Indices 1 2 3 4 5 6 
#
# 1 0.007789 -0.000667 -0.003512 0.000000 0.000000 0.000000
# 2 -0.000667 0.013126 -0.005928 0.000000 0.000000 0.000000
# 3 -0.003512 -0.005928 0.012463 0.000000 0.000000 0.000000
# 4 0.000000 0.000000 0.000000 0.010911 0.000000 0.000000
# 5 0.000000 0.000000 0.000000 0.000000 0.045995 0.000000
# 6 0.000000 0.000000 0.000000 0.000000 0.000000 -0.019893
#
#
# Mechanical properties :
#
#
# Convention : Reuss Voigt Hill
#
# Bulk Modulus (GPa) = 75.96499 78.70265 77.33382
# Shear Modulus (GPa) = 52.63601 28.12917 40.38259
#
# Velocity S-wave (km/s) = 5.13190 3.75158 4.49504
# Velocity P-wave (km/s) = 8.55126 7.62526 8.10150
#
# Compressibility (1/GPa) = 0.01316396
#
# Stress axis : x y z
#
# Youngs Moduli (GPa) = 128.39141 76.18646 80.23761
#
# Poissons Ratio (x) = 0.05081 0.28181
# Poissons Ratio (y) = 0.08563 0.47561
# Poissons Ratio (z) = 0.45094 0.45160
#
# Static dielectric constant tensor:
#      x y z
#    x 3.787190 0.000000 0.000000 
#    y 0.000000 3.429460 0.000000 
#    z 0.000000 0.000000 3.639730 
# 
# 
# High freq. dielectric constant tensor:
#      x y z
#    x 1.784840 0.000000 0.000000 
#    y 0.000000 1.791970 0.000000 
#    z 0.000000 0.000000 1.782980 
# 
# From -- ./inp_files/13350.got.cif
#   From: 2010.03.12/outbox.cif.g09.slc.cpg/sg38_7_cif.got.tgz:13350.got - 2010.04.14 02:38:36.
