data_PCOD8179273
_publ_section_title
;
Structure prediction by ZEFSAII (Michael W. Deem and Ramdas Pophale) SiO2 
 PCOD8179273
Probable space group: A M M 2
;
_chemical_formula_sum "Si O2"
_cell_formula_units_Z 40
_cell_length_a 14.480899
_cell_length_b 9.443053
_cell_length_c 15.771102
_cell_angle_alpha 90.000000
_cell_angle_beta 90.000000
_cell_angle_gamma 90.000000
_cell_volume 2156.601943
_symmetry_space_group_name_H-M "A M M 2"
_symmetry_group_IT_number 38
_symmetry_cell_setting 'orthorhombic'
loop_
_space_group_symop_operation_xyz
x,y,z
-x,-y,z
-x,y,z
x,-y,z
x,1/2+y,1/2+z
-x,1/2-y,1/2+z
-x,1/2+y,1/2+z
x,1/2-y,1/2+z
loop_
_atom_site_type_symbol
_atom_site_label
_atom_site_fract_x
_atom_site_fract_y
_atom_site_fract_z
Si Si1 0.101814 0.659825 0.358510
Si Si2 0.294421 0.664025 0.430255
Si Si3 0.101502 0.166235 0.191493
Si Si4 0.712102 0.167762 0.116221
Si Si5 0.392608 0.166383 0.281981
O O1 0.106255 0.500000 0.322861
O O2 0.183202 0.683354 0.426280
O O3 0.119895 0.764594 0.281752
O O4 0.000000 0.687798 0.399745
O O5 0.322044 0.500000 0.417032
O O6 0.323539 0.720208 0.524102
O O7 0.346153 0.755738 0.360642
O O8 0.181687 0.218338 0.128242
O O9 0.000000 0.208047 0.155434
O O10 0.108713 0.000000 0.207056
O O11 0.649035 0.225243 0.193245
O O12 0.707673 0.000000 0.115584
O O13 0.500000 0.202300 0.281725
O O14 0.373351 0.000000 0.291839
#
# Coordination Sequence:
#
# PCOD8179273 Si02
#       5
#     8   8   8   8   8
#     4   9  17  29  47  74 108 140 168 204 253 302
#     4  10  20  34  55  81 106 136 173 213 256 305
#     4   9  16  28  50  76 101 134 175 212 245 294
#     4   9  18  33  53  78 105 134 170 209 255 310
#     4  10  21  38  57  75 101 136 171 215 269 314
#
# _framework density 18.547696999999999
#
# number of rings (size 3 to 8) (size 9 to 14) (size 15 to 20)
#    0.000    2.600    2.000    0.000    0.000    2.000 
#    0.000    8.000    0.000    0.000    0.000    5.600 
#    0.000    0.000    0.000    0.000    0.000    0.000 
#
# Total GULP energy -247842.067360 kJ/mol
# GULP energy per Si atom -12392.103368 kJ/mol
# Density = 1.850548 g / cm^3
# Si number density = 18.547697 Si / 1000 Ang^3
#
#
#
# Elastic Constant Matrix: (Units=GPa)
#
#
# Indices 1 2 3 4 5 6 
#
# 1 123.2217 35.2839 80.8447 0.0000 0.0000 0.0000
# 2 35.2839 28.3355 31.9343 0.0000 0.0000 0.0000
# 3 80.8447 31.9343 152.1749 0.0000 0.0000 0.0000
# 4 0.0000 0.0000 0.0000 23.3116 0.0000 0.0000
# 5 0.0000 0.0000 0.0000 0.0000 12.8619 0.0000
# 6 0.0000 0.0000 0.0000 0.0000 0.0000 22.4169
#
#
#
# Elastic Compliance Matrix: (Units=1/GPa)
#
#
# Indices 1 2 3 4 5 6 
#
# 1 0.015441 -0.013075 -0.005460 0.000000 0.000000 0.000000
# 2 -0.013075 0.057295 -0.005077 0.000000 0.000000 0.000000
# 3 -0.005460 -0.005077 0.010537 0.000000 0.000000 0.000000
# 4 0.000000 0.000000 0.000000 0.042897 0.000000 0.000000
# 5 0.000000 0.000000 0.000000 0.000000 0.077749 0.000000
# 6 0.000000 0.000000 0.000000 0.000000 0.000000 0.044609
#
#
# Mechanical properties :
#
#
# Convention : Reuss Voigt Hill
#
# Bulk Modulus (GPa) = 27.73939 66.65088 47.19513
# Shear Modulus (GPa) = 16.24596 22.09603 19.17099
#
# Velocity S-wave (km/s) = 2.96277 3.45528 3.21846
# Velocity P-wave (km/s) = 5.16645 7.20635 6.26992
#
# Compressibility (1/GPa) = 0.03604982
#
# Stress axis : x y z
#
# Youngs Moduli (GPa) = 64.76096 17.45367 94.90052
#
# Poissons Ratio (x) = 0.22820 0.51812
# Poissons Ratio (y) = 0.84674 0.48183
# Poissons Ratio (z) = 0.35357 0.08862
#
# Static dielectric constant tensor:
#      x y z
#    x 3.737800 0.000000 0.000000 
#    y 0.000000 3.191980 0.000000 
#    z 0.000000 0.000000 3.487570 
# 
# 
# High freq. dielectric constant tensor:
#      x y z
#    x 1.731170 0.000000 0.000000 
#    y 0.000000 1.688950 0.000000 
#    z 0.000000 0.000000 1.710450 
# 
# From -- ./inp_files/9873.got.cif
#   From: 2010.03.12/outbox.cif.g09.slc.cpg/sg38_5_cif.got.tgz:9873.got - 2010.04.14 02:38:36.
