data_PCOD8179950
_publ_section_title
;
Structure prediction by ZEFSAII (Michael W. Deem and Ramdas Pophale) SiO2 
 PCOD8179950
Probable space group: A M M 2
;
_chemical_formula_sum "Si O2"
_cell_formula_units_Z 64
_cell_length_a 9.300430
_cell_length_b 32.184083
_cell_length_c 11.705269
_cell_angle_alpha 90.000000
_cell_angle_beta 90.000000
_cell_angle_gamma 90.000000
_cell_volume 3503.689137
_symmetry_space_group_name_H-M "A M M 2"
_symmetry_group_IT_number 38
_symmetry_cell_setting 'orthorhombic'
loop_
_space_group_symop_operation_xyz
x,y,z
-x,-y,z
-x,y,z
x,-y,z
x,1/2+y,1/2+z
-x,1/2-y,1/2+z
-x,1/2+y,1/2+z
x,1/2-y,1/2+z
loop_
_atom_site_type_symbol
_atom_site_label
_atom_site_fract_x
_atom_site_fract_y
_atom_site_fract_z
Si Si1 0.840471 0.897569 0.688180
Si Si2 0.666378 0.357865 0.001718
Si Si3 0.667983 0.226456 0.633714
Si Si4 0.158300 0.187677 0.820346
Si Si5 0.834829 0.951604 0.891266
Si Si6 0.333635 0.546881 0.615159
Si Si7 0.667783 0.128581 0.243353
Si Si8 0.831216 0.690695 0.578480
O O1 0.745591 0.893520 0.574588
O O2 0.847525 0.854002 0.750045
O O3 0.770771 0.930071 0.777599
O O4 0.000000 0.912317 0.651709
O O5 0.500000 0.368420 0.011835
O O6 0.699574 0.311755 0.048128
O O7 0.719206 0.361690 0.871605
O O8 0.500000 0.237362 0.639805
O O9 0.722434 0.217198 0.762513
O O10 0.758152 0.264681 0.587829
O O11 0.000000 0.209281 0.816943
O O12 0.199641 0.176222 0.949426
O O13 0.000000 0.937778 0.908188
O O14 0.817685 0.000000 0.871734
O O15 0.750467 0.937372 0.003646
O O16 0.500000 0.546724 0.581938
O O17 0.285087 0.500000 0.652383
O O18 0.302480 0.579831 0.716169
O O19 0.500000 0.139444 0.226974
O O20 0.759989 0.157401 0.161172
O O21 0.000000 0.693965 0.606453
#
# Coordination Sequence:
#
# PCOD8179950 Si02
#       8
#     8   8   8   8   8   8   8   8
#     4   9  17  32  53  74 100 135 173 212 258 311
#     4   9  20  37  54  74 103 140 179 219 262 314
#     4  10  21  36  54  75 102 137 176 217 265 317
#     4   9  19  35  52  73 100 131 169 213 259 309
#     4   9  17  30  51  79 110 140 171 215 269 321
#     4   9  18  33  54  80 110 143 179 222 270 320
#     4  10  21  37  55  78 108 143 183 223 269 323
#     4  11  23  36  54  80 107 134 173 221 268 320
#
# _framework density 18.266459000000001
#
# number of rings (size 3 to 8) (size 9 to 14) (size 15 to 20)
#    0.000    2.500    0.000    1.500    1.750    4.000 
#    0.000    3.125    0.000    0.750    0.000    0.000 
#    0.000    0.000    0.000    0.000    0.000    0.000 
#
# Total GULP energy -396744.344938 kJ/mol
# GULP energy per Si atom -12398.260779 kJ/mol
# Density = 1.822488 g / cm^3
# Si number density = 18.266459 Si / 1000 Ang^3
#
#
#
# Elastic Constant Matrix: (Units=GPa)
#
#
# Indices 1 2 3 4 5 6 
#
# 1 74.9913 37.1866 60.6003 0.0000 0.0000 0.0000
# 2 37.1866 60.6046 46.6059 0.0000 0.0000 0.0000
# 3 60.6003 46.6059 141.8763 0.0000 0.0000 0.0000
# 4 0.0000 0.0000 0.0000 20.4165 0.0000 0.0000
# 5 0.0000 0.0000 0.0000 0.0000 31.3476 0.0000
# 6 0.0000 0.0000 0.0000 0.0000 0.0000 24.6374
#
#
#
# Elastic Compliance Matrix: (Units=1/GPa)
#
#
# Indices 1 2 3 4 5 6 
#
# 1 0.023521 -0.008973 -0.007099 0.000000 0.000000 0.000000
# 2 -0.008973 0.025501 -0.004544 0.000000 0.000000 0.000000
# 3 -0.007099 -0.004544 0.011573 0.000000 0.000000 0.000000
# 4 0.000000 0.000000 0.000000 0.048980 0.000000 0.000000
# 5 0.000000 0.000000 0.000000 0.000000 0.031900 0.000000
# 6 0.000000 0.000000 0.000000 0.000000 0.000000 0.040589
#
#
# Mechanical properties :
#
#
# Convention : Reuss Voigt Hill
#
# Bulk Modulus (GPa) = 51.64600 62.91754 57.28177
# Shear Modulus (GPa) = 21.76264 24.15227 22.95745
#
# Velocity S-wave (km/s) = 3.45541 3.64018 3.54900
# Velocity P-wave (km/s) = 6.65243 7.22405 6.94413
#
# Compressibility (1/GPa) = 0.01936258
#
# Stress axis : x y z
#
# Youngs Moduli (GPa) = 42.51473 39.21442 86.40502
#
# Poissons Ratio (x) = 0.35188 0.61340
# Poissons Ratio (y) = 0.38149 0.39264
# Poissons Ratio (z) = 0.30182 0.17820
#
# Static dielectric constant tensor:
#      x y z
#    x 3.578650 0.000000 0.000000 
#    y 0.000000 3.408700 0.000000 
#    z 0.000000 0.000000 3.510110 
# 
# 
# High freq. dielectric constant tensor:
#      x y z
#    x 1.707320 0.000000 0.000000 
#    y 0.000000 1.702850 0.000000 
#    z 0.000000 0.000000 1.706170 
# 
# From -- ./inp_files/8671.got.cif
#   From: 2010.03.12/outbox.cif.g09.slc.cpg/sg38_5_cif.got.tgz:8671.got - 2010.04.14 02:38:36.
