data_PCOD8179400
_publ_section_title
;
Structure prediction by ZEFSAII (Michael W. Deem and Ramdas Pophale) SiO2 
 PCOD8179400
Probable space group: A M M 2
;
_chemical_formula_sum "Si O2"
_cell_formula_units_Z 48
_cell_length_a 9.060116
_cell_length_b 15.084942
_cell_length_c 19.056984
_cell_angle_alpha 90.000000
_cell_angle_beta 90.000000
_cell_angle_gamma 90.000000
_cell_volume 2604.543242
_symmetry_space_group_name_H-M "A M M 2"
_symmetry_group_IT_number 38
_symmetry_cell_setting 'orthorhombic'
loop_
_space_group_symop_operation_xyz
x,y,z
-x,-y,z
-x,y,z
x,-y,z
x,1/2+y,1/2+z
-x,1/2-y,1/2+z
-x,1/2+y,1/2+z
x,1/2-y,1/2+z
loop_
_atom_site_type_symbol
_atom_site_label
_atom_site_fract_x
_atom_site_fract_y
_atom_site_fract_z
Si Si1 0.171582 0.648829 0.280580
Si Si2 0.825108 0.500000 0.886711
Si Si3 0.176335 0.000000 0.545473
Si Si4 0.171389 0.500000 0.389036
Si Si5 0.672126 0.151243 0.140475
Si Si6 0.172124 0.350442 0.783538
Si Si7 0.673848 0.500000 0.536744
Si Si8 0.673388 0.645596 0.137136
O O1 0.215757 0.587043 0.345342
O O2 0.207823 0.749072 0.303654
O O3 0.269287 0.620246 0.214307
O O4 0.000000 0.636719 0.260040
O O5 0.767603 0.587612 0.846174
O O6 0.000000 0.500000 0.889512
O O7 0.764599 0.500000 0.965662
O O8 0.239909 0.088094 0.580649
O O9 0.000000 0.000000 0.551129
O O10 0.258894 0.500000 0.460430
O O11 0.000000 0.500000 0.407370
O O12 0.500000 0.139080 0.154426
O O13 0.751365 0.121576 0.211457
O O14 0.727257 0.087788 0.077999
O O15 0.710480 0.252178 0.120066
O O16 0.000000 0.365898 0.771910
O O17 0.500000 0.500000 0.528142
O O18 0.500000 0.625102 0.133169
#
# Coordination Sequence:
#
# PCOD8179400 Si02
#       8
#     8   4   4   4   8   8   4   8
#     4   9  18  33  53  76 101 130 166 210 257 301
#     4   9  19  33  49  73 103 133 166 207 254 302
#     4  11  22  35  52  75 106 141 172 205 252 306
#     4  10  21  34  49  73 103 132 167 210 252 298
#     4   9  19  35  54  77 104 134 169 211 256 300
#     4   9  17  32  54  76  98 128 168 211 253 300
#     4  10  21  36  52  73 106 142 171 204 252 306
#     4  10  20  35  55  78 103 132 171 215 254 298
#
# _framework density 18.429334999999998
#
# number of rings (size 3 to 8) (size 9 to 14) (size 15 to 20)
#    0.000    2.500    0.000    1.750    0.000    4.000 
#    0.000    3.333    0.000    0.000    0.000    0.000 
#    0.000    0.000    0.000    0.000    0.000    0.000 
#
# Total GULP energy -297639.850907 kJ/mol
# GULP energy per Si atom -12401.660454 kJ/mol
# Density = 1.838739 g / cm^3
# Si number density = 18.429335 Si / 1000 Ang^3
#
#
#
# Elastic Constant Matrix: (Units=GPa)
#
#
# Indices 1 2 3 4 5 6 
#
# 1 54.4185 42.6262 56.0098 0.0000 0.0000 0.0000
# 2 42.6262 130.8087 101.1248 0.0000 0.0000 0.0000
# 3 56.0098 101.1248 174.1544 0.0000 0.0000 0.0000
# 4 0.0000 0.0000 0.0000 17.0269 0.0000 0.0000
# 5 0.0000 0.0000 0.0000 0.0000 18.0012 0.0000
# 6 0.0000 0.0000 0.0000 0.0000 0.0000 6.5263
#
#
#
# Elastic Compliance Matrix: (Units=1/GPa)
#
#
# Indices 1 2 3 4 5 6 
#
# 1 0.028580 -0.004006 -0.006866 0.000000 0.000000 0.000000
# 2 -0.004006 0.014433 -0.007092 0.000000 0.000000 0.000000
# 3 -0.006866 -0.007092 0.012068 0.000000 0.000000 0.000000
# 4 0.000000 0.000000 0.000000 0.058731 0.000000 0.000000
# 5 0.000000 0.000000 0.000000 0.000000 0.055552 0.000000
# 6 0.000000 0.000000 0.000000 0.000000 0.000000 0.153226
#
#
# Mechanical properties :
#
#
# Convention : Reuss Voigt Hill
#
# Bulk Modulus (GPa) = 52.20825 84.32256 68.26541
# Shear Modulus (GPa) = 13.70228 18.95226 16.32727
#
# Velocity S-wave (km/s) = 2.72968 3.21031 2.97970
# Velocity P-wave (km/s) = 6.19074 7.71980 6.99716
#
# Compressibility (1/GPa) = 0.01915406
#
# Stress axis : x y z
#
# Youngs Moduli (GPa) = 34.98916 69.28541 82.86051
#
# Poissons Ratio (x) = 0.27753 0.56890
# Poissons Ratio (y) = 0.14015 0.58769
# Poissons Ratio (z) = 0.24023 0.49141
#
# Static dielectric constant tensor:
#      x y z
#    x 3.286530 0.000000 0.000000 
#    y 0.000000 3.715750 0.000000 
#    z 0.000000 0.000000 3.404890 
# 
# 
# High freq. dielectric constant tensor:
#      x y z
#    x 1.703600 0.000000 0.000000 
#    y 0.000000 1.731630 0.000000 
#    z 0.000000 0.000000 1.708690 
# 
# From -- ./inp_files/16763.got.cif
#   From: 2010.03.12/outbox.cif.g09.slc.cpg/sg38_9_cif.got.tgz:16763.got - 2010.04.14 02:38:36.
