data_PCOD8179410
_publ_section_title
;
Structure prediction by ZEFSAII (Michael W. Deem and Ramdas Pophale) SiO2 
 PCOD8179410
Probable space group: A M M 2
;
_chemical_formula_sum "Si O2"
_cell_formula_units_Z 48
_cell_length_a 10.935865
_cell_length_b 13.135757
_cell_length_c 17.778518
_cell_angle_alpha 90.000000
_cell_angle_beta 90.000000
_cell_angle_gamma 90.000000
_cell_volume 2553.899493
_symmetry_space_group_name_H-M "A M M 2"
_symmetry_group_IT_number 38
_symmetry_cell_setting 'orthorhombic'
loop_
_space_group_symop_operation_xyz
x,y,z
-x,-y,z
-x,y,z
x,-y,z
x,1/2+y,1/2+z
-x,1/2-y,1/2+z
-x,1/2+y,1/2+z
x,1/2-y,1/2+z
loop_
_atom_site_type_symbol
_atom_site_label
_atom_site_fract_x
_atom_site_fract_y
_atom_site_fract_z
Si Si1 0.358581 0.381329 0.525360
Si Si2 0.141861 0.384420 0.102241
Si Si3 0.640792 0.886724 0.315581
Si Si4 0.000000 0.886221 0.189606
Si Si5 0.000000 0.120297 0.367593
Si Si6 0.231455 0.197666 0.449085
Si Si7 0.748217 0.295824 0.671086
O O1 0.500000 0.364558 0.502023
O O2 0.322317 0.500000 0.516299
O O3 0.267994 0.312962 0.473311
O O4 0.346100 0.346019 0.612227
O O5 0.148545 0.500000 0.127936
O O6 0.230232 0.324705 0.160079
O O7 0.000000 0.347326 0.101545
O O8 0.202422 0.371375 0.020683
O O9 0.500000 0.890000 0.295191
O O10 0.656138 0.847160 0.400673
O O11 0.706705 0.813797 0.256051
O O12 0.698836 0.000000 0.308012
O O13 0.880628 0.840036 0.151964
O O14 0.000000 0.873829 0.278734
O O15 0.000000 0.000000 0.162958
O O16 0.885264 0.186721 0.395045
O O17 0.000000 0.000000 0.394524
#
# Coordination Sequence:
#
# PCOD8179410 Si02
#       7
#     8   8   8   4   4   8   8
#     4  10  22  40  59  80 113 156 193 231 281 333
#     4  10  20  35  55  81 114 149 182 219 276 342
#     4  11  22  36  57  85 114 146 188 237 284 330
#     4  11  20  31  53  87 119 146 176 231 295 344
#     4  11  20  33  57  87 123 150 174 227 299 348
#     4  11  21  35  59  85 113 147 188 232 278 341
#     4  11  21  35  57  84 113 146 188 234 281 339
#
# _framework density 18.794789000000002
#
# number of rings (size 3 to 8) (size 9 to 14) (size 15 to 20)
#    0.000    1.333    3.333    4.000    0.000    1.333 
#    0.000    2.083    0.000   13.000    0.000    0.000 
#    0.000    0.000    0.000    0.000    0.000    0.000 
#
# Total GULP energy -297484.130095 kJ/mol
# GULP energy per Si atom -12395.172087 kJ/mol
# Density = 1.875201 g / cm^3
# Si number density = 18.794789 Si / 1000 Ang^3
#
#
#
# Elastic Constant Matrix: (Units=GPa)
#
#
# Indices 1 2 3 4 5 6 
#
# 1 73.2239 40.9197 16.0679 0.0000 0.0000 0.0000
# 2 40.9197 117.5922 41.2970 0.0000 0.0000 0.0000
# 3 16.0679 41.2970 69.7723 0.0000 0.0000 0.0000
# 4 0.0000 0.0000 0.0000 24.9818 0.0000 0.0000
# 5 0.0000 0.0000 0.0000 0.0000 35.2004 0.0000
# 6 0.0000 0.0000 0.0000 0.0000 0.0000 30.0549
#
#
#
# Elastic Compliance Matrix: (Units=1/GPa)
#
#
# Indices 1 2 3 4 5 6 
#
# 1 0.016969 -0.005722 -0.000521 0.000000 0.000000 0.000000
# 2 -0.005722 0.012665 -0.006178 0.000000 0.000000 0.000000
# 3 -0.000521 -0.006178 0.018109 0.000000 0.000000 0.000000
# 4 0.000000 0.000000 0.000000 0.040029 0.000000 0.000000
# 5 0.000000 0.000000 0.000000 0.000000 0.028409 0.000000
# 6 0.000000 0.000000 0.000000 0.000000 0.000000 0.033272
#
#
# Mechanical properties :
#
#
# Convention : Reuss Voigt Hill
#
# Bulk Modulus (GPa) = 43.66792 50.79528 47.23160
# Shear Modulus (GPa) = 27.48329 28.86767 28.17548
#
# Velocity S-wave (km/s) = 3.82813 3.92336 3.87604
# Velocity P-wave (km/s) = 6.54400 6.89990 6.72430
#
# Compressibility (1/GPa) = 0.02290011
#
# Stress axis : x y z
#
# Youngs Moduli (GPa) = 58.93259 78.95919 55.22045
#
# Poissons Ratio (x) = 0.45178 0.02878
# Poissons Ratio (y) = 0.33719 0.34117
# Poissons Ratio (z) = 0.03071 0.48784
#
# Static dielectric constant tensor:
#      x y z
#    x 3.557080 0.000000 0.000000 
#    y 0.000000 3.535290 0.000000 
#    z 0.000000 0.000000 3.324280 
# 
# 
# High freq. dielectric constant tensor:
#      x y z
#    x 1.739530 0.000000 0.000000 
#    y 0.000000 1.723100 0.000000 
#    z 0.000000 0.000000 1.721440 
# 
# From -- ./inp_files/20617.got.cif
#   From: 2010.03.12/outbox.cif.g09.slc.cpg/sg38_11_cif.got.tgz:20617.got - 2010.04.14 02:38:36.
