data_PCOD8179809
_publ_section_title
;
Structure prediction by ZEFSAII (Michael W. Deem and Ramdas Pophale) SiO2 
 PCOD8179809
Probable space group: A M M 2
;
_chemical_formula_sum "Si O2"
_cell_formula_units_Z 56
_cell_length_a 21.261680
_cell_length_b 8.954155
_cell_length_c 15.316911
_cell_angle_alpha 90.000000
_cell_angle_beta 90.000000
_cell_angle_gamma 90.000000
_cell_volume 2916.039310
_symmetry_space_group_name_H-M "A M M 2"
_symmetry_group_IT_number 38
_symmetry_cell_setting 'orthorhombic'
loop_
_space_group_symop_operation_xyz
x,y,z
-x,-y,z
-x,y,z
x,-y,z
x,1/2+y,1/2+z
-x,1/2-y,1/2+z
-x,1/2+y,1/2+z
x,1/2-y,1/2+z
loop_
_atom_site_type_symbol
_atom_site_label
_atom_site_fract_x
_atom_site_fract_y
_atom_site_fract_z
Si Si1 0.430494 0.823240 0.201940
Si Si2 0.652787 0.176556 0.360178
Si Si3 0.875861 0.828307 0.012696
Si Si4 0.573937 0.828644 0.005849
Si Si5 0.134853 0.327413 0.708086
Si Si6 0.787198 0.823532 0.855796
Si Si7 0.000000 0.176222 0.463137
Si Si8 0.000000 0.323342 0.766737
O O1 0.500000 0.755406 0.220671
O O2 0.381305 0.761260 0.272825
O O3 0.435289 0.000000 0.209460
O O4 0.408192 0.780408 0.104562
O O5 0.611011 0.218013 0.443238
O O6 0.719595 0.252869 0.367927
O O7 0.661819 0.000000 0.356407
O O8 0.843973 0.808068 0.107648
O O9 0.894209 0.000000 0.996488
O O10 0.828551 0.770441 0.938427
O O11 0.938890 0.732746 0.012939
O O12 0.500000 0.808679 0.990148
O O13 0.593988 0.000000 0.988319
O O14 0.139472 0.500000 0.737733
O O15 0.181728 0.231274 0.766384
O O16 0.063229 0.266821 0.718824
O O17 0.780388 0.000000 0.853173
O O18 0.000000 0.240491 0.364840
O O19 0.000000 0.000000 0.463435
O O20 0.000000 0.500000 0.766576
#
# Coordination Sequence:
#
# PCOD8179809 Si02
#       8
#     8   8   8   8   8   8   4   4
#     4   8  16  33  57  83 110 142 181 222 268 327
#     4  11  22  36  57  82 111 150 191 229 272 327
#     4  10  22  39  60  82 109 148 188 227 276 340
#     4   9  18  35  59  85 113 144 179 225 278 327
#     4  10  20  39  62  82 107 144 188 227 274 333
#     4  11  24  40  55  79 113 148 188 235 281 327
#     4  11  20  33  59  90 115 139 174 230 285 328
#     4   9  17  31  57  86 109 133 168 224 279 324
#
# _framework density 19.204129999999999
#
# number of rings (size 3 to 8) (size 9 to 14) (size 15 to 20)
#    0.000    2.143    1.429    2.786    0.000    4.286 
#    0.000    7.500    0.000    1.714    0.000    0.000 
#    0.000    0.000    0.000    0.000    0.000    0.000 
#
# Total GULP energy -347228.093793 kJ/mol
# GULP energy per Si atom -12401.003350 kJ/mol
# Density = 1.916042 g / cm^3
# Si number density = 19.204130 Si / 1000 Ang^3
#
#
#
# Elastic Constant Matrix: (Units=GPa)
#
#
# Indices 1 2 3 4 5 6 
#
# 1 109.0145 40.1195 60.9106 0.0000 0.0000 0.0000
# 2 40.1195 55.8578 37.2534 0.0000 0.0000 0.0000
# 3 60.9106 37.2534 130.4776 0.0000 0.0000 0.0000
# 4 0.0000 0.0000 0.0000 29.9662 0.0000 0.0000
# 5 0.0000 0.0000 0.0000 0.0000 11.9654 0.0000
# 6 0.0000 0.0000 0.0000 0.0000 0.0000 30.2264
#
#
#
# Elastic Compliance Matrix: (Units=1/GPa)
#
#
# Indices 1 2 3 4 5 6 
#
# 1 0.014460 -0.007268 -0.004675 0.000000 0.000000 0.000000
# 2 -0.007268 0.025766 -0.003964 0.000000 0.000000 0.000000
# 3 -0.004675 -0.003964 0.010978 0.000000 0.000000 0.000000
# 4 0.000000 0.000000 0.000000 0.033371 0.000000 0.000000
# 5 0.000000 0.000000 0.000000 0.000000 0.083575 0.000000
# 6 0.000000 0.000000 0.000000 0.000000 0.000000 0.033084
#
#
# Mechanical properties :
#
#
# Convention : Reuss Voigt Hill
#
# Bulk Modulus (GPa) = 51.57051 63.54631 57.55841
# Shear Modulus (GPa) = 20.87585 24.90270 22.88927
#
# Velocity S-wave (km/s) = 3.30062 3.60493 3.45613
# Velocity P-wave (km/s) = 6.43721 7.10557 6.77963
#
# Compressibility (1/GPa) = 0.01939093
#
# Stress axis : x y z
#
# Youngs Moduli (GPa) = 69.15626 38.81052 91.08748
#
# Poissons Ratio (x) = 0.28206 0.42586
# Poissons Ratio (y) = 0.50261 0.36106
# Poissons Ratio (z) = 0.32333 0.15384
#
# Static dielectric constant tensor:
#      x y z
#    x 4.297400 0.000000 0.000000 
#    y 0.000000 3.260190 0.000000 
#    z 0.000000 0.000000 3.736500 
# 
# 
# High freq. dielectric constant tensor:
#      x y z
#    x 1.745080 0.000000 0.000000 
#    y 0.000000 1.723680 0.000000 
#    z 0.000000 0.000000 1.761000 
# 
# From -- ./inp_files/15567.got.cif
#   From: 2010.03.12/outbox.cif.g09.slc.cpg/sg38_8_cif.got.tgz:15567.got - 2010.04.14 02:38:36.
