data_PCOD8179566
_publ_section_title
;
Structure prediction by ZEFSAII (Michael W. Deem and Ramdas Pophale) SiO2 
 PCOD8179566
Probable space group: A M M 2
;
_chemical_formula_sum "Si O2"
_cell_formula_units_Z 32
_cell_length_a 8.798728
_cell_length_b 10.270254
_cell_length_c 17.665459
_cell_angle_alpha 90.000000
_cell_angle_beta 90.000000
_cell_angle_gamma 90.000000
_cell_volume 1596.342231
_symmetry_space_group_name_H-M "A M M 2"
_symmetry_group_IT_number 38
_symmetry_cell_setting 'orthorhombic'
loop_
_space_group_symop_operation_xyz
x,y,z
-x,-y,z
-x,y,z
x,-y,z
x,1/2+y,1/2+z
-x,1/2-y,1/2+z
-x,1/2+y,1/2+z
x,1/2-y,1/2+z
loop_
_atom_site_type_symbol
_atom_site_label
_atom_site_fract_x
_atom_site_fract_y
_atom_site_fract_z
Si Si1 0.819947 0.000000 0.139560
Si Si2 0.679992 0.729627 0.373633
Si Si3 0.821045 0.234238 0.713612
Si Si4 0.176232 0.500000 0.103964
Si Si5 0.679112 0.500000 0.941323
Si Si6 0.819216 0.000000 0.968323
O O1 0.760876 0.872899 0.183519
O O2 0.000000 0.000000 0.136727
O O3 0.757946 0.000000 0.054212
O O4 0.500000 0.715936 0.379826
O O5 0.731617 0.697572 0.289041
O O6 0.739356 0.872851 0.397221
O O7 0.756929 0.628903 0.429816
O O8 0.779585 0.127598 0.651046
O O9 0.000000 0.235022 0.731188
O O10 0.000000 0.500000 0.082775
O O11 0.268770 0.500000 0.027283
O O12 0.500000 0.500000 0.941263
O O13 0.000000 0.000000 0.963651
#
# Coordination Sequence:
#
# PCOD8179566 Si02
#       6
#     4   8   8   4   4   4
#     4   9  19  35  57  83 111 143 188 239 284 330
#     4  11  23  39  58  85 118 153 191 233 280 338
#     4  10  20  36  57  83 112 146 188 235 282 334
#     4  10  21  36  57  83 111 144 189 236 280 332
#     4  10  23  40  58  83 118 154 191 232 280 338
#     4  11  22  39  62  87 114 149 190 237 288 338
#
# _framework density 20.045826000000002
#
# number of rings (size 3 to 8) (size 9 to 14) (size 15 to 20)
#    0.000    1.750    0.000    4.125    0.000    6.000 
#    0.000    2.500    0.000    0.000    0.000    0.000 
#    0.000    0.000    0.000    0.000    0.000    0.000 
#
# Total GULP energy -198479.840480 kJ/mol
# GULP energy per Si atom -12404.990030 kJ/mol
# Density = 2.000020 g / cm^3
# Si number density = 20.045826 Si / 1000 Ang^3
#
#
#
# Elastic Constant Matrix: (Units=GPa)
#
#
# Indices 1 2 3 4 5 6 
#
# 1 41.7572 22.2564 16.0770 0.0000 0.0000 0.0000
# 2 22.2564 96.1477 2.4953 0.0000 0.0000 0.0000
# 3 16.0770 2.4953 86.1825 0.0000 0.0000 0.0000
# 4 0.0000 0.0000 0.0000 44.6530 0.0000 0.0000
# 5 0.0000 0.0000 0.0000 0.0000 22.0159 0.0000
# 6 0.0000 0.0000 0.0000 0.0000 0.0000 44.1973
#
#
#
# Elastic Compliance Matrix: (Units=1/GPa)
#
#
# Indices 1 2 3 4 5 6 
#
# 1 0.029572 -0.006707 -0.005322 0.000000 0.000000 0.000000
# 2 -0.006707 0.011930 0.000906 0.000000 0.000000 0.000000
# 3 -0.005322 0.000906 0.012570 0.000000 0.000000 0.000000
# 4 0.000000 0.000000 0.000000 0.022395 0.000000 0.000000
# 5 0.000000 0.000000 0.000000 0.000000 0.045422 0.000000
# 6 0.000000 0.000000 0.000000 0.000000 0.000000 0.022626
#
#
# Mechanical properties :
#
#
# Convention : Reuss Voigt Hill
#
# Bulk Modulus (GPa) = 31.42266 33.97163 32.69715
# Shear Modulus (GPa) = 28.18968 34.39049 31.29008
#
# Velocity S-wave (km/s) = 3.75408 4.14647 3.95514
# Velocity P-wave (km/s) = 5.87370 6.31728 6.09952
#
# Compressibility (1/GPa) = 0.03182417
#
# Stress axis : x y z
#
# Youngs Moduli (GPa) = 33.81565 83.82395 79.55504
#
# Poissons Ratio (x) = 0.56223 0.42342
# Poissons Ratio (y) = 0.22681 -0.07206
# Poissons Ratio (z) = 0.17998 -0.07593
#
# Static dielectric constant tensor:
#      x y z
#    x 3.461070 0.000000 0.000000 
#    y 0.000000 4.183900 0.000000 
#    z 0.000000 0.000000 3.680600 
# 
# 
# High freq. dielectric constant tensor:
#      x y z
#    x 1.763800 0.000000 0.000000 
#    y 0.000000 1.804640 0.000000 
#    z 0.000000 0.000000 1.796880 
# 
# From -- ./inp_files/11402.got.cif
#   From: 2010.03.12/outbox.cif.g09.slc.cpg/sg38_6_cif.got.tgz:11402.got - 2010.04.14 02:38:36.
