data_PCOD8179610
_publ_section_title
;
Structure prediction by ZEFSAII (Michael W. Deem and Ramdas Pophale) SiO2 
 PCOD8179610
Probable space group: A M M 2
;
_chemical_formula_sum "Si O2"
_cell_formula_units_Z 48
_cell_length_a 8.994571
_cell_length_b 28.042749
_cell_length_c 10.040075
_cell_angle_alpha 90.000000
_cell_angle_beta 90.000000
_cell_angle_gamma 90.000000
_cell_volume 2532.433186
_symmetry_space_group_name_H-M "A M M 2"
_symmetry_group_IT_number 38
_symmetry_cell_setting 'orthorhombic'
loop_
_space_group_symop_operation_xyz
x,y,z
-x,-y,z
-x,y,z
x,-y,z
x,1/2+y,1/2+z
-x,1/2-y,1/2+z
-x,1/2+y,1/2+z
x,1/2-y,1/2+z
loop_
_atom_site_type_symbol
_atom_site_label
_atom_site_fract_x
_atom_site_fract_y
_atom_site_fract_z
Si Si1 0.826912 0.851002 0.149900
Si Si2 0.823787 0.948584 0.036257
Si Si3 0.672513 0.855109 0.656456
Si Si4 0.827015 0.301205 0.921196
Si Si5 0.673013 0.796709 0.918330
Si Si6 0.173334 0.946215 0.733953
O O1 0.767388 0.905108 0.127792
O O2 0.799301 0.838938 0.303370
O O3 0.000000 0.846423 0.110856
O O4 0.735613 0.815081 0.058131
O O5 0.000000 0.950463 0.035507
O O6 0.763017 0.000000 0.089575
O O7 0.769016 0.941114 0.885214
O O8 0.500000 0.855913 0.620472
O O9 0.753549 0.820382 0.554653
O O10 0.703062 0.835636 0.804485
O O11 0.736645 0.908642 0.644233
O O12 0.754895 0.251615 0.877035
O O13 0.000000 0.292930 0.948243
O O14 0.500000 0.785644 0.935750
O O15 0.000000 0.933692 0.722788
O O16 0.203659 0.000000 0.681916
#
# Coordination Sequence:
#
# PCOD8179610 Si02
#       6
#     8   8   8   8   8   8
#     4  10  20  36  59  85 111 143 184 230 281 331
#     4   8  14  28  54  85 111 136 173 225 278 323
#     4  11  23  38  57  83 116 154 187 225 279 336
#     4  11  24  38  55  81 112 148 188 231 279 332
#     4  11  23  38  57  81 108 145 190 232 279 333
#     4   9  17  32  58  87 112 143 186 235 280 324
#
# _framework density 18.954104000000001
#
# number of rings (size 3 to 8) (size 9 to 14) (size 15 to 20)
#    0.000    2.000    1.667    3.500    0.000    6.333 
#    0.000    0.833    0.000    3.500    0.000    0.000 
#    0.000    0.000    0.000    0.000    0.000    0.000 
#
# Total GULP energy -297618.859744 kJ/mol
# GULP energy per Si atom -12400.785823 kJ/mol
# Density = 1.891096 g / cm^3
# Si number density = 18.954104 Si / 1000 Ang^3
#
#
#
# Elastic Constant Matrix: (Units=GPa)
#
#
# Indices 1 2 3 4 5 6 
#
# 1 91.0774 46.2068 36.6755 0.0000 0.0000 0.0000
# 2 46.2068 127.3461 19.0876 0.0000 0.0000 0.0000
# 3 36.6755 19.0876 53.2245 0.0000 0.0000 0.0000
# 4 0.0000 0.0000 0.0000 23.2238 0.0000 0.0000
# 5 0.0000 0.0000 0.0000 0.0000 21.6035 0.0000
# 6 0.0000 0.0000 0.0000 0.0000 0.0000 19.5697
#
#
#
# Elastic Compliance Matrix: (Units=1/GPa)
#
#
# Indices 1 2 3 4 5 6 
#
# 1 0.017625 -0.004835 -0.010411 0.000000 0.000000 0.000000
# 2 -0.004835 0.009625 -0.000120 0.000000 0.000000 0.000000
# 3 -0.010411 -0.000120 0.026005 0.000000 0.000000 0.000000
# 4 0.000000 0.000000 0.000000 0.043059 0.000000 0.000000
# 5 0.000000 0.000000 0.000000 0.000000 0.046289 0.000000
# 6 0.000000 0.000000 0.000000 0.000000 0.000000 0.051099
#
#
# Mechanical properties :
#
#
# Convention : Reuss Voigt Hill
#
# Bulk Modulus (GPa) = 44.39848 52.84309 48.62078
# Shear Modulus (GPa) = 21.55715 24.19129 22.87422
#
# Velocity S-wave (km/s) = 3.37610 3.57642 3.47770
# Velocity P-wave (km/s) = 6.21872 6.70779 6.46788
#
# Compressibility (1/GPa) = 0.02252330
#
# Stress axis : x y z
#
# Youngs Moduli (GPa) = 56.73850 103.89774 38.45364
#
# Poissons Ratio (x) = 0.50230 0.40034
# Poissons Ratio (y) = 0.27431 0.00463
# Poissons Ratio (z) = 0.59070 0.01250
#
# Static dielectric constant tensor:
#      x y z
#    x 3.321420 0.000000 0.000000 
#    y 0.000000 3.992970 0.000000 
#    z 0.000000 0.000000 3.218770 
# 
# 
# High freq. dielectric constant tensor:
#      x y z
#    x 1.722350 0.000000 0.000000 
#    y 0.000000 1.754730 0.000000 
#    z 0.000000 0.000000 1.715280 
# 
# From -- ./inp_files/3794.got.cif
#   From: 2010.03.12/outbox.cif.g09.slc.cpg/sg38_2_cif.got.tgz:3794.got - 2010.04.14 02:38:36.
