data_PCOD8179626
_publ_section_title
;
Structure prediction by ZEFSAII (Michael W. Deem and Ramdas Pophale) SiO2 
 PCOD8179626
Probable space group: A M M 2
;
_chemical_formula_sum "Si O2"
_cell_formula_units_Z 40
_cell_length_a 9.061883
_cell_length_b 7.675623
_cell_length_c 28.576437
_cell_angle_alpha 90.000000
_cell_angle_beta 90.000000
_cell_angle_gamma 90.000000
_cell_volume 1987.651152
_symmetry_space_group_name_H-M "A M M 2"
_symmetry_group_IT_number 38
_symmetry_cell_setting 'orthorhombic'
loop_
_space_group_symop_operation_xyz
x,y,z
-x,-y,z
-x,y,z
x,-y,z
x,1/2+y,1/2+z
-x,1/2-y,1/2+z
-x,1/2+y,1/2+z
x,1/2-y,1/2+z
loop_
_atom_site_type_symbol
_atom_site_label
_atom_site_fract_x
_atom_site_fract_y
_atom_site_fract_z
Si Si1 0.828651 0.301680 0.767570
Si Si2 0.831756 0.205623 0.664482
Si Si3 0.672398 0.000000 0.931424
Si Si4 0.328184 0.000000 0.822218
Si Si5 0.169430 0.695790 0.985285
Si Si6 0.333634 0.198971 0.073410
O O1 0.799626 0.500000 0.783557
O O2 0.776357 0.278126 0.714166
O O3 0.739005 0.175142 0.801054
O O4 0.000000 0.250932 0.771510
O O5 0.728674 0.289225 0.625517
O O6 0.000000 0.263511 0.655056
O O7 0.815048 0.000000 0.664067
O O8 0.706371 0.000000 0.876841
O O9 0.740850 0.175045 0.952380
O O10 0.500000 0.000000 0.943056
O O11 0.500000 0.000000 0.811198
O O12 0.182889 0.500000 0.964940
O O13 0.000000 0.756567 0.987267
O O14 0.233026 0.692495 0.037881
O O15 0.500000 0.273113 0.072790
O O16 0.331892 0.000000 0.056377
#
# Coordination Sequence:
#
# PCOD8179626 Si02
#       6
#     8   8   4   4   8   8
#     4  10  21  40  66  93 124 165 212 263 315 370
#     4  10  20  36  59  87 121 163 210 258 308 366
#     4  11  25  45  67  93 125 167 211 259 322 379
#     4  11  25  43  65  93 129 167 207 261 322 383
#     4  11  24  42  66  95 125 162 208 260 316 373
#     4  11  23  37  56  87 127 169 209 253 308 371
#
# _framework density 20.124255999999999
#
# number of rings (size 3 to 8) (size 9 to 14) (size 15 to 20)
#    0.000    1.400    2.000    3.000    0.000   10.000 
#    0.000    4.000    0.000    0.000    0.000    0.000 
#    0.000    0.000    0.000    0.000    0.000    0.000 
#
# Total GULP energy -248106.725821 kJ/mol
# GULP energy per Si atom -12405.336291 kJ/mol
# Density = 2.007845 g / cm^3
# Si number density = 20.124256 Si / 1000 Ang^3
#
#
#
# Elastic Constant Matrix: (Units=GPa)
#
#
# Indices 1 2 3 4 5 6 
#
# 1 132.2000 55.2353 86.1163 0.0000 0.0000 0.0000
# 2 55.2353 107.8938 57.3255 0.0000 0.0000 0.0000
# 3 86.1163 57.3255 125.0619 0.0000 0.0000 0.0000
# 4 0.0000 0.0000 0.0000 25.2245 0.0000 0.0000
# 5 0.0000 0.0000 0.0000 0.0000 37.9451 0.0000
# 6 0.0000 0.0000 0.0000 0.0000 0.0000 21.3435
#
#
#
# Elastic Compliance Matrix: (Units=1/GPa)
#
#
# Indices 1 2 3 4 5 6 
#
# 1 0.014315 -0.002764 -0.008590 0.000000 0.000000 0.000000
# 2 -0.002764 0.012786 -0.003957 0.000000 0.000000 0.000000
# 3 -0.008590 -0.003957 0.015725 0.000000 0.000000 0.000000
# 4 0.000000 0.000000 0.000000 0.039644 0.000000 0.000000
# 5 0.000000 0.000000 0.000000 0.000000 0.026354 0.000000
# 6 0.000000 0.000000 0.000000 0.000000 0.000000 0.046853
#
#
# Mechanical properties :
#
#
# Convention : Reuss Voigt Hill
#
# Bulk Modulus (GPa) = 81.94967 84.72331 83.33649
# Shear Modulus (GPa) = 26.26499 28.00119 27.13309
#
# Velocity S-wave (km/s) = 3.61659 3.73421 3.67587
# Velocity P-wave (km/s) = 7.63216 7.79641 7.71472
#
# Compressibility (1/GPa) = 0.01220261
#
# Stress axis : x y z
#
# Youngs Moduli (GPa) = 69.85741 78.20937 63.59334
#
# Poissons Ratio (x) = 0.21620 0.54626
# Poissons Ratio (y) = 0.19312 0.25166
# Poissons Ratio (z) = 0.60007 0.30950
#
# Static dielectric constant tensor:
#      x y z
#    x 3.744440 0.000000 0.000000 
#    y 0.000000 3.684000 0.000000 
#    z 0.000000 0.000000 3.610580 
# 
# 
# High freq. dielectric constant tensor:
#      x y z
#    x 1.788150 0.000000 0.000000 
#    y 0.000000 1.799660 0.000000 
#    z 0.000000 0.000000 1.783230 
# 
# From -- ./inp_files/23236.got.cif
#   From: 2010.03.12/outbox.cif.g09.slc.cpg/sg38_12_cif.got.tgz:23236.got - 2010.04.14 02:38:36.
