data_PCOD8179194
_publ_section_title
;
Structure prediction by ZEFSAII (Michael W. Deem and Ramdas Pophale) SiO2 
 PCOD8179194
Probable space group: A M M 2
;
_chemical_formula_sum "Si O2"
_cell_formula_units_Z 64
_cell_length_a 14.764820
_cell_length_b 8.802176
_cell_length_c 24.847365
_cell_angle_alpha 90.000000
_cell_angle_beta 90.000000
_cell_angle_gamma 90.000000
_cell_volume 3229.226773
_symmetry_space_group_name_H-M "A M M 2"
_symmetry_group_IT_number 38
_symmetry_cell_setting 'orthorhombic'
loop_
_space_group_symop_operation_xyz
x,y,z
-x,-y,z
-x,y,z
x,-y,z
x,1/2+y,1/2+z
-x,1/2-y,1/2+z
-x,1/2+y,1/2+z
x,1/2-y,1/2+z
loop_
_atom_site_type_symbol
_atom_site_label
_atom_site_fract_x
_atom_site_fract_y
_atom_site_fract_z
Si Si1 0.103764 0.679514 0.856140
Si Si2 0.783584 0.823574 0.950770
Si Si3 0.100346 0.171924 0.175239
Si Si4 0.400352 0.178773 0.482420
Si Si5 0.785053 0.822591 0.760065
Si Si6 0.188518 0.170416 0.070333
Si Si7 0.401550 0.179853 0.716054
Si Si8 0.361773 0.675846 0.099544
O O1 0.102586 0.500000 0.857515
O O2 0.153174 0.738184 0.909102
O O3 0.161945 0.731338 0.805271
O O4 0.000000 0.741480 0.853084
O O5 0.679619 0.763494 0.950050
O O6 0.780616 0.000000 0.935485
O O7 0.832301 0.792018 0.008189
O O8 0.168358 0.290031 0.202768
O O9 0.102244 0.182956 0.109828
O O10 0.000000 0.213293 0.194648
O O11 0.125318 0.000000 0.193213
O O12 0.500000 0.211453 0.456533
O O13 0.405571 0.240077 0.544262
O O14 0.377914 0.000000 0.481308
O O15 0.680436 0.763629 0.754530
O O16 0.789432 0.000000 0.773889
O O17 0.255775 0.292890 0.095492
O O18 0.230566 0.000000 0.072791
O O19 0.500000 0.223796 0.741076
O O20 0.397682 0.250261 0.655294
O O21 0.389982 0.000000 0.710875
O O22 0.383898 0.500000 0.102224
#
# Coordination Sequence:
#
# PCOD8179194 Si02
#       8
#     8   8   8   8   8   8   8   8
#     4  11  25  45  66  84 105 142 190 240 296 355
#     4  10  21  37  59  87 116 148 189 241 294 340
#     4  10  20  34  53  78 112 153 187 220 276 346
#     4   9  17  30  52  83 119 160 200 234 275 332
#     4  11  22  37  59  86 113 144 186 238 286 332
#     4   9  18  32  51  78 115 152 184 223 278 336
#     4   9  17  30  51  81 115 149 185 225 273 327
#     4   9  15  27  49  77 111 152 195 231 268 319
#
# _framework density 19.818985999999999
#
# number of rings (size 3 to 8) (size 9 to 14) (size 15 to 20)
#    0.000    2.250    1.250    1.875    0.000    5.500 
#    0.000    1.875    0.000    6.375    0.000    0.000 
#    0.000    0.000    0.000    0.000    0.000    0.000 
#
# Total GULP energy -396469.735135 kJ/mol
# GULP energy per Si atom -12389.679223 kJ/mol
# Density = 1.977388 g / cm^3
# Si number density = 19.818986 Si / 1000 Ang^3
#
#
#
# Elastic Constant Matrix: (Units=GPa)
#
#
# Indices 1 2 3 4 5 6 
#
# 1 151.6368 34.7737 66.3688 0.0000 0.0000 0.0000
# 2 34.7737 42.5677 25.8116 0.0000 0.0000 0.0000
# 3 66.3688 25.8116 103.7574 0.0000 0.0000 0.0000
# 4 0.0000 0.0000 0.0000 27.0291 0.0000 0.0000
# 5 0.0000 0.0000 0.0000 0.0000 20.3556 0.0000
# 6 0.0000 0.0000 0.0000 0.0000 0.0000 23.5099
#
#
#
# Elastic Compliance Matrix: (Units=1/GPa)
#
#
# Indices 1 2 3 4 5 6 
#
# 1 0.010004 -0.005055 -0.005142 0.000000 0.000000 0.000000
# 2 -0.005055 0.030219 -0.004284 0.000000 0.000000 0.000000
# 3 -0.005142 -0.004284 0.013993 0.000000 0.000000 0.000000
# 4 0.000000 0.000000 0.000000 0.036997 0.000000 0.000000
# 5 0.000000 0.000000 0.000000 0.000000 0.049126 0.000000
# 6 0.000000 0.000000 0.000000 0.000000 0.000000 0.042535
#
#
# Mechanical properties :
#
#
# Convention : Reuss Voigt Hill
#
# Bulk Modulus (GPa) = 39.59718 61.31888 50.45803
# Shear Modulus (GPa) = 22.70099 25.57946 24.14022
#
# Velocity S-wave (km/s) = 3.38807 3.59647 3.49382
# Velocity P-wave (km/s) = 5.94375 6.94642 6.46455
#
# Compressibility (1/GPa) = 0.02525433
#
# Stress axis : x y z
#
# Youngs Moduli (GPa) = 99.95615 33.09174 71.46592
#
# Poissons Ratio (x) = 0.16727 0.36747
# Poissons Ratio (y) = 0.50525 0.30618
# Poissons Ratio (z) = 0.51396 0.14177
#
# Static dielectric constant tensor:
#      x y z
#    x 3.776910 0.000000 0.000000 
#    y 0.000000 3.429950 0.000000 
#    z 0.000000 0.000000 3.581840 
# 
# 
# High freq. dielectric constant tensor:
#      x y z
#    x 1.775010 0.000000 0.000000 
#    y 0.000000 1.750790 0.000000 
#    z 0.000000 0.000000 1.761290 
# 
# From -- ./inp_files/22954.got.cif
#   From: 2010.03.12/outbox.cif.g09.slc.cpg/sg38_12_cif.got.tgz:22954.got - 2010.04.14 02:38:36.
