data_PCOD8179789
_publ_section_title
;
Structure prediction by ZEFSAII (Michael W. Deem and Ramdas Pophale) SiO2 
 PCOD8179789
Probable space group: A M M 2
;
_chemical_formula_sum "Si O2"
_cell_formula_units_Z 40
_cell_length_a 9.067804
_cell_length_b 22.763435
_cell_length_c 10.088738
_cell_angle_alpha 90.000000
_cell_angle_beta 90.000000
_cell_angle_gamma 90.000000
_cell_volume 2082.460468
_symmetry_space_group_name_H-M "A M M 2"
_symmetry_group_IT_number 38
_symmetry_cell_setting 'orthorhombic'
loop_
_space_group_symop_operation_xyz
x,y,z
-x,-y,z
-x,y,z
x,-y,z
x,1/2+y,1/2+z
-x,1/2-y,1/2+z
-x,1/2+y,1/2+z
x,1/2-y,1/2+z
loop_
_atom_site_type_symbol
_atom_site_label
_atom_site_fract_x
_atom_site_fract_y
_atom_site_fract_z
Si Si1 0.325194 0.000000 0.423710
Si Si2 0.827260 0.308921 0.037368
Si Si3 0.325560 0.500000 0.223918
Si Si4 0.829613 0.824854 0.064339
Si Si5 0.324971 0.122999 0.308819
Si Si6 0.170258 0.885212 0.789194
O O1 0.263446 0.000000 0.573622
O O2 0.267151 0.058092 0.349036
O O3 0.500000 0.000000 0.427840
O O4 0.782379 0.242865 0.074791
O O5 0.780415 0.349315 0.159995
O O6 0.000000 0.312827 0.004650
O O7 0.738760 0.328578 0.908281
O O8 0.500000 0.500000 0.227579
O O9 0.267502 0.443335 0.301283
O O10 0.731064 0.863835 0.161706
O O11 0.000000 0.833245 0.103818
O O12 0.798136 0.845125 0.915495
O O13 0.500000 0.126187 0.313007
O O14 0.000000 0.903465 0.780095
#
# Coordination Sequence:
#
# PCOD8179789 Si02
#       6
#     4   8   4   8   8   8
#     4   9  20  38  57  80 114 152 187 233 288 339
#     4  10  20  38  63  86 114 154 194 234 284 340
#     4  11  21  38  61  82 114 154 191 237 292 343
#     4  10  22  40  59  85 121 155 189 234 290 343
#     4  11  22  38  60  87 119 152 192 238 285 342
#     4  10  21  37  60  88 116 149 194 240 279 337
#
# _framework density 19.208048999999999
#
# number of rings (size 3 to 8) (size 9 to 14) (size 15 to 20)
#    0.000    1.800    2.000    2.100    0.000    5.600 
#    0.000    6.000    0.000    0.000    0.000    0.000 
#    0.000    0.000    0.000    0.000    0.000    0.000 
#
# Total GULP energy -248113.000337 kJ/mol
# GULP energy per Si atom -12405.650017 kJ/mol
# Density = 1.916433 g / cm^3
# Si number density = 19.208049 Si / 1000 Ang^3
#
#
#
# Elastic Constant Matrix: (Units=GPa)
#
#
# Indices 1 2 3 4 5 6 
#
# 1 55.5011 37.6029 28.6211 0.0000 0.0000 0.0000
# 2 37.6029 118.6928 19.5733 0.0000 0.0000 0.0000
# 3 28.6211 19.5733 75.3529 0.0000 0.0000 0.0000
# 4 0.0000 0.0000 0.0000 26.5142 0.0000 0.0000
# 5 0.0000 0.0000 0.0000 0.0000 33.1186 0.0000
# 6 0.0000 0.0000 0.0000 0.0000 0.0000 22.3308
#
#
#
# Elastic Compliance Matrix: (Units=1/GPa)
#
#
# Indices 1 2 3 4 5 6 
#
# 1 0.027308 -0.007252 -0.008489 0.000000 0.000000 0.000000
# 2 -0.007252 0.010728 -0.000032 0.000000 0.000000 0.000000
# 3 -0.008489 -0.000032 0.016504 0.000000 0.000000 0.000000
# 4 0.000000 0.000000 0.000000 0.037716 0.000000 0.000000
# 5 0.000000 0.000000 0.000000 0.000000 0.030195 0.000000
# 6 0.000000 0.000000 0.000000 0.000000 0.000000 0.044781
#
#
# Mechanical properties :
#
#
# Convention : Reuss Voigt Hill
#
# Bulk Modulus (GPa) = 43.48898 46.79347 45.14122
# Shear Modulus (GPa) = 24.21998 27.30936 25.76467
#
# Velocity S-wave (km/s) = 3.55481 3.77472 3.66641
# Velocity P-wave (km/s) = 6.28801 6.58880 6.44016
#
# Compressibility (1/GPa) = 0.02299433
#
# Stress axis : x y z
#
# Youngs Moduli (GPa) = 36.61887 93.21568 60.59305
#
# Poissons Ratio (x) = 0.67597 0.51436
# Poissons Ratio (y) = 0.26555 0.00195
# Poissons Ratio (z) = 0.31085 0.00300
#
# Static dielectric constant tensor:
#      x y z
#    x 3.351720 0.000000 0.000000 
#    y 0.000000 3.648380 0.000000 
#    z 0.000000 0.000000 3.488910 
# 
# 
# High freq. dielectric constant tensor:
#      x y z
#    x 1.732550 0.000000 0.000000 
#    y 0.000000 1.760270 0.000000 
#    z 0.000000 0.000000 1.752210 
# 
# From -- ./inp_files/3493.got.cif
#   From: 2010.03.12/outbox.cif.g09.slc.cpg/sg38_2_cif.got.tgz:3493.got - 2010.04.14 02:38:36.
