data_PCOD8179179
_publ_section_title
;
Structure prediction by ZEFSAII (Michael W. Deem and Ramdas Pophale) SiO2 
 PCOD8179179
Probable space group: A M M 2
;
_chemical_formula_sum "Si O2"
_cell_formula_units_Z 64
_cell_length_a 14.385014
_cell_length_b 13.341706
_cell_length_c 18.836658
_cell_angle_alpha 90.000000
_cell_angle_beta 90.000000
_cell_angle_gamma 90.000000
_cell_volume 3615.143225
_symmetry_space_group_name_H-M "A M M 2"
_symmetry_group_IT_number 38
_symmetry_cell_setting 'orthorhombic'
loop_
_space_group_symop_operation_xyz
x,y,z
-x,-y,z
-x,y,z
x,-y,z
x,1/2+y,1/2+z
-x,1/2-y,1/2+z
-x,1/2+y,1/2+z
x,1/2-y,1/2+z
loop_
_atom_site_type_symbol
_atom_site_label
_atom_site_fract_x
_atom_site_fract_y
_atom_site_fract_z
Si Si1 0.109082 0.891756 0.171080
Si Si2 0.102155 0.618812 0.520760
Si Si3 0.707643 0.308166 0.871369
Si Si4 0.285233 0.113207 0.947682
Si Si5 0.390697 0.309750 0.579458
Si Si6 0.393154 0.389127 0.003885
Si Si7 0.392658 0.381686 0.732360
Si Si8 0.894867 0.620179 0.824756
O O1 0.135441 0.833997 0.097477
O O2 0.130145 0.836519 0.245575
O O3 0.000000 0.910621 0.167403
O O4 0.160386 0.000000 0.173510
O O5 0.097342 0.500000 0.532549
O O6 0.177999 0.644476 0.461787
O O7 0.000000 0.659549 0.497600
O O8 0.681755 0.192025 0.888216
O O9 0.663993 0.377899 0.931632
O O10 0.666739 0.333267 0.794861
O O11 0.818580 0.328927 0.875328
O O12 0.294271 0.000000 0.918193
O O13 0.343407 0.120404 0.020294
O O14 0.500000 0.331691 0.575756
O O15 0.366141 0.193330 0.563079
O O16 0.353566 0.337947 0.657789
O O17 0.500000 0.375753 0.981988
O O18 0.374004 0.500000 0.035644
O O19 0.500000 0.351680 0.742866
O O20 0.379244 0.500000 0.732815
O O21 0.886144 0.500000 0.825871
O O22 0.000000 0.651393 0.847502
#
# Coordination Sequence:
#
# PCOD8179179 Si02
#       8
#     8   8   8   8   8   8   8   8
#     4   7  11  21  38  62  89 114 143 182 231 283
#     4   8  14  26  45  67  90 119 157 199 239 280
#     4  11  21  31  47  72 100 132 166 202 242 296
#     4  10  21  34  48  68  97 134 169 202 245 294
#     4   9  19  34  52  76 101 125 160 202 245 293
#     4   9  17  32  53  74  99 131 165 199 235 283
#     4  10  20  34  53  77 101 123 154 201 250 293
#     4   9  17  28  43  68 101 130 155 191 244 299
#
# _framework density 17.703309999999998
#
# number of rings (size 3 to 8) (size 9 to 14) (size 15 to 20)
#    0.000    2.875    0.000    3.375    1.750    2.750 
#    0.000    0.625    0.000    0.750    0.000    0.000 
#    0.000    0.000    0.000    0.000    0.000    0.000 
#
# Total GULP energy -396453.960487 kJ/mol
# GULP energy per Si atom -12389.186265 kJ/mol
# Density = 1.766302 g / cm^3
# Si number density = 17.703310 Si / 1000 Ang^3
#
#
#
# Elastic Constant Matrix: (Units=GPa)
#
#
# Indices 1 2 3 4 5 6 
#
# 1 58.0823 26.7073 34.5754 0.0000 0.0000 0.0000
# 2 26.7073 83.4529 39.9422 0.0000 0.0000 0.0000
# 3 34.5754 39.9422 85.9612 0.0000 0.0000 0.0000
# 4 0.0000 0.0000 0.0000 15.5513 0.0000 0.0000
# 5 0.0000 0.0000 0.0000 0.0000 22.5242 0.0000
# 6 0.0000 0.0000 0.0000 0.0000 0.0000 18.0479
#
#
#
# Elastic Compliance Matrix: (Units=1/GPa)
#
#
# Indices 1 2 3 4 5 6 
#
# 1 0.023568 -0.003865 -0.007684 0.000000 0.000000 0.000000
# 2 -0.003865 0.016044 -0.005900 0.000000 0.000000 0.000000
# 3 -0.007684 -0.005900 0.017465 0.000000 0.000000 0.000000
# 4 0.000000 0.000000 0.000000 0.064303 0.000000 0.000000
# 5 0.000000 0.000000 0.000000 0.000000 0.044397 0.000000
# 6 0.000000 0.000000 0.000000 0.000000 0.000000 0.055408
#
#
# Mechanical properties :
#
#
# Convention : Reuss Voigt Hill
#
# Bulk Modulus (GPa) = 45.08700 47.77181 46.42940
# Shear Modulus (GPa) = 18.97707 19.64278 19.30993
#
# Velocity S-wave (km/s) = 3.27762 3.33461 3.30624
# Velocity P-wave (km/s) = 6.31246 6.47066 6.39205
#
# Compressibility (1/GPa) = 0.02217934
#
# Stress axis : x y z
#
# Youngs Moduli (GPa) = 42.43027 62.33008 57.25647
#
# Poissons Ratio (x) = 0.24090 0.43995
# Poissons Ratio (y) = 0.16399 0.33782
# Poissons Ratio (z) = 0.32602 0.36776
#
# Static dielectric constant tensor:
#      x y z
#    x 3.457010 0.000000 0.000000 
#    y 0.000000 3.005400 0.000000 
#    z 0.000000 0.000000 3.340910 
# 
# 
# High freq. dielectric constant tensor:
#      x y z
#    x 1.695520 0.000000 0.000000 
#    y 0.000000 1.644970 0.000000 
#    z 0.000000 0.000000 1.671270 
# 
# From -- ./inp_files/18542.got.cif
#   From: 2010.03.12/outbox.cif.g09.slc.cpg/sg38_10_cif.got.tgz:18542.got - 2010.04.14 02:38:36.
