data_PCOD8179373
_publ_section_title
;
Structure prediction by ZEFSAII (Michael W. Deem and Ramdas Pophale) SiO2 
 PCOD8179373
Probable space group: A M M 2
;
_chemical_formula_sum "Si O2"
_cell_formula_units_Z 64
_cell_length_a 19.159038
_cell_length_b 9.225563
_cell_length_c 20.735904
_cell_angle_alpha 90.000000
_cell_angle_beta 90.000000
_cell_angle_gamma 90.000000
_cell_volume 3665.131417
_symmetry_space_group_name_H-M "A M M 2"
_symmetry_group_IT_number 38
_symmetry_cell_setting 'orthorhombic'
loop_
_space_group_symop_operation_xyz
x,y,z
-x,-y,z
-x,y,z
x,-y,z
x,1/2+y,1/2+z
-x,1/2-y,1/2+z
-x,1/2+y,1/2+z
x,1/2-y,1/2+z
loop_
_atom_site_type_symbol
_atom_site_label
_atom_site_fract_x
_atom_site_fract_y
_atom_site_fract_z
Si Si1 0.579176 0.169422 0.026450
Si Si2 0.077274 0.833186 0.293795
Si Si3 0.215671 0.671015 0.104196
Si Si4 0.702723 0.827841 0.730192
Si Si5 0.292582 0.171554 0.479044
Si Si6 0.580203 0.333314 0.674545
Si Si7 0.222822 0.668673 0.846001
Si Si8 0.923105 0.669885 0.162625
O O1 0.500000 0.207858 0.006376
O O2 0.592072 0.215348 0.100565
O O3 0.593191 0.000000 0.017511
O O4 0.630675 0.257945 0.979792
O O5 0.139014 0.801198 0.345013
O O6 0.093783 0.742843 0.230309
O O7 0.000000 0.792894 0.322162
O O8 0.078496 0.000000 0.272997
O O9 0.222679 0.500000 0.100252
O O10 0.255288 0.727650 0.167538
O O11 0.134280 0.718258 0.109829
O O12 0.248651 0.736809 0.039294
O O13 0.624417 0.767342 0.722621
O O14 0.738194 0.763376 0.793185
O O15 0.701098 0.000000 0.736465
O O16 0.251268 0.218004 0.415222
O O17 0.301560 0.000000 0.483354
O O18 0.500000 0.312073 0.693987
O O19 0.602668 0.500000 0.683387
O O20 0.238658 0.500000 0.832864
O O21 0.917340 0.500000 0.175909
O O22 0.000000 0.713298 0.136798
#
# Coordination Sequence:
#
# PCOD8179373 Si02
#       8
#     8   8   8   8   8   8   8   8
#     4   9  18  33  53  77 103 130 164 208 254 301
#     4   9  17  30  48  71  98 129 169 212 252 298
#     4   9  17  30  48  74 102 127 162 209 254 294
#     4  11  20  32  53  78 104 132 167 214 256 298
#     4  10  20  35  52  73 104 138 171 208 251 304
#     4   9  18  33  53  78 107 135 166 208 257 308
#     4  10  21  35  51  73 104 140 174 210 255 307
#     4   9  16  28  48  73 100 130 165 207 256 303
#
# _framework density 17.461856000000001
#
# number of rings (size 3 to 8) (size 9 to 14) (size 15 to 20)
#    0.000    2.500    2.500    1.125    0.000    1.000 
#    0.000    3.125    0.000    4.500    0.000    0.000 
#    0.000    5.000    0.000    0.000    0.000    0.000 
#
# Total GULP energy -396693.669971 kJ/mol
# GULP energy per Si atom -12396.677187 kJ/mol
# Density = 1.742211 g / cm^3
# Si number density = 17.461856 Si / 1000 Ang^3
#
#
#
# Elastic Constant Matrix: (Units=GPa)
#
#
# Indices 1 2 3 4 5 6 
#
# 1 147.2616 44.4177 73.8633 0.0000 0.0000 0.0000
# 2 44.4177 43.5139 38.2561 0.0000 0.0000 0.0000
# 3 73.8633 38.2561 108.0105 0.0000 0.0000 0.0000
# 4 0.0000 0.0000 0.0000 22.2024 0.0000 0.0000
# 5 0.0000 0.0000 0.0000 0.0000 29.4646 0.0000
# 6 0.0000 0.0000 0.0000 0.0000 0.0000 24.4332
#
#
#
# Elastic Compliance Matrix: (Units=1/GPa)
#
#
# Indices 1 2 3 4 5 6 
#
# 1 0.011679 -0.007115 -0.005466 0.000000 0.000000 0.000000
# 2 -0.007115 0.037709 -0.008490 0.000000 0.000000 0.000000
# 3 -0.005466 -0.008490 0.016004 0.000000 0.000000 0.000000
# 4 0.000000 0.000000 0.000000 0.045040 0.000000 0.000000
# 5 0.000000 0.000000 0.000000 0.000000 0.033939 0.000000
# 6 0.000000 0.000000 0.000000 0.000000 0.000000 0.040928
#
#
# Mechanical properties :
#
#
# Convention : Reuss Voigt Hill
#
# Bulk Modulus (GPa) = 43.01576 67.98446 55.50011
# Shear Modulus (GPa) = 21.25940 24.70332 22.98136
#
# Velocity S-wave (km/s) = 3.49302 3.76533 3.63173
# Velocity P-wave (km/s) = 6.39968 7.61060 7.03126
#
# Compressibility (1/GPa) = 0.02324729
#
# Stress axis : x y z
#
# Youngs Moduli (GPa) = 85.62716 26.51919 62.48618
#
# Poissons Ratio (x) = 0.18869 0.34156
# Poissons Ratio (y) = 0.60927 0.53051
# Poissons Ratio (z) = 0.46806 0.22515
#
# Static dielectric constant tensor:
#      x y z
#    x 3.554850 0.000000 0.000000 
#    y 0.000000 3.078670 0.000000 
#    z 0.000000 0.000000 3.101300 
# 
# 
# High freq. dielectric constant tensor:
#      x y z
#    x 1.693080 0.000000 0.000000 
#    y 0.000000 1.660840 0.000000 
#    z 0.000000 0.000000 1.643310 
# 
# From -- ./inp_files/18916.got.cif
#   From: 2010.03.12/outbox.cif.g09.slc.cpg/sg38_10_cif.got.tgz:18916.got - 2010.04.14 02:38:36.
