data_PCOD8179466
_publ_section_title
;
Structure prediction by ZEFSAII (Michael W. Deem and Ramdas Pophale) SiO2 
 PCOD8179466
Probable space group: A M M 2
;
_chemical_formula_sum "Si O2"
_cell_formula_units_Z 64
_cell_length_a 8.954281
_cell_length_b 18.191795
_cell_length_c 20.600116
_cell_angle_alpha 90.000000
_cell_angle_beta 90.000000
_cell_angle_gamma 90.000000
_cell_volume 3355.644449
_symmetry_space_group_name_H-M "A M M 2"
_symmetry_group_IT_number 38
_symmetry_cell_setting 'orthorhombic'
loop_
_space_group_symop_operation_xyz
x,y,z
-x,-y,z
-x,y,z
x,-y,z
x,1/2+y,1/2+z
-x,1/2-y,1/2+z
-x,1/2+y,1/2+z
x,1/2-y,1/2+z
loop_
_atom_site_type_symbol
_atom_site_label
_atom_site_fract_x
_atom_site_fract_y
_atom_site_fract_z
Si Si1 0.664726 0.587141 0.998960
Si Si2 0.824365 0.676649 0.253600
Si Si3 0.829130 0.087207 0.136745
Si Si4 0.325925 0.585495 0.143610
Si Si5 0.170488 0.086924 0.372654
Si Si6 0.331717 0.087447 0.007897
Si Si7 0.323448 0.333987 0.755636
Si Si8 0.174523 0.415772 0.378726
O O1 0.500000 0.618554 0.982143
O O2 0.655802 0.500000 0.000311
O O3 0.781576 0.613799 0.944566
O O4 0.713653 0.613196 0.070729
O O5 0.779617 0.631019 0.190583
O O6 0.737313 0.752221 0.254329
O O7 0.776064 0.631227 0.316971
O O8 0.000000 0.691805 0.252329
O O9 0.762066 0.117012 0.069087
O O10 0.736871 0.121057 0.194978
O O11 0.000000 0.113060 0.141527
O O12 0.815447 0.000000 0.141544
O O13 0.500000 0.599936 0.158841
O O14 0.287247 0.500000 0.152340
O O15 0.274852 0.126393 0.321297
O O16 0.000000 0.110678 0.361036
O O17 0.191136 0.000000 0.364939
O O18 0.500000 0.117519 0.013234
O O19 0.327757 0.000000 0.007629
O O20 0.259331 0.116794 0.941357
O O21 0.500000 0.332448 0.751891
O O22 0.220651 0.500000 0.365103
O O23 0.000000 0.409454 0.393092
#
# Coordination Sequence:
#
# PCOD8179466 Si02
#       8
#     8   8   8   8   8   8   8   8
#     4   8  15  30  53  81 111 141 174 215 263 314
#     4  11  23  38  55  77 109 146 185 228 271 319
#     4  10  20  36  59  84 110 140 175 218 267 319
#     4   9  18  34  57  84 113 144 180 223 269 318
#     4  10  20  35  57  84 111 139 175 220 268 319
#     4   9  17  30  52  83 113 139 172 216 264 315
#     4  12  25  39  55  76 107 145 183 224 269 320
#     4   9  18  34  56  81 108 140 178 220 267 317
#
# _framework density 19.072341999999999
#
# number of rings (size 3 to 8) (size 9 to 14) (size 15 to 20)
#    0.000    2.250    0.000    4.125    0.000    6.750 
#    0.000    3.750    0.000    6.000    0.000    0.000 
#    0.000    0.000    0.000    0.000    0.000    0.000 
#
# Total GULP energy -396828.353853 kJ/mol
# GULP energy per Si atom -12400.886058 kJ/mol
# Density = 1.902893 g / cm^3
# Si number density = 19.072342 Si / 1000 Ang^3
#
#
#
# Elastic Constant Matrix: (Units=GPa)
#
#
# Indices 1 2 3 4 5 6 
#
# 1 124.1711 37.8685 70.1399 0.0000 0.0000 0.0000
# 2 37.8685 39.6884 34.8566 0.0000 0.0000 0.0000
# 3 70.1399 34.8566 151.4187 0.0000 0.0000 0.0000
# 4 0.0000 0.0000 0.0000 -6.8058 0.0000 0.0000
# 5 0.0000 0.0000 0.0000 0.0000 37.9463 0.0000
# 6 0.0000 0.0000 0.0000 0.0000 0.0000 24.1518
#
#
#
# Elastic Compliance Matrix: (Units=1/GPa)
#
#
# Indices 1 2 3 4 5 6 
#
# 1 0.013024 -0.008935 -0.003976 0.000000 0.000000 0.000000
# 2 -0.008935 0.037711 -0.004542 0.000000 0.000000 0.000000
# 3 -0.003976 -0.004542 0.009492 0.000000 0.000000 0.000000
# 4 0.000000 0.000000 0.000000 -0.146933 0.000000 0.000000
# 5 0.000000 0.000000 0.000000 0.000000 0.026353 0.000000
# 6 0.000000 0.000000 0.000000 0.000000 0.000000 0.041405
#
#
# Mechanical properties :
#
#
# Convention : Reuss Voigt Hill
#
# Bulk Modulus (GPa) = 39.49457 66.77870 53.13663
# Shear Modulus (GPa) = 204.93055 22.55267 113.74161
#
# Velocity S-wave (km/s) = 10.37701 3.44245 7.73087
# Velocity P-wave (km/s) = 12.81909 7.13372 10.37350
#
# Compressibility (1/GPa) = 0.02531994
#
# Stress axis : x y z
#
# Youngs Moduli (GPa) = 76.77912 26.51767 105.35506
#
# Poissons Ratio (x) = 0.23693 0.41892
# Poissons Ratio (y) = 0.68602 0.47854
# Poissons Ratio (z) = 0.30530 0.12045
#
# Static dielectric constant tensor:
#      x y z
#    x 3.586260 0.000000 0.000000 
#    y 0.000000 3.233120 0.000000 
#    z 0.000000 0.000000 3.775490 
# 
# 
# High freq. dielectric constant tensor:
#      x y z
#    x 1.748710 0.000000 0.000000 
#    y 0.000000 1.707990 0.000000 
#    z 0.000000 0.000000 1.760300 
# 
# From -- ./inp_files/20035.got.cif
#   From: 2010.03.12/outbox.cif.g09.slc.cpg/sg38_11_cif.got.tgz:20035.got - 2010.04.14 02:38:36.
