data_PCOD8179291
_publ_section_title
;
Structure prediction by ZEFSAII (Michael W. Deem and Ramdas Pophale) SiO2 
 PCOD8179291
Probable space group: A M M 2
;
_chemical_formula_sum "Si O2"
_cell_formula_units_Z 64
_cell_length_a 19.091823
_cell_length_b 8.873537
_cell_length_c 20.444280
_cell_angle_alpha 90.000000
_cell_angle_beta 90.000000
_cell_angle_gamma 90.000000
_cell_volume 3463.506318
_symmetry_space_group_name_H-M "A M M 2"
_symmetry_group_IT_number 38
_symmetry_cell_setting 'orthorhombic'
loop_
_space_group_symop_operation_xyz
x,y,z
-x,-y,z
-x,y,z
x,-y,z
x,1/2+y,1/2+z
-x,1/2-y,1/2+z
-x,1/2+y,1/2+z
x,1/2-y,1/2+z
loop_
_atom_site_type_symbol
_atom_site_label
_atom_site_fract_x
_atom_site_fract_y
_atom_site_fract_z
Si Si1 0.216397 0.325261 0.580810
Si Si2 0.922138 0.328369 0.650124
Si Si3 0.786780 0.177191 0.323455
Si Si4 0.289635 0.677396 0.201878
Si Si5 0.420781 0.175204 0.158478
Si Si6 0.577915 0.172402 0.522214
Si Si7 0.280046 0.174853 0.458484
Si Si8 0.079155 0.323609 0.285691
O O1 0.236215 0.500000 0.588956
O O2 0.133669 0.297205 0.592884
O O3 0.261293 0.229544 0.631812
O O4 0.233526 0.271135 0.508182
O O5 0.915381 0.500000 0.675866
O O6 0.906063 0.219153 0.710512
O O7 0.000000 0.297919 0.621702
O O8 0.754951 0.251163 0.259334
O O9 0.740775 0.225896 0.385768
O O10 0.866431 0.236127 0.332406
O O11 0.787296 0.000000 0.313551
O O12 0.285209 0.500000 0.207939
O O13 0.370159 0.732054 0.206730
O O14 0.500000 0.212858 0.179598
O O15 0.407933 0.220121 0.083346
O O16 0.403765 0.000000 0.165791
O O17 0.500000 0.202093 0.492649
O O18 0.636812 0.206768 0.467623
O O19 0.584243 0.000000 0.546818
O O20 0.262330 0.000000 0.469794
O O21 0.091479 0.500000 0.293824
O O22 0.000000 0.277548 0.305637
#
# Coordination Sequence:
#
# PCOD8179291 Si02
#       8
#     8   8   8   8   8   8   8   8
#     4  11  21  34  57  85 113 146 186 232 283 337
#     4   9  18  33  54  81 112 146 184 230 283 336
#     4  11  23  39  57  81 115 154 196 236 283 339
#     4  12  23  36  57  83 114 149 189 235 284 335
#     4  10  20  34  55  85 116 146 186 236 285 335
#     4   9  17  32  55  81 109 144 184 227 280 339
#     4  10  22  38  56  81 114 151 190 234 282 339
#     4  10  20  34  55  83 111 143 187 237 287 340
#
# _framework density 18.478383999999998
#
# number of rings (size 3 to 8) (size 9 to 14) (size 15 to 20)
#    0.000    1.750    2.500    2.625    0.000    3.000 
#    0.000    1.250    0.000    4.500    0.000    0.000 
#    0.000    0.000    0.000    0.000    0.000    0.000 
#
# Total GULP energy -396835.730502 kJ/mol
# GULP energy per Si atom -12401.116578 kJ/mol
# Density = 1.843633 g / cm^3
# Si number density = 18.478384 Si / 1000 Ang^3
#
#
#
# Elastic Constant Matrix: (Units=GPa)
#
#
# Indices 1 2 3 4 5 6 
#
# 1 138.8342 49.0022 43.7226 0.0000 0.0000 0.0000
# 2 49.0022 86.2855 33.9258 0.0000 0.0000 0.0000
# 3 43.7226 33.9258 58.9170 0.0000 0.0000 0.0000
# 4 0.0000 0.0000 0.0000 25.5821 0.0000 0.0000
# 5 0.0000 0.0000 0.0000 0.0000 29.5391 0.0000
# 6 0.0000 0.0000 0.0000 0.0000 0.0000 30.4224
#
#
#
# Elastic Compliance Matrix: (Units=1/GPa)
#
#
# Indices 1 2 3 4 5 6 
#
# 1 0.010216 -0.003647 -0.005482 0.000000 0.000000 0.000000
# 2 -0.003647 0.016283 -0.006670 0.000000 0.000000 0.000000
# 3 -0.005482 -0.006670 0.024882 0.000000 0.000000 0.000000
# 4 0.000000 0.000000 0.000000 0.039090 0.000000 0.000000
# 5 0.000000 0.000000 0.000000 0.000000 0.033853 0.000000
# 6 0.000000 0.000000 0.000000 0.000000 0.000000 0.032871
#
#
# Mechanical properties :
#
#
# Convention : Reuss Voigt Hill
#
# Bulk Modulus (GPa) = 50.54489 59.70422 55.12455
# Shear Modulus (GPa) = 25.59039 27.60112 26.59575
#
# Velocity S-wave (km/s) = 3.72544 3.86903 3.79791
# Velocity P-wave (km/s) = 6.77629 7.23461 7.00920
#
# Compressibility (1/GPa) = 0.01978439
#
# Stress axis : x y z
#
# Youngs Moduli (GPa) = 97.88315 61.41445 40.19012
#
# Poissons Ratio (x) = 0.22395 0.22031
# Poissons Ratio (y) = 0.35694 0.26806
# Poissons Ratio (z) = 0.53657 0.40963
#
# Static dielectric constant tensor:
#      x y z
#    x 3.885640 0.000000 0.000000 
#    y 0.000000 3.457470 0.000000 
#    z 0.000000 0.000000 3.066000 
# 
# 
# High freq. dielectric constant tensor:
#      x y z
#    x 1.739630 0.000000 0.000000 
#    y 0.000000 1.724550 0.000000 
#    z 0.000000 0.000000 1.674260 
# 
# From -- ./inp_files/18893.got.cif
#   From: 2010.03.12/outbox.cif.g09.slc.cpg/sg38_10_cif.got.tgz:18893.got - 2010.04.14 02:38:36.
