data_PCOD8179885
_publ_section_title
;
Structure prediction by ZEFSAII (Michael W. Deem and Ramdas Pophale) SiO2 
 PCOD8179885
Probable space group: A M M 2
;
_chemical_formula_sum "Si O2"
_cell_formula_units_Z 64
_cell_length_a 13.957293
_cell_length_b 9.112909
_cell_length_c 25.935786
_cell_angle_alpha 90.000000
_cell_angle_beta 90.000000
_cell_angle_gamma 90.000000
_cell_volume 3298.812588
_symmetry_space_group_name_H-M "A M M 2"
_symmetry_group_IT_number 38
_symmetry_cell_setting 'orthorhombic'
loop_
_space_group_symop_operation_xyz
x,y,z
-x,-y,z
-x,y,z
x,-y,z
x,1/2+y,1/2+z
-x,1/2-y,1/2+z
-x,1/2+y,1/2+z
x,1/2-y,1/2+z
loop_
_atom_site_type_symbol
_atom_site_label
_atom_site_fract_x
_atom_site_fract_y
_atom_site_fract_z
Si Si1 0.277519 0.171538 0.536160
Si Si2 0.113079 0.162017 0.680170
Si Si3 0.699559 0.826442 0.836264
Si Si4 0.611536 0.329251 0.933374
Si Si5 0.105098 0.326515 0.292728
Si Si6 0.386168 0.666540 0.738771
Si Si7 0.610060 0.671509 0.137893
Si Si8 0.889907 0.672267 0.579557
O O1 0.338730 0.216587 0.486543
O O2 0.336256 0.221372 0.586330
O O3 0.175890 0.256478 0.535070
O O4 0.255709 0.000000 0.536501
O O5 0.139628 0.230770 0.736168
O O6 0.148145 0.267442 0.634545
O O7 0.000000 0.146088 0.678298
O O8 0.159874 0.000000 0.671799
O O9 0.658718 0.766958 0.889206
O O10 0.813097 0.784291 0.833843
O O11 0.644847 0.754493 0.788962
O O12 0.684141 0.000000 0.833452
O O13 0.500000 0.291224 0.937905
O O14 0.627028 0.500000 0.920536
O O15 0.095112 0.500000 0.287271
O O16 0.000000 0.261518 0.308638
O O17 0.500000 0.670441 0.736900
O O18 0.347902 0.500000 0.741635
O O19 0.344907 0.743995 0.687136
O O20 0.500000 0.715454 0.129885
O O21 0.621343 0.500000 0.148578
O O22 0.876519 0.500000 0.579321
O O23 0.000000 0.716837 0.568962
#
# Coordination Sequence:
#
# PCOD8179885 Si02
#       8
#     8   8   8   8   8   8   8   8
#     4  10  21  37  60  84 107 142 190 235 281 337
#     4   8  14  28  51  75 102 142 188 228 267 318
#     4  11  22  35  57  86 113 145 190 236 278 328
#     4  10  22  42  64  84 109 143 185 235 289 342
#     4   8  16  32  53  78 109 145 186 229 272 322
#     4  10  21  36  53  77 113 152 183 219 277 343
#     4   9  18  34  56  82 110 139 177 228 283 340
#     4  10  21  35  51  78 117 153 186 228 278 329
#
# _framework density 19.400921
#
# number of rings (size 3 to 8) (size 9 to 14) (size 15 to 20)
#    0.000    2.500    0.000    2.625    1.750    5.750 
#    0.000    1.250    0.000    6.750    0.000    0.000 
#    0.000    0.000    0.000    0.000    0.000    0.000 
#
# Total GULP energy -396739.904370 kJ/mol
# GULP energy per Si atom -12398.122012 kJ/mol
# Density = 1.935676 g / cm^3
# Si number density = 19.400921 Si / 1000 Ang^3
#
#
#
# Elastic Constant Matrix: (Units=GPa)
#
#
# Indices 1 2 3 4 5 6 
#
# 1 95.9150 49.2562 68.4463 0.0000 0.0000 0.0000
# 2 49.2562 77.4333 64.5016 0.0000 0.0000 0.0000
# 3 68.4463 64.5016 139.6641 0.0000 0.0000 0.0000
# 4 0.0000 0.0000 0.0000 29.9096 0.0000 0.0000
# 5 0.0000 0.0000 0.0000 0.0000 35.6349 0.0000
# 6 0.0000 0.0000 0.0000 0.0000 0.0000 23.6088
#
#
#
# Elastic Compliance Matrix: (Units=1/GPa)
#
#
# Indices 1 2 3 4 5 6 
#
# 1 0.017910 -0.006633 -0.005714 0.000000 0.000000 0.000000
# 2 -0.006633 0.023445 -0.007577 0.000000 0.000000 0.000000
# 3 -0.005714 -0.007577 0.013460 0.000000 0.000000 0.000000
# 4 0.000000 0.000000 0.000000 0.033434 0.000000 0.000000
# 5 0.000000 0.000000 0.000000 0.000000 0.028062 0.000000
# 6 0.000000 0.000000 0.000000 0.000000 0.000000 0.042357
#
#
# Mechanical properties :
#
#
# Convention : Reuss Voigt Hill
#
# Bulk Modulus (GPa) = 66.81466 75.26895 71.04180
# Shear Modulus (GPa) = 24.56942 26.55123 25.56033
#
# Velocity S-wave (km/s) = 3.56252 3.70341 3.63365
# Velocity P-wave (km/s) = 7.17187 7.56094 7.36897
#
# Compressibility (1/GPa) = 0.01496678
#
# Stress axis : x y z
#
# Youngs Moduli (GPa) = 55.83594 42.65226 74.29615
#
# Poissons Ratio (x) = 0.28291 0.42451
# Poissons Ratio (y) = 0.37036 0.56296
# Poissons Ratio (z) = 0.31903 0.32319
#
# Static dielectric constant tensor:
#      x y z
#    x 3.773500 0.000000 0.000000 
#    y 0.000000 3.418760 0.000000 
#    z 0.000000 0.000000 3.584680 
# 
# 
# High freq. dielectric constant tensor:
#      x y z
#    x 1.768800 0.000000 0.000000 
#    y 0.000000 1.737210 0.000000 
#    z 0.000000 0.000000 1.742000 
# 
# From -- ./inp_files/22957.got.cif
#   From: 2010.03.12/outbox.cif.g09.slc.cpg/sg38_12_cif.got.tgz:22957.got - 2010.04.14 02:38:36.
