data_PCOD8179559
_publ_section_title
;
Structure prediction by ZEFSAII (Michael W. Deem and Ramdas Pophale) SiO2 
 PCOD8179559
Probable space group: A M M 2
;
_chemical_formula_sum "Si O2"
_cell_formula_units_Z 40
_cell_length_a 8.847865
_cell_length_b 18.572134
_cell_length_c 13.321944
_cell_angle_alpha 90.000000
_cell_angle_beta 90.000000
_cell_angle_gamma 90.000000
_cell_volume 2189.111587
_symmetry_space_group_name_H-M "A M M 2"
_symmetry_group_IT_number 38
_symmetry_cell_setting 'orthorhombic'
loop_
_space_group_symop_operation_xyz
x,y,z
-x,-y,z
-x,y,z
x,-y,z
x,1/2+y,1/2+z
-x,1/2-y,1/2+z
-x,1/2+y,1/2+z
x,1/2-y,1/2+z
loop_
_atom_site_type_symbol
_atom_site_label
_atom_site_fract_x
_atom_site_fract_y
_atom_site_fract_z
Si Si1 0.174769 0.650072 0.014360
Si Si2 0.827030 0.284741 0.222392
Si Si3 0.175014 0.500000 0.918020
Si Si4 0.322061 0.500000 0.703931
Si Si5 0.824063 0.861052 0.109204
Si Si6 0.676716 0.785548 0.927282
O O1 0.209569 0.660226 0.132054
O O2 0.000000 0.669202 0.992476
O O3 0.215358 0.568917 0.985233
O O4 0.274819 0.703338 0.947423
O O5 0.793791 0.203694 0.186377
O O6 0.717549 0.305487 0.313219
O O7 0.000000 0.292075 0.257857
O O8 0.274228 0.500000 0.819173
O O9 0.000000 0.500000 0.885525
O O10 0.500000 0.500000 0.697520
O O11 0.261681 0.569828 0.648342
O O12 0.000000 0.878766 0.100236
O O13 0.763284 0.840432 0.999725
O O14 0.500000 0.794338 0.945051
#
# Coordination Sequence:
#
# PCOD8179559 Si02
#       6
#     8   8   4   4   8   8
#     4   9  19  35  55  78 105 140 183 225 260 310
#     4   9  18  34  55  77 103 138 181 223 261 309
#     4  10  20  36  57  80 107 142 183 220 260 314
#     4  12  24  36  53  82 115 140 169 216 274 324
#     4  10  21  38  58  78 104 142 185 222 258 312
#     4  11  21  33  53  80 109 139 173 220 274 322
#
# _framework density 18.272252000000002
#
# number of rings (size 3 to 8) (size 9 to 14) (size 15 to 20)
#    0.000    2.000    0.000    5.700    0.000    9.600 
#    0.000    1.000    0.000    2.400    0.000    0.000 
#    0.000    0.000    0.000    0.000    0.000    0.000 
#
# Total GULP energy -248083.081818 kJ/mol
# GULP energy per Si atom -12404.154091 kJ/mol
# Density = 1.823066 g / cm^3
# Si number density = 18.272252 Si / 1000 Ang^3
#
#
#
# Elastic Constant Matrix: (Units=GPa)
#
#
# Indices 1 2 3 4 5 6 
#
# 1 111.2214 57.9672 59.7229 0.0000 0.0000 0.0000
# 2 57.9672 130.5871 65.2030 0.0000 0.0000 0.0000
# 3 59.7229 65.2030 129.8220 0.0000 0.0000 0.0000
# 4 0.0000 0.0000 0.0000 13.7452 0.0000 0.0000
# 5 0.0000 0.0000 0.0000 0.0000 9.7228 0.0000
# 6 0.0000 0.0000 0.0000 0.0000 0.0000 18.0762
#
#
#
# Elastic Compliance Matrix: (Units=1/GPa)
#
#
# Indices 1 2 3 4 5 6 
#
# 1 0.013201 -0.003774 -0.004178 0.000000 0.000000 0.000000
# 2 -0.003774 0.011300 -0.003939 0.000000 0.000000 0.000000
# 3 -0.004178 -0.003939 0.011603 0.000000 0.000000 0.000000
# 4 0.000000 0.000000 0.000000 0.072753 0.000000 0.000000
# 5 0.000000 0.000000 0.000000 0.000000 0.102851 0.000000
# 6 0.000000 0.000000 0.000000 0.000000 0.000000 0.055321
#
#
# Mechanical properties :
#
#
# Convention : Reuss Voigt Hill
#
# Bulk Modulus (GPa) = 81.15098 81.93520 81.54309
# Shear Modulus (GPa) = 16.95383 20.89134 18.92259
#
# Velocity S-wave (km/s) = 3.04936 3.38499 3.22155
# Velocity P-wave (km/s) = 7.54365 7.75991 7.65255
#
# Compressibility (1/GPa) = 0.01232271
#
# Stress axis : x y z
#
# Youngs Moduli (GPa) = 75.74981 88.49651 86.18398
#
# Poissons Ratio (x) = 0.33400 0.36004
# Poissons Ratio (y) = 0.28589 0.33949
# Poissons Ratio (z) = 0.31645 0.34860
#
# Static dielectric constant tensor:
#      x y z
#    x 3.366990 0.000000 0.000000 
#    y 0.000000 3.401140 0.000000 
#    z 0.000000 0.000000 3.418010 
# 
# 
# High freq. dielectric constant tensor:
#      x y z
#    x 1.708140 0.000000 0.000000 
#    y 0.000000 1.699090 0.000000 
#    z 0.000000 0.000000 1.715820 
# 
# From -- ./inp_files/7969.got.cif
#   From: 2010.03.12/outbox.cif.g09.slc.cpg/sg38_4_cif.got.tgz:7969.got - 2010.04.14 02:38:36.
