data_PCOD8179212
_publ_section_title
;
Structure prediction by ZEFSAII (Michael W. Deem and Ramdas Pophale) SiO2 
 PCOD8179212
Probable space group: A M M 2
;
_chemical_formula_sum "Si O2"
_cell_formula_units_Z 40
_cell_length_a 9.592689
_cell_length_b 7.717753
_cell_length_c 29.412515
_cell_angle_alpha 90.000000
_cell_angle_beta 90.000000
_cell_angle_gamma 90.000000
_cell_volume 2177.526262
_symmetry_space_group_name_H-M "A M M 2"
_symmetry_group_IT_number 38
_symmetry_cell_setting 'orthorhombic'
loop_
_space_group_symop_operation_xyz
x,y,z
-x,-y,z
-x,y,z
x,-y,z
x,1/2+y,1/2+z
-x,1/2-y,1/2+z
-x,1/2+y,1/2+z
x,1/2-y,1/2+z
loop_
_atom_site_type_symbol
_atom_site_label
_atom_site_fract_x
_atom_site_fract_y
_atom_site_fract_z
Si Si1 0.166034 0.000000 0.897550
Si Si2 0.343118 0.205859 0.643191
Si Si3 0.666473 0.000000 0.804984
Si Si4 0.845368 0.705342 0.062433
Si Si5 0.165570 0.307680 0.962347
Si Si6 0.664598 0.307308 0.740900
O O1 0.251247 0.000000 0.851579
O O2 0.215196 0.170024 0.925053
O O3 0.000000 0.000000 0.888640
O O4 0.500000 0.277128 0.637536
O O5 0.253573 0.283165 0.601543
O O6 0.275041 0.270731 0.690565
O O7 0.342506 0.000000 0.643231
O O8 0.718893 0.831084 0.777475
O O9 0.500000 0.000000 0.813399
O O10 0.853813 0.500000 0.066971
O O11 0.000000 0.785311 0.068525
O O12 0.782867 0.751542 0.012564
O O13 0.223697 0.500000 0.949809
O O14 0.000000 0.315166 0.964550
O O15 0.500000 0.285540 0.737255
O O16 0.708437 0.500000 0.756992
#
# Coordination Sequence:
#
# PCOD8179212 Si02
#       6
#     4   8   4   8   8   8
#     4  10  20  34  54  76  94 124 166 204 245 290
#     4   9  15  26  46  70  95 125 160 196 232 276
#     4  10  20  36  54  72  96 126 162 206 247 288
#     4   8  14  26  45  68  95 129 161 190 231 281
#     4   8  15  30  50  70  96 129 163 195 232 288
#     4   9  17  31  51  71  94 128 165 195 234 293
#
# _framework density 18.369468999999999
#
# number of rings (size 3 to 8) (size 9 to 14) (size 15 to 20)
#    0.000    3.200    1.000    1.200    0.000    0.800 
#    1.800    2.000    0.000    2.400    0.000    0.000 
#    0.000    0.000    0.000    0.000    0.000    0.000 
#
# Total GULP energy -247867.615386 kJ/mol
# GULP energy per Si atom -12393.380769 kJ/mol
# Density = 1.832766 g / cm^3
# Si number density = 18.369469 Si / 1000 Ang^3
#
#
#
# Elastic Constant Matrix: (Units=GPa)
#
#
# Indices 1 2 3 4 5 6 
#
# 1 43.9251 24.9364 52.4054 0.0000 0.0000 0.0000
# 2 24.9364 105.7685 78.6687 0.0000 0.0000 0.0000
# 3 52.4054 78.6687 186.3370 0.0000 0.0000 0.0000
# 4 0.0000 0.0000 0.0000 8.0997 0.0000 0.0000
# 5 0.0000 0.0000 0.0000 0.0000 34.6408 0.0000
# 6 0.0000 0.0000 0.0000 0.0000 0.0000 7.7675
#
#
#
# Elastic Compliance Matrix: (Units=1/GPa)
#
#
# Indices 1 2 3 4 5 6 
#
# 1 0.034391 -0.001333 -0.009109 0.000000 0.000000 0.000000
# 2 -0.001333 0.013834 -0.005466 0.000000 0.000000 0.000000
# 3 -0.009109 -0.005466 0.010236 0.000000 0.000000 0.000000
# 4 0.000000 0.000000 0.000000 0.123461 0.000000 0.000000
# 5 0.000000 0.000000 0.000000 0.000000 0.028868 0.000000
# 6 0.000000 0.000000 0.000000 0.000000 0.000000 0.128742
#
#
# Mechanical properties :
#
#
# Convention : Reuss Voigt Hill
#
# Bulk Modulus (GPa) = 37.53010 72.00571 54.76791
# Shear Modulus (GPa) = 13.14998 22.10294 17.62646
#
# Velocity S-wave (km/s) = 2.67846 3.47254 3.10102
# Velocity P-wave (km/s) = 5.48093 7.44055 6.53461
#
# Compressibility (1/GPa) = 0.02664528
#
# Stress axis : x y z
#
# Youngs Moduli (GPa) = 29.07761 72.28491 97.69336
#
# Poissons Ratio (x) = 0.09633 0.88993
# Poissons Ratio (y) = 0.03875 0.53397
# Poissons Ratio (z) = 0.26488 0.39509
#
# Static dielectric constant tensor:
#      x y z
#    x 3.173640 0.000000 0.000000 
#    y 0.000000 3.550130 0.000000 
#    z 0.000000 0.000000 3.521120 
# 
# 
# High freq. dielectric constant tensor:
#      x y z
#    x 1.657360 0.000000 0.000000 
#    y 0.000000 1.711270 0.000000 
#    z 0.000000 0.000000 1.716560 
# 
# From -- ./inp_files/20493.got.cif
#   From: 2010.03.12/outbox.cif.g09.slc.cpg/sg38_11_cif.got.tgz:20493.got - 2010.04.14 02:38:36.
