data_PCOD8179363
_publ_section_title
;
Structure prediction by ZEFSAII (Michael W. Deem and Ramdas Pophale) SiO2 
 PCOD8179363
Probable space group: A M M 2
;
_chemical_formula_sum "Si O2"
_cell_formula_units_Z 48
_cell_length_a 9.230245
_cell_length_b 7.872676
_cell_length_c 33.642345
_cell_angle_alpha 90.000000
_cell_angle_beta 90.000000
_cell_angle_gamma 90.000000
_cell_volume 2444.679143
_symmetry_space_group_name_H-M "A M M 2"
_symmetry_group_IT_number 38
_symmetry_cell_setting 'orthorhombic'
loop_
_space_group_symop_operation_xyz
x,y,z
-x,-y,z
-x,y,z
x,-y,z
x,1/2+y,1/2+z
-x,1/2-y,1/2+z
-x,1/2+y,1/2+z
x,1/2-y,1/2+z
loop_
_atom_site_type_symbol
_atom_site_label
_atom_site_fract_x
_atom_site_fract_y
_atom_site_fract_z
Si Si1 0.170482 0.500000 0.468341
Si Si2 0.836806 0.306382 0.169745
Si Si3 0.336057 0.801727 0.243222
Si Si4 0.663673 0.307174 0.596477
Si Si5 0.327825 0.311928 0.832454
Si Si6 0.834222 0.310553 0.023388
Si Si7 0.672893 0.500000 0.385131
O O1 0.218067 0.330583 0.492019
O O2 0.259795 0.500000 0.428277
O O3 0.000000 0.500000 0.459103
O O4 0.837173 0.500000 0.155468
O O5 0.768610 0.296251 0.213434
O O6 0.743110 0.199722 0.138693
O O7 0.000000 0.233509 0.170948
O O8 0.500000 0.732613 0.238442
O O9 0.277344 0.767164 0.287757
O O10 0.331916 0.000000 0.233339
O O11 0.500000 0.240521 0.601889
O O12 0.665946 0.500000 0.581317
O O13 0.741999 0.193960 0.563549
O O14 0.500000 0.316146 0.832641
O O15 0.269489 0.500000 0.844993
O O16 0.269704 0.168117 0.862369
O O17 0.816812 0.500000 0.004822
O O18 0.000000 0.273385 0.035267
O O19 0.500000 0.500000 0.388244
#
# Coordination Sequence:
#
# PCOD8179363 Si02
#       7
#     4   8   8   8   8   8   4
#     4  10  22  40  58  84 120 152 184 234 290 338
#     4  11  24  37  50  76 113 151 191 233 279 336
#     4   9  18  34  56  80 106 140 187 238 286 334
#     4  11  23  38  58  84 113 145 187 236 286 338
#     4   8  16  32  54  82 113 144 184 235 285 336
#     4  10  21  39  63  86 111 150 193 230 280 344
#     4  10  20  34  58  86 112 148 192 232 282 344
#
# _framework density 19.634478999999999
#
# number of rings (size 3 to 8) (size 9 to 14) (size 15 to 20)
#    0.000    2.167    0.833    3.000    1.167    8.333 
#    0.000    0.833    0.000    1.000    0.000    0.000 
#    0.000    0.000    0.000    0.000    0.000    0.000 
#
# Total GULP energy -297617.681636 kJ/mol
# GULP energy per Si atom -12400.736735 kJ/mol
# Density = 1.958979 g / cm^3
# Si number density = 19.634479 Si / 1000 Ang^3
#
#
#
# Elastic Constant Matrix: (Units=GPa)
#
#
# Indices 1 2 3 4 5 6 
#
# 1 89.4774 34.4895 53.8638 0.0000 0.0000 0.0000
# 2 34.4895 112.9847 61.4857 0.0000 0.0000 0.0000
# 3 53.8638 61.4857 134.5145 0.0000 0.0000 0.0000
# 4 0.0000 0.0000 0.0000 27.8295 0.0000 0.0000
# 5 0.0000 0.0000 0.0000 0.0000 -3.6493 0.0000
# 6 0.0000 0.0000 0.0000 0.0000 0.0000 18.0361
#
#
#
# Elastic Compliance Matrix: (Units=1/GPa)
#
#
# Indices 1 2 3 4 5 6 
#
# 1 0.014979 -0.001742 -0.005202 0.000000 0.000000 0.000000
# 2 -0.001742 0.011984 -0.004780 0.000000 0.000000 0.000000
# 3 -0.005202 -0.004780 0.011702 0.000000 0.000000 0.000000
# 4 0.000000 0.000000 0.000000 0.035933 0.000000 0.000000
# 5 0.000000 0.000000 0.000000 0.000000 -0.274023 0.000000
# 6 0.000000 0.000000 0.000000 0.000000 0.000000 0.055444
#
#
# Mechanical properties :
#
#
# Convention : Reuss Voigt Hill
#
# Bulk Modulus (GPa) = 65.71521 70.73940 68.22731
# Shear Modulus (GPa) = -43.30482 20.91910 -11.19286
#
# Velocity S-wave (km/s) = -4.70142 3.26763 -2.39019
# Velocity P-wave (km/s) = 2.01762 7.09527 5.21602
#
# Compressibility (1/GPa) = 0.01521718
#
# Stress axis : x y z
#
# Youngs Moduli (GPa) = 66.76128 83.44583 85.45378
#
# Poissons Ratio (x) = 0.14532 0.44452
# Poissons Ratio (y) = 0.11627 0.40850
# Poissons Ratio (z) = 0.34729 0.39890
#
# Static dielectric constant tensor:
#      x y z
#    x 3.410120 0.000000 0.000000 
#    y 0.000000 3.787140 0.000000 
#    z 0.000000 0.000000 3.425570 
# 
# 
# High freq. dielectric constant tensor:
#      x y z
#    x 1.742740 0.000000 0.000000 
#    y 0.000000 1.775520 0.000000 
#    z 0.000000 0.000000 1.757330 
# 
# From -- ./inp_files/24326.got.cif
#   From: 2010.03.12/outbox.cif.g09.slc.cpg/sg38_13_cif.got.tgz:24326.got - 2010.04.14 02:38:36.
