data_PCOD8179748
_publ_section_title
;
Structure prediction by ZEFSAII (Michael W. Deem and Ramdas Pophale) SiO2 
 PCOD8179748
Probable space group: A M M 2
;
_chemical_formula_sum "Si O2"
_cell_formula_units_Z 40
_cell_length_a 14.964896
_cell_length_b 8.647466
_cell_length_c 14.794329
_cell_angle_alpha 90.000000
_cell_angle_beta 90.000000
_cell_angle_gamma 90.000000
_cell_volume 1914.510879
_symmetry_space_group_name_H-M "A M M 2"
_symmetry_group_IT_number 38
_symmetry_cell_setting 'orthorhombic'
loop_
_space_group_symop_operation_xyz
x,y,z
-x,-y,z
-x,y,z
x,-y,z
x,1/2+y,1/2+z
-x,1/2-y,1/2+z
-x,1/2+y,1/2+z
x,1/2-y,1/2+z
loop_
_atom_site_type_symbol
_atom_site_label
_atom_site_fract_x
_atom_site_fract_y
_atom_site_fract_z
Si Si1 0.405970 0.826702 0.710800
Si Si2 0.104712 0.821528 0.356568
Si Si3 0.597224 0.173149 0.496328
Si Si4 0.786234 0.684310 0.201619
Si Si5 0.223542 0.820980 0.006968
O O1 0.500000 0.742393 0.742178
O O2 0.404181 0.830596 0.603470
O O3 0.310841 0.752229 0.739732
O O4 0.409272 0.000000 0.748877
O O5 0.137127 0.768422 0.257790
O O6 0.149596 0.717075 0.432841
O O7 0.000000 0.792378 0.361253
O O8 0.129215 0.000000 0.372376
O O9 0.500000 0.234607 0.461034
O O10 0.678713 0.281674 0.464449
O O11 0.613607 0.000000 0.459031
O O12 0.792453 0.500000 0.212982
O O13 0.798353 0.723272 0.096381
O O14 0.219862 0.000000 0.032005
#
# Coordination Sequence:
#
# PCOD8179748 Si02
#       5
#     8   8   8   8   8
#     4   7  11  23  47  79 112 146 182 218 262 321
#     4  11  25  44  63  83 110 147 195 250 302 352
#     4   8  14  28  52  81 115 155 195 234 278 331
#     4  10  20  37  62  89 118 153 191 234 287 345
#     4  11  22  37  60  89 121 156 194 237 287 347
#
# _framework density 20.893063999999999
#
# number of rings (size 3 to 8) (size 9 to 14) (size 15 to 20)
#    0.000    2.600    0.000    5.400    0.000    2.800 
#    0.000    1.000    0.000    5.400    0.000    0.000 
#    0.000    0.000    0.000    0.000    0.000    0.000 
#
# Total GULP energy -247764.033111 kJ/mol
# GULP energy per Si atom -12388.201656 kJ/mol
# Density = 2.084551 g / cm^3
# Si number density = 20.893064 Si / 1000 Ang^3
#
#
#
# Elastic Constant Matrix: (Units=GPa)
#
#
# Indices 1 2 3 4 5 6 
#
# 1 137.8916 49.6887 38.4127 0.0000 0.0000 0.0000
# 2 49.6887 67.7952 8.1376 0.0000 0.0000 0.0000
# 3 38.4127 8.1376 56.6493 0.0000 0.0000 0.0000
# 4 0.0000 0.0000 0.0000 25.7409 0.0000 0.0000
# 5 0.0000 0.0000 0.0000 0.0000 92.0421 0.0000
# 6 0.0000 0.0000 0.0000 0.0000 0.0000 29.0873
#
#
#
# Elastic Compliance Matrix: (Units=1/GPa)
#
#
# Indices 1 2 3 4 5 6 
#
# 1 0.012112 -0.008030 -0.007060 0.000000 0.000000 0.000000
# 2 -0.008030 0.020333 0.002524 0.000000 0.000000 0.000000
# 3 -0.007060 0.002524 0.022077 0.000000 0.000000 0.000000
# 4 0.000000 0.000000 0.000000 0.038849 0.000000 0.000000
# 5 0.000000 0.000000 0.000000 0.000000 0.010865 0.000000
# 6 0.000000 0.000000 0.000000 0.000000 0.000000 0.034379
#
#
# Mechanical properties :
#
#
# Convention : Reuss Voigt Hill
#
# Bulk Modulus (GPa) = 34.02395 50.53489 42.27942
# Shear Modulus (GPa) = 28.81150 40.44721 34.62936
#
# Velocity S-wave (km/s) = 3.71752 4.40468 4.07560
# Velocity P-wave (km/s) = 5.89464 7.07871 6.51363
#
# Compressibility (1/GPa) = 0.02939106
#
# Stress axis : x y z
#
# Youngs Moduli (GPa) = 82.56117 49.18190 45.29643
#
# Poissons Ratio (x) = 0.39493 0.31977
# Poissons Ratio (y) = 0.66296 -0.11434
# Poissons Ratio (z) = 0.58285 -0.12414
#
# Static dielectric constant tensor:
#      x y z
#    x 4.419170 0.000000 0.000000 
#    y 0.000000 3.547480 0.000000 
#    z 0.000000 0.000000 3.371470 
# 
# 
# High freq. dielectric constant tensor:
#      x y z
#    x 1.835490 0.000000 0.000000 
#    y 0.000000 1.793760 0.000000 
#    z 0.000000 0.000000 1.793750 
# 
# From -- ./inp_files/14271.got.cif
#   From: 2010.03.12/outbox.cif.g09.slc.cpg/sg38_8_cif.got.tgz:14271.got - 2010.04.14 02:38:36.
