data_PCOD8179633
_publ_section_title
;
Structure prediction by ZEFSAII (Michael W. Deem and Ramdas Pophale) SiO2 
 PCOD8179633
Probable space group: A M M 2
;
_chemical_formula_sum "Si O2"
_cell_formula_units_Z 40
_cell_length_a 8.959769
_cell_length_b 7.634817
_cell_length_c 29.351110
_cell_angle_alpha 90.000000
_cell_angle_beta 90.000000
_cell_angle_gamma 90.000000
_cell_volume 2007.797803
_symmetry_space_group_name_H-M "A M M 2"
_symmetry_group_IT_number 38
_symmetry_cell_setting 'orthorhombic'
loop_
_space_group_symop_operation_xyz
x,y,z
-x,-y,z
-x,y,z
x,-y,z
x,1/2+y,1/2+z
-x,1/2-y,1/2+z
-x,1/2+y,1/2+z
x,1/2-y,1/2+z
loop_
_atom_site_type_symbol
_atom_site_label
_atom_site_fract_x
_atom_site_fract_y
_atom_site_fract_z
Si Si1 0.834176 0.293848 0.760970
Si Si2 0.822282 0.000000 0.927496
Si Si3 0.677534 0.000000 0.024985
Si Si4 0.662496 0.700424 0.172753
Si Si5 0.174336 0.293917 0.083941
Si Si6 0.177280 0.693763 0.861341
O O1 0.842042 0.500000 0.755138
O O2 0.727538 0.215890 0.723017
O O3 0.767858 0.246635 0.810945
O O4 0.000000 0.213275 0.754792
O O5 0.769897 0.170308 0.899344
O O6 0.000000 0.000000 0.936707
O O7 0.729752 0.000000 0.973219
O O8 0.739470 0.821647 0.047003
O O9 0.500000 0.000000 0.028316
O O10 0.500000 0.794829 0.170434
O O11 0.638943 0.500000 0.161218
O O12 0.772465 0.774033 0.133777
O O13 0.207309 0.500000 0.075262
O O14 0.000000 0.254216 0.079951
O O15 0.239827 0.500000 0.873683
O O16 0.000000 0.686194 0.858798
#
# Coordination Sequence:
#
# PCOD8179633 Si02
#       6
#     8   4   4   8   8   8
#     4   9  18  32  52  80 112 149 193 239 285 337
#     4  10  20  36  60  86 110 148 200 250 299 348
#     4  12  26  42  62  90 124 160 194 242 309 376
#     4  10  21  35  52  80 117 155 191 232 290 354
#     4  10  22  42  66  89 115 152 202 255 298 347
#     4   8  16  32  54  82 113 144 189 247 295 336
#
# _framework density 19.922322999999999
#
# number of rings (size 3 to 8) (size 9 to 14) (size 15 to 20)
#    0.000    2.400    0.000    3.300    2.800    3.600 
#    0.000    3.000    0.000    1.200    0.000    0.000 
#    0.000    0.000    0.000    0.000    0.000    0.000 
#
# Total GULP energy -247905.790360 kJ/mol
# GULP energy per Si atom -12395.289518 kJ/mol
# Density = 1.987698 g / cm^3
# Si number density = 19.922323 Si / 1000 Ang^3
#
#
#
# Elastic Constant Matrix: (Units=GPa)
#
#
# Indices 1 2 3 4 5 6 
#
# 1 120.3750 46.8124 68.3441 0.0000 0.0000 0.0000
# 2 46.8124 88.9163 68.0080 0.0000 0.0000 0.0000
# 3 68.3441 68.0080 167.4382 0.0000 0.0000 0.0000
# 4 0.0000 0.0000 0.0000 39.2804 0.0000 0.0000
# 5 0.0000 0.0000 0.0000 0.0000 -24.2449 0.0000
# 6 0.0000 0.0000 0.0000 0.0000 0.0000 17.0565
#
#
#
# Elastic Compliance Matrix: (Units=1/GPa)
#
#
# Indices 1 2 3 4 5 6 
#
# 1 0.011553 -0.003591 -0.003257 0.000000 0.000000 0.000000
# 2 -0.003591 0.017431 -0.005614 0.000000 0.000000 0.000000
# 3 -0.003257 -0.005614 0.009582 0.000000 0.000000 0.000000
# 4 0.000000 0.000000 0.000000 0.025458 0.000000 0.000000
# 5 0.000000 0.000000 0.000000 0.000000 -0.041246 0.000000
# 6 0.000000 0.000000 0.000000 0.000000 0.000000 0.058629
#
#
# Mechanical properties :
#
#
# Convention : Reuss Voigt Hill
#
# Bulk Modulus (GPa) = 73.30548 82.56205 77.93377
# Shear Modulus (GPa) = 45.09389 19.32274 32.20831
#
# Velocity S-wave (km/s) = 4.76277 3.11771 4.02518
# Velocity P-wave (km/s) = 8.19273 7.38187 7.79785
#
# Compressibility (1/GPa) = 0.01364154
#
# Stress axis : x y z
#
# Youngs Moduli (GPa) = 86.55596 57.36810 104.36148
#
# Poissons Ratio (x) = 0.20603 0.33991
# Poissons Ratio (y) = 0.31085 0.58590
# Poissons Ratio (z) = 0.28192 0.32207
#
# Static dielectric constant tensor:
#      x y z
#    x 3.648580 0.000000 0.000000 
#    y 0.000000 3.514820 0.000000 
#    z 0.000000 0.000000 3.770360 
# 
# 
# High freq. dielectric constant tensor:
#      x y z
#    x 1.754100 0.000000 0.000000 
#    y 0.000000 1.779190 0.000000 
#    z 0.000000 0.000000 1.780230 
# 
# From -- ./inp_files/23246.got.cif
#   From: 2010.03.12/outbox.cif.g09.slc.cpg/sg38_12_cif.got.tgz:23246.got - 2010.04.14 02:38:36.
