data_PCOD8179404
_publ_section_title
;
Structure prediction by ZEFSAII (Michael W. Deem and Ramdas Pophale) SiO2 
 PCOD8179404
Probable space group: A M M 2
;
_chemical_formula_sum "Si O2"
_cell_formula_units_Z 64
_cell_length_a 8.966736
_cell_length_b 33.120261
_cell_length_c 11.717689
_cell_angle_alpha 90.000000
_cell_angle_beta 90.000000
_cell_angle_gamma 90.000000
_cell_volume 3479.926739
_symmetry_space_group_name_H-M "A M M 2"
_symmetry_group_IT_number 38
_symmetry_cell_setting 'orthorhombic'
loop_
_space_group_symop_operation_xyz
x,y,z
-x,-y,z
-x,y,z
x,-y,z
x,1/2+y,1/2+z
-x,1/2-y,1/2+z
-x,1/2+y,1/2+z
x,1/2-y,1/2+z
loop_
_atom_site_type_symbol
_atom_site_label
_atom_site_fract_x
_atom_site_fract_y
_atom_site_fract_z
Si Si1 0.167946 0.954076 0.875000
Si Si2 0.326061 0.116297 0.960396
Si Si3 0.170806 0.763658 0.917779
Si Si4 0.328542 0.313531 0.850807
Si Si5 0.672644 0.125723 0.548371
Si Si6 0.173297 0.825812 0.116382
Si Si7 0.173691 0.336000 0.259858
Si Si8 0.824987 0.454646 0.110770
O O1 0.283924 0.930874 0.957020
O O2 0.214415 0.948966 0.743225
O O3 0.000000 0.937814 0.892948
O O4 0.178417 0.000000 0.913310
O O5 0.500000 0.123831 0.948114
O O6 0.239454 0.134205 0.853090
O O7 0.268121 0.135282 0.078192
O O8 0.281541 0.725884 0.922385
O O9 0.199242 0.790103 0.802916
O O10 0.000000 0.748646 0.920459
O O11 0.207850 0.789357 0.030262
O O12 0.500000 0.309491 0.813130
O O13 0.221630 0.314022 0.742272
O O14 0.304349 0.353769 0.925254
O O15 0.500000 0.122279 0.581032
O O16 0.749416 0.155509 0.639391
O O17 0.740411 0.080576 0.541799
O O18 0.000000 0.837041 0.114153
O O19 0.000000 0.345665 0.246863
O O20 0.775142 0.500000 0.071387
O O21 0.000000 0.449607 0.089576
#
# Coordination Sequence:
#
# PCOD8179404 Si02
#       8
#     8   8   8   8   8   8   8   8
#     4   9  17  30  50  79 114 148 183 224 272 331
#     4  11  20  32  54  82 112 144 178 225 281 332
#     4   9  21  39  59  82 106 141 188 234 278 329
#     4  11  25  40  56  82 115 147 184 234 286 336
#     4  11  23  36  53  84 118 151 187 230 287 344
#     4  10  22  41  61  80 105 145 194 231 271 330
#     4  10  20  35  55  79 109 147 188 229 271 327
#     4   9  18  33  55  82 113 150 189 232 282 337
#
# _framework density 18.391192
#
# number of rings (size 3 to 8) (size 9 to 14) (size 15 to 20)
#    0.000    2.000    1.250    4.125    1.750    5.500 
#    0.000    1.250    0.000    0.750    0.000    3.500 
#    0.000    0.000    0.000    0.000    0.000    0.000 
#
# Total GULP energy -396808.676693 kJ/mol
# GULP energy per Si atom -12400.271147 kJ/mol
# Density = 1.834933 g / cm^3
# Si number density = 18.391192 Si / 1000 Ang^3
#
#
#
# Elastic Constant Matrix: (Units=GPa)
#
#
# Indices 1 2 3 4 5 6 
#
# 1 100.1250 57.1631 36.9227 0.0000 0.0000 0.0000
# 2 57.1631 114.2036 35.2835 0.0000 0.0000 0.0000
# 3 36.9227 35.2835 70.7882 0.0000 0.0000 0.0000
# 4 0.0000 0.0000 0.0000 22.7666 0.0000 0.0000
# 5 0.0000 0.0000 0.0000 0.0000 28.7579 0.0000
# 6 0.0000 0.0000 0.0000 0.0000 0.0000 26.1774
#
#
#
# Elastic Compliance Matrix: (Units=1/GPa)
#
#
# Indices 1 2 3 4 5 6 
#
# 1 0.015310 -0.006142 -0.004924 0.000000 0.000000 0.000000
# 2 -0.006142 0.012814 -0.003183 0.000000 0.000000 0.000000
# 3 -0.004924 -0.003183 0.018282 0.000000 0.000000 0.000000
# 4 0.000000 0.000000 0.000000 0.043924 0.000000 0.000000
# 5 0.000000 0.000000 0.000000 0.000000 0.034773 0.000000
# 6 0.000000 0.000000 0.000000 0.000000 0.000000 0.038201
#
#
# Mechanical properties :
#
#
# Convention : Reuss Voigt Hill
#
# Bulk Modulus (GPa) = 55.84484 60.42838 58.13661
# Shear Modulus (GPa) = 25.28170 25.92356 25.60263
#
# Velocity S-wave (km/s) = 3.71167 3.75849 3.73515
# Velocity P-wave (km/s) = 6.98567 7.19469 7.09095
#
# Compressibility (1/GPa) = 0.01790676
#
# Stress axis : x y z
#
# Youngs Moduli (GPa) = 65.31739 78.03948 54.69903
#
# Poissons Ratio (x) = 0.47930 0.26935
# Poissons Ratio (y) = 0.40117 0.17413
# Poissons Ratio (z) = 0.32164 0.24844
#
# Static dielectric constant tensor:
#      x y z
#    x 3.395150 0.000000 0.000000 
#    y 0.000000 3.520020 0.000000 
#    z 0.000000 0.000000 3.153950 
# 
# 
# High freq. dielectric constant tensor:
#      x y z
#    x 1.719240 0.000000 0.000000 
#    y 0.000000 1.718030 0.000000 
#    z 0.000000 0.000000 1.683550 
# 
# From -- ./inp_files/8564.got.cif
#   From: 2010.03.12/outbox.cif.g09.slc.cpg/sg38_5_cif.got.tgz:8564.got - 2010.04.14 02:38:36.
