data_PCOD8179037
_publ_section_title
;
Structure prediction by ZEFSAII (Michael W. Deem and Ramdas Pophale) SiO2 
 PCOD8179037
Probable space group: A M M 2
;
_chemical_formula_sum "Si O2"
_cell_formula_units_Z 64
_cell_length_a 15.888574
_cell_length_b 9.206067
_cell_length_c 23.407829
_cell_angle_alpha 90.000000
_cell_angle_beta 90.000000
_cell_angle_gamma 90.000000
_cell_volume 3423.893034
_symmetry_space_group_name_H-M "A M M 2"
_symmetry_group_IT_number 38
_symmetry_cell_setting 'orthorhombic'
loop_
_space_group_symop_operation_xyz
x,y,z
-x,-y,z
-x,y,z
x,-y,z
x,1/2+y,1/2+z
-x,1/2-y,1/2+z
-x,1/2+y,1/2+z
x,1/2-y,1/2+z
loop_
_atom_site_type_symbol
_atom_site_label
_atom_site_fract_x
_atom_site_fract_y
_atom_site_fract_z
Si Si1 0.249769 0.174009 0.645440
Si Si2 0.597154 0.845345 0.960181
Si Si3 0.906813 0.839036 0.832421
Si Si4 0.597476 0.827061 0.085281
Si Si5 0.138218 0.833713 0.438196
Si Si6 0.312345 0.161664 0.377315
Si Si7 0.904560 0.171891 0.565889
Si Si8 0.222849 0.172518 0.264017
O O1 0.338148 0.237754 0.624000
O O2 0.167424 0.229084 0.609745
O O3 0.242911 0.235555 0.708730
O O4 0.254462 0.000000 0.645926
O O5 0.500000 0.876223 0.964935
O O6 0.612310 0.751631 0.903990
O O7 0.644284 0.000000 0.952452
O O8 0.622919 0.776096 0.021098
O O9 0.911407 0.772272 0.895948
O O10 0.865590 0.725874 0.788786
O O11 0.000000 0.858545 0.809026
O O12 0.863246 0.000000 0.833320
O O13 0.500000 0.786636 0.100190
O O14 0.610473 0.000000 0.092982
O O15 0.236072 0.823116 0.422107
O O16 0.122030 0.777659 0.502387
O O17 0.106472 0.000000 0.430915
O O18 0.290111 0.213508 0.313470
O O19 0.345805 0.000000 0.373554
O O20 0.000000 0.229680 0.580399
O O21 0.905394 0.000000 0.568882
O O22 0.219950 0.000000 0.251969
#
# Coordination Sequence:
#
# PCOD8179037 Si02
#       8
#     8   8   8   8   8   8   8   8
#     4  11  22  36  56  81 108 140 183 233 277 315
#     4   9  18  32  52  80 110 137 166 203 253 316
#     4  10  20  33  51  77 106 134 170 221 273 314
#     4   9  19  37  59  82 110 144 178 213 262 325
#     4   9  17  31  52  76 103 137 175 212 257 320
#     4   9  18  32  51  76 102 130 169 216 263 312
#     4   9  18  32  51  77 110 146 179 214 264 325
#     4  10  22  39  55  72  99 138 183 222 261 319
#
# _framework density 18.692174000000001
#
# number of rings (size 3 to 8) (size 9 to 14) (size 15 to 20)
#    0.000    2.500    0.000    3.750    0.000    6.500 
#    0.000    4.375    0.000    3.375    0.000    0.000 
#    0.000    0.000    0.000    0.000    0.000    0.000 
#
# Total GULP energy -396489.572250 kJ/mol
# GULP energy per Si atom -12390.299133 kJ/mol
# Density = 1.864963 g / cm^3
# Si number density = 18.692174 Si / 1000 Ang^3
#
#
#
# Elastic Constant Matrix: (Units=GPa)
#
#
# Indices 1 2 3 4 5 6 
#
# 1 64.0126 31.6095 59.4547 0.0000 0.0000 0.0000
# 2 31.6095 63.8230 48.7398 0.0000 0.0000 0.0000
# 3 59.4547 48.7398 141.4832 0.0000 0.0000 0.0000
# 4 0.0000 0.0000 0.0000 23.9444 0.0000 0.0000
# 5 0.0000 0.0000 0.0000 0.0000 8.5926 0.0000
# 6 0.0000 0.0000 0.0000 0.0000 0.0000 26.1756
#
#
#
# Elastic Compliance Matrix: (Units=1/GPa)
#
#
# Indices 1 2 3 4 5 6 
#
# 1 0.027476 -0.006501 -0.009307 0.000000 0.000000 0.000000
# 2 -0.006501 0.022800 -0.005123 0.000000 0.000000 0.000000
# 3 -0.009307 -0.005123 0.012744 0.000000 0.000000 0.000000
# 4 0.000000 0.000000 0.000000 0.041764 0.000000 0.000000
# 5 0.000000 0.000000 0.000000 0.000000 0.116379 0.000000
# 6 0.000000 0.000000 0.000000 0.000000 0.000000 0.038204
#
#
# Mechanical properties :
#
#
# Convention : Reuss Voigt Hill
#
# Bulk Modulus (GPa) = 47.26019 60.99187 54.12603
# Shear Modulus (GPa) = 16.21908 20.37682 18.29795
#
# Velocity S-wave (km/s) = 2.94886 3.30529 3.13215
# Velocity P-wave (km/s) = 6.07722 6.87510 6.48844
#
# Compressibility (1/GPa) = 0.02115946
#
# Stress axis : x y z
#
# Youngs Moduli (GPa) = 36.39539 43.85968 78.47112
#
# Poissons Ratio (x) = 0.28512 0.73030
# Poissons Ratio (y) = 0.23660 0.40198
# Poissons Ratio (z) = 0.33872 0.22468
#
# Static dielectric constant tensor:
#      x y z
#    x 3.391690 0.000000 0.000000 
#    y 0.000000 3.440170 0.000000 
#    z 0.000000 0.000000 3.479900 
# 
# 
# High freq. dielectric constant tensor:
#      x y z
#    x 1.717800 0.000000 0.000000 
#    y 0.000000 1.717550 0.000000 
#    z 0.000000 0.000000 1.722720 
# 
# From -- ./inp_files/22946.got.cif
#   From: 2010.03.12/outbox.cif.g09.slc.cpg/sg38_12_cif.got.tgz:22946.got - 2010.04.14 02:38:36.
