data_PCOD8179417
_publ_section_title
;
Structure prediction by ZEFSAII (Michael W. Deem and Ramdas Pophale) SiO2 
 PCOD8179417
Probable space group: A M M 2
;
_chemical_formula_sum "Si O2"
_cell_formula_units_Z 64
_cell_length_a 8.772140
_cell_length_b 32.686496
_cell_length_c 11.732485
_cell_angle_alpha 90.000000
_cell_angle_beta 90.000000
_cell_angle_gamma 90.000000
_cell_volume 3364.061513
_symmetry_space_group_name_H-M "A M M 2"
_symmetry_group_IT_number 38
_symmetry_cell_setting 'orthorhombic'
loop_
_space_group_symop_operation_xyz
x,y,z
-x,-y,z
-x,y,z
x,-y,z
x,1/2+y,1/2+z
-x,1/2-y,1/2+z
-x,1/2+y,1/2+z
x,1/2-y,1/2+z
loop_
_atom_site_type_symbol
_atom_site_label
_atom_site_fract_x
_atom_site_fract_y
_atom_site_fract_z
Si Si1 0.817664 0.849593 0.125000
Si Si2 0.319891 0.046710 0.487867
Si Si3 0.677870 0.276939 0.490693
Si Si4 0.820233 0.622092 0.873231
Si Si5 0.831665 0.814524 0.783839
Si Si6 0.833566 0.602538 0.418792
Si Si7 0.323405 0.183807 0.548996
Si Si8 0.821637 0.452808 0.226113
O O1 0.748588 0.806014 0.088269
O O2 0.763147 0.861088 0.251288
O O3 0.000000 0.846433 0.114566
O O4 0.755171 0.885833 0.039829
O O5 0.500000 0.049604 0.485651
O O6 0.252376 0.077383 0.393910
O O7 0.262255 0.061458 0.611588
O O8 0.265263 0.000000 0.462806
O O9 0.500000 0.286687 0.482130
O O10 0.751942 0.281729 0.366221
O O11 0.712565 0.230778 0.524656
O O12 0.000000 0.616616 0.874906
O O13 0.772673 0.654758 0.967259
O O14 0.851515 0.855603 0.852536
O O15 0.725477 0.824517 0.677506
O O16 0.000000 0.798418 0.746766
O O17 0.747367 0.570402 0.335879
O O18 0.000000 0.583479 0.444535
O O19 0.500000 0.172957 0.532721
O O20 0.793321 0.500000 0.249002
O O21 0.000000 0.441740 0.211887
#
# Coordination Sequence:
#
# PCOD8179417 Si02
#       8
#     8   8   8   8   8   8   8   8
#     4   9  20  38  57  78 108 148 193 237 282 338
#     4  10  21  37  57  82 115 153 189 233 291 348
#     4  10  22  38  56  79 110 147 185 230 287 342
#     4  11  23  38  58  85 113 149 195 241 290 345
#     4  10  20  35  56  78 104 140 183 229 275 329
#     4   8  15  31  52  75 104 135 171 218 270 324
#     4  11  24  38  55  81 113 146 184 233 287 345
#     4   9  16  28  52  83 111 140 177 225 280 339
#
# _framework density 19.024623999999999
#
# number of rings (size 3 to 8) (size 9 to 14) (size 15 to 20)
#    0.000    2.250    0.000    3.375    1.750    4.750 
#    0.000    3.125    0.000    2.250    0.000    1.750 
#    0.000    0.000    0.000    0.000    0.000    0.000 
#
# Total GULP energy -396687.420902 kJ/mol
# GULP energy per Si atom -12396.481903 kJ/mol
# Density = 1.898132 g / cm^3
# Si number density = 19.024624 Si / 1000 Ang^3
#
#
#
# Elastic Constant Matrix: (Units=GPa)
#
#
# Indices 1 2 3 4 5 6 
#
# 1 53.2516 30.1783 21.1028 0.0000 0.0000 0.0000
# 2 30.1783 72.0389 44.1900 0.0000 0.0000 0.0000
# 3 21.1028 44.1900 116.5260 0.0000 0.0000 0.0000
# 4 0.0000 0.0000 0.0000 3.3025 0.0000 0.0000
# 5 0.0000 0.0000 0.0000 0.0000 19.2928 0.0000
# 6 0.0000 0.0000 0.0000 0.0000 0.0000 27.8692
#
#
#
# Elastic Compliance Matrix: (Units=1/GPa)
#
#
# Indices 1 2 3 4 5 6 
#
# 1 0.024670 -0.009896 -0.000715 0.000000 0.000000 0.000000
# 2 -0.009896 0.022059 -0.006573 0.000000 0.000000 0.000000
# 3 -0.000715 -0.006573 0.011204 0.000000 0.000000 0.000000
# 4 0.000000 0.000000 0.000000 0.302801 0.000000 0.000000
# 5 0.000000 0.000000 0.000000 0.000000 0.051833 0.000000
# 6 0.000000 0.000000 0.000000 0.000000 0.000000 0.035882
#
#
# Mechanical properties :
#
#
# Convention : Reuss Voigt Hill
#
# Bulk Modulus (GPa) = 42.43617 48.08430 45.26024
# Shear Modulus (GPa) = 10.19007 19.84925 15.01966
#
# Velocity S-wave (km/s) = 2.31687 3.23359 2.81283
# Velocity P-wave (km/s) = 5.43245 6.26667 5.86441
#
# Compressibility (1/GPa) = 0.02356480
#
# Stress axis : x y z
#
# Youngs Moduli (GPa) = 40.53432 45.33227 89.25372
#
# Poissons Ratio (x) = 0.44863 0.06380
# Poissons Ratio (y) = 0.40114 0.58669
# Poissons Ratio (z) = 0.02897 0.29798
#
# Static dielectric constant tensor:
#      x y z
#    x 3.459750 0.000000 0.000000 
#    y 0.000000 3.542310 0.000000 
#    z 0.000000 0.000000 3.795880 
# 
# 
# High freq. dielectric constant tensor:
#      x y z
#    x 1.730250 0.000000 0.000000 
#    y 0.000000 1.738310 0.000000 
#    z 0.000000 0.000000 1.742320 
# 
# From -- ./inp_files/8568.got.cif
#   From: 2010.03.12/outbox.cif.g09.slc.cpg/sg38_5_cif.got.tgz:8568.got - 2010.04.14 02:38:36.
