data_PCOD8179718
_publ_section_title
;
Structure prediction by ZEFSAII (Michael W. Deem and Ramdas Pophale) SiO2 
 PCOD8179718
Probable space group: A M M 2
;
_chemical_formula_sum "Si O2"
_cell_formula_units_Z 64
_cell_length_a 8.882903
_cell_length_b 23.436674
_cell_length_c 15.427699
_cell_angle_alpha 90.000000
_cell_angle_beta 90.000000
_cell_angle_gamma 90.000000
_cell_volume 3211.826343
_symmetry_space_group_name_H-M "A M M 2"
_symmetry_group_IT_number 38
_symmetry_cell_setting 'orthorhombic'
loop_
_space_group_symop_operation_xyz
x,y,z
-x,-y,z
-x,y,z
x,-y,z
x,1/2+y,1/2+z
-x,1/2-y,1/2+z
-x,1/2+y,1/2+z
x,1/2-y,1/2+z
loop_
_atom_site_type_symbol
_atom_site_label
_atom_site_fract_x
_atom_site_fract_y
_atom_site_fract_z
Si Si1 0.822564 0.631090 0.963400
Si Si2 0.178921 0.935878 0.294700
Si Si3 0.672156 0.241110 0.399667
Si Si4 0.322396 0.876231 0.642183
Si Si5 0.324293 0.249917 0.199321
Si Si6 0.178235 0.638662 0.634066
Si Si7 0.173190 0.933540 0.801358
Si Si8 0.673895 0.131896 0.957679
O O1 0.763899 0.593365 0.882914
O O2 0.780469 0.696705 0.946837
O O3 0.000000 0.625828 0.976487
O O4 0.740349 0.607159 0.048180
O O5 0.239926 0.899725 0.213299
O O6 0.000000 0.936421 0.293174
O O7 0.243627 0.000000 0.289396
O O8 0.500000 0.220263 0.408764
O O9 0.718801 0.247075 0.299906
O O10 0.695405 0.300734 0.447202
O O11 0.500000 0.884382 0.644882
O O12 0.276250 0.811512 0.664219
O O13 0.250107 0.919192 0.710441
O O14 0.500000 0.238375 0.183417
O O15 0.230282 0.203529 0.146718
O O16 0.246827 0.612555 0.546381
O O17 0.000000 0.636496 0.627587
O O18 0.252484 0.899788 0.877729
O O19 0.000000 0.914958 0.797199
O O20 0.191686 0.000000 0.820297
O O21 0.500000 0.114693 0.960898
#
# Coordination Sequence:
#
# PCOD8179718 Si02
#       8
#     8   8   8   8   8   8   8   8
#     4  11  22  37  60  92 121 155 202 251 303 359
#     4   9  20  39  59  80 114 157 198 243 296 349
#     4  10  20  37  60  86 120 160 197 241 301 365
#     4  11  23  41  63  90 122 161 200 241 301 366
#     4  10  20  37  60  86 120 160 197 241 301 365
#     4  11  22  37  60  92 121 155 202 251 303 359
#     4  11  25  44  65  90 120 157 202 253 304 355
#     4  11  23  41  63  90 122 161 200 241 301 366
#
# _framework density 19.926358
#
# number of rings (size 3 to 8) (size 9 to 14) (size 15 to 20)
#    0.000    1.500    2.500    2.625    0.000    7.000 
#    0.000    2.500    0.000    5.250    0.000    0.000 
#    0.000    0.000    0.000    0.000    0.000    0.000 
#
# Total GULP energy -396985.840552 kJ/mol
# GULP energy per Si atom -12405.807517 kJ/mol
# Density = 1.988100 g / cm^3
# Si number density = 19.926358 Si / 1000 Ang^3
#
#
#
# Elastic Constant Matrix: (Units=GPa)
#
#
# Indices 1 2 3 4 5 6 
#
# 1 78.3769 26.4497 33.2401 0.0000 0.0000 0.0000
# 2 26.4497 59.4008 13.8966 0.0000 0.0000 0.0000
# 3 33.2401 13.8966 128.4496 0.0000 0.0000 0.0000
# 4 0.0000 0.0000 0.0000 -5.8882 0.0000 0.0000
# 5 0.0000 0.0000 0.0000 0.0000 39.0961 0.0000
# 6 0.0000 0.0000 0.0000 0.0000 0.0000 6.6629
#
#
#
# Elastic Compliance Matrix: (Units=1/GPa)
#
#
# Indices 1 2 3 4 5 6 
#
# 1 0.016460 -0.006497 -0.003557 0.000000 0.000000 0.000000
# 2 -0.006497 0.019836 -0.000465 0.000000 0.000000 0.000000
# 3 -0.003557 -0.000465 0.008756 0.000000 0.000000 0.000000
# 4 0.000000 0.000000 0.000000 -0.169831 0.000000 0.000000
# 5 0.000000 0.000000 0.000000 0.000000 0.025578 0.000000
# 6 0.000000 0.000000 0.000000 0.000000 0.000000 0.150086
#
#
# Mechanical properties :
#
#
# Convention : Reuss Voigt Hill
#
# Bulk Modulus (GPa) = 41.64010 45.93334 43.78672
# Shear Modulus (GPa) = 62.55714 20.81687 41.68700
#
# Velocity S-wave (km/s) = 5.60913 3.23567 4.57886
# Velocity P-wave (km/s) = 7.93046 6.08778 7.06941
#
# Compressibility (1/GPa) = 0.02401531
#
# Stress axis : x y z
#
# Youngs Moduli (GPa) = 60.75414 50.41213 114.21010
#
# Poissons Ratio (x) = 0.32753 0.40619
# Poissons Ratio (y) = 0.39473 0.05308
# Poissons Ratio (z) = 0.21607 0.02343
#
# Static dielectric constant tensor:
#      x y z
#    x 3.545620 0.000000 0.000000 
#    y 0.000000 3.620260 0.000000 
#    z 0.000000 0.000000 3.860210 
# 
# 
# High freq. dielectric constant tensor:
#      x y z
#    x 1.770780 0.000000 0.000000 
#    y 0.000000 1.771170 0.000000 
#    z 0.000000 0.000000 1.797510 
# 
# From -- ./inp_files/12832.got.cif
#   From: 2010.03.12/outbox.cif.g09.slc.cpg/sg38_7_cif.got.tgz:12832.got - 2010.04.14 02:38:36.
