data_PCOD8179434
_publ_section_title
;
Structure prediction by ZEFSAII (Michael W. Deem and Ramdas Pophale) SiO2 
 PCOD8179434
Probable space group: A M M 2
;
_chemical_formula_sum "Si O2"
_cell_formula_units_Z 48
_cell_length_a 7.717586
_cell_length_b 9.185622
_cell_length_c 34.135269
_cell_angle_alpha 90.000000
_cell_angle_beta 90.000000
_cell_angle_gamma 90.000000
_cell_volume 2419.877475
_symmetry_space_group_name_H-M "A M M 2"
_symmetry_group_IT_number 38
_symmetry_cell_setting 'orthorhombic'
loop_
_space_group_symop_operation_xyz
x,y,z
-x,-y,z
-x,y,z
x,-y,z
x,1/2+y,1/2+z
-x,1/2-y,1/2+z
-x,1/2+y,1/2+z
x,1/2-y,1/2+z
loop_
_atom_site_type_symbol
_atom_site_label
_atom_site_fract_x
_atom_site_fract_y
_atom_site_fract_z
Si Si1 0.703673 0.664866 0.927830
Si Si2 0.000000 0.171043 0.646253
Si Si3 0.794467 0.333187 0.778487
Si Si4 0.698595 0.668985 0.505952
Si Si5 0.000000 0.330555 0.564569
Si Si6 0.305553 0.666451 0.202388
Si Si7 0.198977 0.660372 0.352569
O O1 0.500000 0.669079 0.922072
O O2 0.774604 0.500000 0.927335
O O3 0.788124 0.754034 0.892963
O O4 0.757323 0.738098 0.968599
O O5 0.000000 0.244986 0.604563
O O6 0.170967 0.222164 0.669717
O O7 0.000000 0.000000 0.639314
O O8 0.736472 0.500000 0.781676
O O9 0.706664 0.263925 0.740742
O O10 0.718307 0.251983 0.816896
O O11 0.000000 0.318341 0.774888
O O12 0.500000 0.703992 0.518272
O O13 0.720150 0.500000 0.494829
O O14 0.826231 0.712910 0.541069
O O15 0.000000 0.500000 0.574344
O O16 0.500000 0.679715 0.185172
O O17 0.261375 0.500000 0.213942
O O18 0.287462 0.500000 0.355803
O O19 0.000000 0.638995 0.342385
#
# Coordination Sequence:
#
# PCOD8179434 Si02
#       7
#     8   4   8   8   4   8   8
#     4  10  21  36  54  79 112 148 187 236 287 332
#     4  10  22  40  60  85 118 147 180 232 285 338
#     4  10  20  35  56  82 114 150 190 239 289 334
#     4   9  19  37  58  81 113 150 188 233 281 334
#     4  10  22  38  60  87 112 145 188 228 279 344
#     4  10  21  38  61  86 113 151 193 231 279 339
#     4  10  21  35  54  80 111 151 195 235 278 330
#
# _framework density 19.835715
#
# number of rings (size 3 to 8) (size 9 to 14) (size 15 to 20)
#    0.000    2.167    0.833    1.500    1.167    5.667 
#    0.000    0.000    0.000    0.000    0.000    0.000 
#    0.000    0.000    0.000    0.000    0.000    0.000 
#
# Total GULP energy -297632.954075 kJ/mol
# GULP energy per Si atom -12401.373086 kJ/mol
# Density = 1.979057 g / cm^3
# Si number density = 19.835715 Si / 1000 Ang^3
#
#
#
# Elastic Constant Matrix: (Units=GPa)
#
#
# Indices 1 2 3 4 5 6 
#
# 1 86.6442 40.9379 61.0283 0.0000 0.0000 0.0000
# 2 40.9379 125.7979 81.7249 0.0000 0.0000 0.0000
# 3 61.0283 81.7249 164.6278 0.0000 0.0000 0.0000
# 4 0.0000 0.0000 0.0000 43.9774 0.0000 0.0000
# 5 0.0000 0.0000 0.0000 0.0000 3.3403 0.0000
# 6 0.0000 0.0000 0.0000 0.0000 0.0000 19.9089
#
#
#
# Elastic Compliance Matrix: (Units=1/GPa)
#
#
# Indices 1 2 3 4 5 6 
#
# 1 0.015951 -0.001992 -0.004924 0.000000 0.000000 0.000000
# 2 -0.001992 0.011982 -0.005210 0.000000 0.000000 0.000000
# 3 -0.004924 -0.005210 0.010486 0.000000 0.000000 0.000000
# 4 0.000000 0.000000 0.000000 0.022739 0.000000 0.000000
# 5 0.000000 0.000000 0.000000 0.000000 0.299373 0.000000
# 6 0.000000 0.000000 0.000000 0.000000 0.000000 0.050229
#
#
# Mechanical properties :
#
#
# Convention : Reuss Voigt Hill
#
# Bulk Modulus (GPa) = 70.58528 82.71692 76.65110
# Shear Modulus (GPa) = 11.37051 26.33723 18.85387
#
# Velocity S-wave (km/s) = 2.39683 3.64781 3.08636
# Velocity P-wave (km/s) = 6.58194 7.71580 7.17131
#
# Compressibility (1/GPa) = 0.01416726
#
# Stress axis : x y z
#
# Youngs Moduli (GPa) = 62.69183 83.45881 95.36492
#
# Poissons Ratio (x) = 0.16623 0.46961
# Poissons Ratio (y) = 0.12487 0.49683
# Poissons Ratio (z) = 0.30872 0.43480
#
# Static dielectric constant tensor:
#      x y z
#    x 3.710660 0.000000 0.000000 
#    y 0.000000 3.789300 0.000000 
#    z 0.000000 0.000000 3.460110 
# 
# 
# High freq. dielectric constant tensor:
#      x y z
#    x 1.773840 0.000000 0.000000 
#    y 0.000000 1.778380 0.000000 
#    z 0.000000 0.000000 1.766200 
# 
# From -- ./inp_files/24340.got.cif
#   From: 2010.03.12/outbox.cif.g09.slc.cpg/sg38_13_cif.got.tgz:24340.got - 2010.04.14 02:38:36.
