data_PCOD8179007
_publ_section_title
;
Structure prediction by ZEFSAII (Michael W. Deem and Ramdas Pophale) SiO2 
 PCOD8179007
Probable space group: A M M 2
;
_chemical_formula_sum "Si O2"
_cell_formula_units_Z 64
_cell_length_a 8.906126
_cell_length_b 13.847051
_cell_length_c 24.860709
_cell_angle_alpha 90.000000
_cell_angle_beta 90.000000
_cell_angle_gamma 90.000000
_cell_volume 3065.911658
_symmetry_space_group_name_H-M "A M M 2"
_symmetry_group_IT_number 38
_symmetry_cell_setting 'orthorhombic'
loop_
_space_group_symop_operation_xyz
x,y,z
-x,-y,z
-x,y,z
x,-y,z
x,1/2+y,1/2+z
-x,1/2-y,1/2+z
-x,1/2+y,1/2+z
x,1/2-y,1/2+z
loop_
_atom_site_type_symbol
_atom_site_label
_atom_site_fract_x
_atom_site_fract_y
_atom_site_fract_z
Si Si1 0.176705 0.773405 0.953050
Si Si2 0.323946 0.106623 0.658837
Si Si3 0.177969 0.393816 0.551655
Si Si4 0.322388 0.891461 0.383412
Si Si5 0.823596 0.203038 0.158113
Si Si6 0.323903 0.888811 0.260980
Si Si7 0.165035 0.609304 0.269320
Si Si8 0.333881 0.887231 0.868904
O O1 0.254433 0.677781 0.929296
O O2 0.227415 0.865974 0.918934
O O3 0.000000 0.757018 0.950227
O O4 0.232031 0.805690 0.012861
O O5 0.500000 0.122945 0.652011
O O6 0.233825 0.194936 0.632478
O O7 0.279782 0.113199 0.720771
O O8 0.278117 0.000000 0.635782
O O9 0.243986 0.500000 0.535962
O O10 0.226546 0.374582 0.613421
O O11 0.000000 0.397679 0.546985
O O12 0.500000 0.887993 0.388245
O O13 0.274865 0.861998 0.322263
O O14 0.264921 0.000000 0.395429
O O15 0.757815 0.179494 0.217240
O O16 0.000000 0.208319 0.164133
O O17 0.500000 0.873512 0.253504
O O18 0.279869 0.000000 0.249438
O O19 0.135366 0.500000 0.287017
O O20 0.251293 0.662370 0.317922
O O21 0.000000 0.656565 0.256870
O O22 0.500000 0.839571 0.875355
O O23 0.353934 0.000000 0.861224
#
# Coordination Sequence:
#
# PCOD8179007 Si02
#       8
#     8   8   8   8   8   8   8   8
#     4  11  22  36  59  86 114 151 197 246 297 350
#     4  10  21  37  55  77 112 156 196 238 291 349
#     4   9  20  40  62  86 119 156 194 243 302 357
#     4   9  20  40  62  84 117 158 195 238 296 360
#     4  11  22  36  60  89 117 154 201 250 301 355
#     4   9  19  37  60  86 118 156 195 238 295 360
#     4   9  17  30  49  74 105 142 186 233 279 331
#     4  10  20  33  50  76 112 152 191 232 284 346
#
# _framework density 20.874703
#
# number of rings (size 3 to 8) (size 9 to 14) (size 15 to 20)
#    0.000    2.250    0.000    3.375    1.750    5.000 
#    0.000    4.375    0.000    8.250    0.000    0.000 
#    0.000    0.000    0.000    0.000    0.000    0.000 
#
# Total GULP energy -396423.384840 kJ/mol
# GULP energy per Si atom -12388.230776 kJ/mol
# Density = 2.082719 g / cm^3
# Si number density = 20.874703 Si / 1000 Ang^3
#
#
#
# Elastic Constant Matrix: (Units=GPa)
#
#
# Indices 1 2 3 4 5 6 
#
# 1 53.9323 33.8776 25.8536 0.0000 0.0000 0.0000
# 2 33.8776 127.8582 48.6175 0.0000 0.0000 0.0000
# 3 25.8536 48.6175 101.1582 0.0000 0.0000 0.0000
# 4 0.0000 0.0000 0.0000 25.8656 0.0000 0.0000
# 5 0.0000 0.0000 0.0000 0.0000 2.9404 0.0000
# 6 0.0000 0.0000 0.0000 0.0000 0.0000 30.6324
#
#
#
# Elastic Compliance Matrix: (Units=1/GPa)
#
#
# Indices 1 2 3 4 5 6 
#
# 1 0.023299 -0.004783 -0.003656 0.000000 0.000000 0.000000
# 2 -0.004783 0.010552 -0.003849 0.000000 0.000000 0.000000
# 3 -0.003656 -0.003849 0.012670 0.000000 0.000000 0.000000
# 4 0.000000 0.000000 0.000000 0.038661 0.000000 0.000000
# 5 0.000000 0.000000 0.000000 0.000000 0.340093 0.000000
# 6 0.000000 0.000000 0.000000 0.000000 0.000000 0.032645
#
#
# Mechanical properties :
#
#
# Convention : Reuss Voigt Hill
#
# Bulk Modulus (GPa) = 45.56905 55.51624 50.54265
# Shear Modulus (GPa) = 10.20803 23.52767 16.86785
#
# Velocity S-wave (km/s) = 2.21377 3.36086 2.84571
# Velocity P-wave (km/s) = 5.33025 6.45858 5.92135
#
# Compressibility (1/GPa) = 0.02194472
#
# Stress axis : x y z
#
# Youngs Moduli (GPa) = 42.92061 94.76799 78.92861
#
# Poissons Ratio (x) = 0.45330 0.28854
# Poissons Ratio (y) = 0.20530 0.30379
# Poissons Ratio (z) = 0.15691 0.36476
#
# Static dielectric constant tensor:
#      x y z
#    x 3.850100 0.000000 0.000000 
#    y 0.000000 4.407920 0.000000 
#    z 0.000000 0.000000 3.735240 
# 
# 
# High freq. dielectric constant tensor:
#      x y z
#    x 1.806990 0.000000 0.000000 
#    y 0.000000 1.827120 0.000000 
#    z 0.000000 0.000000 1.796790 
# 
# From -- ./inp_files/22206.got.cif
#   From: 2010.03.12/outbox.cif.g09.slc.cpg/sg38_12_cif.got.tgz:22206.got - 2010.04.14 02:38:36.
