data_PCOD8179031
_publ_section_title
;
Structure prediction by ZEFSAII (Michael W. Deem and Ramdas Pophale) SiO2 
 PCOD8179031
Probable space group: A M M 2
;
_chemical_formula_sum "Si O2"
_cell_formula_units_Z 48
_cell_length_a 9.289270
_cell_length_b 9.037829
_cell_length_c 30.812577
_cell_angle_alpha 90.000000
_cell_angle_beta 90.000000
_cell_angle_gamma 90.000000
_cell_volume 2586.864781
_symmetry_space_group_name_H-M "A M M 2"
_symmetry_group_IT_number 38
_symmetry_cell_setting 'orthorhombic'
loop_
_space_group_symop_operation_xyz
x,y,z
-x,-y,z
-x,y,z
x,-y,z
x,1/2+y,1/2+z
-x,1/2-y,1/2+z
-x,1/2+y,1/2+z
x,1/2-y,1/2+z
loop_
_atom_site_type_symbol
_atom_site_label
_atom_site_fract_x
_atom_site_fract_y
_atom_site_fract_z
Si Si1 0.834156 0.828762 0.975810
Si Si2 0.164899 0.674477 0.063930
Si Si3 0.838448 0.176109 0.224666
Si Si4 0.331941 0.327191 0.640269
Si Si5 0.670382 0.167500 0.401688
Si Si6 0.659794 0.175721 0.305053
O O1 0.742601 0.779425 0.934733
O O2 0.000000 0.796348 0.965302
O O3 0.805110 0.000000 0.985174
O O4 0.783783 0.738577 0.017936
O O5 0.182191 0.500000 0.062346
O O6 0.269096 0.738425 0.100115
O O7 0.000000 0.721765 0.073726
O O8 0.746272 0.230490 0.183639
O O9 0.767264 0.240355 0.268679
O O10 0.000000 0.239493 0.220751
O O11 0.840382 0.000000 0.226376
O O12 0.500000 0.292940 0.645056
O O13 0.302464 0.500000 0.632660
O O14 0.500000 0.175911 0.406885
O O15 0.715068 0.218790 0.353111
O O16 0.724010 0.000000 0.410581
O O17 0.500000 0.240949 0.296784
O O18 0.651380 0.000000 0.301623
#
# Coordination Sequence:
#
# PCOD8179031 Si02
#       6
#     8   8   8   8   8   8
#     4  10  21  36  54  76 102 133 169 209 254 304
#     4  10  21  37  56  76  99 130 168 210 257 306
#     4   9  16  26  44  72 103 134 169 209 251 294
#     4  10  20  33  51  76 105 137 171 207 250 300
#     4   9  18  32  51  76 105 137 172 210 253 300
#     4   8  14  26  44  68 100 134 167 206 251 297
#
# _framework density 18.55528
#
# number of rings (size 3 to 8) (size 9 to 14) (size 15 to 20)
#    0.000    2.667    0.000    3.000    0.000    6.667 
#    0.000    1.667    0.000    1.000    0.000    4.667 
#    0.000    0.000    0.000    0.000    0.000    0.000 
#
# Total GULP energy -297602.972277 kJ/mol
# GULP energy per Si atom -12400.123845 kJ/mol
# Density = 1.851305 g / cm^3
# Si number density = 18.555280 Si / 1000 Ang^3
#
#
#
# Elastic Constant Matrix: (Units=GPa)
#
#
# Indices 1 2 3 4 5 6 
#
# 1 99.7551 35.5140 81.2049 0.0000 0.0000 0.0000
# 2 35.5140 45.4304 42.6136 0.0000 0.0000 0.0000
# 3 81.2049 42.6136 162.5720 0.0000 0.0000 0.0000
# 4 0.0000 0.0000 0.0000 24.1928 0.0000 0.0000
# 5 0.0000 0.0000 0.0000 0.0000 38.9335 0.0000
# 6 0.0000 0.0000 0.0000 0.0000 0.0000 22.9602
#
#
#
# Elastic Compliance Matrix: (Units=1/GPa)
#
#
# Indices 1 2 3 4 5 6 
#
# 1 0.018767 -0.007794 -0.007331 0.000000 0.000000 0.000000
# 2 -0.007794 0.032425 -0.004606 0.000000 0.000000 0.000000
# 3 -0.007331 -0.004606 0.011020 0.000000 0.000000 0.000000
# 4 0.000000 0.000000 0.000000 0.041335 0.000000 0.000000
# 5 0.000000 0.000000 0.000000 0.000000 0.025685 0.000000
# 6 0.000000 0.000000 0.000000 0.000000 0.000000 0.043554
#
#
# Mechanical properties :
#
#
# Convention : Reuss Voigt Hill
#
# Bulk Modulus (GPa) = 43.95648 69.60250 56.77949
# Shear Modulus (GPa) = 22.74462 27.11231 24.92847
#
# Velocity S-wave (km/s) = 3.50491 3.82666 3.66931
# Velocity P-wave (km/s) = 6.33404 7.55757 6.97269
#
# Compressibility (1/GPa) = 0.02274977
#
# Stress axis : x y z
#
# Youngs Moduli (GPa) = 53.28402 30.84039 90.74010
#
# Poissons Ratio (x) = 0.24037 0.66524
# Poissons Ratio (y) = 0.41530 0.41796
# Poissons Ratio (z) = 0.39064 0.14205
#
# Static dielectric constant tensor:
#      x y z
#    x 3.506660 0.000000 0.000000 
#    y 0.000000 3.042840 0.000000 
#    z 0.000000 0.000000 3.612790 
# 
# 
# High freq. dielectric constant tensor:
#      x y z
#    x 1.720030 0.000000 0.000000 
#    y 0.000000 1.680650 0.000000 
#    z 0.000000 0.000000 1.735140 
# 
# From -- ./inp_files/24290.got.cif
#   From: 2010.03.12/outbox.cif.g09.slc.cpg/sg38_13_cif.got.tgz:24290.got - 2010.04.14 02:38:36.
