data_PCOD8179829
_publ_section_title
;
Structure prediction by ZEFSAII (Michael W. Deem and Ramdas Pophale) SiO2 
 PCOD8179829
Probable space group: A M M 2
;
_chemical_formula_sum "Si O2"
_cell_formula_units_Z 44
_cell_length_a 11.309571
_cell_length_b 14.145615
_cell_length_c 14.629628
_cell_angle_alpha 90.000000
_cell_angle_beta 90.000000
_cell_angle_gamma 90.000000
_cell_volume 2340.460135
_symmetry_space_group_name_H-M "A M M 2"
_symmetry_group_IT_number 38
_symmetry_cell_setting 'orthorhombic'
loop_
_space_group_symop_operation_xyz
x,y,z
-x,-y,z
-x,y,z
x,-y,z
x,1/2+y,1/2+z
-x,1/2-y,1/2+z
-x,1/2+y,1/2+z
x,1/2-y,1/2+z
loop_
_atom_site_type_symbol
_atom_site_label
_atom_site_fract_x
_atom_site_fract_y
_atom_site_fract_z
Si Si1 0.142800 0.500000 0.523470
Si Si2 0.136152 0.697834 0.806894
Si Si3 0.860807 0.500000 0.734008
Si Si4 0.500000 0.152338 0.926132
Si Si5 0.244332 0.798240 0.969330
Si Si6 0.692977 0.754885 0.661381
Si Si7 0.500000 0.395634 0.630323
Si Si8 0.500000 0.604628 0.218841
O O1 0.186347 0.500000 0.629160
O O2 0.198644 0.407076 0.475148
O O3 0.000000 0.500000 0.513274
O O4 0.181906 0.590732 0.791412
O O5 0.157104 0.735376 0.908493
O O6 0.208967 0.763528 0.738824
O O7 0.000000 0.706862 0.781030
O O8 0.000000 0.500000 0.725576
O O9 0.621969 0.211979 0.929284
O O10 0.500000 0.098731 0.829538
O O11 0.500000 0.091109 0.019632
O O12 0.238671 0.745123 0.065761
O O13 0.615094 0.659202 0.666011
O O14 0.613853 0.846454 0.675620
O O15 0.500000 0.500000 0.674133
O O16 0.500000 0.500000 0.179862
#
# Coordination Sequence:
#
# PCOD8179829 Si02
#       8
#     4   8   4   4   8   8   4   4
#     4  11  22  37  63  96 123 159 202 251 309 358
#     4  11  22  38  62  90 123 160 200 249 302 365
#     4   9  20  38  61  88 119 162 207 245 301 360
#     4  10  21  32  58  87 110 154 197 237 309 364
#     4  11  23  38  61  88 128 154 202 258 306 364
#     4  10  22  38  59  88 119 157 202 248 304 366
#     4   9  20  33  58  92 121 146 186 249 309 357
#     4  11  22  41  60  80 117 162 204 250 308 372
#
# _framework density 18.799721000000002
#
# number of rings (size 3 to 8) (size 9 to 14) (size 15 to 20)
#    0.000    1.636    3.636    1.364    7.636    0.727 
#    1.636    0.000    0.000    0.000    0.000    0.000 
#    0.000    0.000    0.000    0.000    0.000    0.000 
#
# Total GULP energy -272684.242624 kJ/mol
# GULP energy per Si atom -12394.738301 kJ/mol
# Density = 1.875693 g / cm^3
# Si number density = 18.799721 Si / 1000 Ang^3
#
#
#
# Elastic Constant Matrix: (Units=GPa)
#
#
# Indices 1 2 3 4 5 6 
#
# 1 91.8475 39.2720 34.9137 0.0000 0.0000 0.0000
# 2 39.2720 123.0629 46.3886 0.0000 0.0000 0.0000
# 3 34.9137 46.3886 94.8338 0.0000 0.0000 0.0000
# 4 0.0000 0.0000 0.0000 23.9554 0.0000 0.0000
# 5 0.0000 0.0000 0.0000 0.0000 29.3955 0.0000
# 6 0.0000 0.0000 0.0000 0.0000 0.0000 11.0818
#
#
#
# Elastic Compliance Matrix: (Units=1/GPa)
#
#
# Indices 1 2 3 4 5 6 
#
# 1 0.013498 -0.002985 -0.003509 0.000000 0.000000 0.000000
# 2 -0.002985 0.010623 -0.004097 0.000000 0.000000 0.000000
# 3 -0.003509 -0.004097 0.013841 0.000000 0.000000 0.000000
# 4 0.000000 0.000000 0.000000 0.041744 0.000000 0.000000
# 5 0.000000 0.000000 0.000000 0.000000 0.034019 0.000000
# 6 0.000000 0.000000 0.000000 0.000000 0.000000 0.090238
#
#
# Mechanical properties :
#
#
# Convention : Reuss Voigt Hill
#
# Bulk Modulus (GPa) = 59.59862 61.21030 60.40446
# Shear Modulus (GPa) = 21.66951 25.49785 23.58368
#
# Velocity S-wave (km/s) = 3.39875 3.68678 3.54569
# Velocity P-wave (km/s) = 6.86824 7.12411 6.99734
#
# Compressibility (1/GPa) = 0.01677891
#
# Stress axis : x y z
#
# Youngs Moduli (GPa) = 74.08638 94.13609 72.24871
#
# Poissons Ratio (x) = 0.28096 0.25355
# Poissons Ratio (y) = 0.22112 0.29604
# Poissons Ratio (z) = 0.26000 0.38572
#
# Static dielectric constant tensor:
#      x y z
#    x 3.659640 0.000000 0.000000 
#    y 0.000000 3.299260 0.000000 
#    z 0.000000 0.000000 3.470830 
# 
# 
# High freq. dielectric constant tensor:
#      x y z
#    x 1.741860 0.000000 0.000000 
#    y 0.000000 1.709970 0.000000 
#    z 0.000000 0.000000 1.724310 
# 
# From -- ./inp_files/13689.got.cif
#   From: 2010.03.12/outbox.cif.g09.slc.cpg/sg38_7_cif.got.tgz:13689.got - 2010.04.14 02:38:36.
