data_PCOD8179943
_publ_section_title
;
Structure prediction by ZEFSAII (Michael W. Deem and Ramdas Pophale) SiO2 
 PCOD8179943
Probable space group: A M M 2
;
_chemical_formula_sum "Si O2"
_cell_formula_units_Z 64
_cell_length_a 18.403245
_cell_length_b 35.196768
_cell_length_c 5.031853
_cell_angle_alpha 90.000000
_cell_angle_beta 90.000000
_cell_angle_gamma 90.000000
_cell_volume 3259.306018
_symmetry_space_group_name_H-M "A M M 2"
_symmetry_group_IT_number 38
_symmetry_cell_setting 'orthorhombic'
loop_
_space_group_symop_operation_xyz
x,y,z
-x,-y,z
-x,y,z
x,-y,z
x,1/2+y,1/2+z
-x,1/2-y,1/2+z
-x,1/2+y,1/2+z
x,1/2-y,1/2+z
loop_
_atom_site_type_symbol
_atom_site_label
_atom_site_fract_x
_atom_site_fract_y
_atom_site_fract_z
Si Si1 0.204322 0.456996 0.995930
Si Si2 0.164090 0.227326 0.789894
Si Si3 0.581791 0.153692 0.570443
Si Si4 0.664464 0.772806 0.757301
Si Si5 0.582148 0.604192 0.580612
Si Si6 0.299298 0.957020 0.982966
Si Si7 0.082125 0.848722 0.897338
Si Si8 0.917827 0.898164 0.386352
O O1 0.182902 0.500000 0.076215
O O2 0.239066 0.455439 0.708207
O O3 0.131065 0.432855 0.984347
O O4 0.261371 0.440975 0.214739
O O5 0.138308 0.240204 0.498303
O O6 0.249898 0.222151 0.774406
O O7 0.131532 0.188221 0.892939
O O8 0.500000 0.169455 0.533132
O O9 0.632642 0.187306 0.667873
O O10 0.610534 0.135374 0.294584
O O11 0.584023 0.120979 0.788007
O O12 0.637984 0.740688 0.547131
O O13 0.500000 0.592058 0.659911
O O14 0.632107 0.567230 0.577583
O O15 0.327228 0.000000 0.936327
O O16 0.084858 0.865818 0.606072
O O17 0.000000 0.837200 0.976435
O O18 0.111612 0.879142 0.113683
O O19 0.000000 0.913578 0.347170
#
# Coordination Sequence:
#
# PCOD8179943 Si02
#       8
#     8   8   8   8   8   8   8   8
#     4  10  21  37  57  83 113 144 182 225 268 321
#     4  10  21  36  53  76 106 139 178 223 270 323
#     4  10  21  36  55  80 108 140 181 226 271 324
#     4  10  21  36  53  76 106 139 178 223 270 323
#     4  10  21  37  56  81 112 144 182 226 272 326
#     4  10  21  37  57  83 113 144 182 225 268 321
#     4  10  21  36  55  80 108 140 181 226 271 324
#     4  10  21  37  56  81 112 144 182 226 272 326
#
# _framework density 19.636081999999998
#
# number of rings (size 3 to 8) (size 9 to 14) (size 15 to 20)
#    0.000    2.000    0.000    3.000    0.000    4.500 
#    0.000    0.000    0.000    9.000    0.000    0.000 
#    0.000    0.000    0.000    0.000    0.000    0.000 
#
# Total GULP energy -396807.374820 kJ/mol
# GULP energy per Si atom -12400.230463 kJ/mol
# Density = 1.959139 g / cm^3
# Si number density = 19.636082 Si / 1000 Ang^3
#
#
#
# Elastic Constant Matrix: (Units=GPa)
#
#
# Indices 1 2 3 4 5 6 
#
# 1 70.0982 59.7443 26.2108 0.0000 0.0000 0.0000
# 2 59.7443 96.3571 19.3544 0.0000 0.0000 0.0000
# 3 26.2108 19.3544 93.8721 0.0000 0.0000 0.0000
# 4 0.0000 0.0000 0.0000 33.0271 0.0000 0.0000
# 5 0.0000 0.0000 0.0000 0.0000 27.0356 0.0000
# 6 0.0000 0.0000 0.0000 0.0000 0.0000 12.4898
#
#
#
# Elastic Compliance Matrix: (Units=1/GPa)
#
#
# Indices 1 2 3 4 5 6 
#
# 1 0.032456 -0.019094 -0.005126 0.000000 0.000000 0.000000
# 2 -0.019094 0.022060 0.000783 0.000000 0.000000 0.000000
# 3 -0.005126 0.000783 0.011922 0.000000 0.000000 0.000000
# 4 0.000000 0.000000 0.000000 0.030278 0.000000 0.000000
# 5 0.000000 0.000000 0.000000 0.000000 0.036988 0.000000
# 6 0.000000 0.000000 0.000000 0.000000 0.000000 0.080065
#
#
# Mechanical properties :
#
#
# Convention : Reuss Voigt Hill
#
# Bulk Modulus (GPa) = 51.11112 52.32739 51.71926
# Shear Modulus (GPa) = 18.71502 24.84502 21.78002
#
# Velocity S-wave (km/s) = 3.09057 3.56093 3.33405
# Velocity P-wave (km/s) = 6.23067 6.60404 6.42007
#
# Compressibility (1/GPa) = 0.01956521
#
# Stress axis : x y z
#
# Youngs Moduli (GPa) = 30.81081 45.33141 83.87535
#
# Poissons Ratio (x) = 0.86557 0.42991
# Poissons Ratio (y) = 0.58831 -0.06569
# Poissons Ratio (z) = 0.15792 -0.03550
#
# Static dielectric constant tensor:
#      x y z
#    x 3.501760 0.000000 0.000000 
#    y 0.000000 3.400160 0.000000 
#    z 0.000000 0.000000 3.921740 
# 
# 
# High freq. dielectric constant tensor:
#      x y z
#    x 1.753550 0.000000 0.000000 
#    y 0.000000 1.755730 0.000000 
#    z 0.000000 0.000000 1.789720 
# 
# From -- ./inp_files/1750.got.cif
#   From: 2010.03.12/outbox.cif.g09.slc.cpg/sg38_1_cif.got.tgz:1750.got - 2010.04.14 02:38:36.
