data_PCOD8179436
_publ_section_title
;
Structure prediction by ZEFSAII (Michael W. Deem and Ramdas Pophale) SiO2 
 PCOD8179436
Probable space group: A M M 2
;
_chemical_formula_sum "Si O2"
_cell_formula_units_Z 64
_cell_length_a 8.718683
_cell_length_b 29.173241
_cell_length_c 12.719016
_cell_angle_alpha 90.000000
_cell_angle_beta 90.000000
_cell_angle_gamma 90.000000
_cell_volume 3235.110215
_symmetry_space_group_name_H-M "A M M 2"
_symmetry_group_IT_number 38
_symmetry_cell_setting 'orthorhombic'
loop_
_space_group_symop_operation_xyz
x,y,z
-x,-y,z
-x,y,z
x,-y,z
x,1/2+y,1/2+z
-x,1/2-y,1/2+z
-x,1/2+y,1/2+z
x,1/2-y,1/2+z
loop_
_atom_site_type_symbol
_atom_site_label
_atom_site_fract_x
_atom_site_fract_y
_atom_site_fract_z
Si Si1 0.181549 0.553065 0.410930
Si Si2 0.317839 0.099651 0.116891
Si Si3 0.681685 0.203295 0.623979
Si Si4 0.327499 0.049550 0.527153
Si Si5 0.823295 0.921364 0.328616
Si Si6 0.673287 0.199536 0.177677
Si Si7 0.673650 0.832052 0.401454
Si Si8 0.682095 0.609821 0.219162
O O1 0.237739 0.500000 0.398493
O O2 0.247483 0.575016 0.516630
O O3 0.235697 0.584950 0.315370
O O4 0.000000 0.554537 0.416573
O O5 0.500000 0.099681 0.107833
O O6 0.270287 0.071094 0.220580
O O7 0.253850 0.152303 0.130650
O O8 0.500000 0.207311 0.634101
O O9 0.758450 0.253169 0.645270
O O10 0.732379 0.192454 0.505785
O O11 0.733381 0.163259 0.706263
O O12 0.500000 0.063211 0.495216
O O13 0.229337 0.044515 0.420481
O O14 0.263661 0.086195 0.610429
O O15 0.322120 0.000000 0.583251
O O16 0.792428 0.871870 0.377700
O O17 0.000000 0.928879 0.301735
O O18 0.500000 0.200204 0.135155
O O19 0.677007 0.202344 0.303841
O O20 0.500000 0.851416 0.416803
O O21 0.500000 0.604694 0.235001
#
# Coordination Sequence:
#
# PCOD8179436 Si02
#       8
#     8   8   8   8   8   8   8   8
#     4  11  25  43  61  83 117 159 199 245 303 361
#     4  10  21  39  63  86 113 149 195 243 291 346
#     4   9  16  29  54  86 116 148 192 245 292 337
#     4  10  20  35  56  83 113 144 184 233 282 334
#     4  11  21  34  55  81 112 147 185 229 285 346
#     4   8  16  29  52  87 115 145 189 243 296 339
#     4   9  16  31  52  74 110 150 187 233 284 336
#     4  10  20  36  60  87 114 149 196 243 288 342
#
# _framework density 19.782941999999998
#
# number of rings (size 3 to 8) (size 9 to 14) (size 15 to 20)
#    0.000    2.250    1.250    3.000    0.000    3.750 
#    0.000    3.750    0.000   10.500    0.000    0.000 
#    0.000    0.000    0.000    0.000    0.000    0.000 
#
# Total GULP energy -396501.021893 kJ/mol
# GULP energy per Si atom -12390.656934 kJ/mol
# Density = 1.973791 g / cm^3
# Si number density = 19.782942 Si / 1000 Ang^3
#
#
#
# Elastic Constant Matrix: (Units=GPa)
#
#
# Indices 1 2 3 4 5 6 
#
# 1 45.5915 21.3383 29.4279 0.0000 0.0000 0.0000
# 2 21.3383 108.9659 52.0100 0.0000 0.0000 0.0000
# 3 29.4279 52.0100 122.0566 0.0000 0.0000 0.0000
# 4 0.0000 0.0000 0.0000 26.4271 0.0000 0.0000
# 5 0.0000 0.0000 0.0000 0.0000 16.6588 0.0000
# 6 0.0000 0.0000 0.0000 0.0000 0.0000 9.6012
#
#
#
# Elastic Compliance Matrix: (Units=1/GPa)
#
#
# Indices 1 2 3 4 5 6 
#
# 1 0.026593 -0.002696 -0.005263 0.000000 0.000000 0.000000
# 2 -0.002696 0.011793 -0.004375 0.000000 0.000000 0.000000
# 3 -0.005263 -0.004375 0.011326 0.000000 0.000000 0.000000
# 4 0.000000 0.000000 0.000000 0.037840 0.000000 0.000000
# 5 0.000000 0.000000 0.000000 0.000000 0.060028 0.000000
# 6 0.000000 0.000000 0.000000 0.000000 0.000000 0.104154
#
#
# Mechanical properties :
#
#
# Convention : Reuss Voigt Hill
#
# Bulk Modulus (GPa) = 39.92885 53.57404 46.75145
# Shear Modulus (GPa) = 17.55922 22.12659 19.84290
#
# Velocity S-wave (km/s) = 2.98248 3.34798 3.17050
# Velocity P-wave (km/s) = 5.66459 6.48730 6.08985
#
# Compressibility (1/GPa) = 0.02504455
#
# Stress axis : x y z
#
# Youngs Moduli (GPa) = 37.60453 84.79274 88.29047
#
# Poissons Ratio (x) = 0.22856 0.46466
# Poissons Ratio (y) = 0.10136 0.38631
# Poissons Ratio (z) = 0.19791 0.37101
#
# Static dielectric constant tensor:
#      x y z
#    x 3.237880 0.000000 0.000000 
#    y 0.000000 3.938150 0.000000 
#    z 0.000000 0.000000 3.777040 
# 
# 
# High freq. dielectric constant tensor:
#      x y z
#    x 1.730250 0.000000 0.000000 
#    y 0.000000 1.780320 0.000000 
#    z 0.000000 0.000000 1.775160 
# 
# From -- ./inp_files/8624.got.cif
#   From: 2010.03.12/outbox.cif.g09.slc.cpg/sg38_5_cif.got.tgz:8624.got - 2010.04.14 02:38:36.
