data_PCOD8179497
_publ_section_title
;
Structure prediction by ZEFSAII (Michael W. Deem and Ramdas Pophale) SiO2 
 PCOD8179497
Probable space group: A M M 2
;
_chemical_formula_sum "Si O2"
_cell_formula_units_Z 56
_cell_length_a 14.726417
_cell_length_b 13.605581
_cell_length_c 13.998347
_cell_angle_alpha 90.000000
_cell_angle_beta 90.000000
_cell_angle_gamma 90.000000
_cell_volume 2804.729233
_symmetry_space_group_name_H-M "A M M 2"
_symmetry_group_IT_number 38
_symmetry_cell_setting 'orthorhombic'
loop_
_space_group_symop_operation_xyz
x,y,z
-x,-y,z
-x,y,z
x,-y,z
x,1/2+y,1/2+z
-x,1/2-y,1/2+z
-x,1/2+y,1/2+z
x,1/2-y,1/2+z
loop_
_atom_site_type_symbol
_atom_site_label
_atom_site_fract_x
_atom_site_fract_y
_atom_site_fract_z
Si Si1 0.281102 0.114471 0.331510
Si Si2 0.101808 0.699160 0.758007
Si Si3 0.636431 0.109915 0.807233
Si Si4 0.397542 0.716197 0.676677
Si Si5 0.602044 0.746542 0.965730
Si Si6 0.105179 0.888575 0.059058
Si Si7 0.844595 0.110371 0.850445
O O1 0.175186 0.145216 0.325551
O O2 0.331925 0.143126 0.233772
O O3 0.329007 0.168621 0.419790
O O4 0.288517 0.000000 0.350362
O O5 0.130070 0.683584 0.646959
O O6 0.098131 0.814474 0.785295
O O7 0.000000 0.655182 0.774100
O O8 0.602624 0.173963 0.718598
O O9 0.596544 0.154160 0.904404
O O10 0.744348 0.113650 0.809349
O O11 0.599239 0.000000 0.794676
O O12 0.500000 0.673849 0.680763
O O13 0.360992 0.723075 0.569199
O O14 0.500000 0.701228 0.972332
O O15 0.000000 0.880257 0.032463
O O16 0.130728 0.000000 0.090145
O O17 0.157861 0.857679 0.962332
O O18 0.885963 0.000000 0.841736
#
# Coordination Sequence:
#
# PCOD8179497 Si02
#       7
#     8   8   8   8   8   8   8
#     4  11  23  39  60  87 120 157 199 246 293 348
#     4  11  22  37  59  88 121 156 197 247 298 345
#     4  10  20  35  58  87 116 148 189 235 287 349
#     4  10  22  40  61  87 119 154 195 240 291 352
#     4  10  22  40  61  87 119 153 193 240 294 354
#     4   9  19  35  56  83 112 147 193 237 282 342
#     4  10  20  36  60  87 114 150 195 241 289 349
#
# _framework density 19.966277999999999
#
# number of rings (size 3 to 8) (size 9 to 14) (size 15 to 20)
#    0.000    1.857    2.857    2.571    2.000    5.143 
#    0.000    2.857    0.000    0.857    0.000    4.000 
#    0.000    0.000    0.000    0.000    0.000    0.000 
#
# Total GULP energy -347157.178141 kJ/mol
# GULP energy per Si atom -12398.470648 kJ/mol
# Density = 1.992083 g / cm^3
# Si number density = 19.966278 Si / 1000 Ang^3
#
#
#
# Elastic Constant Matrix: (Units=GPa)
#
#
# Indices 1 2 3 4 5 6 
#
# 1 83.4871 0.0470 -1.4442 0.0000 0.0000 0.0000
# 2 0.0470 81.3769 4.5210 0.0000 0.0000 0.0000
# 3 -1.4442 4.5210 67.3204 0.0000 0.0000 0.0000
# 4 0.0000 0.0000 0.0000 22.2738 0.0000 0.0000
# 5 0.0000 0.0000 0.0000 0.0000 18.4694 0.0000
# 6 0.0000 0.0000 0.0000 0.0000 0.0000 17.1297
#
#
#
# Elastic Compliance Matrix: (Units=1/GPa)
#
#
# Indices 1 2 3 4 5 6 
#
# 1 0.011982 -0.000021 0.000258 0.000000 0.000000 0.000000
# 2 -0.000021 0.012335 -0.000829 0.000000 0.000000 0.000000
# 3 0.000258 -0.000829 0.014916 0.000000 0.000000 0.000000
# 4 0.000000 0.000000 0.000000 0.044896 0.000000 0.000000
# 5 0.000000 0.000000 0.000000 0.000000 0.054144 0.000000
# 6 0.000000 0.000000 0.000000 0.000000 0.000000 0.058378
#
#
# Mechanical properties :
#
#
# Convention : Reuss Voigt Hill
#
# Bulk Modulus (GPa) = 26.28170 26.49244 26.38707
# Shear Modulus (GPa) = 23.75115 26.84531 25.29823
#
# Velocity S-wave (km/s) = 3.45275 3.67076 3.56342
# Velocity P-wave (km/s) = 5.39323 5.59137 5.49319
#
# Compressibility (1/GPa) = 0.03804928
#
# Stress axis : x y z
#
# Youngs Moduli (GPa) = 83.45582 81.07308 67.04416
#
# Poissons Ratio (x) = 0.00172 -0.01733
# Poissons Ratio (y) = 0.00178 0.05557
# Poissons Ratio (z) = -0.02157 0.06719
#
# Static dielectric constant tensor:
#      x y z
#    x 3.710330 0.000000 0.000000 
#    y 0.000000 3.684930 0.000000 
#    z 0.000000 0.000000 3.562970 
# 
# 
# High freq. dielectric constant tensor:
#      x y z
#    x 1.792790 0.000000 0.000000 
#    y 0.000000 1.763490 0.000000 
#    z 0.000000 0.000000 1.771060 
# 
# From -- ./inp_files/14654.got.cif
#   From: 2010.03.12/outbox.cif.g09.slc.cpg/sg38_8_cif.got.tgz:14654.got - 2010.04.14 02:38:36.
