data_PCOD8179045
_publ_section_title
;
Structure prediction by ZEFSAII (Michael W. Deem and Ramdas Pophale) SiO2 
 PCOD8179045
Probable space group: A M M 2
;
_chemical_formula_sum "Si O2"
_cell_formula_units_Z 64
_cell_length_a 18.971184
_cell_length_b 9.221444
_cell_length_c 20.042303
_cell_angle_alpha 90.000000
_cell_angle_beta 90.000000
_cell_angle_gamma 90.000000
_cell_volume 3506.234777
_symmetry_space_group_name_H-M "A M M 2"
_symmetry_group_IT_number 38
_symmetry_cell_setting 'orthorhombic'
loop_
_space_group_symop_operation_xyz
x,y,z
-x,-y,z
-x,y,z
x,-y,z
x,1/2+y,1/2+z
-x,1/2-y,1/2+z
-x,1/2+y,1/2+z
x,1/2-y,1/2+z
loop_
_atom_site_type_symbol
_atom_site_label
_atom_site_fract_x
_atom_site_fract_y
_atom_site_fract_z
Si Si1 0.164961 0.669343 0.908890
Si Si2 0.077004 0.172002 0.283910
Si Si3 0.845061 0.172642 0.156571
Si Si4 0.081291 0.327548 0.523008
Si Si5 0.683234 0.329753 0.857856
Si Si6 0.421403 0.327233 0.602916
Si Si7 0.694914 0.672936 0.705562
Si Si8 0.583096 0.335140 0.454007
O O1 0.151974 0.500000 0.923584
O O2 0.130411 0.720948 0.840348
O O3 0.247275 0.705747 0.901226
O O4 0.127914 0.763844 0.964458
O O5 0.104782 0.234391 0.214330
O O6 0.000000 0.237643 0.298785
O O7 0.073349 0.000000 0.280045
O O8 0.879200 0.231179 0.088697
O O9 0.766114 0.231063 0.170169
O O10 0.843997 0.000000 0.156651
O O11 0.082771 0.500000 0.519110
O O12 0.000000 0.272498 0.520722
O O13 0.670039 0.500000 0.854265
O O14 0.688589 0.269099 0.781762
O O15 0.618343 0.259026 0.896256
O O16 0.500000 0.268309 0.618703
O O17 0.422344 0.500000 0.603087
O O18 0.369266 0.267074 0.660106
O O19 0.397335 0.276909 0.528543
O O20 0.695621 0.500000 0.706956
O O21 0.500000 0.324345 0.443594
O O22 0.609337 0.500000 0.446077
#
# Coordination Sequence:
#
# PCOD8179045 Si02
#       8
#     8   8   8   8   8   8   8   8
#     4  10  20  34  50  73 104 136 169 205 248 305
#     4   9  15  26  47  69  91 126 168 206 246 292
#     4   9  16  28  46  71 100 127 160 208 258 298
#     4  10  21  34  50  76 104 129 166 216 263 306
#     4  10  20  33  51  78 108 134 167 211 253 298
#     4   8  15  28  47  72  98 126 164 204 242 292
#     4   9  16  28  47  72 102 130 160 206 256 296
#     4   9  19  35  54  77 105 137 171 204 244 301
#
# _framework density 18.253198999999999
#
# number of rings (size 3 to 8) (size 9 to 14) (size 15 to 20)
#    0.000    2.750    1.250    1.500    1.750    3.500 
#    0.000    1.250    0.000    2.250    0.000    0.000 
#    0.000    0.000    0.000    0.000    0.000    0.000 
#
# Total GULP energy -396626.028322 kJ/mol
# GULP energy per Si atom -12394.563385 kJ/mol
# Density = 1.821165 g / cm^3
# Si number density = 18.253199 Si / 1000 Ang^3
#
#
#
# Elastic Constant Matrix: (Units=GPa)
#
#
# Indices 1 2 3 4 5 6 
#
# 1 99.7613 21.3325 60.4526 0.0000 0.0000 0.0000
# 2 21.3325 15.5230 24.5833 0.0000 0.0000 0.0000
# 3 60.4526 24.5833 133.7642 0.0000 0.0000 0.0000
# 4 0.0000 0.0000 0.0000 21.6202 0.0000 0.0000
# 5 0.0000 0.0000 0.0000 0.0000 42.6310 0.0000
# 6 0.0000 0.0000 0.0000 0.0000 0.0000 20.3634
#
#
#
# Elastic Compliance Matrix: (Units=1/GPa)
#
#
# Indices 1 2 3 4 5 6 
#
# 1 0.015887 -0.014757 -0.004468 0.000000 0.000000 0.000000
# 2 -0.014757 0.104575 -0.012550 0.000000 0.000000 0.000000
# 3 -0.004468 -0.012550 0.011801 0.000000 0.000000 0.000000
# 4 0.000000 0.000000 0.000000 0.046253 0.000000 0.000000
# 5 0.000000 0.000000 0.000000 0.000000 0.023457 0.000000
# 6 0.000000 0.000000 0.000000 0.000000 0.000000 0.049108
#
#
# Mechanical properties :
#
#
# Convention : Reuss Voigt Hill
#
# Bulk Modulus (GPa) = 14.55307 51.30948 32.93127
# Shear Modulus (GPa) = 14.81332 26.43492 20.62412
#
# Velocity S-wave (km/s) = 2.85186 3.80970 3.36503
# Velocity P-wave (km/s) = 4.33985 6.89366 5.76007
#
# Compressibility (1/GPa) = 0.06871404
#
# Stress axis : x y z
#
# Youngs Moduli (GPa) = 62.94524 9.56255 84.73617
#
# Poissons Ratio (x) = 0.14111 0.37858
# Poissons Ratio (y) = 0.92889 1.06341
# Poissons Ratio (z) = 0.28122 0.12001
#
# Static dielectric constant tensor:
#      x y z
#    x 3.574510 0.000000 0.000000 
#    y 0.000000 2.783990 0.000000 
#    z 0.000000 0.000000 3.673690 
# 
# 
# High freq. dielectric constant tensor:
#      x y z
#    x 1.721970 0.000000 0.000000 
#    y 0.000000 1.640570 0.000000 
#    z 0.000000 0.000000 1.721280 
# 
# From -- ./inp_files/18791.got.cif
#   From: 2010.03.12/outbox.cif.g09.slc.cpg/sg38_10_cif.got.tgz:18791.got - 2010.04.14 02:38:36.
