data_PCOD8179502
_publ_section_title
;
Structure prediction by ZEFSAII (Michael W. Deem and Ramdas Pophale) SiO2 
 PCOD8179502
Probable space group: A M M 2
;
_chemical_formula_sum "Si O2"
_cell_formula_units_Z 48
_cell_length_a 8.708219
_cell_length_b 23.119458
_cell_length_c 11.797565
_cell_angle_alpha 90.000000
_cell_angle_beta 90.000000
_cell_angle_gamma 90.000000
_cell_volume 2375.195544
_symmetry_space_group_name_H-M "A M M 2"
_symmetry_group_IT_number 38
_symmetry_cell_setting 'orthorhombic'
loop_
_space_group_symop_operation_xyz
x,y,z
-x,-y,z
-x,y,z
x,-y,z
x,1/2+y,1/2+z
-x,1/2-y,1/2+z
-x,1/2+y,1/2+z
x,1/2-y,1/2+z
loop_
_atom_site_type_symbol
_atom_site_label
_atom_site_fract_x
_atom_site_fract_y
_atom_site_fract_z
Si Si1 0.318931 0.125593 0.915180
Si Si2 0.822279 0.723175 0.558328
Si Si3 0.319498 0.932716 0.680827
Si Si4 0.178366 0.648920 0.999883
Si Si5 0.828735 0.933667 0.116435
Si Si6 0.322310 0.844414 0.257372
O O1 0.500000 0.121249 0.932919
O O2 0.273210 0.107850 0.787440
O O3 0.265170 0.189813 0.954958
O O4 0.235876 0.077782 0.991652
O O5 0.787946 0.791147 0.563942
O O6 0.771376 0.701138 0.681491
O O7 0.000000 0.710952 0.537338
O O8 0.500000 0.929761 0.659076
O O9 0.234813 0.905849 0.572227
O O10 0.268801 0.000000 0.697948
O O11 0.000000 0.640078 0.971765
O O12 0.273034 0.655483 0.885983
O O13 0.713332 0.907643 0.208628
O O14 0.000000 0.906479 0.126773
O O15 0.836178 0.000000 0.142869
O O16 0.500000 0.828991 0.247016
#
# Coordination Sequence:
#
# PCOD8179502 Si02
#       6
#     8   8   8   8   8   8
#     4  10  20  36  61  92 123 157 198 249 304 358
#     4  10  22  40  62  89 122 156 198 250 306 362
#     4  10  23  42  62  89 126 165 207 254 303 361
#     4  11  25  42  62  87 120 161 202 249 303 363
#     4  10  20  35  58  87 119 156 198 244 294 351
#     4  11  23  39  61  87 117 153 197 247 300 359
#
# _framework density 20.208862
#
# number of rings (size 3 to 8) (size 9 to 14) (size 15 to 20)
#    0.000    1.667    0.000    6.000    2.333    7.000 
#    0.000    0.000    0.000    0.000    0.000    0.000 
#    0.000    0.000    0.000    0.000    0.000    0.000 
#
# Total GULP energy -297544.262611 kJ/mol
# GULP energy per Si atom -12397.677609 kJ/mol
# Density = 2.016287 g / cm^3
# Si number density = 20.208862 Si / 1000 Ang^3
#
#
#
# Elastic Constant Matrix: (Units=GPa)
#
#
# Indices 1 2 3 4 5 6 
#
# 1 81.0943 28.5597 40.7991 0.0000 0.0000 0.0000
# 2 28.5597 95.5541 26.8892 0.0000 0.0000 0.0000
# 3 40.7991 26.8892 96.4423 0.0000 0.0000 0.0000
# 4 0.0000 0.0000 0.0000 11.5213 0.0000 0.0000
# 5 0.0000 0.0000 0.0000 0.0000 28.0663 0.0000
# 6 0.0000 0.0000 0.0000 0.0000 0.0000 19.3265
#
#
#
# Elastic Compliance Matrix: (Units=1/GPa)
#
#
# Indices 1 2 3 4 5 6 
#
# 1 0.016534 -0.003227 -0.006095 0.000000 0.000000 0.000000
# 2 -0.003227 0.011986 -0.001977 0.000000 0.000000 0.000000
# 3 -0.006095 -0.001977 0.013498 0.000000 0.000000 0.000000
# 4 0.000000 0.000000 0.000000 0.086796 0.000000 0.000000
# 5 0.000000 0.000000 0.000000 0.000000 0.035630 0.000000
# 6 0.000000 0.000000 0.000000 0.000000 0.000000 0.051743
#
#
# Mechanical properties :
#
#
# Convention : Reuss Voigt Hill
#
# Bulk Modulus (GPa) = 51.48892 51.73183 51.61038
# Shear Modulus (GPa) = 20.38675 23.57233 21.97954
#
# Velocity S-wave (km/s) = 3.17961 3.41902 3.30148
# Velocity P-wave (km/s) = 6.24609 6.42187 6.33459
#
# Compressibility (1/GPa) = 0.01942165
#
# Stress axis : x y z
#
# Youngs Moduli (GPa) = 60.48104 83.43105 74.08238
#
# Poissons Ratio (x) = 0.26920 0.45153
# Poissons Ratio (y) = 0.19515 0.14645
# Poissons Ratio (z) = 0.36863 0.16493
#
# Static dielectric constant tensor:
#      x y z
#    x 3.924510 0.000000 0.000000 
#    y 0.000000 3.748530 0.000000 
#    z 0.000000 0.000000 3.629570 
# 
# 
# High freq. dielectric constant tensor:
#      x y z
#    x 1.800230 0.000000 0.000000 
#    y 0.000000 1.793660 0.000000 
#    z 0.000000 0.000000 1.786980 
# 
# From -- ./inp_files/8141.got.cif
#   From: 2010.03.12/outbox.cif.g09.slc.cpg/sg38_5_cif.got.tgz:8141.got - 2010.04.14 02:38:36.
