data_PCOD8179063
_publ_section_title
;
Structure prediction by ZEFSAII (Michael W. Deem and Ramdas Pophale) SiO2 
 PCOD8179063
Probable space group: A M M 2
;
_chemical_formula_sum "Si O2"
_cell_formula_units_Z 48
_cell_length_a 9.386087
_cell_length_b 8.613416
_cell_length_c 30.924965
_cell_angle_alpha 90.000000
_cell_angle_beta 90.000000
_cell_angle_gamma 90.000000
_cell_volume 2500.168130
_symmetry_space_group_name_H-M "A M M 2"
_symmetry_group_IT_number 38
_symmetry_cell_setting 'orthorhombic'
loop_
_space_group_symop_operation_xyz
x,y,z
-x,-y,z
-x,y,z
x,-y,z
x,1/2+y,1/2+z
-x,1/2-y,1/2+z
-x,1/2+y,1/2+z
x,1/2-y,1/2+z
loop_
_atom_site_type_symbol
_atom_site_label
_atom_site_fract_x
_atom_site_fract_y
_atom_site_fract_z
Si Si1 0.664158 0.818651 0.652440
Si Si2 0.660419 0.684883 0.810007
Si Si3 0.660111 0.184369 0.405247
Si Si4 0.164625 0.180723 0.075911
Si Si5 0.159917 0.316120 0.730445
Si Si6 0.834676 0.178034 0.485507
O O1 0.500000 0.764108 0.652193
O O2 0.734338 0.780376 0.606564
O O3 0.748341 0.727674 0.689096
O O4 0.676601 0.000000 0.661586
O O5 0.500000 0.744861 0.800649
O O6 0.660951 0.500000 0.808499
O O7 0.711111 0.742181 0.857670
O O8 0.766116 0.753140 0.773641
O O9 0.500000 0.242110 0.413532
O O10 0.757273 0.251572 0.443633
O O11 0.668278 0.000000 0.406013
O O12 0.000000 0.226651 0.084461
O O13 0.189883 0.000000 0.084731
O O14 0.208093 0.220661 0.026948
O O15 0.153027 0.500000 0.733221
O O16 0.000000 0.247418 0.726684
O O17 0.000000 0.190080 0.475353
O O18 0.788735 0.000000 0.494082
#
# Coordination Sequence:
#
# PCOD8179063 Si02
#       6
#     8   8   8   8   8   8
#     4  11  24  39  55  76 101 131 168 209 254 305
#     4   8  14  26  45  70 101 135 169 208 253 296
#     4   8  14  25  43  69 100 133 169 208 248 290
#     4  10  21  37  56  77 102 133 169 209 254 304
#     4  10  20  33  52  79 107 135 169 209 253 301
#     4   9  17  29  47  72 101 132 166 207 254 299
#
# _framework density 19.198708
#
# number of rings (size 3 to 8) (size 9 to 14) (size 15 to 20)
#    0.000    2.667    0.000    3.000    0.000    6.667 
#    0.000    5.000    0.000    1.000    0.000    4.667 
#    0.000    0.000    0.000    0.000    0.000    0.000 
#
# Total GULP energy -297543.734565 kJ/mol
# GULP energy per Si atom -12397.655607 kJ/mol
# Density = 1.915501 g / cm^3
# Si number density = 19.198708 Si / 1000 Ang^3
#
#
#
# Elastic Constant Matrix: (Units=GPa)
#
#
# Indices 1 2 3 4 5 6 
#
# 1 116.5538 15.2290 80.3684 0.0000 0.0000 0.0000
# 2 15.2290 17.2891 7.5793 0.0000 0.0000 0.0000
# 3 80.3684 7.5793 144.6183 0.0000 0.0000 0.0000
# 4 0.0000 0.0000 0.0000 21.1519 0.0000 0.0000
# 5 0.0000 0.0000 0.0000 0.0000 45.1835 0.0000
# 6 0.0000 0.0000 0.0000 0.0000 0.0000 17.3662
#
#
#
# Elastic Compliance Matrix: (Units=1/GPa)
#
#
# Indices 1 2 3 4 5 6 
#
# 1 0.015455 -0.010080 -0.008060 0.000000 0.000000 0.000000
# 2 -0.010080 0.065774 0.002154 0.000000 0.000000 0.000000
# 3 -0.008060 0.002154 0.011281 0.000000 0.000000 0.000000
# 4 0.000000 0.000000 0.000000 0.047277 0.000000 0.000000
# 5 0.000000 0.000000 0.000000 0.000000 0.022132 0.000000
# 6 0.000000 0.000000 0.000000 0.000000 0.000000 0.057583
#
#
# Mechanical properties :
#
#
# Convention : Reuss Voigt Hill
#
# Bulk Modulus (GPa) = 16.51839 53.86831 35.19335
# Shear Modulus (GPa) = 18.40586 28.42593 23.41590
#
# Velocity S-wave (km/s) = 3.09965 3.85205 3.49615
# Velocity P-wave (km/s) = 4.62958 6.92124 5.88798
#
# Compressibility (1/GPa) = 0.06053859
#
# Stress axis : x y z
#
# Youngs Moduli (GPa) = 64.70550 15.20361 88.64313
#
# Poissons Ratio (x) = 0.15325 0.71449
# Poissons Ratio (y) = 0.65220 -0.19097
# Poissons Ratio (z) = 0.52155 -0.03275
#
# Static dielectric constant tensor:
#      x y z
#    x 3.723770 0.000000 0.000000 
#    y 0.000000 3.077510 0.000000 
#    z 0.000000 0.000000 3.839740 
# 
# 
# High freq. dielectric constant tensor:
#      x y z
#    x 1.746230 0.000000 0.000000 
#    y 0.000000 1.703410 0.000000 
#    z 0.000000 0.000000 1.764000 
# 
# From -- ./inp_files/24297.got.cif
#   From: 2010.03.12/outbox.cif.g09.slc.cpg/sg38_13_cif.got.tgz:24297.got - 2010.04.14 02:38:36.
