data_PCOD8179192
_publ_section_title
;
Structure prediction by ZEFSAII (Michael W. Deem and Ramdas Pophale) SiO2 
 PCOD8179192
Probable space group: A M M 2
;
_chemical_formula_sum "Si O2"
_cell_formula_units_Z 40
_cell_length_a 12.609990
_cell_length_b 8.975669
_cell_length_c 18.438957
_cell_angle_alpha 90.000000
_cell_angle_beta 90.000000
_cell_angle_gamma 90.000000
_cell_volume 2086.978246
_symmetry_space_group_name_H-M "A M M 2"
_symmetry_group_IT_number 38
_symmetry_cell_setting 'orthorhombic'
loop_
_space_group_symop_operation_xyz
x,y,z
-x,-y,z
-x,y,z
x,-y,z
x,1/2+y,1/2+z
-x,1/2-y,1/2+z
-x,1/2+y,1/2+z
x,1/2-y,1/2+z
loop_
_atom_site_type_symbol
_atom_site_label
_atom_site_fract_x
_atom_site_fract_y
_atom_site_fract_z
Si Si1 0.379177 0.171388 0.105150
Si Si2 0.000000 0.322806 0.756373
Si Si3 0.000000 0.676028 0.594160
Si Si4 0.796476 0.176513 0.344844
Si Si5 0.196155 0.825747 0.997867
Si Si6 0.622736 0.174088 0.752085
O O1 0.500000 0.207336 0.083318
O O2 0.308459 0.209184 0.035505
O O3 0.341366 0.269189 0.173089
O O4 0.364158 0.000000 0.128416
O O5 0.000000 0.255325 0.675117
O O6 0.104532 0.264715 0.797541
O O7 0.000000 0.500000 0.755104
O O8 0.895817 0.729401 0.551841
O O9 0.000000 0.500000 0.601506
O O10 0.813570 0.229025 0.426361
O O11 0.688328 0.244952 0.314467
O O12 0.787709 0.000000 0.342867
O O13 0.184477 0.000000 0.978700
O O14 0.500000 0.213455 0.765413
O O15 0.644724 0.000000 0.756806
#
# Coordination Sequence:
#
# PCOD8179192 Si02
#       6
#     8   4   4   8   8   8
#     4   9  18  34  56  79 104 139 182 224 268 320
#     4   9  19  36  57  81 108 141 182 225 270 320
#     4   9  17  32  55  77 100 137 182 223 266 320
#     4  11  22  36  56  81 112 147 182 223 270 322
#     4  10  20  34  53  78 109 143 179 221 269 320
#     4  10  21  37  57  81 110 143 181 227 274 321
#
# _framework density 19.166467999999998
#
# number of rings (size 3 to 8) (size 9 to 14) (size 15 to 20)
#    0.000    2.200    0.000    3.000    0.000    6.000 
#    0.000    3.500    0.000    2.400    0.000    0.000 
#    0.000    0.000    0.000    0.000    0.000    0.000 
#
# Total GULP energy -248076.137748 kJ/mol
# GULP energy per Si atom -12403.806887 kJ/mol
# Density = 1.912284 g / cm^3
# Si number density = 19.166468 Si / 1000 Ang^3
#
#
#
# Elastic Constant Matrix: (Units=GPa)
#
#
# Indices 1 2 3 4 5 6 
#
# 1 111.2360 39.8435 74.8646 0.0000 0.0000 0.0000
# 2 39.8435 61.7455 47.7968 0.0000 0.0000 0.0000
# 3 74.8646 47.7968 157.8672 0.0000 0.0000 0.0000
# 4 0.0000 0.0000 0.0000 37.5363 0.0000 0.0000
# 5 0.0000 0.0000 0.0000 0.0000 29.0896 0.0000
# 6 0.0000 0.0000 0.0000 0.0000 0.0000 20.8014
#
#
#
# Elastic Compliance Matrix: (Units=1/GPa)
#
#
# Indices 1 2 3 4 5 6 
#
# 1 0.014390 -0.005229 -0.005241 0.000000 0.000000 0.000000
# 2 -0.005229 0.023053 -0.004500 0.000000 0.000000 0.000000
# 3 -0.005241 -0.004500 0.010182 0.000000 0.000000 0.000000
# 4 0.000000 0.000000 0.000000 0.026641 0.000000 0.000000
# 5 0.000000 0.000000 0.000000 0.000000 0.034377 0.000000
# 6 0.000000 0.000000 0.000000 0.000000 0.000000 0.048074
#
#
# Mechanical properties :
#
#
# Convention : Reuss Voigt Hill
#
# Bulk Modulus (GPa) = 56.54256 72.87316 64.70786
# Shear Modulus (GPa) = 25.96707 28.70839 27.33773
#
# Velocity S-wave (km/s) = 3.68478 3.87440 3.78078
# Velocity P-wave (km/s) = 6.90422 7.62354 7.27278
#
# Compressibility (1/GPa) = 0.01768579
#
# Stress axis : x y z
#
# Youngs Moduli (GPa) = 69.49206 43.37831 98.20889
#
# Poissons Ratio (x) = 0.22681 0.51472
# Poissons Ratio (y) = 0.36335 0.44195
# Poissons Ratio (z) = 0.36422 0.19521
#
# Static dielectric constant tensor:
#      x y z
#    x 3.727590 0.000000 0.000000 
#    y 0.000000 3.306810 0.000000 
#    z 0.000000 0.000000 3.514500 
# 
# 
# High freq. dielectric constant tensor:
#      x y z
#    x 1.759660 0.000000 0.000000 
#    y 0.000000 1.723930 0.000000 
#    z 0.000000 0.000000 1.749700 
# 
# From -- ./inp_files/14288.got.cif
#   From: 2010.03.12/outbox.cif.g09.slc.cpg/sg38_8_cif.got.tgz:14288.got - 2010.04.14 02:38:36.
