data_PCOD8179543
_publ_section_title
;
Structure prediction by ZEFSAII (Michael W. Deem and Ramdas Pophale) SiO2 
 PCOD8179543
Probable space group: A M M 2
;
_chemical_formula_sum "Si O2"
_cell_formula_units_Z 48
_cell_length_a 19.108295
_cell_length_b 9.170627
_cell_length_c 14.302494
_cell_angle_alpha 90.000000
_cell_angle_beta 90.000000
_cell_angle_gamma 90.000000
_cell_volume 2506.298195
_symmetry_space_group_name_H-M "A M M 2"
_symmetry_group_IT_number 38
_symmetry_cell_setting 'orthorhombic'
loop_
_space_group_symop_operation_xyz
x,y,z
-x,-y,z
-x,y,z
x,-y,z
x,1/2+y,1/2+z
-x,1/2-y,1/2+z
-x,1/2+y,1/2+z
x,1/2-y,1/2+z
loop_
_atom_site_type_symbol
_atom_site_label
_atom_site_fract_x
_atom_site_fract_y
_atom_site_fract_z
Si Si1 0.112815 0.329765 0.982620
Si Si2 0.000000 0.169136 0.634733
Si Si3 0.000000 0.831491 0.329919
Si Si4 0.500000 0.836912 0.344821
Si Si5 0.632817 0.834201 0.838913
Si Si6 0.361748 0.828345 0.623748
Si Si7 0.500000 0.666160 0.622256
Si Si8 0.257192 0.330292 0.493950
O O1 0.134002 0.500000 0.983534
O O2 0.068476 0.292059 0.890149
O O3 0.179460 0.226831 0.980548
O O4 0.068626 0.289959 0.075028
O O5 0.000000 0.248536 0.732930
O O6 0.000000 0.000000 0.657197
O O7 0.000000 0.000000 0.304981
O O8 0.430181 0.759905 0.382883
O O9 0.500000 0.828487 0.233461
O O10 0.500000 0.000000 0.383280
O O11 0.648752 0.791933 0.732525
O O12 0.607590 0.000000 0.845841
O O13 0.702974 0.804558 0.896490
O O14 0.431434 0.749466 0.584333
O O15 0.293960 0.761957 0.574863
O O16 0.367574 0.000000 0.604155
O O17 0.500000 0.500000 0.585139
O O18 0.256368 0.500000 0.522198
#
# Coordination Sequence:
#
# PCOD8179543 Si02
#       8
#     8   4   4   4   8   8   4   8
#     4   9  20  39  57  79 114 148 176 214 263 320
#     4   9  19  37  62  86 110 143 179 213 260 318
#     4   9  19  37  62  88 112 141 179 219 262 310
#     4   9  17  30  53  80 102 130 178 232 273 313
#     4   9  20  37  54  73 104 143 180 220 272 326
#     4  10  20  36  56  77 104 143 185 225 274 331
#     4   9  17  32  53  78 106 136 178 234 279 317
#     4  11  23  37  54  80 111 144 181 224 270 317
#
# _framework density 19.151751999999998
#
# number of rings (size 3 to 8) (size 9 to 14) (size 15 to 20)
#    0.000    2.500    0.000    2.500    0.000    7.333 
#    0.000    7.500    0.000    0.000    0.000    0.000 
#    0.000    0.000    0.000    0.000    0.000    0.000 
#
# Total GULP energy -297641.803816 kJ/mol
# GULP energy per Si atom -12401.741826 kJ/mol
# Density = 1.910816 g / cm^3
# Si number density = 19.151752 Si / 1000 Ang^3
#
#
#
# Elastic Constant Matrix: (Units=GPa)
#
#
# Indices 1 2 3 4 5 6 
#
# 1 148.4075 78.7702 55.2125 0.0000 0.0000 0.0000
# 2 78.7702 119.2988 59.4939 0.0000 0.0000 0.0000
# 3 55.2125 59.4939 106.2603 0.0000 0.0000 0.0000
# 4 0.0000 0.0000 0.0000 31.8438 0.0000 0.0000
# 5 0.0000 0.0000 0.0000 0.0000 25.2575 0.0000
# 6 0.0000 0.0000 0.0000 0.0000 0.0000 42.0270
#
#
#
# Elastic Compliance Matrix: (Units=1/GPa)
#
#
# Indices 1 2 3 4 5 6 
#
# 1 0.010743 -0.005979 -0.002234 0.000000 0.000000 0.000000
# 2 -0.005979 0.014957 -0.005268 0.000000 0.000000 0.000000
# 3 -0.002234 -0.005268 0.013521 0.000000 0.000000 0.000000
# 4 0.000000 0.000000 0.000000 0.031403 0.000000 0.000000
# 5 0.000000 0.000000 0.000000 0.000000 0.039592 0.000000
# 6 0.000000 0.000000 0.000000 0.000000 0.000000 0.023794
#
#
# Mechanical properties :
#
#
# Convention : Reuss Voigt Hill
#
# Bulk Modulus (GPa) = 81.57241 84.54664 83.05953
# Shear Modulus (GPa) = 30.29213 31.85832 31.07523
#
# Velocity S-wave (km/s) = 3.98136 4.08299 4.03249
# Velocity P-wave (km/s) = 7.98875 8.15286 8.07122
#
# Compressibility (1/GPa) = 0.01225905
#
# Stress axis : x y z
#
# Youngs Moduli (GPa) = 93.08407 66.85799 73.95839
#
# Poissons Ratio (x) = 0.39975 0.16525
# Poissons Ratio (y) = 0.55655 0.38958
# Poissons Ratio (z) = 0.20799 0.35218
#
# Static dielectric constant tensor:
#      x y z
#    x 3.448250 0.000000 0.000000 
#    y 0.000000 3.531780 0.000000 
#    z 0.000000 0.000000 3.534290 
# 
# 
# High freq. dielectric constant tensor:
#      x y z
#    x 1.742690 0.000000 0.000000 
#    y 0.000000 1.749520 0.000000 
#    z 0.000000 0.000000 1.746590 
# 
# From -- ./inp_files/15124.got.cif
#   From: 2010.03.12/outbox.cif.g09.slc.cpg/sg38_8_cif.got.tgz:15124.got - 2010.04.14 02:38:36.
