data_PCOD8179833
_publ_section_title
;
Structure prediction by ZEFSAII (Michael W. Deem and Ramdas Pophale) SiO2 
 PCOD8179833
Probable space group: A M M 2
;
_chemical_formula_sum "Si O2"
_cell_formula_units_Z 48
_cell_length_a 7.747256
_cell_length_b 9.362337
_cell_length_c 34.211484
_cell_angle_alpha 90.000000
_cell_angle_beta 90.000000
_cell_angle_gamma 90.000000
_cell_volume 2481.441778
_symmetry_space_group_name_H-M "A M M 2"
_symmetry_group_IT_number 38
_symmetry_cell_setting 'orthorhombic'
loop_
_space_group_symop_operation_xyz
x,y,z
-x,-y,z
-x,y,z
x,-y,z
x,1/2+y,1/2+z
-x,1/2-y,1/2+z
-x,1/2+y,1/2+z
x,1/2-y,1/2+z
loop_
_atom_site_type_symbol
_atom_site_label
_atom_site_fract_x
_atom_site_fract_y
_atom_site_fract_z
Si Si1 0.697839 0.656122 0.939950
Si Si2 0.500000 0.330376 0.232673
Si Si3 0.199444 0.333190 0.599948
Si Si4 0.705349 0.339491 0.369256
Si Si5 0.798771 0.658863 0.510359
Si Si6 0.808458 0.669660 0.285080
Si Si7 0.500000 0.670705 0.143196
O O1 0.500000 0.636670 0.928905
O O2 0.787330 0.500000 0.942153
O O3 0.784077 0.748786 0.905306
O O4 0.707099 0.730700 0.981952
O O5 0.500000 0.500000 0.235113
O O6 0.329779 0.267992 0.254250
O O7 0.500000 0.280314 0.188135
O O8 0.236411 0.500000 0.608163
O O9 0.238118 0.296621 0.554867
O O10 0.325782 0.234582 0.624971
O O11 0.000000 0.297116 0.610254
O O12 0.500000 0.340220 0.369029
O O13 0.776553 0.500000 0.374429
O O14 0.771503 0.271216 0.328610
O O15 0.724823 0.500000 0.502611
O O16 0.000000 0.661014 0.501597
O O17 0.790105 0.500000 0.286586
O O18 0.000000 0.716699 0.271587
O O19 0.500000 0.500000 0.138031
#
# Coordination Sequence:
#
# PCOD8179833 Si02
#       7
#     8   4   8   8   8   8   4
#     4  10  21  33  47  74 111 146 177 212 264 326
#     4   9  18  33  49  76 115 142 167 214 273 333
#     4   9  20  40  62  83 111 149 194 239 280 330
#     4   9  16  29  49  71  99 136 180 228 268 305
#     4   9  19  36  56  76  99 134 183 233 272 310
#     4   9  16  28  50  76 102 137 179 222 267 314
#     4  11  23  35  57  90 121 150 181 224 287 353
#
# _framework density 19.343594
#
# number of rings (size 3 to 8) (size 9 to 14) (size 15 to 20)
#    0.000    2.667    0.833    1.750    1.167    3.667 
#    0.000    5.000    0.000    2.000    0.000    0.000 
#    0.000    0.000    0.000    0.000    0.000    0.000 
#
# Total GULP energy -297512.923021 kJ/mol
# GULP energy per Si atom -12396.371793 kJ/mol
# Density = 1.929957 g / cm^3
# Si number density = 19.343594 Si / 1000 Ang^3
#
#
#
# Elastic Constant Matrix: (Units=GPa)
#
#
# Indices 1 2 3 4 5 6 
#
# 1 92.4512 38.5291 63.8192 0.0000 0.0000 0.0000
# 2 38.5291 88.7250 66.8915 0.0000 0.0000 0.0000
# 3 63.8192 66.8915 153.8924 0.0000 0.0000 0.0000
# 4 0.0000 0.0000 0.0000 21.8148 0.0000 0.0000
# 5 0.0000 0.0000 0.0000 0.0000 11.0812 0.0000
# 6 0.0000 0.0000 0.0000 0.0000 0.0000 16.8212
#
#
#
# Elastic Compliance Matrix: (Units=1/GPa)
#
#
# Indices 1 2 3 4 5 6 
#
# 1 0.015617 -0.002825 -0.005248 0.000000 0.000000 0.000000
# 2 -0.002825 0.017275 -0.006338 0.000000 0.000000 0.000000
# 3 -0.005248 -0.006338 0.011429 0.000000 0.000000 0.000000
# 4 0.000000 0.000000 0.000000 0.045840 0.000000 0.000000
# 5 0.000000 0.000000 0.000000 0.000000 0.090243 0.000000
# 6 0.000000 0.000000 0.000000 0.000000 0.000000 0.059449
#
#
# Mechanical properties :
#
#
# Convention : Reuss Voigt Hill
#
# Bulk Modulus (GPa) = 64.51632 74.83870 69.67751
# Shear Modulus (GPa) = 18.25871 20.99869 19.62870
#
# Velocity S-wave (km/s) = 3.07565 3.29836 3.18895
# Velocity P-wave (km/s) = 6.78514 7.29923 7.04687
#
# Compressibility (1/GPa) = 0.01549996
#
# Stress axis : x y z
#
# Youngs Moduli (GPa) = 64.03385 57.88550 87.49414
#
# Poissons Ratio (x) = 0.16351 0.45921
# Poissons Ratio (y) = 0.18088 0.55451
# Poissons Ratio (z) = 0.33608 0.36686
#
# Static dielectric constant tensor:
#      x y z
#    x 3.472000 0.000000 0.000000 
#    y 0.000000 3.421640 0.000000 
#    z 0.000000 0.000000 3.620640 
# 
# 
# High freq. dielectric constant tensor:
#      x y z
#    x 1.753010 0.000000 0.000000 
#    y 0.000000 1.718120 0.000000 
#    z 0.000000 0.000000 1.754320 
# 
# From -- ./inp_files/24343.got.cif
#   From: 2010.03.12/outbox.cif.g09.slc.cpg/sg38_13_cif.got.tgz:24343.got - 2010.04.14 02:38:36.
