data_PCOD8179751
_publ_section_title
;
Structure prediction by ZEFSAII (Michael W. Deem and Ramdas Pophale) SiO2 
 PCOD8179751
Probable space group: A M M 2
;
_chemical_formula_sum "Si O2"
_cell_formula_units_Z 64
_cell_length_a 8.793500
_cell_length_b 30.743298
_cell_length_c 11.919172
_cell_angle_alpha 90.000000
_cell_angle_beta 90.000000
_cell_angle_gamma 90.000000
_cell_volume 3222.243154
_symmetry_space_group_name_H-M "A M M 2"
_symmetry_group_IT_number 38
_symmetry_cell_setting 'orthorhombic'
loop_
_space_group_symop_operation_xyz
x,y,z
-x,-y,z
-x,y,z
x,-y,z
x,1/2+y,1/2+z
-x,1/2-y,1/2+z
-x,1/2+y,1/2+z
x,1/2-y,1/2+z
loop_
_atom_site_type_symbol
_atom_site_label
_atom_site_fract_x
_atom_site_fract_y
_atom_site_fract_z
Si Si1 0.324989 0.048034 0.275460
Si Si2 0.823053 0.699537 0.224296
Si Si3 0.320204 0.374077 0.373491
Si Si4 0.319432 0.872993 0.126343
Si Si5 0.822941 0.450513 0.235032
Si Si6 0.822497 0.579377 0.987643
Si Si7 0.326226 0.709995 0.765318
Si Si8 0.672466 0.330443 0.003363
O O1 0.500000 0.058719 0.306004
O O2 0.259419 0.083544 0.188276
O O3 0.224659 0.047060 0.388357
O O4 0.311205 0.000000 0.220684
O O5 0.736228 0.668550 0.310069
O O6 0.779416 0.749234 0.241847
O O7 0.784892 0.686880 0.097657
O O8 0.000000 0.692798 0.244850
O O9 0.500000 0.372969 0.374620
O O10 0.254592 0.372712 0.500008
O O11 0.269386 0.418391 0.314396
O O12 0.500000 0.873479 0.125219
O O13 0.261917 0.830381 0.192825
O O14 0.779404 0.500000 0.265875
O O15 0.000000 0.441563 0.254506
O O16 0.779667 0.442234 0.105915
O O17 0.000000 0.590690 0.981955
O O18 0.722694 0.621957 0.966546
O O19 0.500000 0.720483 0.730347
O O20 0.316101 0.700686 0.896821
O O21 0.500000 0.331666 0.049484
#
# Coordination Sequence:
#
# PCOD8179751 Si02
#       8
#     8   8   8   8   8   8   8   8
#     4  10  20  37  62  90 121 159 203 251 303 360
#     4  12  26  42  61  91 129 161 198 246 305 365
#     4  11  23  40  64  90 118 158 209 255 300 356
#     4   9  20  40  62  88 119 155 202 256 305 349
#     4  10  22  40  60  85 122 164 200 245 308 364
#     4  11  21  36  60  90 126 161 197 247 308 360
#     4  10  22  42  66  90 120 158 203 251 302 356
#     4  11  22  40  68  94 120 157 204 252 301 354
#
# _framework density 19.861939
#
# number of rings (size 3 to 8) (size 9 to 14) (size 15 to 20)
#    0.000    1.500    2.500    2.625    1.750    3.000 
#    0.000    3.125    0.000    0.000    0.000    0.000 
#    0.000    0.000    0.000    0.000    0.000    0.000 
#
# Total GULP energy -396912.732071 kJ/mol
# GULP energy per Si atom -12403.522877 kJ/mol
# Density = 1.981673 g / cm^3
# Si number density = 19.861939 Si / 1000 Ang^3
#
#
#
# Elastic Constant Matrix: (Units=GPa)
#
#
# Indices 1 2 3 4 5 6 
#
# 1 53.0327 30.9129 30.8328 0.0000 0.0000 0.0000
# 2 30.9129 139.3553 55.2921 0.0000 0.0000 0.0000
# 3 30.8328 55.2921 134.2354 0.0000 0.0000 0.0000
# 4 0.0000 0.0000 0.0000 -371.9544 0.0000 0.0000
# 5 0.0000 0.0000 0.0000 0.0000 11.9685 0.0000
# 6 0.0000 0.0000 0.0000 0.0000 0.0000 20.9293
#
#
#
# Elastic Compliance Matrix: (Units=1/GPa)
#
#
# Indices 1 2 3 4 5 6 
#
# 1 0.023199 -0.003624 -0.003836 0.000000 0.000000 0.000000
# 2 -0.003624 0.009144 -0.002934 0.000000 0.000000 0.000000
# 3 -0.003836 -0.002934 0.009539 0.000000 0.000000 0.000000
# 4 0.000000 0.000000 0.000000 -0.002689 0.000000 0.000000
# 5 0.000000 0.000000 0.000000 0.000000 0.083552 0.000000
# 6 0.000000 0.000000 0.000000 0.000000 0.000000 0.047780
#
#
# Mechanical properties :
#
#
# Convention : Reuss Voigt Hill
#
# Bulk Modulus (GPa) = 47.40663 62.29990 54.85327
# Shear Modulus (GPa) = 25.20858 -53.83892 -14.31517
#
# Velocity S-wave (km/s) = 3.56643 -5.21205 -2.68756
# Velocity P-wave (km/s) = 6.39368 2.18769 4.24813
#
# Compressibility (1/GPa) = 0.02109409
#
# Stress axis : x y z
#
# Youngs Moduli (GPa) = 43.10536 109.36151 104.83105
#
# Poissons Ratio (x) = 0.39636 0.40211
# Poissons Ratio (y) = 0.15623 0.30757
# Poissons Ratio (z) = 0.16534 0.32086
#
# Static dielectric constant tensor:
#      x y z
#    x 3.467780 0.000000 0.000000 
#    y 0.000000 4.099970 0.000000 
#    z 0.000000 0.000000 3.751740 
# 
# 
# High freq. dielectric constant tensor:
#      x y z
#    x 1.760510 0.000000 0.000000 
#    y 0.000000 1.787800 0.000000 
#    z 0.000000 0.000000 1.778530 
# 
# From -- ./inp_files/8628.got.cif
#   From: 2010.03.12/outbox.cif.g09.slc.cpg/sg38_5_cif.got.tgz:8628.got - 2010.04.14 02:38:36.
