data_PCOD8179667
_publ_section_title
;
Structure prediction by ZEFSAII (Michael W. Deem and Ramdas Pophale) SiO2 
 PCOD8179667
Probable space group: A M M 2
;
_chemical_formula_sum "Si O2"
_cell_formula_units_Z 48
_cell_length_a 9.190349
_cell_length_b 7.845160
_cell_length_c 33.743443
_cell_angle_alpha 90.000000
_cell_angle_beta 90.000000
_cell_angle_gamma 90.000000
_cell_volume 2432.894087
_symmetry_space_group_name_H-M "A M M 2"
_symmetry_group_IT_number 38
_symmetry_cell_setting 'orthorhombic'
loop_
_space_group_symop_operation_xyz
x,y,z
-x,-y,z
-x,y,z
x,-y,z
x,1/2+y,1/2+z
-x,1/2-y,1/2+z
-x,1/2+y,1/2+z
x,1/2-y,1/2+z
loop_
_atom_site_type_symbol
_atom_site_label
_atom_site_fract_x
_atom_site_fract_y
_atom_site_fract_z
Si Si1 0.660967 0.307706 0.182160
Si Si2 0.673574 0.000000 0.470872
Si Si3 0.335729 0.301378 0.328217
Si Si4 0.161674 0.193301 0.254574
Si Si5 0.825451 0.000000 0.554645
Si Si6 0.327327 0.188516 0.916401
Si Si7 0.329700 0.692350 0.598183
O O1 0.500000 0.249784 0.195887
O O2 0.659778 0.500000 0.166216
O O3 0.763222 0.299809 0.220089
O O4 0.712234 0.195129 0.144806
O O5 0.764431 0.000000 0.510560
O O6 0.724264 0.832044 0.446977
O O7 0.500000 0.000000 0.478889
O O8 0.500000 0.231657 0.325397
O O9 0.331414 0.500000 0.317917
O O10 0.240491 0.201726 0.296621
O O11 0.270562 0.267508 0.372159
O O12 0.000000 0.266673 0.260075
O O13 0.159842 0.000000 0.240005
O O14 0.768899 0.827462 0.575114
O O15 0.000000 0.000000 0.554998
O O16 0.500000 0.183352 0.913993
O O17 0.270484 0.000000 0.929630
O O18 0.500000 0.739775 0.592456
O O19 0.298984 0.500000 0.582473
#
# Coordination Sequence:
#
# PCOD8179667 Si02
#       7
#     8   4   8   8   4   8   8
#     4  10  20  37  62  87 112 144 191 247 299 350
#     4  10  20  36  62  88 114 152 200 248 300 354
#     4   9  18  34  56  81 108 141 188 243 296 344
#     4  11  24  36  47  74 116 157 196 237 283 345
#     4  12  26  42  60  90 132 168 198 242 304 376
#     4   8  16  32  56  87 115 141 186 248 301 347
#     4  10  21  41  69  94 118 154 203 257 306 357
#
# _framework density 19.729590000000002
#
# number of rings (size 3 to 8) (size 9 to 14) (size 15 to 20)
#    0.000    2.167    0.833    3.250    1.167    6.333 
#    0.000    2.500    0.000    1.000    0.000    0.000 
#    0.000    0.000    0.000    0.000    0.000    0.000 
#
# Total GULP energy -297544.331583 kJ/mol
# GULP energy per Si atom -12397.680483 kJ/mol
# Density = 1.968468 g / cm^3
# Si number density = 19.729590 Si / 1000 Ang^3
#
#
#
# Elastic Constant Matrix: (Units=GPa)
#
#
# Indices 1 2 3 4 5 6 
#
# 1 97.8119 44.6707 63.2429 0.0000 0.0000 0.0000
# 2 44.6707 112.2283 61.7699 0.0000 0.0000 0.0000
# 3 63.2429 61.7699 131.9049 0.0000 0.0000 0.0000
# 4 0.0000 0.0000 0.0000 18.3613 0.0000 0.0000
# 5 0.0000 0.0000 0.0000 0.0000 -8.7216 0.0000
# 6 0.0000 0.0000 0.0000 0.0000 0.0000 20.5674
#
#
#
# Elastic Compliance Matrix: (Units=1/GPa)
#
#
# Indices 1 2 3 4 5 6 
#
# 1 0.015440 -0.002790 -0.006096 0.000000 0.000000 0.000000
# 2 -0.002790 0.012509 -0.004520 0.000000 0.000000 0.000000
# 3 -0.006096 -0.004520 0.012621 0.000000 0.000000 0.000000
# 4 0.000000 0.000000 0.000000 0.054462 0.000000 0.000000
# 5 0.000000 0.000000 0.000000 0.000000 -0.114658 0.000000
# 6 0.000000 0.000000 0.000000 0.000000 0.000000 0.048621
#
#
# Mechanical properties :
#
#
# Convention : Reuss Voigt Hill
#
# Bulk Modulus (GPa) = 72.69231 75.70133 74.19682
# Shear Modulus (GPa) = 82.79250 17.52552 50.15901
#
# Velocity S-wave (km/s) = 6.48496 2.98365 5.04762
# Velocity P-wave (km/s) = 9.64351 7.09382 8.46521
#
# Compressibility (1/GPa) = 0.01375661
#
# Stress axis : x y z
#
# Youngs Moduli (GPa) = 64.76893 79.94378 79.23545
#
# Poissons Ratio (x) = 0.22307 0.48301
# Poissons Ratio (y) = 0.18072 0.35814
# Poissons Ratio (z) = 0.39483 0.36134
#
# Static dielectric constant tensor:
#      x y z
#    x 3.369710 0.000000 0.000000 
#    y 0.000000 3.902550 0.000000 
#    z 0.000000 0.000000 3.531750 
# 
# 
# High freq. dielectric constant tensor:
#      x y z
#    x 1.735250 0.000000 0.000000 
#    y 0.000000 1.779670 0.000000 
#    z 0.000000 0.000000 1.768970 
# 
# From -- ./inp_files/24416.got.cif
#   From: 2010.03.12/outbox.cif.g09.slc.cpg/sg38_13_cif.got.tgz:24416.got - 2010.04.14 02:38:36.
