data_PCOD8179975
_publ_section_title
;
Structure prediction by ZEFSAII (Michael W. Deem and Ramdas Pophale) SiO2 
 PCOD8179975
Probable space group: A M M 2
;
_chemical_formula_sum "Si O2"
_cell_formula_units_Z 56
_cell_length_a 14.512802
_cell_length_b 9.252163
_cell_length_c 20.876080
_cell_angle_alpha 90.000000
_cell_angle_beta 90.000000
_cell_angle_gamma 90.000000
_cell_volume 2803.131669
_symmetry_space_group_name_H-M "A M M 2"
_symmetry_group_IT_number 38
_symmetry_cell_setting 'orthorhombic'
loop_
_space_group_symop_operation_xyz
x,y,z
-x,-y,z
-x,y,z
x,-y,z
x,1/2+y,1/2+z
-x,1/2-y,1/2+z
-x,1/2+y,1/2+z
x,1/2-y,1/2+z
loop_
_atom_site_type_symbol
_atom_site_label
_atom_site_fract_x
_atom_site_fract_y
_atom_site_fract_z
Si Si1 0.895963 0.330595 0.527370
Si Si2 0.728092 0.332960 0.838875
Si Si3 0.893398 0.169496 0.791217
Si Si4 0.268187 0.166417 0.481167
Si Si5 0.608930 0.334021 0.236146
Si Si6 0.397620 0.171735 0.593184
Si Si7 0.891198 0.658480 0.669329
O O1 0.891996 0.500000 0.513141
O O2 0.829270 0.248196 0.479085
O O3 0.858097 0.295178 0.598805
O O4 0.000000 0.273644 0.517153
O O5 0.742487 0.500000 0.821386
O O6 0.827710 0.254192 0.839888
O O7 0.686603 0.315833 0.910639
O O8 0.658704 0.264430 0.788132
O O9 0.861711 0.220387 0.720263
O O10 0.000000 0.209232 0.805271
O O11 0.876412 0.000000 0.796833
O O12 0.334267 0.234222 0.535967
O O13 0.248488 0.000000 0.496822
O O14 0.500000 0.314388 0.243765
O O15 0.637448 0.500000 0.248276
O O16 0.639177 0.284865 0.164204
O O17 0.500000 0.236107 0.583192
O O18 0.402856 0.000000 0.588982
O O19 0.850724 0.500000 0.688355
O O20 0.000000 0.644200 0.665723
#
# Coordination Sequence:
#
# PCOD8179975 Si02
#       7
#     8   8   8   8   8   8   8
#     4   9  19  35  54  78 112 152 188 228 283 340
#     4  11  24  38  54  82 120 157 191 234 288 340
#     4  10  21  36  55  79 108 148 198 245 285 333
#     4  10  22  37  55  83 114 149 193 235 277 328
#     4   9  19  38  64  90 114 143 184 236 289 341
#     4   8  16  35  62  87 110 139 179 228 280 333
#     4   8  15  30  51  76 106 139 177 225 285 341
#
# _framework density 19.977656
#
# number of rings (size 3 to 8) (size 9 to 14) (size 15 to 20)
#    0.000    2.714    0.000    2.571    2.000    4.286 
#    0.000    5.714    0.000    1.286    0.000    0.000 
#    0.000    0.000    0.000    0.000    0.000    0.000 
#
# Total GULP energy -347075.425713 kJ/mol
# GULP energy per Si atom -12395.550918 kJ/mol
# Density = 1.993219 g / cm^3
# Si number density = 19.977656 Si / 1000 Ang^3
#
#
#
# Elastic Constant Matrix: (Units=GPa)
#
#
# Indices 1 2 3 4 5 6 
#
# 1 79.8186 38.0045 59.0609 0.0000 0.0000 0.0000
# 2 38.0045 78.0092 50.3645 0.0000 0.0000 0.0000
# 3 59.0609 50.3645 130.5834 0.0000 0.0000 0.0000
# 4 0.0000 0.0000 0.0000 27.2918 0.0000 0.0000
# 5 0.0000 0.0000 0.0000 0.0000 25.4546 0.0000
# 6 0.0000 0.0000 0.0000 0.0000 0.0000 25.7380
#
#
#
# Elastic Compliance Matrix: (Units=1/GPa)
#
#
# Indices 1 2 3 4 5 6 
#
# 1 0.020346 -0.005288 -0.007163 0.000000 0.000000 0.000000
# 2 -0.005288 0.018444 -0.004722 0.000000 0.000000 0.000000
# 3 -0.007163 -0.004722 0.012719 0.000000 0.000000 0.000000
# 4 0.000000 0.000000 0.000000 0.036641 0.000000 0.000000
# 5 0.000000 0.000000 0.000000 0.000000 0.039286 0.000000
# 6 0.000000 0.000000 0.000000 0.000000 0.000000 0.038853
#
#
# Mechanical properties :
#
#
# Convention : Reuss Voigt Hill
#
# Bulk Modulus (GPa) = 58.26294 64.80788 61.53541
# Shear Modulus (GPa) = 24.23013 25.09563 24.66288
#
# Velocity S-wave (km/s) = 3.48639 3.54811 3.51739
# Velocity P-wave (km/s) = 6.74047 7.02112 6.88223
#
# Compressibility (1/GPa) = 0.01716357
#
# Stress axis : x y z
#
# Youngs Moduli (GPa) = 49.14935 54.21911 78.62382
#
# Poissons Ratio (x) = 0.28670 0.56317
# Poissons Ratio (y) = 0.25989 0.37126
# Poissons Ratio (z) = 0.35205 0.25602
#
# Static dielectric constant tensor:
#      x y z
#    x 3.590590 0.000000 0.000000 
#    y 0.000000 3.388750 0.000000 
#    z 0.000000 0.000000 3.787230 
# 
# 
# High freq. dielectric constant tensor:
#      x y z
#    x 1.769930 0.000000 0.000000 
#    y 0.000000 1.758320 0.000000 
#    z 0.000000 0.000000 1.784430 
# 
# From -- ./inp_files/21037.got.cif
#   From: 2010.03.12/outbox.cif.g09.slc.cpg/sg38_11_cif.got.tgz:21037.got - 2010.04.14 02:38:36.
