data_PCOD8179600
_publ_section_title
;
Structure prediction by ZEFSAII (Michael W. Deem and Ramdas Pophale) SiO2 
 PCOD8179600
Probable space group: A M M 2
;
_chemical_formula_sum "Si O2"
_cell_formula_units_Z 48
_cell_length_a 8.756449
_cell_length_b 14.559482
_cell_length_c 20.201759
_cell_angle_alpha 90.000000
_cell_angle_beta 90.000000
_cell_angle_gamma 90.000000
_cell_volume 2575.509358
_symmetry_space_group_name_H-M "A M M 2"
_symmetry_group_IT_number 38
_symmetry_cell_setting 'orthorhombic'
loop_
_space_group_symop_operation_xyz
x,y,z
-x,-y,z
-x,y,z
x,-y,z
x,1/2+y,1/2+z
-x,1/2-y,1/2+z
-x,1/2+y,1/2+z
x,1/2-y,1/2+z
loop_
_atom_site_type_symbol
_atom_site_label
_atom_site_fract_x
_atom_site_fract_y
_atom_site_fract_z
Si Si1 0.680779 0.805338 0.291560
Si Si2 0.180982 0.500000 0.201666
Si Si3 0.681280 0.500000 0.746671
Si Si4 0.822859 0.687875 0.555564
Si Si5 0.818934 0.000000 0.852629
Si Si6 0.681718 0.500000 0.595465
Si Si7 0.318911 0.188390 0.666436
Si Si8 0.176090 0.692687 0.404181
O O1 0.500000 0.806683 0.290086
O O2 0.745504 0.908737 0.282367
O O3 0.741221 0.742042 0.231419
O O4 0.736537 0.768348 0.361559
O O5 0.240285 0.500000 0.277197
O O6 0.244645 0.588433 0.163970
O O7 0.000000 0.500000 0.197824
O O8 0.500000 0.500000 0.748281
O O9 0.736659 0.500000 0.671154
O O10 0.750865 0.587659 0.559596
O O11 0.732117 0.758108 0.601234
O O12 0.802136 0.720535 0.480157
O O13 0.000000 0.684821 0.576054
O O14 0.755547 0.908984 0.889220
O O15 0.000000 0.000000 0.855888
O O16 0.500000 0.500000 0.589144
O O17 0.500000 0.179771 0.666543
O O18 0.000000 0.694426 0.382832
#
# Coordination Sequence:
#
# PCOD8179600 Si02
#       8
#     8   4   4   8   4   4   8   8
#     4  10  20  36  59  83 112 150 193 239 286 342
#     4  11  21  36  61  89 117 151 193 240 292 347
#     4   9  18  36  57  83 114 146 184 235 290 337
#     4  11  23  38  58  86 120 158 198 239 289 350
#     4   9  17  32  56  83 113 149 182 228 288 343
#     4  11  20  36  60  87 122 154 187 241 298 347
#     4  11  22  38  60  86 117 153 197 244 288 343
#     4  10  21  38  57  82 118 153 190 237 288 344
#
# _framework density 18.637090000000001
#
# number of rings (size 3 to 8) (size 9 to 14) (size 15 to 20)
#    0.000    1.667    3.333    2.000    0.000    3.333 
#    0.000    1.667    0.000    4.000    0.000    0.000 
#    0.000    0.000    0.000    0.000    0.000    0.000 
#
# Total GULP energy -297674.146055 kJ/mol
# GULP energy per Si atom -12403.089419 kJ/mol
# Density = 1.859467 g / cm^3
# Si number density = 18.637090 Si / 1000 Ang^3
#
#
#
# Elastic Constant Matrix: (Units=GPa)
#
#
# Indices 1 2 3 4 5 6 
#
# 1 49.4538 31.9860 23.6790 0.0000 0.0000 0.0000
# 2 31.9860 142.2576 46.9014 0.0000 0.0000 0.0000
# 3 23.6790 46.9014 89.1135 0.0000 0.0000 0.0000
# 4 0.0000 0.0000 0.0000 38.3617 0.0000 0.0000
# 5 0.0000 0.0000 0.0000 0.0000 29.5958 0.0000
# 6 0.0000 0.0000 0.0000 0.0000 0.0000 29.6570
#
#
#
# Elastic Compliance Matrix: (Units=1/GPa)
#
#
# Indices 1 2 3 4 5 6 
#
# 1 0.025050 -0.004160 -0.004467 0.000000 0.000000 0.000000
# 2 -0.004160 0.009196 -0.003735 0.000000 0.000000 0.000000
# 3 -0.004467 -0.003735 0.014374 0.000000 0.000000 0.000000
# 4 0.000000 0.000000 0.000000 0.026068 0.000000 0.000000
# 5 0.000000 0.000000 0.000000 0.000000 0.033789 0.000000
# 6 0.000000 0.000000 0.000000 0.000000 0.000000 0.033719
#
#
# Mechanical properties :
#
#
# Convention : Reuss Voigt Hill
#
# Bulk Modulus (GPa) = 41.84500 53.99530 47.92015
# Shear Modulus (GPa) = 28.59035 31.40680 29.99858
#
# Velocity S-wave (km/s) = 3.92095 4.10954 4.01636
# Velocity P-wave (km/s) = 6.55742 7.18002 6.87577
#
# Compressibility (1/GPa) = 0.02389772
#
# Stress axis : x y z
#
# Youngs Moduli (GPa) = 39.91998 108.74189 69.56905
#
# Poissons Ratio (x) = 0.45233 0.31076
# Poissons Ratio (y) = 0.16605 0.25982
# Poissons Ratio (z) = 0.17832 0.40612
#
# Static dielectric constant tensor:
#      x y z
#    x 3.266730 0.000000 0.000000 
#    y 0.000000 3.593110 0.000000 
#    z 0.000000 0.000000 3.352500 
# 
# 
# High freq. dielectric constant tensor:
#      x y z
#    x 1.711940 0.000000 0.000000 
#    y 0.000000 1.730460 0.000000 
#    z 0.000000 0.000000 1.720070 
# 
# From -- ./inp_files/16735.got.cif
#   From: 2010.03.12/outbox.cif.g09.slc.cpg/sg38_9_cif.got.tgz:16735.got - 2010.04.14 02:38:36.
