data_PCOD8179014
_publ_section_title
;
Structure prediction by ZEFSAII (Michael W. Deem and Ramdas Pophale) SiO2 
 PCOD8179014
Probable space group: A M M 2
;
_chemical_formula_sum "Si O2"
_cell_formula_units_Z 40
_cell_length_a 9.611173
_cell_length_b 9.089573
_cell_length_c 25.821303
_cell_angle_alpha 90.000000
_cell_angle_beta 90.000000
_cell_angle_gamma 90.000000
_cell_volume 2255.786693
_symmetry_space_group_name_H-M "A M M 2"
_symmetry_group_IT_number 38
_symmetry_cell_setting 'orthorhombic'
loop_
_space_group_symop_operation_xyz
x,y,z
-x,-y,z
-x,y,z
x,-y,z
x,1/2+y,1/2+z
-x,1/2-y,1/2+z
-x,1/2+y,1/2+z
x,1/2-y,1/2+z
loop_
_atom_site_type_symbol
_atom_site_label
_atom_site_fract_x
_atom_site_fract_y
_atom_site_fract_z
Si Si1 0.160734 0.671082 0.841170
Si Si2 0.663888 0.670019 0.033233
Si Si3 0.665203 0.836444 0.134107
Si Si4 0.160421 0.172952 0.946081
Si Si5 0.344947 0.824801 0.247173
O O1 0.193240 0.500000 0.850889
O O2 0.208963 0.758968 0.891709
O O3 0.245295 0.735219 0.792296
O O4 0.000000 0.698336 0.828800
O O5 0.500000 0.696779 0.025963
O O6 0.703456 0.500000 0.028192
O O7 0.715529 0.726102 0.089380
O O8 0.743869 0.761096 0.990292
O O9 0.500000 0.846511 0.135555
O O10 0.713809 0.776123 0.190565
O O11 0.726304 0.000000 0.123103
O O12 0.000000 0.213768 0.957410
O O13 0.183762 0.000000 0.943738
O O14 0.500000 0.761527 0.256721
O O15 0.348999 0.000000 0.247853
#
# Coordination Sequence:
#
# PCOD8179014 Si02
#       5
#     8   8   8   8   8
#     4   9  17  30  48  69  94 124 157 196 241 284
#     4  10  20  33  51  75 100 127 161 201 244 290
#     4   8  14  27  47  69  95 127 159 193 235 280
#     4  10  21  36  52  70  95 129 166 203 245 291
#     4   8  14  26  46  70  94 123 159 194 229 276
#
# _framework density 17.732171999999998
#
# number of rings (size 3 to 8) (size 9 to 14) (size 15 to 20)
#    0.000    3.000    0.000    2.400    0.000    3.200 
#    0.000    4.000    0.000    4.800    0.000    0.000 
#    0.000    0.000    0.000    0.000    0.000    0.000 
#
# Total GULP energy -247937.345619 kJ/mol
# GULP energy per Si atom -12396.867281 kJ/mol
# Density = 1.769181 g / cm^3
# Si number density = 17.732172 Si / 1000 Ang^3
#
#
#
# Elastic Constant Matrix: (Units=GPa)
#
#
# Indices 1 2 3 4 5 6 
#
# 1 50.2154 28.1706 62.7389 0.0000 0.0000 0.0000
# 2 28.1706 60.7047 55.4077 0.0000 0.0000 0.0000
# 3 62.7389 55.4077 177.6527 0.0000 0.0000 0.0000
# 4 0.0000 0.0000 0.0000 31.1492 0.0000 0.0000
# 5 0.0000 0.0000 0.0000 0.0000 -3.0945 0.0000
# 6 0.0000 0.0000 0.0000 0.0000 0.0000 19.0207
#
#
#
# Elastic Compliance Matrix: (Units=1/GPa)
#
#
# Indices 1 2 3 4 5 6 
#
# 1 0.037944 -0.007518 -0.011056 0.000000 0.000000 0.000000
# 2 -0.007518 0.024518 -0.004992 0.000000 0.000000 0.000000
# 3 -0.011056 -0.004992 0.011090 0.000000 0.000000 0.000000
# 4 0.000000 0.000000 0.000000 0.032104 0.000000 0.000000
# 5 0.000000 0.000000 0.000000 0.000000 -0.323151 0.000000
# 6 0.000000 0.000000 0.000000 0.000000 0.000000 0.052574
#
#
# Mechanical properties :
#
#
# Convention : Reuss Voigt Hill
#
# Bulk Modulus (GPa) = 37.84666 64.57858 51.21262
# Shear Modulus (GPa) = -45.87928 18.89876 -13.49026
#
# Velocity S-wave (km/s) = -5.09212 3.26818 -2.76121
# Velocity P-wave (km/s) = 3.63084 7.12315 4.33338
#
# Compressibility (1/GPa) = 0.02642241
#
# Stress axis : x y z
#
# Youngs Moduli (GPa) = 26.35435 40.78596 90.16913
#
# Poissons Ratio (x) = 0.30661 0.99688
# Poissons Ratio (y) = 0.19812 0.45013
# Poissons Ratio (z) = 0.29136 0.20361
#
# Static dielectric constant tensor:
#      x y z
#    x 3.164070 0.000000 0.000000 
#    y 0.000000 3.157290 0.000000 
#    z 0.000000 0.000000 3.734020 
# 
# 
# High freq. dielectric constant tensor:
#      x y z
#    x 1.658790 0.000000 0.000000 
#    y 0.000000 1.666140 0.000000 
#    z 0.000000 0.000000 1.702790 
# 
# From -- ./inp_files/17459.got.cif
#   From: 2010.03.12/outbox.cif.g09.slc.cpg/sg38_9_cif.got.tgz:17459.got - 2010.04.14 02:38:36.
