data_PCOD8179981
_publ_section_title
;
Structure prediction by ZEFSAII (Michael W. Deem and Ramdas Pophale) SiO2 
 PCOD8179981
Probable space group: A M M 2
;
_chemical_formula_sum "Si O2"
_cell_formula_units_Z 56
_cell_length_a 19.189746
_cell_length_b 9.167804
_cell_length_c 15.876646
_cell_angle_alpha 90.000000
_cell_angle_beta 90.000000
_cell_angle_gamma 90.000000
_cell_volume 2793.143881
_symmetry_space_group_name_H-M "A M M 2"
_symmetry_group_IT_number 38
_symmetry_cell_setting 'orthorhombic'
loop_
_space_group_symop_operation_xyz
x,y,z
-x,-y,z
-x,y,z
x,-y,z
x,1/2+y,1/2+z
-x,1/2-y,1/2+z
-x,1/2+y,1/2+z
x,1/2-y,1/2+z
loop_
_atom_site_type_symbol
_atom_site_label
_atom_site_fract_x
_atom_site_fract_y
_atom_site_fract_z
Si Si1 0.301528 0.663232 0.095410
Si Si2 0.079388 0.172474 0.008927
Si Si3 0.578767 0.669146 0.342088
Si Si4 0.295776 0.834958 0.405918
Si Si5 0.845381 0.168313 0.659706
Si Si6 0.833568 0.170411 0.847427
Si Si7 0.578103 0.168046 0.168504
O O1 0.329244 0.500000 0.115166
O O2 0.237134 0.705030 0.155645
O O3 0.364894 0.777365 0.101936
O O4 0.270117 0.670721 0.001801
O O5 0.111642 0.236003 0.094204
O O6 0.000000 0.225442 0.002278
O O7 0.084983 0.000000 0.015831
O O8 0.117320 0.226865 0.923363
O O9 0.500000 0.692246 0.374685
O O10 0.599056 0.500000 0.340175
O O11 0.629750 0.755014 0.403819
O O12 0.588456 0.732927 0.249603
O O13 0.239544 0.754488 0.348328
O O14 0.304137 0.000000 0.373222
O O15 0.869290 0.200923 0.756198
O O16 0.858285 0.000000 0.636110
O O17 0.817286 0.000000 0.857601
O O18 0.500000 0.187391 0.131276
O O19 0.592010 0.000000 0.191481
#
# Coordination Sequence:
#
# PCOD8179981 Si02
#       7
#     8   8   8   8   8   8   8
#     4  10  21  36  55  82 117 153 196 247 296 353
#     4  10  22  40  61  90 126 158 194 242 294 352
#     4  10  21  37  56  78 109 151 197 245 300 360
#     4  11  22  36  57  85 117 152 197 250 297 351
#     4  10  21  39  62  89 119 156 202 245 292 354
#     4  10  21  38  63  90 120 160 201 244 296 356
#     4  10  21  36  55  81 112 148 195 248 300 356
#
# _framework density 20.049092000000002
#
# number of rings (size 3 to 8) (size 9 to 14) (size 15 to 20)
#    0.000    1.857    1.429    2.143    0.000    6.571 
#    0.000    4.286    0.000    0.000    0.000    0.000 
#    0.000    0.000    0.000    0.000    0.000    0.000 
#
# Total GULP energy -347220.152114 kJ/mol
# GULP energy per Si atom -12400.719718 kJ/mol
# Density = 2.000346 g / cm^3
# Si number density = 20.049092 Si / 1000 Ang^3
#
#
#
# Elastic Constant Matrix: (Units=GPa)
#
#
# Indices 1 2 3 4 5 6 
#
# 1 109.0077 51.8572 47.7634 0.0000 0.0000 0.0000
# 2 51.8572 87.6566 36.0447 0.0000 0.0000 0.0000
# 3 47.7634 36.0447 106.0430 0.0000 0.0000 0.0000
# 4 0.0000 0.0000 0.0000 31.5036 0.0000 0.0000
# 5 0.0000 0.0000 0.0000 0.0000 26.6751 0.0000
# 6 0.0000 0.0000 0.0000 0.0000 0.0000 30.1919
#
#
#
# Elastic Compliance Matrix: (Units=1/GPa)
#
#
# Indices 1 2 3 4 5 6 
#
# 1 0.014151 -0.006685 -0.004102 0.000000 0.000000 0.000000
# 2 -0.006685 0.016420 -0.002570 0.000000 0.000000 0.000000
# 3 -0.004102 -0.002570 0.012151 0.000000 0.000000 0.000000
# 4 0.000000 0.000000 0.000000 0.031742 0.000000 0.000000
# 5 0.000000 0.000000 0.000000 0.000000 0.037488 0.000000
# 6 0.000000 0.000000 0.000000 0.000000 0.000000 0.033121
#
#
# Mechanical properties :
#
#
# Convention : Reuss Voigt Hill
#
# Bulk Modulus (GPa) = 62.46690 63.78199 63.12445
# Shear Modulus (GPa) = 28.22883 28.81026 28.51954
#
# Velocity S-wave (km/s) = 3.75638 3.79487 3.77568
# Velocity P-wave (km/s) = 7.07379 7.14726 7.11062
#
# Compressibility (1/GPa) = 0.01600848
#
# Stress axis : x y z
#
# Youngs Moduli (GPa) = 70.66598 60.90168 82.29674
#
# Poissons Ratio (x) = 0.40714 0.33754
# Poissons Ratio (y) = 0.47241 0.21151
# Poissons Ratio (z) = 0.28984 0.15653
#
# Static dielectric constant tensor:
#      x y z
#    x 3.614650 0.000000 0.000000 
#    y 0.000000 3.629280 0.000000 
#    z 0.000000 0.000000 3.571930 
# 
# 
# High freq. dielectric constant tensor:
#      x y z
#    x 1.777470 0.000000 0.000000 
#    y 0.000000 1.781360 0.000000 
#    z 0.000000 0.000000 1.782690 
# 
# From -- ./inp_files/15455.got.cif
#   From: 2010.03.12/outbox.cif.g09.slc.cpg/sg38_8_cif.got.tgz:15455.got - 2010.04.14 02:38:36.
