data_PCOD8179613
_publ_section_title
;
Structure prediction by ZEFSAII (Michael W. Deem and Ramdas Pophale) SiO2 
 PCOD8179613
Probable space group: A M M 2
;
_chemical_formula_sum "Si O2"
_cell_formula_units_Z 64
_cell_length_a 33.000789
_cell_length_b 10.591949
_cell_length_c 8.846059
_cell_angle_alpha 90.000000
_cell_angle_beta 90.000000
_cell_angle_gamma 90.000000
_cell_volume 3092.075118
_symmetry_space_group_name_H-M "A M M 2"
_symmetry_group_IT_number 38
_symmetry_cell_setting 'orthorhombic'
loop_
_space_group_symop_operation_xyz
x,y,z
-x,-y,z
-x,y,z
x,-y,z
x,1/2+y,1/2+z
-x,1/2-y,1/2+z
-x,1/2+y,1/2+z
x,1/2-y,1/2+z
loop_
_atom_site_type_symbol
_atom_site_label
_atom_site_fract_x
_atom_site_fract_y
_atom_site_fract_z
Si Si1 0.546107 0.639344 0.887000
Si Si2 0.848806 0.642047 0.562237
Si Si3 0.324739 0.140138 0.097656
Si Si4 0.781207 0.358053 0.069440
Si Si5 0.097766 0.227449 0.796888
Si Si6 0.044689 0.859390 0.536995
Si Si7 0.414756 0.643528 0.571227
Si Si8 0.727927 0.773666 0.836533
O O1 0.500000 0.654756 0.830092
O O2 0.551317 0.500000 0.965048
O O3 0.576630 0.646263 0.748159
O O4 0.555575 0.755024 0.997031
O O5 0.830480 0.500000 0.577111
O O6 0.814975 0.749952 0.566735
O O7 0.878724 0.663608 0.703778
O O8 0.871357 0.648806 0.400942
O O9 0.292752 0.136595 0.960170
O O10 0.330882 0.000000 0.159399
O O11 0.368589 0.190809 0.044816
O O12 0.308248 0.219272 0.237101
O O13 0.799651 0.500000 0.054885
O O14 0.751730 0.336701 0.926383
O O15 0.758185 0.351978 0.229833
O O16 0.075245 0.137813 0.678343
O O17 0.062464 0.282656 0.898646
O O18 0.000000 0.804812 0.579646
O O19 0.040074 0.000000 0.477597
O O20 0.421615 0.500000 0.507556
#
# Coordination Sequence:
#
# PCOD8179613 Si02
#       8
#     8   8   8   8   8   8   8   8
#     4  10  21  37  56  81 115 152 190 234 283 335
#     4  11  24  40  60  85 116 154 193 236 285 337
#     4  10  20  37  59  83 113 148 185 230 284 339
#     4  11  24  40  60  87 116 149 192 238 284 338
#     4  10  22  38  58  84 117 149 190 235 281 334
#     4  10  20  36  59  85 114 149 188 231 280 334
#     4  10  21  37  59  86 114 147 190 236 282 337
#     4  10  22  38  59  84 115 149 186 231 285 342
#
# _framework density 20.698076
#
# number of rings (size 3 to 8) (size 9 to 14) (size 15 to 20)
#    0.000    1.750    0.000    3.750    0.000    9.250 
#    0.000    3.125    0.000    6.000    0.000    0.000 
#    0.000    0.000    0.000    0.000    0.000    0.000 
#
# Total GULP energy -396686.316724 kJ/mol
# GULP energy per Si atom -12396.447398 kJ/mol
# Density = 2.065097 g / cm^3
# Si number density = 20.698076 Si / 1000 Ang^3
#
#
#
# Elastic Constant Matrix: (Units=GPa)
#
#
# Indices 1 2 3 4 5 6 
#
# 1 102.3723 50.4190 20.1027 0.0000 0.0000 0.0000
# 2 50.4190 136.6535 30.7341 0.0000 0.0000 0.0000
# 3 20.1027 30.7341 80.5863 0.0000 0.0000 0.0000
# 4 0.0000 0.0000 0.0000 17.0695 0.0000 0.0000
# 5 0.0000 0.0000 0.0000 0.0000 28.2621 0.0000
# 6 0.0000 0.0000 0.0000 0.0000 0.0000 31.4851
#
#
#
# Elastic Compliance Matrix: (Units=1/GPa)
#
#
# Indices 1 2 3 4 5 6 
#
# 1 0.012088 -0.004137 -0.001438 0.000000 0.000000 0.000000
# 2 -0.004137 0.009420 -0.002561 0.000000 0.000000 0.000000
# 3 -0.001438 -0.002561 0.013744 0.000000 0.000000 0.000000
# 4 0.000000 0.000000 0.000000 0.058584 0.000000 0.000000
# 5 0.000000 0.000000 0.000000 0.000000 0.035383 0.000000
# 6 0.000000 0.000000 0.000000 0.000000 0.000000 0.031761
#
#
# Mechanical properties :
#
#
# Convention : Reuss Voigt Hill
#
# Bulk Modulus (GPa) = 52.68129 58.01375 55.34752
# Shear Modulus (GPa) = 27.23645 29.92044 28.57845
#
# Velocity S-wave (km/s) = 3.63146 3.80619 3.71985
# Velocity P-wave (km/s) = 6.56436 6.88516 6.72668
#
# Compressibility (1/GPa) = 0.01898207
#
# Stress axis : x y z
#
# Youngs Moduli (GPa) = 82.72764 106.15851 72.75737
#
# Poissons Ratio (x) = 0.43913 0.10461
# Poissons Ratio (y) = 0.34220 0.18631
# Poissons Ratio (z) = 0.11894 0.27184
#
# Static dielectric constant tensor:
#      x y z
#    x 3.922940 0.000000 0.000000 
#    y 0.000000 3.635870 0.000000 
#    z 0.000000 0.000000 3.773950 
# 
# 
# High freq. dielectric constant tensor:
#      x y z
#    x 1.820500 0.000000 0.000000 
#    y 0.000000 1.804160 0.000000 
#    z 0.000000 0.000000 1.809600 
# 
# From -- ./inp_files/7049.got.cif
#   From: 2010.03.12/outbox.cif.g09.slc.cpg/sg38_4_cif.got.tgz:7049.got - 2010.04.14 02:38:36.
