data_PCOD8179321
_publ_section_title
;
Structure prediction by ZEFSAII (Michael W. Deem and Ramdas Pophale) SiO2 
 PCOD8179321
Probable space group: A M M 2
;
_chemical_formula_sum "Si O2"
_cell_formula_units_Z 64
_cell_length_a 9.230693
_cell_length_b 15.377928
_cell_length_c 23.910484
_cell_angle_alpha 90.000000
_cell_angle_beta 90.000000
_cell_angle_gamma 90.000000
_cell_volume 3394.067676
_symmetry_space_group_name_H-M "A M M 2"
_symmetry_group_IT_number 38
_symmetry_cell_setting 'orthorhombic'
loop_
_space_group_symop_operation_xyz
x,y,z
-x,-y,z
-x,y,z
x,-y,z
x,1/2+y,1/2+z
-x,1/2-y,1/2+z
-x,1/2+y,1/2+z
x,1/2-y,1/2+z
loop_
_atom_site_type_symbol
_atom_site_label
_atom_site_fract_x
_atom_site_fract_y
_atom_site_fract_z
Si Si1 0.328270 0.747026 0.331340
Si Si2 0.334081 0.902765 0.628998
Si Si3 0.168826 0.651089 0.519471
Si Si4 0.328430 0.246939 0.205969
Si Si5 0.333319 0.903032 0.126361
Si Si6 0.333819 0.402591 0.910903
Si Si7 0.832489 0.099304 0.896574
Si Si8 0.829392 0.852252 0.520016
O O1 0.500000 0.736107 0.331376
O O2 0.265349 0.756184 0.268592
O O3 0.279845 0.833078 0.365038
O O4 0.262012 0.660497 0.357500
O O5 0.500000 0.881173 0.612530
O O6 0.277900 0.835967 0.676089
O O7 0.236398 0.897169 0.574295
O O8 0.320860 0.000000 0.653856
O O9 0.252163 0.600935 0.567698
O O10 0.217212 0.610422 0.460623
O O11 0.212933 0.751552 0.520145
O O12 0.000000 0.637224 0.530208
O O13 0.500000 0.240788 0.209387
O O14 0.266605 0.165084 0.170840
O O15 0.500000 0.879859 0.114730
O O16 0.316187 0.000000 0.151296
O O17 0.500000 0.383447 0.927602
O O18 0.318190 0.500000 0.885733
O O19 0.236111 0.396963 0.965594
O O20 0.000000 0.126583 0.890702
O O21 0.806952 0.000000 0.877928
O O22 0.000000 0.867626 0.519651
#
# Coordination Sequence:
#
# PCOD8179321 Si02
#       8
#     8   8   8   8   8   8   8   8
#     4  10  21  37  58  81 107 143 186 229 266 311
#     4  10  20  35  56  79 107 144 178 213 265 324
#     4  10  20  35  56  80 109 144 177 214 268 328
#     4   9  19  36  55  78 108 141 178 222 267 310
#     4  10  20  34  56  84 110 139 177 220 266 318
#     4  10  21  36  55  81 112 145 179 218 270 326
#     4  10  21  38  58  80 110 146 179 218 274 330
#     4  11  21  34  56  83 109 140 178 222 268 317
#
# _framework density 18.856431000000001
#
# number of rings (size 3 to 8) (size 9 to 14) (size 15 to 20)
#    0.000    2.000    2.500    1.125    0.000    5.000 
#    0.000    5.000    0.000    0.000    0.000    1.750 
#    0.000    0.000    0.000    0.000    0.000    0.000 
#
# Total GULP energy -396873.670049 kJ/mol
# GULP energy per Si atom -12402.302189 kJ/mol
# Density = 1.881351 g / cm^3
# Si number density = 18.856431 Si / 1000 Ang^3
#
#
#
# Elastic Constant Matrix: (Units=GPa)
#
#
# Indices 1 2 3 4 5 6 
#
# 1 38.8255 31.3689 32.9610 0.0000 0.0000 0.0000
# 2 31.3689 132.5004 62.7977 0.0000 0.0000 0.0000
# 3 32.9610 62.7977 141.3646 0.0000 0.0000 0.0000
# 4 0.0000 0.0000 0.0000 12.3357 0.0000 0.0000
# 5 0.0000 0.0000 0.0000 0.0000 6.7370 0.0000
# 6 0.0000 0.0000 0.0000 0.0000 0.0000 22.4801
#
#
#
# Elastic Compliance Matrix: (Units=1/GPa)
#
#
# Indices 1 2 3 4 5 6 
#
# 1 0.035130 -0.005618 -0.005696 0.000000 0.000000 0.000000
# 2 -0.005618 0.010458 -0.003336 0.000000 0.000000 0.000000
# 3 -0.005696 -0.003336 0.009884 0.000000 0.000000 0.000000
# 4 0.000000 0.000000 0.000000 0.081066 0.000000 0.000000
# 5 0.000000 0.000000 0.000000 0.000000 0.148435 0.000000
# 6 0.000000 0.000000 0.000000 0.000000 0.000000 0.044484
#
#
# Mechanical properties :
#
#
# Convention : Reuss Voigt Hill
#
# Bulk Modulus (GPa) = 38.20590 62.99397 50.59994
# Shear Modulus (GPa) = 13.60620 20.68142 17.14381
#
# Velocity S-wave (km/s) = 2.68912 3.31536 3.01853
# Velocity P-wave (km/s) = 5.47241 6.93795 6.24830
#
# Compressibility (1/GPa) = 0.02617397
#
# Stress axis : x y z
#
# Youngs Moduli (GPa) = 28.46549 95.61938 101.17536
#
# Poissons Ratio (x) = 0.53715 0.57626
# Poissons Ratio (y) = 0.15991 0.33752
# Poissons Ratio (z) = 0.16213 0.31898
#
# Static dielectric constant tensor:
#      x y z
#    x 3.251420 0.000000 0.000000 
#    y 0.000000 3.658870 0.000000 
#    z 0.000000 0.000000 3.500050 
# 
# 
# High freq. dielectric constant tensor:
#      x y z
#    x 1.710140 0.000000 0.000000 
#    y 0.000000 1.750880 0.000000 
#    z 0.000000 0.000000 1.725320 
# 
# From -- ./inp_files/22124.got.cif
#   From: 2010.03.12/outbox.cif.g09.slc.cpg/sg38_12_cif.got.tgz:22124.got - 2010.04.14 02:38:36.
