data_PCOD8179646
_publ_section_title
;
Structure prediction by ZEFSAII (Michael W. Deem and Ramdas Pophale) SiO2 
 PCOD8179646
Probable space group: A M M 2
;
_chemical_formula_sum "Si O2"
_cell_formula_units_Z 48
_cell_length_a 7.782663
_cell_length_b 9.060098
_cell_length_c 33.639828
_cell_angle_alpha 90.000000
_cell_angle_beta 90.000000
_cell_angle_gamma 90.000000
_cell_volume 2372.001106
_symmetry_space_group_name_H-M "A M M 2"
_symmetry_group_IT_number 38
_symmetry_cell_setting 'orthorhombic'
loop_
_space_group_symop_operation_xyz
x,y,z
-x,-y,z
-x,y,z
x,-y,z
x,1/2+y,1/2+z
-x,1/2-y,1/2+z
-x,1/2+y,1/2+z
x,1/2-y,1/2+z
loop_
_atom_site_type_symbol
_atom_site_label
_atom_site_fract_x
_atom_site_fract_y
_atom_site_fract_z
Si Si1 0.500000 0.325070 0.723421
Si Si2 0.500000 0.176210 0.807773
Si Si3 0.805294 0.671206 0.854285
Si Si4 0.190689 0.331748 0.667784
Si Si5 0.695059 0.334531 0.093378
Si Si6 0.300066 0.331215 0.429958
Si Si7 0.798654 0.830867 0.016750
O O1 0.500000 0.500000 0.733025
O O2 0.500000 0.230045 0.762858
O O3 0.330581 0.275239 0.699285
O O4 0.326829 0.235154 0.828117
O O5 0.500000 0.000000 0.810309
O O6 0.750921 0.500000 0.852966
O O7 0.801956 0.728283 0.899506
O O8 0.000000 0.691340 0.837953
O O9 0.232958 0.500000 0.656978
O O10 0.191432 0.245366 0.626402
O O11 0.000000 0.314659 0.686582
O O12 0.500000 0.330665 0.108410
O O13 0.764708 0.500000 0.089067
O O14 0.703873 0.259378 0.050628
O O15 0.500000 0.321399 0.419664
O O16 0.233897 0.500000 0.426211
O O17 0.262703 0.270509 0.474058
O O18 0.000000 0.809998 0.021611
O O19 0.741745 0.000000 0.021119
#
# Coordination Sequence:
#
# PCOD8179646 Si02
#       7
#     4   4   8   8   8   8   8
#     4  10  22  42  66  93 126 159 196 248 303 364
#     4  12  26  44  68  97 130 165 204 254 311 374
#     4  11  24  42  66  95 128 168 211 257 311 372
#     4  10  21  39  65  93 120 157 202 245 298 363
#     4  11  23  37  55  82 118 160 206 254 306 359
#     4  10  20  36  60  89 120 160 207 257 312 368
#     4  10  21  36  55  82 117 159 208 256 303 361
#
# _framework density 20.236079
#
# number of rings (size 3 to 8) (size 9 to 14) (size 15 to 20)
#    0.000    1.500    1.667    3.250    0.000    8.333 
#    0.000    1.667    0.000    0.000    0.000    0.000 
#    0.000    0.000    0.000    0.000    0.000    0.000 
#
# Total GULP energy -297688.465220 kJ/mol
# GULP energy per Si atom -12403.686051 kJ/mol
# Density = 2.019002 g / cm^3
# Si number density = 20.236079 Si / 1000 Ang^3
#
#
#
# Elastic Constant Matrix: (Units=GPa)
#
#
# Indices 1 2 3 4 5 6 
#
# 1 108.4057 47.7052 52.3397 0.0000 0.0000 0.0000
# 2 47.7052 112.3339 67.5687 0.0000 0.0000 0.0000
# 3 52.3397 67.5687 138.2724 0.0000 0.0000 0.0000
# 4 0.0000 0.0000 0.0000 36.6777 0.0000 0.0000
# 5 0.0000 0.0000 0.0000 0.0000 20.0091 0.0000
# 6 0.0000 0.0000 0.0000 0.0000 0.0000 18.9366
#
#
#
# Elastic Compliance Matrix: (Units=1/GPa)
#
#
# Indices 1 2 3 4 5 6 
#
# 1 0.012133 -0.003385 -0.002938 0.000000 0.000000 0.000000
# 2 -0.003385 0.013552 -0.005341 0.000000 0.000000 0.000000
# 3 -0.002938 -0.005341 0.010954 0.000000 0.000000 0.000000
# 4 0.000000 0.000000 0.000000 0.027265 0.000000 0.000000
# 5 0.000000 0.000000 0.000000 0.000000 0.049977 0.000000
# 6 0.000000 0.000000 0.000000 0.000000 0.000000 0.052808
#
#
# Mechanical properties :
#
#
# Convention : Reuss Voigt Hill
#
# Bulk Modulus (GPa) = 75.13007 77.13770 76.13389
# Shear Modulus (GPa) = 25.71282 27.88457 26.79869
#
# Velocity S-wave (km/s) = 3.56847 3.71612 3.64304
# Velocity P-wave (km/s) = 7.36112 7.52425 7.44313
#
# Compressibility (1/GPa) = 0.01331025
#
# Stress axis : x y z
#
# Youngs Moduli (GPa) = 82.41995 73.78827 91.28718
#
# Poissons Ratio (x) = 0.24978 0.26825
# Poissons Ratio (y) = 0.27900 0.48758
# Poissons Ratio (z) = 0.24219 0.39412
#
# Static dielectric constant tensor:
#      x y z
#    x 3.763020 0.000000 0.000000 
#    y 0.000000 3.645760 0.000000 
#    z 0.000000 0.000000 3.594530 
# 
# 
# High freq. dielectric constant tensor:
#      x y z
#    x 1.804880 0.000000 0.000000 
#    y 0.000000 1.783060 0.000000 
#    z 0.000000 0.000000 1.787530 
# 
# From -- ./inp_files/24422.got.cif
#   From: 2010.03.12/outbox.cif.g09.slc.cpg/sg38_13_cif.got.tgz:24422.got - 2010.04.14 02:38:36.
