data_PCOD8179593
_publ_section_title
;
Structure prediction by ZEFSAII (Michael W. Deem and Ramdas Pophale) SiO2 
 PCOD8179593
Probable space group: A M M 2
;
_chemical_formula_sum "Si O2"
_cell_formula_units_Z 64
_cell_length_a 8.920287
_cell_length_b 30.770648
_cell_length_c 11.960339
_cell_angle_alpha 90.000000
_cell_angle_beta 90.000000
_cell_angle_gamma 90.000000
_cell_volume 3282.909865
_symmetry_space_group_name_H-M "A M M 2"
_symmetry_group_IT_number 38
_symmetry_cell_setting 'orthorhombic'
loop_
_space_group_symop_operation_xyz
x,y,z
-x,-y,z
-x,y,z
x,-y,z
x,1/2+y,1/2+z
-x,1/2-y,1/2+z
-x,1/2+y,1/2+z
x,1/2-y,1/2+z
loop_
_atom_site_type_symbol
_atom_site_label
_atom_site_fract_x
_atom_site_fract_y
_atom_site_fract_z
Si Si1 0.677070 0.375145 0.820950
Si Si2 0.171296 0.702326 0.950607
Si Si3 0.678012 0.951953 0.919106
Si Si4 0.170218 0.161280 0.683034
Si Si5 0.828865 0.048474 0.454126
Si Si6 0.175999 0.799647 0.919391
Si Si7 0.677748 0.372162 0.565264
Si Si8 0.323778 0.927341 0.673323
O O1 0.500000 0.377404 0.830252
O O2 0.731692 0.332155 0.882856
O O3 0.740713 0.418619 0.875763
O O4 0.731366 0.374129 0.692956
O O5 0.234511 0.750362 0.927885
O O6 0.000000 0.697842 0.909658
O O7 0.184033 0.695529 0.083203
O O8 0.500000 0.949742 0.919774
O O9 0.735948 0.943356 0.793494
O O10 0.732747 0.000000 0.957706
O O11 0.742390 0.915010 0.001906
O O12 0.219583 0.184496 0.796388
O O13 0.285960 0.123093 0.657765
O O14 0.000000 0.143232 0.691767
O O15 0.759737 0.045887 0.577795
O O16 0.000000 0.064576 0.462741
O O17 0.818766 0.000000 0.402425
O O18 0.000000 0.802057 0.943164
O O19 0.257680 0.828721 0.011169
O O20 0.500000 0.370497 0.555213
O O21 0.500000 0.934783 0.660332
#
# Coordination Sequence:
#
# PCOD8179593 Si02
#       8
#     8   8   8   8   8   8   8   8
#     4  11  24  40  60  87 117 153 198 245 293 347
#     4  10  22  39  61  86 117 156 195 241 293 347
#     4   9  18  34  57  84 114 150 189 232 289 349
#     4  10  20  36  58  87 120 152 195 242 292 347
#     4  11  24  41  61  86 119 157 194 238 293 348
#     4  10  22  38  61  89 117 155 198 240 289 349
#     4  10  22  40  59  84 118 153 194 246 296 345
#     4  11  20  34  60  90 120 152 192 239 290 346
#
# _framework density 19.494900999999999
#
# number of rings (size 3 to 8) (size 9 to 14) (size 15 to 20)
#    0.000    1.750    2.500    1.500    1.750    3.500 
#    0.000    1.250    0.000    1.125    0.000    0.000 
#    0.000    0.000    0.000    0.000    0.000    0.000 
#
# Total GULP energy -396878.730994 kJ/mol
# GULP energy per Si atom -12402.460344 kJ/mol
# Density = 1.945053 g / cm^3
# Si number density = 19.494901 Si / 1000 Ang^3
#
#
#
# Elastic Constant Matrix: (Units=GPa)
#
#
# Indices 1 2 3 4 5 6 
#
# 1 52.2092 31.9843 41.1150 0.0000 0.0000 0.0000
# 2 31.9843 142.7100 58.8572 0.0000 0.0000 0.0000
# 3 41.1150 58.8572 140.2542 0.0000 0.0000 0.0000
# 4 0.0000 0.0000 0.0000 24.7116 0.0000 0.0000
# 5 0.0000 0.0000 0.0000 0.0000 21.9470 0.0000
# 6 0.0000 0.0000 0.0000 0.0000 0.0000 11.5159
#
#
#
# Elastic Compliance Matrix: (Units=1/GPa)
#
#
# Indices 1 2 3 4 5 6 
#
# 1 0.026098 -0.003258 -0.006283 0.000000 0.000000 0.000000
# 2 -0.003258 0.008880 -0.002772 0.000000 0.000000 0.000000
# 3 -0.006283 -0.002772 0.010135 0.000000 0.000000 0.000000
# 4 0.000000 0.000000 0.000000 0.040467 0.000000 0.000000
# 5 0.000000 0.000000 0.000000 0.000000 0.045564 0.000000
# 6 0.000000 0.000000 0.000000 0.000000 0.000000 0.086837
#
#
# Mechanical properties :
#
#
# Convention : Reuss Voigt Hill
#
# Bulk Modulus (GPa) = 48.80987 66.56517 57.68752
# Shear Modulus (GPa) = 20.04529 25.18270 22.61400
#
# Velocity S-wave (km/s) = 3.21009 3.59800 3.40957
# Velocity P-wave (km/s) = 6.23146 7.17495 6.71978
#
# Compressibility (1/GPa) = 0.02048766
#
# Stress axis : x y z
#
# Youngs Moduli (GPa) = 38.31780 112.60722 98.66817
#
# Poissons Ratio (x) = 0.36683 0.61997
# Poissons Ratio (y) = 0.12482 0.27348
# Poissons Ratio (z) = 0.24076 0.31211
#
# Static dielectric constant tensor:
#      x y z
#    x 3.412690 0.000000 0.000000 
#    y 0.000000 3.703260 0.000000 
#    z 0.000000 0.000000 3.718670 
# 
# 
# High freq. dielectric constant tensor:
#      x y z
#    x 1.742970 0.000000 0.000000 
#    y 0.000000 1.771120 0.000000 
#    z 0.000000 0.000000 1.765330 
# 
# From -- ./inp_files/8530.got.cif
#   From: 2010.03.12/outbox.cif.g09.slc.cpg/sg38_5_cif.got.tgz:8530.got - 2010.04.14 02:38:36.
