data_PCOD8179787
_publ_section_title
;
Structure prediction by ZEFSAII (Michael W. Deem and Ramdas Pophale) SiO2 
 PCOD8179787
Probable space group: A M M 2
;
_chemical_formula_sum "Si O2"
_cell_formula_units_Z 64
_cell_length_a 13.455297
_cell_length_b 24.147705
_cell_length_c 9.408746
_cell_angle_alpha 90.000000
_cell_angle_beta 90.000000
_cell_angle_gamma 90.000000
_cell_volume 3057.038403
_symmetry_space_group_name_H-M "A M M 2"
_symmetry_group_IT_number 38
_symmetry_cell_setting 'orthorhombic'
loop_
_space_group_symop_operation_xyz
x,y,z
-x,-y,z
-x,y,z
x,-y,z
x,1/2+y,1/2+z
-x,1/2-y,1/2+z
-x,1/2+y,1/2+z
x,1/2-y,1/2+z
loop_
_atom_site_type_symbol
_atom_site_label
_atom_site_fract_x
_atom_site_fract_y
_atom_site_fract_z
Si Si1 0.753818 0.751370 0.480470
Si Si2 0.612658 0.651273 0.923459
Si Si3 0.112212 0.894534 0.135071
Si Si4 0.113621 0.232384 0.219299
Si Si5 0.282084 0.434667 0.437473
Si Si6 0.107769 0.436746 0.932165
Si Si7 0.386217 0.345561 0.594523
Si Si8 0.709620 0.434864 0.105539
O O1 0.680531 0.802647 0.495061
O O2 0.802992 0.745260 0.326959
O O3 0.851296 0.762283 0.575952
O O4 0.690283 0.697409 0.523757
O O5 0.500000 0.671808 0.933099
O O6 0.642629 0.643562 0.758559
O O7 0.622632 0.595458 0.017290
O O8 0.124593 0.832810 0.193832
O O9 0.142235 0.932963 0.268284
O O10 0.000000 0.905767 0.083606
O O11 0.180343 0.909231 0.000618
O O12 0.000000 0.249018 0.258441
O O13 0.288135 0.500000 0.465313
O O14 0.374010 0.404424 0.514776
O O15 0.289729 0.420544 0.271202
O O16 0.096291 0.500000 0.975183
O O17 0.000000 0.406708 0.950859
O O18 0.188080 0.410588 0.038402
O O19 0.500000 0.325143 0.577760
O O20 0.696042 0.500000 0.078727
#
# Coordination Sequence:
#
# PCOD8179787 Si02
#       8
#     8   8   8   8   8   8   8   8
#     4  12  22  44  66  96 134 164 214 267 325 383
#     4  11  25  44  68  94 122 168 223 271 326 388
#     4  10  20  38  62  92 128 170 218 263 313 381
#     4  11  24  40  65  96 132 171 208 254 317 391
#     4  11  23  40  62  94 132 170 214 270 332 391
#     4   9  17  32  57  87 121 166 214 256 305 368
#     4  11  25  45  67  94 125 169 224 275 328 389
#     4  10  23  40  61  92 132 169 210 268 331 391
#
# _framework density 20.935293999999999
#
# number of rings (size 3 to 8) (size 9 to 14) (size 15 to 20)
#    0.000    1.375    2.500    2.625    1.750    3.750 
#    0.000    4.375    0.000    0.000    0.000    0.000 
#    0.000    0.000    0.000    0.000    0.000    0.000 
#
# Total GULP energy -396674.345209 kJ/mol
# GULP energy per Si atom -12396.073288 kJ/mol
# Density = 2.088764 g / cm^3
# Si number density = 20.935294 Si / 1000 Ang^3
#
#
#
# Elastic Constant Matrix: (Units=GPa)
#
#
# Indices 1 2 3 4 5 6 
#
# 1 110.8921 45.6297 36.4215 0.0000 0.0000 0.0000
# 2 45.6297 74.3014 53.6509 0.0000 0.0000 0.0000
# 3 36.4215 53.6509 93.4233 0.0000 0.0000 0.0000
# 4 0.0000 0.0000 0.0000 32.9788 0.0000 0.0000
# 5 0.0000 0.0000 0.0000 0.0000 27.5068 0.0000
# 6 0.0000 0.0000 0.0000 0.0000 0.0000 30.3350
#
#
#
# Elastic Compliance Matrix: (Units=1/GPa)
#
#
# Indices 1 2 3 4 5 6 
#
# 1 0.012099 -0.006875 -0.000769 0.000000 0.000000 0.000000
# 2 -0.006875 0.026900 -0.012768 0.000000 0.000000 0.000000
# 3 -0.000769 -0.012768 0.018336 0.000000 0.000000 0.000000
# 4 0.000000 0.000000 0.000000 0.030323 0.000000 0.000000
# 5 0.000000 0.000000 0.000000 0.000000 0.036355 0.000000
# 6 0.000000 0.000000 0.000000 0.000000 0.000000 0.032965
#
#
# Mechanical properties :
#
#
# Convention : Reuss Voigt Hill
#
# Bulk Modulus (GPa) = 60.56260 61.11345 60.83802
# Shear Modulus (GPa) = 24.59353 27.69174 26.14264
#
# Velocity S-wave (km/s) = 3.43117 3.64088 3.53758
# Velocity P-wave (km/s) = 6.68494 6.85052 6.76824
#
# Compressibility (1/GPa) = 0.01651184
#
# Stress axis : x y z
#
# Youngs Moduli (GPa) = 82.64953 37.17435 54.53783
#
# Poissons Ratio (x) = 0.25559 0.04192
# Poissons Ratio (y) = 0.56825 0.69633
# Poissons Ratio (z) = 0.06352 0.47464
#
# Static dielectric constant tensor:
#      x y z
#    x 4.106530 0.000000 0.000000 
#    y 0.000000 3.707410 0.000000 
#    z 0.000000 0.000000 3.808740 
# 
# 
# High freq. dielectric constant tensor:
#      x y z
#    x 1.830470 0.000000 0.000000 
#    y 0.000000 1.812000 0.000000 
#    z 0.000000 0.000000 1.822290 
# 
# From -- ./inp_files/5893.got.cif
#   From: 2010.03.12/outbox.cif.g09.slc.cpg/sg38_3_cif.got.tgz:5893.got - 2010.04.14 02:38:36.
