data_PCOD8179557
_publ_section_title
;
Structure prediction by ZEFSAII (Michael W. Deem and Ramdas Pophale) SiO2 
 PCOD8179557
Probable space group: A M M 2
;
_chemical_formula_sum "Si O2"
_cell_formula_units_Z 64
_cell_length_a 24.589108
_cell_length_b 8.506033
_cell_length_c 15.295101
_cell_angle_alpha 90.000000
_cell_angle_beta 90.000000
_cell_angle_gamma 90.000000
_cell_volume 3199.058536
_symmetry_space_group_name_H-M "A M M 2"
_symmetry_group_IT_number 38
_symmetry_cell_setting 'orthorhombic'
loop_
_space_group_symop_operation_xyz
x,y,z
-x,-y,z
-x,y,z
x,-y,z
x,1/2+y,1/2+z
-x,1/2-y,1/2+z
-x,1/2+y,1/2+z
x,1/2-y,1/2+z
loop_
_atom_site_type_symbol
_atom_site_label
_atom_site_fract_x
_atom_site_fract_y
_atom_site_fract_z
Si Si1 0.744396 0.183857 0.490600
Si Si2 0.442626 0.819133 0.129055
Si Si3 0.132706 0.687086 0.978552
Si Si4 0.938990 0.686016 0.821613
Si Si5 0.676084 0.818463 0.836797
Si Si6 0.557941 0.178201 0.811704
Si Si7 0.061779 0.314253 0.138306
Si Si8 0.674334 0.186256 0.143342
O O1 0.805576 0.247608 0.478958
O O2 0.712700 0.216201 0.401001
O O3 0.720607 0.273504 0.574221
O O4 0.743005 0.000000 0.510879
O O5 0.500000 0.741007 0.092673
O O6 0.442962 0.802081 0.233576
O O7 0.383487 0.751718 0.100431
O O8 0.444871 0.000000 0.102688
O O9 0.131017 0.500000 0.976749
O O10 0.101089 0.751478 0.063202
O O11 0.101811 0.755951 0.893890
O O12 0.940009 0.500000 0.826796
O O13 0.916878 0.739502 0.727919
O O14 0.000000 0.752510 0.837482
O O15 0.612825 0.790972 0.867258
O O16 0.685843 0.768524 0.736269
O O17 0.692504 0.000000 0.847301
O O18 0.500000 0.196426 0.864772
O O19 0.561815 0.000000 0.773795
O O20 0.065491 0.500000 0.145975
O O21 0.000000 0.261120 0.117721
O O22 0.671808 0.000000 0.159346
#
# Coordination Sequence:
#
# PCOD8179557 Si02
#       8
#     8   8   8   8   8   8   8   8
#     4  11  23  38  54  75 106 143 186 227 260 304
#     4   8  14  26  47  74 100 127 162 207 261 319
#     4   9  19  35  54  75 101 138 178 213 252 300
#     4   9  17  32  55  81 107 134 166 206 254 307
#     4  10  20  36  57  79 105 138 176 219 269 321
#     4   8  14  26  47  74 100 127 162 207 261 319
#     4   9  17  32  55  81 107 134 166 206 254 307
#     4  10  20  36  57  79 105 138 176 219 269 321
#
# _framework density 20.005886
#
# number of rings (size 3 to 8) (size 9 to 14) (size 15 to 20)
#    0.000    2.750    0.000    1.500    0.000    3.500 
#    0.000    6.250    0.000    6.750    0.000    0.000 
#    0.000    0.000    0.000    0.000    0.000    0.000 
#
# Total GULP energy -396417.933816 kJ/mol
# GULP energy per Si atom -12388.060432 kJ/mol
# Density = 1.996035 g / cm^3
# Si number density = 20.005886 Si / 1000 Ang^3
#
#
#
# Elastic Constant Matrix: (Units=GPa)
#
#
# Indices 1 2 3 4 5 6 
#
# 1 165.2761 14.8185 78.8509 0.0000 0.0000 0.0000
# 2 14.8185 23.5608 5.0900 0.0000 0.0000 0.0000
# 3 78.8509 5.0900 100.9660 0.0000 0.0000 0.0000
# 4 0.0000 0.0000 0.0000 28.3349 0.0000 0.0000
# 5 0.0000 0.0000 0.0000 0.0000 12.4312 0.0000
# 6 0.0000 0.0000 0.0000 0.0000 0.0000 20.9084
#
#
#
# Elastic Compliance Matrix: (Units=1/GPa)
#
#
# Indices 1 2 3 4 5 6 
#
# 1 0.010137 -0.004717 -0.007679 0.000000 0.000000 0.000000
# 2 -0.004717 0.045105 0.001410 0.000000 0.000000 0.000000
# 3 -0.007679 0.001410 0.015830 0.000000 0.000000 0.000000
# 4 0.000000 0.000000 0.000000 0.035292 0.000000 0.000000
# 5 0.000000 0.000000 0.000000 0.000000 0.080443 0.000000
# 6 0.000000 0.000000 0.000000 0.000000 0.000000 0.047828
#
#
# Mechanical properties :
#
#
# Convention : Reuss Voigt Hill
#
# Bulk Modulus (GPa) = 20.36629 54.14687 37.25658
# Shear Modulus (GPa) = 18.31681 25.07111 21.69396
#
# Velocity S-wave (km/s) = 3.02912 3.54388 3.29656
# Velocity P-wave (km/s) = 4.73670 6.62342 5.75786
#
# Compressibility (1/GPa) = 0.04910074
#
# Stress axis : x y z
#
# Youngs Moduli (GPa) = 98.65086 22.17034 63.17098
#
# Poissons Ratio (x) = 0.10457 0.48507
# Poissons Ratio (y) = 0.46530 -0.08904
# Poissons Ratio (z) = 0.75751 -0.03125
#
# Static dielectric constant tensor:
#      x y z
#    x 4.117440 0.000000 0.000000 
#    y 0.000000 3.376380 0.000000 
#    z 0.000000 0.000000 3.393680 
# 
# 
# High freq. dielectric constant tensor:
#      x y z
#    x 1.795730 0.000000 0.000000 
#    y 0.000000 1.756590 0.000000 
#    z 0.000000 0.000000 1.757530 
# 
# From -- ./inp_files/15863.got.cif
#   From: 2010.03.12/outbox.cif.g09.slc.cpg/sg38_8_cif.got.tgz:15863.got - 2010.04.14 02:38:36.
