data_PCOD8179197
_publ_section_title
;
Structure prediction by ZEFSAII (Michael W. Deem and Ramdas Pophale) SiO2 
 PCOD8179197
Probable space group: A M M 2
;
_chemical_formula_sum "Si O2"
_cell_formula_units_Z 56
_cell_length_a 8.633496
_cell_length_b 20.171979
_cell_length_c 15.787672
_cell_angle_alpha 90.000000
_cell_angle_beta 90.000000
_cell_angle_gamma 90.000000
_cell_volume 2749.497281
_symmetry_space_group_name_H-M "A M M 2"
_symmetry_group_IT_number 38
_symmetry_cell_setting 'orthorhombic'
loop_
_space_group_symop_operation_xyz
x,y,z
-x,-y,z
-x,y,z
x,-y,z
x,1/2+y,1/2+z
-x,1/2-y,1/2+z
-x,1/2+y,1/2+z
x,1/2-y,1/2+z
loop_
_atom_site_type_symbol
_atom_site_label
_atom_site_fract_x
_atom_site_fract_y
_atom_site_fract_z
Si Si1 0.182523 0.748378 0.670280
Si Si2 0.818540 0.702269 0.986746
Si Si3 0.816562 0.576123 0.427714
Si Si4 0.831274 0.927670 0.252217
Si Si5 0.316943 0.800432 0.844303
Si Si6 0.680427 0.576900 0.918994
Si Si7 0.681398 0.882766 0.104216
O O1 0.236127 0.779518 0.581184
O O2 0.263847 0.781527 0.750432
O O3 0.242855 0.673733 0.664077
O O4 0.000000 0.753458 0.683419
O O5 0.739878 0.749900 0.917048
O O6 0.772551 0.625051 0.981967
O O7 0.000000 0.712079 0.974658
O O8 0.755105 0.500000 0.418425
O O9 0.745578 0.624335 0.357128
O O10 0.766466 0.608279 0.516174
O O11 0.000000 0.576988 0.421429
O O12 0.728943 0.894924 0.326418
O O13 0.728510 0.941533 0.167193
O O14 0.000000 0.891579 0.238548
O O15 0.868805 0.000000 0.287577
O O16 0.500000 0.801817 0.848772
O O17 0.500000 0.589227 0.930313
O O18 0.721843 0.500000 0.937476
O O19 0.500000 0.873938 0.088059
#
# Coordination Sequence:
#
# PCOD8179197 Si02
#       7
#     8   8   8   8   8   8   8
#     4  11  24  42  65  90 123 166 215 264 317 386
#     4  11  23  41  66  92 123 164 211 262 315 381
#     4  11  24  43  66  92 128 174 222 271 328 398
#     4  10  20  34  53  79 115 158 201 244 297 368
#     4  12  25  42  67  97 132 169 214 273 331 392
#     4  10  21  37  58  86 122 161 202 255 318 379
#     4  12  23  36  58  90 125 160 205 263 323 382
#
# _framework density 20.367357999999999
#
# number of rings (size 3 to 8) (size 9 to 14) (size 15 to 20)
#    0.000    1.000    1.429    6.000    0.000    6.286 
#    0.000    0.714    0.000    0.857    0.000    0.000 
#    0.000    0.000    0.000    0.000    0.000    0.000 
#
# Total GULP energy -346965.273600 kJ/mol
# GULP energy per Si atom -12391.616914 kJ/mol
# Density = 2.032100 g / cm^3
# Si number density = 20.367358 Si / 1000 Ang^3
#
#
#
# Elastic Constant Matrix: (Units=GPa)
#
#
# Indices 1 2 3 4 5 6 
#
# 1 108.5251 38.5984 49.0633 0.0000 0.0000 0.0000
# 2 38.5984 104.0961 53.6662 0.0000 0.0000 0.0000
# 3 49.0633 53.6662 124.3684 0.0000 0.0000 0.0000
# 4 0.0000 0.0000 0.0000 26.9049 0.0000 0.0000
# 5 0.0000 0.0000 0.0000 0.0000 21.9981 0.0000
# 6 0.0000 0.0000 0.0000 0.0000 0.0000 30.7867
#
#
#
# Elastic Compliance Matrix: (Units=1/GPa)
#
#
# Indices 1 2 3 4 5 6 
#
# 1 0.011707 -0.002521 -0.003531 0.000000 0.000000 0.000000
# 2 -0.002521 0.012898 -0.004571 0.000000 0.000000 0.000000
# 3 -0.003531 -0.004571 0.011406 0.000000 0.000000 0.000000
# 4 0.000000 0.000000 0.000000 0.037168 0.000000 0.000000
# 5 0.000000 0.000000 0.000000 0.000000 0.045458 0.000000
# 6 0.000000 0.000000 0.000000 0.000000 0.000000 0.032482
#
#
# Mechanical properties :
#
#
# Convention : Reuss Voigt Hill
#
# Bulk Modulus (GPa) = 67.72404 68.84950 68.28677
# Shear Modulus (GPa) = 28.20301 28.98206 28.59253
#
# Velocity S-wave (km/s) = 3.72521 3.77631 3.75085
# Velocity P-wave (km/s) = 7.19906 7.27264 7.23594
#
# Compressibility (1/GPa) = 0.01476581
#
# Stress axis : x y z
#
# Youngs Moduli (GPa) = 85.41735 77.53271 87.67323
#
# Poissons Ratio (x) = 0.19544 0.30955
# Poissons Ratio (y) = 0.21531 0.40076
# Poissons Ratio (z) = 0.30159 0.35441
#
# Static dielectric constant tensor:
#      x y z
#    x 3.839270 0.000000 0.000000 
#    y 0.000000 3.923470 0.000000 
#    z 0.000000 0.000000 3.795680 
# 
# 
# High freq. dielectric constant tensor:
#      x y z
#    x 1.809890 0.000000 0.000000 
#    y 0.000000 1.802510 0.000000 
#    z 0.000000 0.000000 1.789700 
# 
# From -- ./inp_files/12421.got.cif
#   From: 2010.03.12/outbox.cif.g09.slc.cpg/sg38_7_cif.got.tgz:12421.got - 2010.04.14 02:38:36.
