data_PCOD8179546
_publ_section_title
;
Structure prediction by ZEFSAII (Michael W. Deem and Ramdas Pophale) SiO2 
 PCOD8179546
Probable space group: A M M 2
;
_chemical_formula_sum "Si O2"
_cell_formula_units_Z 40
_cell_length_a 8.411760
_cell_length_b 25.634656
_cell_length_c 9.553406
_cell_angle_alpha 90.000000
_cell_angle_beta 90.000000
_cell_angle_gamma 90.000000
_cell_volume 2060.025526
_symmetry_space_group_name_H-M "A M M 2"
_symmetry_group_IT_number 38
_symmetry_cell_setting 'orthorhombic'
loop_
_space_group_symop_operation_xyz
x,y,z
-x,-y,z
-x,y,z
x,-y,z
x,1/2+y,1/2+z
-x,1/2-y,1/2+z
-x,1/2+y,1/2+z
x,1/2-y,1/2+z
loop_
_atom_site_type_symbol
_atom_site_label
_atom_site_fract_x
_atom_site_fract_y
_atom_site_fract_z
Si Si1 0.815888 0.289574 0.350700
Si Si2 0.812539 0.093424 0.855776
Si Si3 0.809686 0.500000 0.168870
Si Si4 0.317105 0.294284 0.650748
Si Si5 0.810812 0.403833 0.670318
Si Si6 0.189232 0.000000 0.353237
O O1 0.764866 0.348368 0.307466
O O2 0.789196 0.281595 0.515656
O O3 0.706858 0.250315 0.265226
O O4 0.000000 0.278930 0.317171
O O5 0.000000 0.087547 0.857198
O O6 0.741215 0.051073 0.748305
O O7 0.751097 0.082556 0.013295
O O8 0.000000 0.500000 0.167590
O O9 0.743428 0.500000 0.010921
O O10 0.500000 0.296385 0.605804
O O11 0.264703 0.349186 0.719099
O O12 0.747696 0.448632 0.773941
O O13 0.000000 0.398512 0.675655
O O14 0.000000 0.000000 0.351961
#
# Coordination Sequence:
#
# PCOD8179546 Si02
#       6
#     8   8   4   8   8   4
#     4  10  20  36  56  79 106 143 185 224 267 325
#     4   8  15  27  46  69  98 132 167 206 254 309
#     4   9  15  25  43  75 106 124 154 213 272 309
#     4  11  22  36  54  80 110 142 179 226 279 329
#     4   9  17  32  51  73 101 138 178 216 261 322
#     4   9  17  27  46  75 104 132 172 223 270 313
#
# _framework density 19.417235000000002
#
# number of rings (size 3 to 8) (size 9 to 14) (size 15 to 20)
#    0.000    2.600    0.000    4.200    0.000    4.000 
#    0.000    4.500    0.000    0.000    0.000    9.100 
#    0.000    0.000    0.000    0.000    0.000    0.000 
#
# Total GULP energy -247990.380293 kJ/mol
# GULP energy per Si atom -12399.519015 kJ/mol
# Density = 1.937304 g / cm^3
# Si number density = 19.417235 Si / 1000 Ang^3
#
#
#
# Elastic Constant Matrix: (Units=GPa)
#
#
# Indices 1 2 3 4 5 6 
#
# 1 38.2532 21.4076 11.3090 0.0000 0.0000 0.0000
# 2 21.4076 166.7688 92.5529 0.0000 0.0000 0.0000
# 3 11.3090 92.5529 113.9267 0.0000 0.0000 0.0000
# 4 0.0000 0.0000 0.0000 38.8838 0.0000 0.0000
# 5 0.0000 0.0000 0.0000 0.0000 14.5723 0.0000
# 6 0.0000 0.0000 0.0000 0.0000 0.0000 7.5494
#
#
#
# Elastic Compliance Matrix: (Units=1/GPa)
#
#
# Indices 1 2 3 4 5 6 
#
# 1 0.028169 -0.003759 0.000257 0.000000 0.000000 0.000000
# 2 -0.003759 0.011421 -0.008905 0.000000 0.000000 0.000000
# 3 0.000257 -0.008905 0.015987 0.000000 0.000000 0.000000
# 4 0.000000 0.000000 0.000000 0.025718 0.000000 0.000000
# 5 0.000000 0.000000 0.000000 0.000000 0.068623 0.000000
# 6 0.000000 0.000000 0.000000 0.000000 0.000000 0.132461
#
#
# Mechanical properties :
#
#
# Convention : Reuss Voigt Hill
#
# Bulk Modulus (GPa) = 32.50618 63.27642 47.89130
# Shear Modulus (GPa) = 15.75071 25.11305 20.43188
#
# Velocity S-wave (km/s) = 2.85120 3.60020 3.24737
# Velocity P-wave (km/s) = 5.25512 7.06686 6.22723
#
# Compressibility (1/GPa) = 0.03076338
#
# Stress axis : x y z
#
# Youngs Moduli (GPa) = 35.49995 87.55780 62.55272
#
# Poissons Ratio (x) = 0.32912 -0.01610
# Poissons Ratio (y) = 0.13344 0.55704
# Poissons Ratio (z) = -0.00914 0.77972
#
# Static dielectric constant tensor:
#      x y z
#    x 3.038910 0.000000 0.000000 
#    y 0.000000 3.779990 0.000000 
#    z 0.000000 0.000000 3.604260 
# 
# 
# High freq. dielectric constant tensor:
#      x y z
#    x 1.714670 0.000000 0.000000 
#    y 0.000000 1.768560 0.000000 
#    z 0.000000 0.000000 1.748750 
# 
# From -- ./inp_files/3472.got.cif
#   From: 2010.03.12/outbox.cif.g09.slc.cpg/sg38_2_cif.got.tgz:3472.got - 2010.04.14 02:38:36.
