data_PCOD8179305
_publ_section_title
;
Structure prediction by ZEFSAII (Michael W. Deem and Ramdas Pophale) SiO2 
 PCOD8179305
Probable space group: A M M 2
;
_chemical_formula_sum "Si O2"
_cell_formula_units_Z 64
_cell_length_a 18.925413
_cell_length_b 8.860716
_cell_length_c 19.601662
_cell_angle_alpha 90.000000
_cell_angle_beta 90.000000
_cell_angle_gamma 90.000000
_cell_volume 3287.055817
_symmetry_space_group_name_H-M "A M M 2"
_symmetry_group_IT_number 38
_symmetry_cell_setting 'orthorhombic'
loop_
_space_group_symop_operation_xyz
x,y,z
-x,-y,z
-x,y,z
x,-y,z
x,1/2+y,1/2+z
-x,1/2-y,1/2+z
-x,1/2+y,1/2+z
x,1/2-y,1/2+z
loop_
_atom_site_type_symbol
_atom_site_label
_atom_site_fract_x
_atom_site_fract_y
_atom_site_fract_z
Si Si1 0.579231 0.679280 0.873110
Si Si2 0.421385 0.320649 0.025425
Si Si3 0.840612 0.324097 0.590636
Si Si4 0.300659 0.822783 0.272578
Si Si5 0.081615 0.671823 0.209415
Si Si6 0.300210 0.321066 0.124140
Si Si7 0.851954 0.173834 0.329342
Si Si8 0.080972 0.673024 0.971113
O O1 0.500000 0.732271 0.852757
O O2 0.583477 0.500000 0.873220
O O3 0.635120 0.743128 0.818267
O O4 0.598084 0.738649 0.949294
O O5 0.500000 0.264706 0.045298
O O6 0.418820 0.500000 0.024429
O O7 0.367366 0.257976 0.081945
O O8 0.824275 0.500000 0.587920
O O9 0.873253 0.284965 0.663756
O O10 0.767837 0.233921 0.582088
O O11 0.895984 0.279302 0.532707
O O12 0.301458 0.741946 0.200210
O O13 0.228978 0.785557 0.313171
O O14 0.308617 0.000000 0.259523
O O15 0.106643 0.500000 0.197480
O O16 0.095485 0.719608 0.287036
O O17 0.000000 0.689148 0.191068
O O18 0.299879 0.500000 0.127725
O O19 0.867563 0.208010 0.408137
O O20 0.869051 0.000000 0.312255
O O21 0.088527 0.500000 0.995006
O O22 0.000000 0.709129 0.951361
#
# Coordination Sequence:
#
# PCOD8179305 Si02
#       8
#     8   8   8   8   8   8   8   8
#     4   8  15  30  54  84 115 148 189 233 276 328
#     4   8  16  32  56  86 114 145 190 236 278 331
#     4  12  25  40  58  83 115 152 194 240 287 343
#     4  10  20  34  55  84 117 151 190 233 277 334
#     4  11  23  39  61  86 113 147 189 237 288 342
#     4  11  22  36  58  84 116 154 190 236 288 338
#     4  10  21  37  59  86 117 152 191 234 282 343
#     4  10  22  40  61  86 115 148 190 237 289 350
#
# _framework density 19.470312
#
# number of rings (size 3 to 8) (size 9 to 14) (size 15 to 20)
#    0.000    2.000    1.250    3.375    1.750    4.250 
#    0.000    0.000    0.000    1.125    0.000    3.500 
#    0.000    0.000    0.000    0.000    0.000    0.000 
#
# Total GULP energy -396838.184730 kJ/mol
# GULP energy per Si atom -12401.193273 kJ/mol
# Density = 1.942600 g / cm^3
# Si number density = 19.470312 Si / 1000 Ang^3
#
#
#
# Elastic Constant Matrix: (Units=GPa)
#
#
# Indices 1 2 3 4 5 6 
#
# 1 117.4495 33.4431 53.9247 0.0000 0.0000 0.0000
# 2 33.4431 51.1238 32.2416 0.0000 0.0000 0.0000
# 3 53.9247 32.2416 95.5582 0.0000 0.0000 0.0000
# 4 0.0000 0.0000 0.0000 28.0148 0.0000 0.0000
# 5 0.0000 0.0000 0.0000 0.0000 44.0389 0.0000
# 6 0.0000 0.0000 0.0000 0.0000 0.0000 18.6567
#
#
#
# Elastic Compliance Matrix: (Units=1/GPa)
#
#
# Indices 1 2 3 4 5 6 
#
# 1 0.012309 -0.004664 -0.005373 0.000000 0.000000 0.000000
# 2 -0.004664 0.026615 -0.006348 0.000000 0.000000 0.000000
# 3 -0.005373 -0.006348 0.015638 0.000000 0.000000 0.000000
# 4 0.000000 0.000000 0.000000 0.035695 0.000000 0.000000
# 5 0.000000 0.000000 0.000000 0.000000 0.022707 0.000000
# 6 0.000000 0.000000 0.000000 0.000000 0.000000 0.053600
#
#
# Mechanical properties :
#
#
# Convention : Reuss Voigt Hill
#
# Bulk Modulus (GPa) = 45.88549 55.92783 50.90666
# Shear Modulus (GPa) = 24.20159 27.77688 25.98923
#
# Velocity S-wave (km/s) = 3.52944 3.78117 3.65747
# Velocity P-wave (km/s) = 6.34250 6.91737 6.63617
#
# Compressibility (1/GPa) = 0.02179338
#
# Stress axis : x y z
#
# Youngs Moduli (GPa) = 81.24145 37.57325 63.94495
#
# Poissons Ratio (x) = 0.17523 0.34355
# Poissons Ratio (y) = 0.37890 0.40592
# Poissons Ratio (z) = 0.43647 0.23852
#
# Static dielectric constant tensor:
#      x y z
#    x 3.835530 0.000000 0.000000 
#    y 0.000000 3.252370 0.000000 
#    z 0.000000 0.000000 3.621350 
# 
# 
# High freq. dielectric constant tensor:
#      x y z
#    x 1.770020 0.000000 0.000000 
#    y 0.000000 1.728030 0.000000 
#    z 0.000000 0.000000 1.763790 
# 
# From -- ./inp_files/18959.got.cif
#   From: 2010.03.12/outbox.cif.g09.slc.cpg/sg38_10_cif.got.tgz:18959.got - 2010.04.14 02:38:36.
