data_PCOD8179341
_publ_section_title
;
Structure prediction by ZEFSAII (Michael W. Deem and Ramdas Pophale) SiO2 
 PCOD8179341
Probable space group: A M M 2
;
_chemical_formula_sum "Si O2"
_cell_formula_units_Z 40
_cell_length_a 7.447824
_cell_length_b 14.540223
_cell_length_c 18.023344
_cell_angle_alpha 90.000000
_cell_angle_beta 90.000000
_cell_angle_gamma 90.000000
_cell_volume 1951.802385
_symmetry_space_group_name_H-M "A M M 2"
_symmetry_group_IT_number 38
_symmetry_cell_setting 'orthorhombic'
loop_
_space_group_symop_operation_xyz
x,y,z
-x,-y,z
-x,y,z
x,-y,z
x,1/2+y,1/2+z
-x,1/2-y,1/2+z
-x,1/2+y,1/2+z
x,1/2-y,1/2+z
loop_
_atom_site_type_symbol
_atom_site_label
_atom_site_fract_x
_atom_site_fract_y
_atom_site_fract_z
Si Si1 0.500000 0.109200 0.465181
Si Si2 0.801026 0.225451 0.385133
Si Si3 0.793827 0.100698 0.125639
Si Si4 0.300539 0.601420 0.463502
Si Si5 0.500000 0.108731 0.640242
Si Si6 0.788423 0.727855 0.220784
O O1 0.675046 0.152086 0.426160
O O2 0.500000 0.134157 0.552638
O O3 0.500000 0.000000 0.452647
O O4 0.823746 0.318828 0.431931
O O5 0.727162 0.257854 0.305416
O O6 0.000000 0.181021 0.377706
O O7 0.733119 0.176006 0.184135
O O8 0.000000 0.113403 0.102638
O O9 0.760425 0.000000 0.161567
O O10 0.679549 0.112218 0.051582
O O11 0.500000 0.612885 0.429759
O O12 0.221963 0.500000 0.443562
O O13 0.678265 0.147303 0.680316
O O14 0.500000 0.000000 0.651017
O O15 0.000000 0.704631 0.213739
#
# Coordination Sequence:
#
# PCOD8179341 Si02
#       6
#     4   8   8   8   4   8
#     4  11  25  44  63  91 125 165 218 263 302 358
#     4  11  23  41  64  90 124 163 203 253 313 371
#     4   9  18  34  57  86 117 149 190 239 295 362
#     4  10  20  34  56  88 121 152 191 241 301 366
#     4  11  25  42  63  87 121 167 216 263 300 352
#     4  10  23  41  62  90 123 160 202 252 310 368
#
# _framework density 20.493877000000001
#
# number of rings (size 3 to 8) (size 9 to 14) (size 15 to 20)
#    0.000    1.800    1.000    2.400    1.400    6.000 
#    0.000    6.000    0.000    0.000    0.000    0.000 
#    0.000    0.000    0.000    0.000    0.000    0.000 
#
# Total GULP energy -247940.917375 kJ/mol
# GULP energy per Si atom -12397.045869 kJ/mol
# Density = 2.044723 g / cm^3
# Si number density = 20.493877 Si / 1000 Ang^3
#
#
#
# Elastic Constant Matrix: (Units=GPa)
#
#
# Indices 1 2 3 4 5 6 
#
# 1 97.8273 47.9993 47.4391 0.0000 0.0000 0.0000
# 2 47.9993 141.6830 67.3652 0.0000 0.0000 0.0000
# 3 47.4391 67.3652 120.8844 0.0000 0.0000 0.0000
# 4 0.0000 0.0000 0.0000 11.6666 0.0000 0.0000
# 5 0.0000 0.0000 0.0000 0.0000 2.1457 0.0000
# 6 0.0000 0.0000 0.0000 0.0000 0.0000 24.0416
#
#
#
# Elastic Compliance Matrix: (Units=1/GPa)
#
#
# Indices 1 2 3 4 5 6 
#
# 1 0.013379 -0.002770 -0.003707 0.000000 0.000000 0.000000
# 2 -0.002770 0.010176 -0.004584 0.000000 0.000000 0.000000
# 3 -0.003707 -0.004584 0.012281 0.000000 0.000000 0.000000
# 4 0.000000 0.000000 0.000000 0.085715 0.000000 0.000000
# 5 0.000000 0.000000 0.000000 0.000000 0.466040 0.000000
# 6 0.000000 0.000000 0.000000 0.000000 0.000000 0.041595
#
#
# Mechanical properties :
#
#
# Convention : Reuss Voigt Hill
#
# Bulk Modulus (GPa) = 72.91160 76.22244 74.56702
# Shear Modulus (GPa) = 7.62338 20.74352 14.18345
#
# Velocity S-wave (km/s) = 1.93078 3.18493 2.63360
# Velocity P-wave (km/s) = 6.37378 7.12731 6.76105
#
# Compressibility (1/GPa) = 0.01371524
#
# Stress axis : x y z
#
# Youngs Moduli (GPa) = 74.74595 98.27244 81.42499
#
# Poissons Ratio (x) = 0.27222 0.30181
# Poissons Ratio (y) = 0.20705 0.37322
# Poissons Ratio (z) = 0.27705 0.45044
#
# Static dielectric constant tensor:
#      x y z
#    x 3.714680 0.000000 0.000000 
#    y 0.000000 3.759880 0.000000 
#    z 0.000000 0.000000 3.699540 
# 
# 
# High freq. dielectric constant tensor:
#      x y z
#    x 1.808260 0.000000 0.000000 
#    y 0.000000 1.800830 0.000000 
#    z 0.000000 0.000000 1.798900 
# 
# From -- ./inp_files/11681.got.cif
#   From: 2010.03.12/outbox.cif.g09.slc.cpg/sg38_6_cif.got.tgz:11681.got - 2010.04.14 02:38:36.
