data_PCOD8179118
_publ_section_title
;
Structure prediction by ZEFSAII (Michael W. Deem and Ramdas Pophale) SiO2 
 PCOD8179118
Probable space group: A M M 2
;
_chemical_formula_sum "Si O2"
_cell_formula_units_Z 56
_cell_length_a 19.198697
_cell_length_b 9.147253
_cell_length_c 18.944255
_cell_angle_alpha 90.000000
_cell_angle_beta 90.000000
_cell_angle_gamma 90.000000
_cell_volume 3326.901759
_symmetry_space_group_name_H-M "A M M 2"
_symmetry_group_IT_number 38
_symmetry_cell_setting 'orthorhombic'
loop_
_space_group_symop_operation_xyz
x,y,z
-x,-y,z
-x,y,z
x,-y,z
x,1/2+y,1/2+z
-x,1/2-y,1/2+z
-x,1/2+y,1/2+z
x,1/2-y,1/2+z
loop_
_atom_site_type_symbol
_atom_site_label
_atom_site_fract_x
_atom_site_fract_y
_atom_site_fract_z
Si Si1 0.418374 0.168229 0.000000
Si Si2 0.314225 0.325963 0.902055
Si Si3 0.810438 0.836718 0.498506
Si Si4 0.815900 0.836835 0.653322
Si Si5 0.579878 0.332022 0.140903
Si Si6 0.306137 0.828395 0.754489
Si Si7 0.079491 0.327799 0.572408
O O1 0.500000 0.187158 0.987140
O O2 0.396517 0.232742 0.075555
O O3 0.395172 0.000000 0.997636
O O4 0.381746 0.255492 0.937285
O O5 0.321188 0.500000 0.904330
O O6 0.308734 0.270800 0.822861
O O7 0.245311 0.271918 0.943801
O O8 0.775966 0.839924 0.577216
O O9 0.880319 0.736740 0.503275
O O10 0.832703 0.000000 0.475267
O O11 0.762798 0.778669 0.712003
O O12 0.884134 0.733423 0.644500
O O13 0.841365 0.000000 0.672988
O O14 0.500000 0.301195 0.161916
O O15 0.591259 0.500000 0.118445
O O16 0.625875 0.291746 0.208574
O O17 0.303580 0.000000 0.773709
O O18 0.085732 0.500000 0.571614
O O19 0.000000 0.274849 0.570359
#
# Coordination Sequence:
#
# PCOD8179118 Si02
#       7
#     8   8   8   8   8   8   8
#     4  10  21  36  54  76 101 131 171 217 261 305
#     4  11  22  35  51  74 104 137 174 213 255 304
#     4   8  17  33  51  72  99 132 167 203 245 301
#     4   8  16  31  50  71  99 134 168 204 244 298
#     4   9  18  34  55  75  99 133 170 212 259 303
#     4  10  20  34  50  73 105 138 173 210 252 304
#     4   9  17  29  50  81 107 125 157 208 254 293
#
# _framework density 16.832477000000001
#
# number of rings (size 3 to 8) (size 9 to 14) (size 15 to 20)
#    0.857    1.857    0.000    1.714    0.000    7.143 
#    0.000    1.429    0.000    0.857    0.000    0.000 
#    0.000    0.000    0.000    0.000    0.000    0.000 
#
# Total GULP energy -347019.668425 kJ/mol
# GULP energy per Si atom -12393.559587 kJ/mol
# Density = 1.679417 g / cm^3
# Si number density = 16.832477 Si / 1000 Ang^3
#
#
#
# Elastic Constant Matrix: (Units=GPa)
#
#
# Indices 1 2 3 4 5 6 
#
# 1 102.0904 56.6464 57.1486 0.0000 0.0000 0.0000
# 2 56.6464 81.8575 49.6493 0.0000 0.0000 0.0000
# 3 57.1486 49.6493 100.8594 0.0000 0.0000 0.0000
# 4 0.0000 0.0000 0.0000 30.2338 0.0000 0.0000
# 5 0.0000 0.0000 0.0000 0.0000 9.0282 0.0000
# 6 0.0000 0.0000 0.0000 0.0000 0.0000 27.0922
#
#
#
# Elastic Compliance Matrix: (Units=1/GPa)
#
#
# Indices 1 2 3 4 5 6 
#
# 1 0.018002 -0.008940 -0.005799 0.000000 0.000000 0.000000
# 2 -0.008940 0.021856 -0.005693 0.000000 0.000000 0.000000
# 3 -0.005799 -0.005693 0.016003 0.000000 0.000000 0.000000
# 4 0.000000 0.000000 0.000000 0.033076 0.000000 0.000000
# 5 0.000000 0.000000 0.000000 0.000000 0.110764 0.000000
# 6 0.000000 0.000000 0.000000 0.000000 0.000000 0.036911
#
#
# Mechanical properties :
#
#
# Convention : Reuss Voigt Hill
#
# Bulk Modulus (GPa) = 66.68446 67.96620 67.32533
# Shear Modulus (GPa) = 17.70055 21.36171 19.53113
#
# Velocity S-wave (km/s) = 3.24631 3.56628 3.41005
# Velocity P-wave (km/s) = 7.33171 7.57783 7.45578
#
# Compressibility (1/GPa) = 0.01499600
#
# Stress axis : x y z
#
# Youngs Moduli (GPa) = 55.54832 45.75331 62.48633
#
# Poissons Ratio (x) = 0.40905 0.36239
# Poissons Ratio (y) = 0.49662 0.35576
# Poissons Ratio (z) = 0.32215 0.26049
#
# Static dielectric constant tensor:
#      x y z
#    x 3.131370 0.000000 0.000000 
#    y 0.000000 3.133940 0.000000 
#    z 0.000000 0.000000 2.951270 
# 
# 
# High freq. dielectric constant tensor:
#      x y z
#    x 1.642420 0.000000 0.000000 
#    y 0.000000 1.652240 0.000000 
#    z 0.000000 0.000000 1.626650 
# 
# From -- ./inp_files/18832.got.cif
#   From: 2010.03.12/outbox.cif.g09.slc.cpg/sg38_10_cif.got.tgz:18832.got - 2010.04.14 02:38:36.
