data_PCOD8179965
_publ_section_title
;
Structure prediction by ZEFSAII (Michael W. Deem and Ramdas Pophale) SiO2 
 PCOD8179965
Probable space group: A M M 2
;
_chemical_formula_sum "Si O2"
_cell_formula_units_Z 40
_cell_length_a 11.784201
_cell_length_b 13.305237
_cell_length_c 13.410532
_cell_angle_alpha 90.000000
_cell_angle_beta 90.000000
_cell_angle_gamma 90.000000
_cell_volume 2102.658597
_symmetry_space_group_name_H-M "A M M 2"
_symmetry_group_IT_number 38
_symmetry_cell_setting 'orthorhombic'
loop_
_space_group_symop_operation_xyz
x,y,z
-x,-y,z
-x,y,z
x,-y,z
x,1/2+y,1/2+z
-x,1/2-y,1/2+z
-x,1/2+y,1/2+z
x,1/2-y,1/2+z
loop_
_atom_site_type_symbol
_atom_site_label
_atom_site_fract_x
_atom_site_fract_y
_atom_site_fract_z
Si Si1 0.000000 0.379573 0.439610
Si Si2 0.767691 0.615044 0.116441
Si Si3 0.240014 0.305462 0.496684
Si Si4 0.628940 0.888334 0.177623
Si Si5 0.632363 0.694602 0.293673
Si Si6 0.000000 0.381488 0.215042
O O1 0.108451 0.333418 0.494015
O O2 0.000000 0.338213 0.326553
O O3 0.000000 0.500000 0.445962
O O4 0.771965 0.500000 0.078616
O O5 0.674061 0.623386 0.203644
O O6 0.888017 0.654804 0.157976
O O7 0.738868 0.687813 0.023624
O O8 0.293154 0.374732 0.581672
O O9 0.299171 0.332505 0.392714
O O10 0.500000 0.870768 0.142238
O O11 0.658816 0.810223 0.265180
O O12 0.647345 0.000000 0.221256
O O13 0.500000 0.674495 0.312334
O O14 0.000000 0.500000 0.222431
#
# Coordination Sequence:
#
# PCOD8179965 Si02
#       6
#     4   8   8   8   8   4
#     4  11  21  34  57  84 108 140 183 225 272 323
#     4  10  21  37  57  82 111 144 180 223 273 324
#     4  11  21  35  57  83 108 142 182 226 269 319
#     4   9  19  36  56  78 107 142 178 220 272 324
#     4  10  21  36  54  79 111 144 182 224 268 320
#     4   9  17  34  56  76 104 138 174 217 271 323
#
# _framework density 19.023534000000001
#
# number of rings (size 3 to 8) (size 9 to 14) (size 15 to 20)
#    0.000    2.000    2.000    1.800    0.000    2.800 
#    0.000    0.000    0.000    0.000    0.000    0.000 
#    0.000    0.000    0.000    0.000    0.000    0.000 
#
# Total GULP energy -248028.630493 kJ/mol
# GULP energy per Si atom -12401.431525 kJ/mol
# Density = 1.898024 g / cm^3
# Si number density = 19.023534 Si / 1000 Ang^3
#
#
#
# Elastic Constant Matrix: (Units=GPa)
#
#
# Indices 1 2 3 4 5 6 
#
# 1 101.7414 9.1691 20.5764 0.0000 0.0000 0.0000
# 2 9.1691 75.1360 0.5049 0.0000 0.0000 0.0000
# 3 20.5764 0.5049 49.6733 0.0000 0.0000 0.0000
# 4 0.0000 0.0000 0.0000 11.6339 0.0000 0.0000
# 5 0.0000 0.0000 0.0000 0.0000 19.6867 0.0000
# 6 0.0000 0.0000 0.0000 0.0000 0.0000 25.4016
#
#
#
# Elastic Compliance Matrix: (Units=1/GPa)
#
#
# Indices 1 2 3 4 5 6 
#
# 1 0.010852 -0.001294 -0.004482 0.000000 0.000000 0.000000
# 2 -0.001294 0.013464 0.000399 0.000000 0.000000 0.000000
# 3 -0.004482 0.000399 0.021984 0.000000 0.000000 0.000000
# 4 0.000000 0.000000 0.000000 0.085956 0.000000 0.000000
# 5 0.000000 0.000000 0.000000 0.000000 0.050796 0.000000
# 6 0.000000 0.000000 0.000000 0.000000 0.000000 0.039368
#
#
# Mechanical properties :
#
#
# Convention : Reuss Voigt Hill
#
# Bulk Modulus (GPa) = 28.13221 31.89460 30.01340
# Shear Modulus (GPa) = 20.40631 24.43114 22.41872
#
# Velocity S-wave (km/s) = 3.27874 3.58754 3.43661
# Velocity P-wave (km/s) = 5.39942 5.82777 5.61768
#
# Compressibility (1/GPa) = 0.03554645
#
# Stress axis : x y z
#
# Youngs Moduli (GPa) = 92.14948 74.26966 45.48740
#
# Poissons Ratio (x) = 0.09612 0.20388
# Poissons Ratio (y) = 0.11926 -0.01816
# Poissons Ratio (z) = 0.41302 -0.02965
#
# Static dielectric constant tensor:
#      x y z
#    x 3.654260 0.000000 0.000000 
#    y 0.000000 3.398230 0.000000 
#    z 0.000000 0.000000 3.277900 
# 
# 
# High freq. dielectric constant tensor:
#      x y z
#    x 1.751090 0.000000 0.000000 
#    y 0.000000 1.735170 0.000000 
#    z 0.000000 0.000000 1.724920 
# 
# From -- ./inp_files/11698.got.cif
#   From: 2010.03.12/outbox.cif.g09.slc.cpg/sg38_6_cif.got.tgz:11698.got - 2010.04.14 02:38:36.
