data_PCOD8179776
_publ_section_title
;
Structure prediction by ZEFSAII (Michael W. Deem and Ramdas Pophale) SiO2 
 PCOD8179776
Probable space group: A M M 2
;
_chemical_formula_sum "Si O2"
_cell_formula_units_Z 56
_cell_length_a 21.587065
_cell_length_b 8.567422
_cell_length_c 15.229590
_cell_angle_alpha 90.000000
_cell_angle_beta 90.000000
_cell_angle_gamma 90.000000
_cell_volume 2816.644070
_symmetry_space_group_name_H-M "A M M 2"
_symmetry_group_IT_number 38
_symmetry_cell_setting 'orthorhombic'
loop_
_space_group_symop_operation_xyz
x,y,z
-x,-y,z
-x,y,z
x,-y,z
x,1/2+y,1/2+z
-x,1/2-y,1/2+z
-x,1/2+y,1/2+z
x,1/2-y,1/2+z
loop_
_atom_site_type_symbol
_atom_site_label
_atom_site_fract_x
_atom_site_fract_y
_atom_site_fract_z
Si Si1 0.632967 0.685129 0.839830
Si Si2 0.635656 0.678641 0.532293
Si Si3 0.931047 0.183461 0.334942
Si Si4 0.500000 0.324659 0.505431
Si Si5 0.288988 0.819374 0.687309
Si Si6 0.929559 0.318443 0.516982
Si Si7 0.500000 0.823982 0.327747
Si Si8 0.154653 0.315386 0.679786
O O1 0.629169 0.500000 0.856021
O O2 0.685815 0.721977 0.769903
O O3 0.566593 0.749317 0.799373
O O4 0.647246 0.767557 0.932297
O O5 0.657761 0.500000 0.540978
O O6 0.563129 0.694665 0.561382
O O7 0.675138 0.783117 0.597751
O O8 0.906536 0.226297 0.431315
O O9 0.882833 0.248680 0.263931
O O10 0.000000 0.255670 0.320366
O O11 0.935187 0.000000 0.323502
O O12 0.500000 0.500000 0.462688
O O13 0.500000 0.189000 0.433359
O O14 0.218053 0.776879 0.673369
O O15 0.296323 0.000000 0.709586
O O16 0.924079 0.500000 0.496084
O O17 0.885463 0.268462 0.595663
O O18 0.000000 0.273302 0.542153
O O19 0.500000 0.000000 0.294928
O O20 0.167188 0.500000 0.684720
#
# Coordination Sequence:
#
# PCOD8179776 Si02
#       8
#     8   8   8   4   8   8   4   8
#     4  10  20  38  61  85 113 145 183 231 285 338
#     4  10  20  38  61  85 113 145 183 231 285 338
#     4   9  18  34  58  86 112 139 175 220 272 328
#     4   8  16  31  56  85 110 138 176 225 282 339
#     4  12  26  40  54  79 113 153 198 235 274 329
#     4   9  18  34  58  86 112 139 175 220 272 328
#     4   8  16  31  56  85 110 138 176 225 282 339
#     4  10  21  38  57  77 108 149 187 225 272 326
#
# _framework density 19.881817999999999
#
# number of rings (size 3 to 8) (size 9 to 14) (size 15 to 20)
#    0.000    2.286    0.000    2.571    0.000    5.714 
#    0.000    5.714    0.000    4.286    0.000    0.000 
#    0.000    0.000    0.000    0.000    0.000    0.000 
#
# Total GULP energy -347073.886004 kJ/mol
# GULP energy per Si atom -12395.495929 kJ/mol
# Density = 1.983657 g / cm^3
# Si number density = 19.881818 Si / 1000 Ang^3
#
#
#
# Elastic Constant Matrix: (Units=GPa)
#
#
# Indices 1 2 3 4 5 6 
#
# 1 128.3822 24.3642 63.7892 0.0000 0.0000 0.0000
# 2 24.3642 45.3618 14.6188 0.0000 0.0000 0.0000
# 3 63.7892 14.6188 100.8877 0.0000 0.0000 0.0000
# 4 0.0000 0.0000 0.0000 31.5943 0.0000 0.0000
# 5 0.0000 0.0000 0.0000 0.0000 -21.5501 0.0000
# 6 0.0000 0.0000 0.0000 0.0000 0.0000 24.1560
#
#
#
# Elastic Compliance Matrix: (Units=1/GPa)
#
#
# Indices 1 2 3 4 5 6 
#
# 1 0.012083 -0.004225 -0.007028 0.000000 0.000000 0.000000
# 2 -0.004225 0.024602 -0.000894 0.000000 0.000000 0.000000
# 3 -0.007028 -0.000894 0.014485 0.000000 0.000000 0.000000
# 4 0.000000 0.000000 0.000000 0.031651 0.000000 0.000000
# 5 0.000000 0.000000 0.000000 0.000000 -0.046404 0.000000
# 6 0.000000 0.000000 0.000000 0.000000 0.000000 0.041398
#
#
# Mechanical properties :
#
#
# Convention : Reuss Voigt Hill
#
# Bulk Modulus (GPa) = 37.20546 53.35293 45.27919
# Shear Modulus (GPa) = 45.01802 18.29733 31.65767
#
# Velocity S-wave (km/s) = 4.76361 3.03694 3.99468
# Velocity P-wave (km/s) = 7.00071 6.26024 6.64080
#
# Compressibility (1/GPa) = 0.02687778
#
# Stress axis : x y z
#
# Youngs Moduli (GPa) = 82.76220 40.64674 69.03772
#
# Poissons Ratio (x) = 0.17173 0.48516
# Poissons Ratio (y) = 0.34967 0.06169
# Poissons Ratio (z) = 0.58161 0.03632
#
# Static dielectric constant tensor:
#      x y z
#    x 3.867450 0.000000 0.000000 
#    y 0.000000 3.483640 0.000000 
#    z 0.000000 0.000000 3.476990 
# 
# 
# High freq. dielectric constant tensor:
#      x y z
#    x 1.782540 0.000000 0.000000 
#    y 0.000000 1.764160 0.000000 
#    z 0.000000 0.000000 1.767480 
# 
# From -- ./inp_files/15585.got.cif
#   From: 2010.03.12/outbox.cif.g09.slc.cpg/sg38_8_cif.got.tgz:15585.got - 2010.04.14 02:38:36.
