data_PCOD8179073
_publ_section_title
;
Structure prediction by ZEFSAII (Michael W. Deem and Ramdas Pophale) SiO2 
 PCOD8179073
Probable space group: A M M 2
;
_chemical_formula_sum "Si O2"
_cell_formula_units_Z 56
_cell_length_a 9.090780
_cell_length_b 14.158525
_cell_length_c 22.797017
_cell_angle_alpha 90.000000
_cell_angle_beta 90.000000
_cell_angle_gamma 90.000000
_cell_volume 2934.250471
_symmetry_space_group_name_H-M "A M M 2"
_symmetry_group_IT_number 38
_symmetry_cell_setting 'orthorhombic'
loop_
_space_group_symop_operation_xyz
x,y,z
-x,-y,z
-x,y,z
x,-y,z
x,1/2+y,1/2+z
-x,1/2-y,1/2+z
-x,1/2+y,1/2+z
x,1/2-y,1/2+z
loop_
_atom_site_type_symbol
_atom_site_label
_atom_site_fract_x
_atom_site_fract_y
_atom_site_fract_z
Si Si1 0.171232 0.389836 0.625000
Si Si2 0.669981 0.398476 0.277433
Si Si3 0.837066 0.356713 0.846719
Si Si4 0.173338 0.218675 0.006989
Si Si5 0.160066 0.145329 0.886243
Si Si6 0.325095 0.302724 0.735419
Si Si7 0.330994 0.604300 0.961982
O O1 0.210068 0.500000 0.618930
O O2 0.214817 0.337509 0.565153
O O3 0.269905 0.341522 0.673970
O O4 0.000000 0.375346 0.639968
O O5 0.500000 0.381696 0.287689
O O6 0.700609 0.500000 0.244902
O O7 0.735455 0.411016 0.342664
O O8 0.728506 0.307588 0.241266
O O9 0.857310 0.248435 0.860369
O O10 0.746557 0.367365 0.786183
O O11 0.747101 0.404682 0.898949
O O12 0.000000 0.403230 0.840079
O O13 0.000000 0.239061 0.001495
O O14 0.225159 0.153253 0.952201
O O15 0.254648 0.319940 0.005054
O O16 0.000000 0.095609 0.888046
O O17 0.500000 0.312075 0.738913
O O18 0.500000 0.634619 0.952350
O O19 0.320887 0.500000 0.991347
#
# Coordination Sequence:
#
# PCOD8179073 Si02
#       7
#     8   8   8   8   8   8   8
#     4  10  22  40  59  77 100 134 177 224 271 318
#     4   9  18  32  50  75 107 140 170 203 252 312
#     4   9  17  31  52  76 104 139 176 214 257 305
#     4   9  19  36  56  77 104 139 177 217 262 313
#     4   8  15  28  48  75 102 129 164 206 251 298
#     4  10  20  35  55  78 107 141 177 221 268 314
#     4  10  20  33  52  81 114 144 174 212 261 315
#
# _framework density 19.084942000000002
#
# number of rings (size 3 to 8) (size 9 to 14) (size 15 to 20)
#    0.000    2.714    0.000    2.143    0.000    7.429 
#    0.000    2.143    0.000    2.571    0.000    0.000 
#    0.000    0.000    0.000    0.000    0.000    0.000 
#
# Total GULP energy -346967.150669 kJ/mol
# GULP energy per Si atom -12391.683952 kJ/mol
# Density = 1.904150 g / cm^3
# Si number density = 19.084942 Si / 1000 Ang^3
#
#
#
# Elastic Constant Matrix: (Units=GPa)
#
#
# Indices 1 2 3 4 5 6 
#
# 1 82.7807 46.1561 47.4101 0.0000 0.0000 0.0000
# 2 46.1561 117.4054 51.5341 0.0000 0.0000 0.0000
# 3 47.4101 51.5341 119.4582 0.0000 0.0000 0.0000
# 4 0.0000 0.0000 0.0000 17.6991 0.0000 0.0000
# 5 0.0000 0.0000 0.0000 0.0000 24.3283 0.0000
# 6 0.0000 0.0000 0.0000 0.0000 0.0000 14.8255
#
#
#
# Elastic Compliance Matrix: (Units=1/GPa)
#
#
# Indices 1 2 3 4 5 6 
#
# 1 0.017537 -0.004736 -0.004917 0.000000 0.000000 0.000000
# 2 -0.004736 0.011786 -0.003205 0.000000 0.000000 0.000000
# 3 -0.004917 -0.003205 0.011705 0.000000 0.000000 0.000000
# 4 0.000000 0.000000 0.000000 0.056500 0.000000 0.000000
# 5 0.000000 0.000000 0.000000 0.000000 0.041104 0.000000
# 6 0.000000 0.000000 0.000000 0.000000 0.000000 0.067451
#
#
# Mechanical properties :
#
#
# Convention : Reuss Voigt Hill
#
# Bulk Modulus (GPa) = 65.30632 67.76052 66.53342
# Shear Modulus (GPa) = 21.10564 23.00685 22.05624
#
# Velocity S-wave (km/s) = 3.32908 3.47579 3.40323
# Velocity P-wave (km/s) = 7.00501 7.18957 7.09789
#
# Compressibility (1/GPa) = 0.01531245
#
# Stress axis : x y z
#
# Youngs Moduli (GPa) = 57.02307 84.84510 85.43316
#
# Poissons Ratio (x) = 0.40184 0.42005
# Poissons Ratio (y) = 0.27007 0.27380
# Poissons Ratio (z) = 0.28037 0.27192
#
# Static dielectric constant tensor:
#      x y z
#    x 3.688530 0.000000 0.000000 
#    y 0.000000 3.651950 0.000000 
#    z 0.000000 0.000000 3.440550 
# 
# 
# High freq. dielectric constant tensor:
#      x y z
#    x 1.742010 0.000000 0.000000 
#    y 0.000000 1.746910 0.000000 
#    z 0.000000 0.000000 1.718470 
# 
# From -- ./inp_files/19831.got.cif
#   From: 2010.03.12/outbox.cif.g09.slc.cpg/sg38_10_cif.got.tgz:19831.got - 2010.04.14 02:38:36.
