data_PCOD8179056
_publ_section_title
;
Structure prediction by ZEFSAII (Michael W. Deem and Ramdas Pophale) SiO2 
 PCOD8179056
Probable space group: A M M 2
;
_chemical_formula_sum "Si O2"
_cell_formula_units_Z 56
_cell_length_a 8.700877
_cell_length_b 20.386478
_cell_length_c 15.623522
_cell_angle_alpha 90.000000
_cell_angle_beta 90.000000
_cell_angle_gamma 90.000000
_cell_volume 2771.304044
_symmetry_space_group_name_H-M "A M M 2"
_symmetry_group_IT_number 38
_symmetry_cell_setting 'orthorhombic'
loop_
_space_group_symop_operation_xyz
x,y,z
-x,-y,z
-x,y,z
x,-y,z
x,1/2+y,1/2+z
-x,1/2-y,1/2+z
-x,1/2+y,1/2+z
x,1/2-y,1/2+z
loop_
_atom_site_type_symbol
_atom_site_label
_atom_site_fract_x
_atom_site_fract_y
_atom_site_fract_z
Si Si1 0.678590 0.385551 0.151330
Si Si2 0.818638 0.424303 0.973531
Si Si3 0.324904 0.926546 0.965560
Si Si4 0.834722 0.927954 0.803091
Si Si5 0.819183 0.253548 0.223284
Si Si6 0.323036 0.202164 0.059654
Si Si7 0.318041 0.296243 0.901279
O O1 0.500000 0.382247 0.126082
O O2 0.717202 0.437918 0.224225
O O3 0.736438 0.320795 0.199160
O O4 0.776697 0.404112 0.069425
O O5 0.766373 0.500000 0.955042
O O6 0.734191 0.372196 0.912105
O O7 0.000000 0.417712 0.960773
O O8 0.500000 0.930289 0.936269
O O9 0.301868 0.874686 0.040693
O O10 0.269582 0.000000 0.993553
O O11 0.238183 0.892401 0.885180
O O12 0.000000 0.895099 0.777689
O O13 0.865523 0.000000 0.838494
O O14 0.778851 0.206179 0.144698
O O15 0.757521 0.229416 0.314427
O O16 0.000000 0.261848 0.230548
O O17 0.500000 0.219678 0.080015
O O18 0.267369 0.251749 0.983599
O O19 0.500000 0.293397 0.890726
#
# Coordination Sequence:
#
# PCOD8179056 Si02
#       7
#     8   8   8   8   8   8   8
#     4  12  23  37  58  87 121 159 207 260 316 382
#     4  11  24  42  64  92 129 170 215 270 330 393
#     4   9  18  34  57  85 119 159 201 248 306 370
#     4  10  20  33  51  80 118 156 195 241 298 366
#     4  12  25  40  63  91 123 162 209 264 323 384
#     4  10  21  39  62  90 122 159 206 260 314 375
#     4  11  23  41  66  94 128 169 216 269 321 384
#
# _framework density 20.207091999999999
#
# number of rings (size 3 to 8) (size 9 to 14) (size 15 to 20)
#    0.000    1.286    1.429    5.143    0.000    6.000 
#    0.000    0.714    0.000    2.571    0.000    0.000 
#    0.000    0.000    0.000    0.000    0.000    0.000 
#
# Total GULP energy -346894.833557 kJ/mol
# GULP energy per Si atom -12389.101198 kJ/mol
# Density = 2.016110 g / cm^3
# Si number density = 20.207092 Si / 1000 Ang^3
#
#
#
# Elastic Constant Matrix: (Units=GPa)
#
#
# Indices 1 2 3 4 5 6 
#
# 1 61.6381 21.4291 13.3837 0.0000 0.0000 0.0000
# 2 21.4291 115.0107 31.1969 0.0000 0.0000 0.0000
# 3 13.3837 31.1969 76.0962 0.0000 0.0000 0.0000
# 4 0.0000 0.0000 0.0000 26.5731 0.0000 0.0000
# 5 0.0000 0.0000 0.0000 0.0000 35.2334 0.0000
# 6 0.0000 0.0000 0.0000 0.0000 0.0000 25.9726
#
#
#
# Elastic Compliance Matrix: (Units=1/GPa)
#
#
# Indices 1 2 3 4 5 6 
#
# 1 0.017606 -0.002746 -0.001971 0.000000 0.000000 0.000000
# 2 -0.002746 0.010211 -0.003703 0.000000 0.000000 0.000000
# 3 -0.001971 -0.003703 0.015006 0.000000 0.000000 0.000000
# 4 0.000000 0.000000 0.000000 0.037632 0.000000 0.000000
# 5 0.000000 0.000000 0.000000 0.000000 0.028382 0.000000
# 6 0.000000 0.000000 0.000000 0.000000 0.000000 0.038502
#
#
# Mechanical properties :
#
#
# Convention : Reuss Voigt Hill
#
# Bulk Modulus (GPa) = 38.48598 42.75160 40.61879
# Shear Modulus (GPa) = 28.92837 30.00484 29.46661
#
# Velocity S-wave (km/s) = 3.78775 3.85758 3.82282
# Velocity P-wave (km/s) = 6.18195 6.40655 6.29525
#
# Compressibility (1/GPa) = 0.02598349
#
# Stress axis : x y z
#
# Youngs Moduli (GPa) = 56.79784 97.93395 66.63958
#
# Poissons Ratio (x) = 0.26891 0.13134
# Poissons Ratio (y) = 0.15596 0.24678
# Poissons Ratio (z) = 0.11194 0.36267
#
# Static dielectric constant tensor:
#      x y z
#    x 4.177720 0.000000 0.000000 
#    y 0.000000 3.926160 0.000000 
#    z 0.000000 0.000000 3.816450 
# 
# 
# High freq. dielectric constant tensor:
#      x y z
#    x 1.795050 0.000000 0.000000 
#    y 0.000000 1.798640 0.000000 
#    z 0.000000 0.000000 1.778150 
# 
# From -- ./inp_files/12383.got.cif
#   From: 2010.03.12/outbox.cif.g09.slc.cpg/sg38_7_cif.got.tgz:12383.got - 2010.04.14 02:38:36.
