data_PCOD8179295
_publ_section_title
;
Structure prediction by ZEFSAII (Michael W. Deem and Ramdas Pophale) SiO2 
 PCOD8179295
Probable space group: A M M 2
;
_chemical_formula_sum "Si O2"
_cell_formula_units_Z 40
_cell_length_a 14.352344
_cell_length_b 9.053841
_cell_length_c 15.653475
_cell_angle_alpha 90.000000
_cell_angle_beta 90.000000
_cell_angle_gamma 90.000000
_cell_volume 2034.072660
_symmetry_space_group_name_H-M "A M M 2"
_symmetry_group_IT_number 38
_symmetry_cell_setting 'orthorhombic'
loop_
_space_group_symop_operation_xyz
x,y,z
-x,-y,z
-x,y,z
x,-y,z
x,1/2+y,1/2+z
-x,1/2-y,1/2+z
-x,1/2+y,1/2+z
x,1/2-y,1/2+z
loop_
_atom_site_type_symbol
_atom_site_label
_atom_site_fract_x
_atom_site_fract_y
_atom_site_fract_z
Si Si1 0.290200 0.171078 0.625000
Si Si2 0.105960 0.171573 0.386252
Si Si3 0.395210 0.324472 0.293825
Si Si4 0.896226 0.332724 0.212152
Si Si5 0.277754 0.174933 0.955665
O O1 0.345656 0.231548 0.707487
O O2 0.179501 0.196703 0.638834
O O3 0.322891 0.263765 0.542936
O O4 0.313209 0.000000 0.608522
O O5 0.121460 0.220984 0.289028
O O6 0.173269 0.262677 0.448152
O O7 0.000000 0.203185 0.414888
O O8 0.130881 0.000000 0.393588
O O9 0.500000 0.261259 0.297026
O O10 0.395399 0.500000 0.295131
O O11 0.339160 0.266153 0.376281
O O12 0.883392 0.500000 0.247806
O O13 0.000000 0.311321 0.173248
O O14 0.274995 0.000000 0.959378
#
# Coordination Sequence:
#
# PCOD8179295 Si02
#       5
#     8   8   8   8   8
#     4  10  20  36  57  84 114 150 190 230 282 339
#     4  10  20  34  55  83 115 151 190 233 281 333
#     4   9  19  38  61  82 111 151 191 233 286 344
#     4   9  17  32  55  81 111 148 188 229 279 339
#     4  11  22  37  58  86 116 151 192 234 282 336
#
# _framework density 19.664981999999998
#
# number of rings (size 3 to 8) (size 9 to 14) (size 15 to 20)
#    0.000    2.200    2.000    1.200    0.000    3.600 
#    0.000    2.000    0.000    4.200    0.000    0.000 
#    0.000    0.000    0.000    0.000    0.000    0.000 
#
# Total GULP energy -248011.247161 kJ/mol
# GULP energy per Si atom -12400.562358 kJ/mol
# Density = 1.962022 g / cm^3
# Si number density = 19.664982 Si / 1000 Ang^3
#
#
#
# Elastic Constant Matrix: (Units=GPa)
#
#
# Indices 1 2 3 4 5 6 
#
# 1 120.7458 37.5049 67.0332 0.0000 0.0000 0.0000
# 2 37.5049 64.7152 48.6536 0.0000 0.0000 0.0000
# 3 67.0332 48.6536 153.2179 0.0000 0.0000 0.0000
# 4 0.0000 0.0000 0.0000 34.9577 0.0000 0.0000
# 5 0.0000 0.0000 0.0000 0.0000 14.8761 0.0000
# 6 0.0000 0.0000 0.0000 0.0000 0.0000 15.6206
#
#
#
# Elastic Compliance Matrix: (Units=1/GPa)
#
#
# Indices 1 2 3 4 5 6 
#
# 1 0.011617 -0.003825 -0.003868 0.000000 0.000000 0.000000
# 2 -0.003825 0.021557 -0.005172 0.000000 0.000000 0.000000
# 3 -0.003868 -0.005172 0.009861 0.000000 0.000000 0.000000
# 4 0.000000 0.000000 0.000000 0.028606 0.000000 0.000000
# 5 0.000000 0.000000 0.000000 0.000000 0.067222 0.000000
# 6 0.000000 0.000000 0.000000 0.000000 0.000000 0.064018
#
#
# Mechanical properties :
#
#
# Convention : Reuss Voigt Hill
#
# Bulk Modulus (GPa) = 57.78260 71.67360 64.72810
# Shear Modulus (GPa) = 21.33288 25.45669 23.39479
#
# Velocity S-wave (km/s) = 3.29723 3.60185 3.45290
# Velocity P-wave (km/s) = 6.62894 7.33650 6.99168
#
# Compressibility (1/GPa) = 0.01730625
#
# Stress axis : x y z
#
# Youngs Moduli (GPa) = 86.07911 46.38799 101.40593
#
# Poissons Ratio (x) = 0.17741 0.39225
# Poissons Ratio (y) = 0.32921 0.52449
# Poissons Ratio (z) = 0.33296 0.23993
#
# Static dielectric constant tensor:
#      x y z
#    x 3.802000 0.000000 0.000000 
#    y 0.000000 3.354330 0.000000 
#    z 0.000000 0.000000 3.481930 
# 
# 
# High freq. dielectric constant tensor:
#      x y z
#    x 1.768590 0.000000 0.000000 
#    y 0.000000 1.741530 0.000000 
#    z 0.000000 0.000000 1.760400 
# 
# From -- ./inp_files/14267.got.cif
#   From: 2010.03.12/outbox.cif.g09.slc.cpg/sg38_8_cif.got.tgz:14267.got - 2010.04.14 02:38:36.
