data_PCOD8179575
_publ_section_title
;
Structure prediction by ZEFSAII (Michael W. Deem and Ramdas Pophale) SiO2 
 PCOD8179575
Probable space group: A M M 2
;
_chemical_formula_sum "Si O2"
_cell_formula_units_Z 64
_cell_length_a 17.382396
_cell_length_b 14.990147
_cell_length_c 12.110184
_cell_angle_alpha 90.000000
_cell_angle_beta 90.000000
_cell_angle_gamma 90.000000
_cell_volume 3155.486113
_symmetry_space_group_name_H-M "A M M 2"
_symmetry_group_IT_number 38
_symmetry_cell_setting 'orthorhombic'
loop_
_space_group_symop_operation_xyz
x,y,z
-x,-y,z
-x,y,z
x,-y,z
x,1/2+y,1/2+z
-x,1/2-y,1/2+z
-x,1/2+y,1/2+z
x,1/2-y,1/2+z
loop_
_atom_site_type_symbol
_atom_site_label
_atom_site_fract_x
_atom_site_fract_y
_atom_site_fract_z
Si Si1 0.089026 0.101794 0.529520
Si Si2 0.183564 0.735558 0.430869
Si Si3 0.409805 0.311001 0.214341
Si Si4 0.688089 0.336103 0.803210
Si Si5 0.089114 0.599313 0.287284
Si Si6 0.730155 0.602186 0.578374
Si Si7 0.584471 0.396247 0.441008
Si Si8 0.414049 0.399401 0.995067
O O1 0.140343 0.174228 0.466593
O O2 0.102887 0.115696 0.658492
O O3 0.000000 0.117855 0.499082
O O4 0.112566 0.000000 0.495517
O O5 0.257292 0.764755 0.361469
O O6 0.130835 0.676718 0.352548
O O7 0.206527 0.672099 0.533653
O O8 0.500000 0.306456 0.201694
O O9 0.376221 0.213837 0.232084
O O10 0.386154 0.371966 0.318579
O O11 0.376376 0.348124 0.098880
O O12 0.732012 0.396070 0.712232
O O13 0.644247 0.395174 0.893078
O O14 0.119711 0.500000 0.319107
O O15 0.000000 0.605442 0.317117
O O16 0.748537 0.500000 0.541399
O O17 0.647440 0.634338 0.530284
O O18 0.500000 0.351299 0.465469
O O19 0.573345 0.500000 0.447933
O O20 0.500000 0.363405 0.963094
O O21 0.421587 0.500000 0.034376
#
# Coordination Sequence:
#
# PCOD8179575 Si02
#       8
#     8   8   8   8   8   8   8   8
#     4   9  20  40  65  92 120 152 193 241 291 346
#     4  12  22  38  60  89 121 159 199 233 289 354
#     4  10  20  36  58  82 109 143 195 257 307 352
#     4  12  24  38  53  84 119 158 193 241 297 358
#     4   9  19  38  64  92 119 149 191 243 292 340
#     4  11  24  40  56  82 121 161 200 246 295 355
#     4   9  18  35  58  81 107 147 199 252 303 354
#     4  10  22  40  60  80 106 147 200 255 305 352
#
# _framework density 20.282138
#
# number of rings (size 3 to 8) (size 9 to 14) (size 15 to 20)
#    0.000    1.750    1.250    4.125    0.000    3.500 
#    0.000    2.500    0.000    0.000    0.000    5.250 
#    0.000    0.000    0.000    0.000    0.000    0.000 
#
# Total GULP energy -396666.507520 kJ/mol
# GULP energy per Si atom -12395.828360 kJ/mol
# Density = 2.023597 g / cm^3
# Si number density = 20.282138 Si / 1000 Ang^3
#
#
#
# Elastic Constant Matrix: (Units=GPa)
#
#
# Indices 1 2 3 4 5 6 
#
# 1 39.0105 35.7390 27.1780 0.0000 0.0000 0.0000
# 2 35.7390 100.7111 44.1195 0.0000 0.0000 0.0000
# 3 27.1780 44.1195 89.6038 0.0000 0.0000 0.0000
# 4 0.0000 0.0000 0.0000 41.8898 0.0000 0.0000
# 5 0.0000 0.0000 0.0000 0.0000 4.7074 0.0000
# 6 0.0000 0.0000 0.0000 0.0000 0.0000 29.4338
#
#
#
# Elastic Compliance Matrix: (Units=1/GPa)
#
#
# Indices 1 2 3 4 5 6 
#
# 1 0.040918 -0.011582 -0.006708 0.000000 0.000000 0.000000
# 2 -0.011582 0.015938 -0.004335 0.000000 0.000000 0.000000
# 3 -0.006708 -0.004335 0.015329 0.000000 0.000000 0.000000
# 4 0.000000 0.000000 0.000000 0.023872 0.000000 0.000000
# 5 0.000000 0.000000 0.000000 0.000000 0.212430 0.000000
# 6 0.000000 0.000000 0.000000 0.000000 0.000000 0.033975
#
#
# Mechanical properties :
#
#
# Convention : Reuss Voigt Hill
#
# Bulk Modulus (GPa) = 37.12506 49.26649 43.19578
# Shear Modulus (GPa) = 12.60426 23.35878 17.98152
#
# Velocity S-wave (km/s) = 2.49559 3.39734 2.98076
# Velocity P-wave (km/s) = 5.16217 6.30338 5.76110
#
# Compressibility (1/GPa) = 0.02693598
#
# Stress axis : x y z
#
# Youngs Moduli (GPa) = 24.43902 62.74156 65.23394
#
# Poissons Ratio (x) = 0.72665 0.43761
# Poissons Ratio (y) = 0.28305 0.28278
# Poissons Ratio (z) = 0.16395 0.27198
#
# Static dielectric constant tensor:
#      x y z
#    x 4.192780 0.000000 0.000000 
#    y 0.000000 3.673720 0.000000 
#    z 0.000000 0.000000 3.712080 
# 
# 
# High freq. dielectric constant tensor:
#      x y z
#    x 1.778030 0.000000 0.000000 
#    y 0.000000 1.801020 0.000000 
#    z 0.000000 0.000000 1.793390 
# 
# From -- ./inp_files/10591.got.cif
#   From: 2010.03.12/outbox.cif.g09.slc.cpg/sg38_6_cif.got.tgz:10591.got - 2010.04.14 02:38:36.
