data_PCOD8179995
_publ_section_title
;
Structure prediction by ZEFSAII (Michael W. Deem and Ramdas Pophale) SiO2 
 PCOD8179995
Probable space group: A M M 2
;
_chemical_formula_sum "Si O2"
_cell_formula_units_Z 48
_cell_length_a 8.930384
_cell_length_b 19.776101
_cell_length_c 14.623622
_cell_angle_alpha 90.000000
_cell_angle_beta 90.000000
_cell_angle_gamma 90.000000
_cell_volume 2582.651207
_symmetry_space_group_name_H-M "A M M 2"
_symmetry_group_IT_number 38
_symmetry_cell_setting 'orthorhombic'
loop_
_space_group_symop_operation_xyz
x,y,z
-x,-y,z
-x,y,z
x,-y,z
x,1/2+y,1/2+z
-x,1/2-y,1/2+z
-x,1/2+y,1/2+z
x,1/2-y,1/2+z
loop_
_atom_site_type_symbol
_atom_site_label
_atom_site_fract_x
_atom_site_fract_y
_atom_site_fract_z
Si Si1 0.327586 0.610033 0.489210
Si Si2 0.824450 0.425687 0.130222
Si Si3 0.321443 0.000000 0.307857
Si Si4 0.334581 0.363752 0.291525
Si Si5 0.176431 0.000000 0.109967
Si Si6 0.667241 0.249428 0.421247
Si Si7 0.823536 0.888009 0.431467
O O1 0.500000 0.593670 0.514800
O O2 0.297883 0.590696 0.382017
O O3 0.218609 0.567482 0.553680
O O4 0.298295 0.691677 0.497617
O O5 0.767132 0.500000 0.158361
O O6 0.778218 0.373774 0.208517
O O7 0.000000 0.422870 0.121166
O O8 0.759151 0.407637 0.030962
O O9 0.264415 0.000000 0.204470
O O10 0.261539 0.067483 0.356601
O O11 0.500000 0.000000 0.308803
O O12 0.500000 0.382141 0.255669
O O13 0.327380 0.285031 0.321401
O O14 0.000000 0.000000 0.128408
O O15 0.500000 0.219884 0.438425
O O16 0.790301 0.191189 0.419914
O O17 0.000000 0.901188 0.421006
#
# Coordination Sequence:
#
# PCOD8179995 Si02
#       7
#     8   8   4   8   4   8   8
#     4   8  18  38  59  84 121 158 192 237 290 344
#     4  10  21  36  55  84 122 156 187 233 295 350
#     4  12  26  44  65  84 109 154 205 250 298 356
#     4   8  18  35  56  85 118 151 193 235 278 337
#     4  12  24  38  61  92 121 152 197 246 302 362
#     4   8  18  38  60  85 117 156 196 239 290 343
#     4  11  22  41  63  85 120 155 195 251 299 350
#
# _framework density 18.585552
#
# number of rings (size 3 to 8) (size 9 to 14) (size 15 to 20)
#    1.000    1.500    0.833    2.000    1.167    3.667 
#    3.000    0.000    0.000    0.000    0.000    0.000 
#    0.000    0.000    0.000    0.000    0.000    0.000 
#
# Total GULP energy -297349.093235 kJ/mol
# GULP energy per Si atom -12389.545551 kJ/mol
# Density = 1.854325 g / cm^3
# Si number density = 18.585552 Si / 1000 Ang^3
#
#
#
# Elastic Constant Matrix: (Units=GPa)
#
#
# Indices 1 2 3 4 5 6 
#
# 1 85.8849 43.6540 44.5901 0.0000 0.0000 0.0000
# 2 43.6540 91.8443 40.1435 0.0000 0.0000 0.0000
# 3 44.5901 40.1435 105.5608 0.0000 0.0000 0.0000
# 4 0.0000 0.0000 0.0000 16.4103 0.0000 0.0000
# 5 0.0000 0.0000 0.0000 0.0000 27.3490 0.0000
# 6 0.0000 0.0000 0.0000 0.0000 0.0000 32.3640
#
#
#
# Elastic Compliance Matrix: (Units=1/GPa)
#
#
# Indices 1 2 3 4 5 6 
#
# 1 0.017318 -0.006038 -0.005019 0.000000 0.000000 0.000000
# 2 -0.006038 0.015163 -0.003216 0.000000 0.000000 0.000000
# 3 -0.005019 -0.003216 0.012817 0.000000 0.000000 0.000000
# 4 0.000000 0.000000 0.000000 0.060937 0.000000 0.000000
# 5 0.000000 0.000000 0.000000 0.000000 0.036564 0.000000
# 6 0.000000 0.000000 0.000000 0.000000 0.000000 0.030899
#
#
# Mechanical properties :
#
#
# Convention : Reuss Voigt Hill
#
# Bulk Modulus (GPa) = 59.69441 60.00724 59.85082
# Shear Modulus (GPa) = 24.05826 25.55149 24.80487
#
# Velocity S-wave (km/s) = 3.60176 3.71186 3.65722
# Velocity P-wave (km/s) = 7.03459 7.12233 7.07860
#
# Compressibility (1/GPa) = 0.01675199
#
# Stress axis : x y z
#
# Youngs Moduli (GPa) = 57.74238 65.94831 78.02430
#
# Poissons Ratio (x) = 0.39817 0.39164
# Poissons Ratio (y) = 0.34862 0.25093
# Poissons Ratio (z) = 0.28983 0.21210
#
# Static dielectric constant tensor:
#      x y z
#    x 3.235140 0.000000 0.000000 
#    y 0.000000 3.312660 0.000000 
#    z 0.000000 0.000000 3.285200 
# 
# 
# High freq. dielectric constant tensor:
#      x y z
#    x 1.715310 0.000000 0.000000 
#    y 0.000000 1.715910 0.000000 
#    z 0.000000 0.000000 1.711140 
# 
# From -- ./inp_files/12068.got.cif
#   From: 2010.03.12/outbox.cif.g09.slc.cpg/sg38_7_cif.got.tgz:12068.got - 2010.04.14 02:38:36.
