data_PCOD8179164
_publ_section_title
;
Structure prediction by ZEFSAII (Michael W. Deem and Ramdas Pophale) SiO2 
 PCOD8179164
Probable space group: A M M 2
;
_chemical_formula_sum "Si O2"
_cell_formula_units_Z 48
_cell_length_a 8.708348
_cell_length_b 9.187793
_cell_length_c 30.975606
_cell_angle_alpha 90.000000
_cell_angle_beta 90.000000
_cell_angle_gamma 90.000000
_cell_volume 2478.373687
_symmetry_space_group_name_H-M "A M M 2"
_symmetry_group_IT_number 38
_symmetry_cell_setting 'orthorhombic'
loop_
_space_group_symop_operation_xyz
x,y,z
-x,-y,z
-x,y,z
x,-y,z
x,1/2+y,1/2+z
-x,1/2-y,1/2+z
-x,1/2+y,1/2+z
x,1/2-y,1/2+z
loop_
_atom_site_type_symbol
_atom_site_label
_atom_site_fract_x
_atom_site_fract_y
_atom_site_fract_z
Si Si1 0.818097 0.163885 0.203090
Si Si2 0.817730 0.161089 0.456130
Si Si3 0.816734 0.163259 0.037061
Si Si4 0.320999 0.667523 0.282081
Si Si5 0.183113 0.164357 0.620151
Si Si6 0.177953 0.329558 0.859482
O O1 0.771591 0.244941 0.246370
O O2 0.752151 0.249858 0.161695
O O3 0.000000 0.158542 0.200761
O O4 0.751042 0.000000 0.203032
O O5 0.751960 0.269857 0.492367
O O6 0.771662 0.213239 0.408159
O O7 0.000000 0.153508 0.459058
O O8 0.750716 0.000000 0.465056
O O9 0.754410 0.257348 0.077152
O O10 0.000000 0.163458 0.036928
O O11 0.752921 0.000000 0.041494
O O12 0.500000 0.683906 0.272717
O O13 0.268814 0.500000 0.280945
O O14 0.283169 0.733748 0.328606
O O15 0.000000 0.164079 0.620375
O O16 0.246973 0.000000 0.621346
O O17 0.206963 0.500000 0.851035
O O18 0.000000 0.291752 0.851312
#
# Coordination Sequence:
#
# PCOD8179164 Si02
#       6
#     8   8   8   8   8   8
#     4  10  20  34  53  76 100 127 163 206 249 294
#     4   8  14  25  41  63  93 126 158 194 238 287
#     4   9  15  22  35  60  95 130 162 196 234 279
#     4  11  24  38  51  71  99 130 165 204 247 297
#     4   9  16  26  42  65  95 130 163 196 239 288
#     4   9  18  33  53  76 100 128 165 207 249 294
#
# _framework density 19.367540000000002
#
# number of rings (size 3 to 8) (size 9 to 14) (size 15 to 20)
#    0.000    2.667    0.000    3.500    0.000    9.333 
#    0.000    1.667    0.000    0.000    0.000    1.167 
#    0.000    4.000    0.000    0.000    0.000    0.000 
#
# Total GULP energy -297573.874839 kJ/mol
# GULP energy per Si atom -12398.911452 kJ/mol
# Density = 1.932346 g / cm^3
# Si number density = 19.367540 Si / 1000 Ang^3
#
#
#
# Elastic Constant Matrix: (Units=GPa)
#
#
# Indices 1 2 3 4 5 6 
#
# 1 8.3716 11.7450 5.3509 0.0000 0.0000 0.0000
# 2 11.7450 161.6629 90.8712 0.0000 0.0000 0.0000
# 3 5.3509 90.8712 161.1931 0.0000 0.0000 0.0000
# 4 0.0000 0.0000 0.0000 43.5216 0.0000 0.0000
# 5 0.0000 0.0000 0.0000 0.0000 -0.3903 0.0000
# 6 0.0000 0.0000 0.0000 0.0000 0.0000 14.4191
#
#
#
# Elastic Compliance Matrix: (Units=1/GPa)
#
#
# Indices 1 2 3 4 5 6 
#
# 1 0.133261 -0.010533 0.001514 0.000000 0.000000 0.000000
# 2 -0.010533 0.009888 -0.005224 0.000000 0.000000 0.000000
# 3 0.001514 -0.005224 0.009099 0.000000 0.000000 0.000000
# 4 0.000000 0.000000 0.000000 0.022977 0.000000 0.000000
# 5 0.000000 0.000000 0.000000 0.000000 -2.562008 0.000000
# 6 0.000000 0.000000 0.000000 0.000000 0.000000 0.069352
#
#
# Mechanical properties :
#
#
# Convention : Reuss Voigt Hill
#
# Bulk Modulus (GPa) = 8.08007 60.79575 34.43791
# Shear Modulus (GPa) = -2.22450 26.39410 12.08480
#
# Velocity S-wave (km/s) = -1.07288 3.69562 2.50065
# Velocity P-wave (km/s) = 1.62673 7.04761 5.11444
#
# Compressibility (1/GPa) = 0.12376136
#
# Stress axis : x y z
#
# Youngs Moduli (GPa) = 7.50406 101.13708 109.90589
#
# Poissons Ratio (x) = 1.06524 -0.16640
# Poissons Ratio (y) = 0.07904 0.57419
# Poissons Ratio (z) = -0.01136 0.52838
#
# Static dielectric constant tensor:
#      x y z
#    x 2.857560 0.000000 0.000000 
#    y 0.000000 3.791480 0.000000 
#    z 0.000000 0.000000 3.767700 
# 
# 
# High freq. dielectric constant tensor:
#      x y z
#    x 1.686020 0.000000 0.000000 
#    y 0.000000 1.764240 0.000000 
#    z 0.000000 0.000000 1.772450 
# 
# From -- ./inp_files/24273.got.cif
#   From: 2010.03.12/outbox.cif.g09.slc.cpg/sg38_13_cif.got.tgz:24273.got - 2010.04.14 02:38:36.
