data_PCOD8179086
_publ_section_title
;
Structure prediction by ZEFSAII (Michael W. Deem and Ramdas Pophale) SiO2 
 PCOD8179086
Probable space group: A M M 2
;
_chemical_formula_sum "Si O2"
_cell_formula_units_Z 56
_cell_length_a 23.532866
_cell_length_b 7.749888
_cell_length_c 14.990161
_cell_angle_alpha 90.000000
_cell_angle_beta 90.000000
_cell_angle_gamma 90.000000
_cell_volume 2733.861729
_symmetry_space_group_name_H-M "A M M 2"
_symmetry_group_IT_number 38
_symmetry_cell_setting 'orthorhombic'
loop_
_space_group_symop_operation_xyz
x,y,z
-x,-y,z
-x,y,z
x,-y,z
x,1/2+y,1/2+z
-x,1/2-y,1/2+z
-x,1/2+y,1/2+z
x,1/2-y,1/2+z
loop_
_atom_site_type_symbol
_atom_site_label
_atom_site_fract_x
_atom_site_fract_y
_atom_site_fract_z
Si Si1 0.936768 0.000000 0.899821
Si Si2 0.437182 0.294582 0.704376
Si Si3 0.144183 0.303579 0.690353
Si Si4 0.769638 0.200602 0.036575
Si Si5 0.644777 0.195663 0.056916
Si Si6 0.063034 0.000000 0.688598
Si Si7 0.435312 0.702429 0.905048
Si Si8 0.856883 0.692801 0.895628
O O1 0.903328 0.170982 0.932071
O O2 0.941705 0.000000 0.794327
O O3 0.000000 0.000000 0.942203
O O4 0.500000 0.223217 0.680009
O O5 0.438398 0.500000 0.696545
O O6 0.391285 0.212954 0.636102
O O7 0.421147 0.239403 0.804425
O O8 0.122047 0.500000 0.677525
O O9 0.199803 0.269009 0.631317
O O10 0.095349 0.172925 0.656796
O O11 0.160368 0.266399 0.793309
O O12 0.706490 0.283130 0.044162
O O13 0.767709 0.000000 0.010773
O O14 0.800982 0.298027 0.956197
O O15 0.656623 0.000000 0.085548
O O16 0.608497 0.197371 0.966809
O O17 0.000000 0.000000 0.646147
O O18 0.500000 0.753986 0.929322
O O19 0.426232 0.500000 0.917551
O O20 0.882926 0.500000 0.902408
#
# Coordination Sequence:
#
# PCOD8179086 Si02
#       8
#     4   8   8   8   8   4   8   8
#     4   9  18  36  60  86 117 147 180 233 283 325
#     4   8  15  30  52  75 102 140 180 218 268 330
#     4   9  20  37  57  81 112 149 186 228 279 332
#     4  10  21  37  54  75 114 149 182 236 284 327
#     4  10  20  33  53  79 103 138 182 227 268 320
#     4   9  18  34  60  88 111 143 186 229 279 333
#     4   9  18  33  52  75 107 141 175 223 276 324
#     4  10  20  36  60  84 109 150 191 226 279 337
#
# _framework density 20.483846
#
# number of rings (size 3 to 8) (size 9 to 14) (size 15 to 20)
#    0.000    2.714    0.714    1.286    1.000    3.143 
#    0.000    7.143    0.000    0.857    0.000    0.000 
#    0.000    0.000    0.000    0.000    0.000    0.000 
#
# Total GULP energy -347128.184563 kJ/mol
# GULP energy per Si atom -12397.435163 kJ/mol
# Density = 2.043722 g / cm^3
# Si number density = 20.483846 Si / 1000 Ang^3
#
#
#
# Elastic Constant Matrix: (Units=GPa)
#
#
# Indices 1 2 3 4 5 6 
#
# 1 171.7571 47.6655 71.3048 0.0000 0.0000 0.0000
# 2 47.6655 77.1194 27.7520 0.0000 0.0000 0.0000
# 3 71.3048 27.7520 95.9370 0.0000 0.0000 0.0000
# 4 0.0000 0.0000 0.0000 22.5747 0.0000 0.0000
# 5 0.0000 0.0000 0.0000 0.0000 22.6058 0.0000
# 6 0.0000 0.0000 0.0000 0.0000 0.0000 15.4855
#
#
#
# Elastic Compliance Matrix: (Units=1/GPa)
#
#
# Indices 1 2 3 4 5 6 
#
# 1 0.009244 -0.003618 -0.005824 0.000000 0.000000 0.000000
# 2 -0.003618 0.015889 -0.001908 0.000000 0.000000 0.000000
# 3 -0.005824 -0.001908 0.015304 0.000000 0.000000 0.000000
# 4 0.000000 0.000000 0.000000 0.044297 0.000000 0.000000
# 5 0.000000 0.000000 0.000000 0.000000 0.044237 0.000000
# 6 0.000000 0.000000 0.000000 0.000000 0.000000 0.064577
#
#
# Mechanical properties :
#
#
# Convention : Reuss Voigt Hill
#
# Bulk Modulus (GPa) = 56.37360 70.91757 63.64558
# Shear Modulus (GPa) = 22.50637 25.33926 23.92282
#
# Velocity S-wave (km/s) = 3.31832 3.52097 3.42114
# Velocity P-wave (km/s) = 6.50095 7.15723 6.83697
#
# Compressibility (1/GPa) = 0.01773880
#
# Stress axis : x y z
#
# Youngs Moduli (GPa) = 108.17847 62.93533 65.34228
#
# Poissons Ratio (x) = 0.22768 0.38056
# Poissons Ratio (y) = 0.39135 0.12464
# Poissons Ratio (z) = 0.63004 0.12005
#
# Static dielectric constant tensor:
#      x y z
#    x 3.917440 0.000000 0.000000 
#    y 0.000000 3.561700 0.000000 
#    z 0.000000 0.000000 3.673090 
# 
# 
# High freq. dielectric constant tensor:
#      x y z
#    x 1.790020 0.000000 0.000000 
#    y 0.000000 1.788480 0.000000 
#    z 0.000000 0.000000 1.797310 
# 
# From -- ./inp_files/15554.got.cif
#   From: 2010.03.12/outbox.cif.g09.slc.cpg/sg38_8_cif.got.tgz:15554.got - 2010.04.14 02:38:36.
