data_PCOD8179733
_publ_section_title
;
Structure prediction by ZEFSAII (Michael W. Deem and Ramdas Pophale) SiO2 
 PCOD8179733
Probable space group: A M M 2
;
_chemical_formula_sum "Si O2"
_cell_formula_units_Z 64
_cell_length_a 19.101693
_cell_length_b 19.197280
_cell_length_c 9.069613
_cell_angle_alpha 90.000000
_cell_angle_beta 90.000000
_cell_angle_gamma 90.000000
_cell_volume 3325.832066
_symmetry_space_group_name_H-M "A M M 2"
_symmetry_group_IT_number 38
_symmetry_cell_setting 'orthorhombic'
loop_
_space_group_symop_operation_xyz
x,y,z
-x,-y,z
-x,y,z
x,-y,z
x,1/2+y,1/2+z
-x,1/2-y,1/2+z
-x,1/2+y,1/2+z
x,1/2-y,1/2+z
loop_
_atom_site_type_symbol
_atom_site_label
_atom_site_fract_x
_atom_site_fract_y
_atom_site_fract_z
Si Si1 0.343247 0.921432 0.870960
Si Si2 0.079669 0.080301 0.976361
Si Si3 0.419102 0.196691 0.709546
Si Si4 0.806229 0.581073 0.238260
Si Si5 0.300967 0.919792 0.192516
Si Si6 0.194888 0.696699 0.002307
Si Si7 0.838625 0.169022 0.184690
Si Si8 0.650736 0.689115 0.903273
O O1 0.401344 0.873941 0.795407
O O2 0.265466 0.899866 0.821036
O O3 0.359599 0.000000 0.821656
O O4 0.348830 0.913693 0.047144
O O5 0.096233 0.125156 0.122069
O O6 0.000000 0.093350 0.927066
O O7 0.093456 0.000000 0.015848
O O8 0.129949 0.103938 0.843231
O O9 0.500000 0.214224 0.730948
O O10 0.373499 0.259158 0.774833
O O11 0.403886 0.187221 0.536573
O O12 0.810860 0.500000 0.196799
O O13 0.809590 0.623897 0.088095
O O14 0.230603 0.876965 0.165025
O O15 0.343062 0.887728 0.331099
O O16 0.282601 0.000000 0.227169
O O17 0.164854 0.758776 0.098094
O O18 0.148400 0.687179 0.855570
O O19 0.274540 0.715395 0.961114
#
# Coordination Sequence:
#
# PCOD8179733 Si02
#       8
#     8   8   8   8   8   8   8   8
#     4  10  20  37  61  88 119 155 200 249 298 357
#     4  10  21  39  63  90 125 166 203 244 302 369
#     4  12  24  40  60  86 120 159 200 246 308 372
#     4  10  20  37  62  93 124 158 205 253 302 361
#     4  10  21  36  61  89 115 148 196 253 300 348
#     4  11  22  36  61  90 121 154 203 257 305 345
#     4  11  21  35  57  88 121 157 198 247 300 354
#     4  11  23  38  59  87 118 152 199 250 303 361
#
# _framework density 19.243306
#
# number of rings (size 3 to 8) (size 9 to 14) (size 15 to 20)
#    0.000    1.375    2.500    4.500    0.000    3.250 
#    0.000    3.750    0.000    4.125    0.000    0.000 
#    0.000    0.000    0.000    0.000    0.000    0.000 
#
# Total GULP energy -396935.751407 kJ/mol
# GULP energy per Si atom -12404.242231 kJ/mol
# Density = 1.919951 g / cm^3
# Si number density = 19.243306 Si / 1000 Ang^3
#
#
#
# Elastic Constant Matrix: (Units=GPa)
#
#
# Indices 1 2 3 4 5 6 
#
# 1 68.6874 15.9102 25.0805 0.0000 0.0000 0.0000
# 2 15.9102 94.0670 46.8490 0.0000 0.0000 0.0000
# 3 25.0805 46.8490 116.3090 0.0000 0.0000 0.0000
# 4 0.0000 0.0000 0.0000 41.4925 0.0000 0.0000
# 5 0.0000 0.0000 0.0000 0.0000 26.8031 0.0000
# 6 0.0000 0.0000 0.0000 0.0000 0.0000 22.0375
#
#
#
# Elastic Compliance Matrix: (Units=1/GPa)
#
#
# Indices 1 2 3 4 5 6 
#
# 1 0.015916 -0.001229 -0.002937 0.000000 0.000000 0.000000
# 2 -0.001229 0.013393 -0.005130 0.000000 0.000000 0.000000
# 3 -0.002937 -0.005130 0.011297 0.000000 0.000000 0.000000
# 4 0.000000 0.000000 0.000000 0.024101 0.000000 0.000000
# 5 0.000000 0.000000 0.000000 0.000000 0.037309 0.000000
# 6 0.000000 0.000000 0.000000 0.000000 0.000000 0.045377
#
#
# Mechanical properties :
#
#
# Convention : Reuss Voigt Hill
#
# Bulk Modulus (GPa) = 45.42405 50.52696 47.97550
# Shear Modulus (GPa) = 28.84775 30.81487 29.83131
#
# Velocity S-wave (km/s) = 3.87603 4.00600 3.94155
# Velocity P-wave (km/s) = 6.60968 6.90734 6.76015
#
# Compressibility (1/GPa) = 0.02201477
#
# Stress axis : x y z
#
# Youngs Moduli (GPa) = 62.83054 74.66329 88.51633
#
# Poissons Ratio (x) = 0.09178 0.25996
# Poissons Ratio (y) = 0.07724 0.45407
# Poissons Ratio (z) = 0.18453 0.38301
#
# Static dielectric constant tensor:
#      x y z
#    x 3.291530 0.000000 0.000000 
#    y 0.000000 3.640960 0.000000 
#    z 0.000000 0.000000 3.698880 
# 
# 
# High freq. dielectric constant tensor:
#      x y z
#    x 1.718140 0.000000 0.000000 
#    y 0.000000 1.761480 0.000000 
#    z 0.000000 0.000000 1.758430 
# 
# From -- ./inp_files/6844.got.cif
#   From: 2010.03.12/outbox.cif.g09.slc.cpg/sg38_4_cif.got.tgz:6844.got - 2010.04.14 02:38:36.
