data_PCOD8179766
_publ_section_title
;
Structure prediction by ZEFSAII (Michael W. Deem and Ramdas Pophale) SiO2 
 PCOD8179766
Probable space group: A M M 2
;
_chemical_formula_sum "Si O2"
_cell_formula_units_Z 40
_cell_length_a 7.762597
_cell_length_b 9.122712
_cell_length_c 28.999686
_cell_angle_alpha 90.000000
_cell_angle_beta 90.000000
_cell_angle_gamma 90.000000
_cell_volume 2053.639931
_symmetry_space_group_name_H-M "A M M 2"
_symmetry_group_IT_number 38
_symmetry_cell_setting 'orthorhombic'
loop_
_space_group_symop_operation_xyz
x,y,z
-x,-y,z
-x,y,z
x,-y,z
x,1/2+y,1/2+z
-x,1/2-y,1/2+z
-x,1/2+y,1/2+z
x,1/2-y,1/2+z
loop_
_atom_site_type_symbol
_atom_site_label
_atom_site_fract_x
_atom_site_fract_y
_atom_site_fract_z
Si Si1 0.296608 0.332235 0.809150
Si Si2 0.309852 0.673021 0.909369
Si Si3 0.192949 0.670601 0.006979
Si Si4 0.500000 0.174337 0.656716
Si Si5 0.191581 0.167818 0.720911
Si Si6 0.500000 0.174764 0.058876
O O1 0.500000 0.311886 0.803159
O O2 0.241454 0.500000 0.803625
O O3 0.239418 0.269781 0.859796
O O4 0.197422 0.245533 0.769997
O O5 0.500000 0.738119 0.919285
O O6 0.325059 0.500000 0.903761
O O7 0.190884 0.714970 0.952743
O O8 0.245812 0.500000 0.012779
O O9 0.327463 0.769802 0.034045
O O10 0.000000 0.698005 0.026153
O O11 0.331178 0.227620 0.684611
O O12 0.500000 0.263104 0.609924
O O13 0.500000 0.000000 0.646840
O O14 0.000000 0.188885 0.699827
O O15 0.235011 0.000000 0.730620
O O16 0.500000 0.000000 0.059372
#
# Coordination Sequence:
#
# PCOD8179766 Si02
#       6
#     8   8   8   4   8   4
#     4   9  17  30  53  85 118 152 188 227 275 328
#     4   8  14  28  53  84 116 149 190 236 273 317
#     4  10  20  37  64  91 115 151 200 244 281 334
#     4  10  22  42  63  80 105 143 190 243 287 336
#     4  10  21  37  58  84 112 145 187 231 277 332
#     4  12  26  42  61  86 119 151 182 237 305 362
#
# _framework density 19.477609999999999
#
# number of rings (size 3 to 8) (size 9 to 14) (size 15 to 20)
#    0.000    2.400    2.000    2.100    0.000    3.200 
#    0.000    5.000    0.000    0.000    0.000    0.000 
#    0.000    0.000    0.000    0.000    0.000    0.000 
#
# Total GULP energy -247888.055437 kJ/mol
# GULP energy per Si atom -12394.402772 kJ/mol
# Density = 1.943328 g / cm^3
# Si number density = 19.477610 Si / 1000 Ang^3
#
#
#
# Elastic Constant Matrix: (Units=GPa)
#
#
# Indices 1 2 3 4 5 6 
#
# 1 116.1438 43.9094 64.6774 0.0000 0.0000 0.0000
# 2 43.9094 65.0028 54.1188 0.0000 0.0000 0.0000
# 3 64.6774 54.1188 143.4591 0.0000 0.0000 0.0000
# 4 0.0000 0.0000 0.0000 26.8874 0.0000 0.0000
# 5 0.0000 0.0000 0.0000 0.0000 8.4669 0.0000
# 6 0.0000 0.0000 0.0000 0.0000 0.0000 18.1274
#
#
#
# Elastic Compliance Matrix: (Units=1/GPa)
#
#
# Indices 1 2 3 4 5 6 
#
# 1 0.012747 -0.005578 -0.003643 0.000000 0.000000 0.000000
# 2 -0.005578 0.024869 -0.006867 0.000000 0.000000 0.000000
# 3 -0.003643 -0.006867 0.011203 0.000000 0.000000 0.000000
# 4 0.000000 0.000000 0.000000 0.037192 0.000000 0.000000
# 5 0.000000 0.000000 0.000000 0.000000 0.118107 0.000000
# 6 0.000000 0.000000 0.000000 0.000000 0.000000 0.055165
#
#
# Mechanical properties :
#
#
# Convention : Reuss Voigt Hill
#
# Bulk Modulus (GPa) = 60.07987 72.22407 66.15197
# Shear Modulus (GPa) = 16.83457 21.48967 19.16212
#
# Velocity S-wave (km/s) = 2.94309 3.32520 3.13996
# Velocity P-wave (km/s) = 6.51626 7.20442 6.86896
#
# Compressibility (1/GPa) = 0.01664451
#
# Stress axis : x y z
#
# Youngs Moduli (GPa) = 78.44716 40.21080 89.25855
#
# Poissons Ratio (x) = 0.22430 0.32515
# Poissons Ratio (y) = 0.43758 0.61292
# Poissons Ratio (z) = 0.28577 0.27612
#
# Static dielectric constant tensor:
#      x y z
#    x 3.601290 0.000000 0.000000 
#    y 0.000000 3.210340 0.000000 
#    z 0.000000 0.000000 3.690170 
# 
# 
# High freq. dielectric constant tensor:
#      x y z
#    x 1.762570 0.000000 0.000000 
#    y 0.000000 1.715970 0.000000 
#    z 0.000000 0.000000 1.763650 
# 
# From -- ./inp_files/23223.got.cif
#   From: 2010.03.12/outbox.cif.g09.slc.cpg/sg38_12_cif.got.tgz:23223.got - 2010.04.14 02:38:36.
