data_PCOD8179788
_publ_section_title
;
Structure prediction by ZEFSAII (Michael W. Deem and Ramdas Pophale) SiO2 
 PCOD8179788
Probable space group: A M M 2
;
_chemical_formula_sum "Si O2"
_cell_formula_units_Z 38
_cell_length_a 11.910887
_cell_length_b 11.456612
_cell_length_c 14.505636
_cell_angle_alpha 90.000000
_cell_angle_beta 90.000000
_cell_angle_gamma 90.000000
_cell_volume 1979.416038
_symmetry_space_group_name_H-M "A M M 2"
_symmetry_group_IT_number 38
_symmetry_cell_setting 'orthorhombic'
loop_
_space_group_symop_operation_xyz
x,y,z
-x,-y,z
-x,y,z
x,-y,z
x,1/2+y,1/2+z
-x,1/2-y,1/2+z
-x,1/2+y,1/2+z
x,1/2-y,1/2+z
loop_
_atom_site_type_symbol
_atom_site_label
_atom_site_fract_x
_atom_site_fract_y
_atom_site_fract_z
Si Si1 0.869725 0.251612 0.867390
Si Si2 0.693088 0.500000 0.089601
Si Si3 0.129942 0.000000 0.441554
Si Si4 0.500000 0.370247 0.763838
Si Si5 0.500000 0.500000 0.941652
Si Si6 0.283556 0.269730 0.200649
Si Si7 0.872526 0.137172 0.059956
O O1 0.836932 0.387462 0.881282
O O2 0.793970 0.197261 0.787371
O O3 0.000000 0.238125 0.840349
O O4 0.840308 0.180959 0.958927
O O5 0.674498 0.612489 0.152718
O O6 0.815342 0.500000 0.042956
O O7 0.608916 0.500000 0.004326
O O8 0.000000 0.000000 0.466013
O O9 0.500000 0.500000 0.718154
O O10 0.500000 0.384835 0.875714
O O11 0.608928 0.301360 0.732387
O O12 0.211455 0.192111 0.132046
O O13 0.000000 0.174564 0.084444
O O14 0.858161 0.000000 0.063449
#
# Coordination Sequence:
#
# PCOD8179788 Si02
#       7
#     8   4   4   4   2   8   8
#     4  10  22  39  61  92 130 170 211 260 314 375
#     4  12  24  40  68  92 127 164 208 270 319 366
#     4  10  20  38  62  93 126 169 219 254 301 371
#     4  10  25  42  69  89 117 157 212 261 316 373
#     4  10  24  48  68  86 116 162 214 268 314 370
#     4  12  24  41  64  95 125 163 217 262 317 380
#     4  10  22  39  61  90 130 171 209 258 316 374
#
# _framework density 19.197581
#
# number of rings (size 3 to 8) (size 9 to 14) (size 15 to 20)
#    0.316    1.053    2.105    3.158    4.421    0.842 
#    0.000    0.000    0.000    0.000    0.000    0.000 
#    0.000    0.000    0.000    0.000    0.000    0.000 
#
# Total GULP energy -235656.378965 kJ/mol
# GULP energy per Si atom -12402.967314 kJ/mol
# Density = 1.915389 g / cm^3
# Si number density = 19.197581 Si / 1000 Ang^3
#
#
#
# Elastic Constant Matrix: (Units=GPa)
#
#
# Indices 1 2 3 4 5 6 
#
# 1 119.5908 53.6998 88.3737 0.0000 0.0000 0.0000
# 2 53.6998 89.5328 68.8101 0.0000 0.0000 0.0000
# 3 88.3737 68.8101 144.6532 0.0000 0.0000 0.0000
# 4 0.0000 0.0000 0.0000 35.1828 0.0000 0.0000
# 5 0.0000 0.0000 0.0000 0.0000 43.0430 0.0000
# 6 0.0000 0.0000 0.0000 0.0000 0.0000 22.6706
#
#
#
# Elastic Compliance Matrix: (Units=1/GPa)
#
#
# Indices 1 2 3 4 5 6 
#
# 1 0.015821 -0.003248 -0.008121 0.000000 0.000000 0.000000
# 2 -0.003248 0.018272 -0.006708 0.000000 0.000000 0.000000
# 3 -0.008121 -0.006708 0.015065 0.000000 0.000000 0.000000
# 4 0.000000 0.000000 0.000000 0.028423 0.000000 0.000000
# 5 0.000000 0.000000 0.000000 0.000000 0.023233 0.000000
# 6 0.000000 0.000000 0.000000 0.000000 0.000000 0.044110
#
#
# Mechanical properties :
#
#
# Convention : Reuss Voigt Hill
#
# Bulk Modulus (GPa) = 76.88838 86.17156 81.52997
# Shear Modulus (GPa) = 26.96698 29.70551 28.33625
#
# Velocity S-wave (km/s) = 3.75201 3.93791 3.84608
# Velocity P-wave (km/s) = 7.67516 8.10311 7.89204
#
# Compressibility (1/GPa) = 0.01300587
#
# Stress axis : x y z
#
# Youngs Moduli (GPa) = 63.20617 54.72759 66.37906
#
# Poissons Ratio (x) = 0.17776 0.53904
# Poissons Ratio (y) = 0.20530 0.44524
# Poissons Ratio (z) = 0.51327 0.36709
#
# Static dielectric constant tensor:
#      x y z
#    x 3.571040 0.000000 0.000000 
#    y 0.000000 3.635070 0.000000 
#    z 0.000000 0.000000 3.631220 
# 
# 
# High freq. dielectric constant tensor:
#      x y z
#    x 1.751830 0.000000 0.000000 
#    y 0.000000 1.750530 0.000000 
#    z 0.000000 0.000000 1.752230 
# 
# From -- ./inp_files/13550.got.cif
#   From: 2010.03.12/outbox.cif.g09.slc.cpg/sg38_7_cif.got.tgz:13550.got - 2010.04.14 02:38:36.
