data_PCOD8179454
_publ_section_title
;
Structure prediction by ZEFSAII (Michael W. Deem and Ramdas Pophale) SiO2 
 PCOD8179454
Probable space group: A M M 2
;
_chemical_formula_sum "Si O2"
_cell_formula_units_Z 40
_cell_length_a 8.807221
_cell_length_b 11.729471
_cell_length_c 20.073584
_cell_angle_alpha 90.000000
_cell_angle_beta 90.000000
_cell_angle_gamma 90.000000
_cell_volume 2073.682391
_symmetry_space_group_name_H-M "A M M 2"
_symmetry_group_IT_number 38
_symmetry_cell_setting 'orthorhombic'
loop_
_space_group_symop_operation_xyz
x,y,z
-x,-y,z
-x,y,z
x,-y,z
x,1/2+y,1/2+z
-x,1/2-y,1/2+z
-x,1/2+y,1/2+z
x,1/2-y,1/2+z
loop_
_atom_site_type_symbol
_atom_site_label
_atom_site_fract_x
_atom_site_fract_y
_atom_site_fract_z
Si Si1 0.669836 0.500000 0.691680
Si Si2 0.331747 0.000000 0.034620
Si Si3 0.820851 0.214597 0.256514
Si Si4 0.323819 0.632905 0.153542
Si Si5 0.679671 0.131039 0.386839
Si Si6 0.318471 0.247255 0.019747
O O1 0.500000 0.500000 0.723608
O O2 0.657249 0.500000 0.613477
O O3 0.759988 0.610013 0.713952
O O4 0.250905 0.881957 0.011625
O O5 0.500000 0.000000 0.003405
O O6 0.767128 0.329254 0.219407
O O7 0.754616 0.210122 0.330888
O O8 0.000000 0.210821 0.260777
O O9 0.500000 0.663004 0.164515
O O10 0.298191 0.500000 0.142214
O O11 0.258588 0.696894 0.088183
O O12 0.500000 0.141880 0.381602
O O13 0.737684 0.176367 0.458157
O O14 0.732098 0.000000 0.377839
O O15 0.500000 0.242691 0.022913
#
# Coordination Sequence:
#
# PCOD8179454 Si02
#       6
#     4   4   8   8   8   8
#     4  11  19  35  63  89 113 142 189 242 287 333
#     4   9  16  29  57  89 115 136 173 240 295 331
#     4  12  24  37  56  84 120 154 189 234 291 350
#     4  10  20  37  62  88 114 147 193 242 286 337
#     4  10  20  35  57  82 112 150 193 238 283 335
#     4   9  17  32  56  88 115 141 186 242 290 332
#
# _framework density 19.289356000000002
#
# number of rings (size 3 to 8) (size 9 to 14) (size 15 to 20)
#    0.000    1.800    3.000    2.700    0.000    2.800 
#    1.800    1.000    0.000    2.400    0.000    0.000 
#    0.000    0.000    0.000    0.000    0.000    0.000 
#
# Total GULP energy -247978.028882 kJ/mol
# GULP energy per Si atom -12398.901444 kJ/mol
# Density = 1.924545 g / cm^3
# Si number density = 19.289356 Si / 1000 Ang^3
#
#
#
# Elastic Constant Matrix: (Units=GPa)
#
#
# Indices 1 2 3 4 5 6 
#
# 1 50.7740 29.5618 35.9570 0.0000 0.0000 0.0000
# 2 29.5618 106.2663 54.8171 0.0000 0.0000 0.0000
# 3 35.9570 54.8171 129.8531 0.0000 0.0000 0.0000
# 4 0.0000 0.0000 0.0000 20.6187 0.0000 0.0000
# 5 0.0000 0.0000 0.0000 0.0000 -1.6939 0.0000
# 6 0.0000 0.0000 0.0000 0.0000 0.0000 266.2629
#
#
#
# Elastic Compliance Matrix: (Units=1/GPa)
#
#
# Indices 1 2 3 4 5 6 
#
# 1 0.026090 -0.004514 -0.005319 0.000000 0.000000 0.000000
# 2 -0.004514 0.012811 -0.004158 0.000000 0.000000 0.000000
# 3 -0.005319 -0.004158 0.010929 0.000000 0.000000 0.000000
# 4 0.000000 0.000000 0.000000 0.048500 0.000000 0.000000
# 5 0.000000 0.000000 0.000000 0.000000 -0.590343 0.000000
# 6 0.000000 0.000000 0.000000 0.000000 0.000000 0.003756
#
#
# Mechanical properties :
#
#
# Convention : Reuss Voigt Hill
#
# Bulk Modulus (GPa) = 45.77086 58.61838 52.19462
# Shear Modulus (GPa) = -11.03772 68.14136 28.55182
#
# Velocity S-wave (km/s) = -2.39470 5.95001 3.85149
# Velocity P-wave (km/s) = 4.01671 8.81240 6.84808
#
# Compressibility (1/GPa) = 0.02184796
#
# Stress axis : x y z
#
# Youngs Moduli (GPa) = 38.32879 78.05742 91.49825
#
# Poissons Ratio (x) = 0.35237 0.48666
# Poissons Ratio (y) = 0.17302 0.38046
# Poissons Ratio (z) = 0.20386 0.32458
#
# Static dielectric constant tensor:
#      x y z
#    x 3.134740 0.000000 0.000000 
#    y 0.000000 3.848190 0.000000 
#    z 0.000000 0.000000 3.616960 
# 
# 
# High freq. dielectric constant tensor:
#      x y z
#    x 1.705660 0.000000 0.000000 
#    y 0.000000 1.759290 0.000000 
#    z 0.000000 0.000000 1.754980 
# 
# From -- ./inp_files/19489.got.cif
#   From: 2010.03.12/outbox.cif.g09.slc.cpg/sg38_10_cif.got.tgz:19489.got - 2010.04.14 02:38:36.
