data_PCOD8179413
_publ_section_title
;
Structure prediction by ZEFSAII (Michael W. Deem and Ramdas Pophale) SiO2 
 PCOD8179413
Probable space group: A M M 2
;
_chemical_formula_sum "Si O2"
_cell_formula_units_Z 64
_cell_length_a 14.348434
_cell_length_b 23.915788
_cell_length_c 9.403983
_cell_angle_alpha 90.000000
_cell_angle_beta 90.000000
_cell_angle_gamma 90.000000
_cell_volume 3227.015376
_symmetry_space_group_name_H-M "A M M 2"
_symmetry_group_IT_number 38
_symmetry_cell_setting 'orthorhombic'
loop_
_space_group_symop_operation_xyz
x,y,z
-x,-y,z
-x,y,z
x,-y,z
x,1/2+y,1/2+z
-x,1/2-y,1/2+z
-x,1/2+y,1/2+z
x,1/2-y,1/2+z
loop_
_atom_site_type_symbol
_atom_site_label
_atom_site_fract_x
_atom_site_fract_y
_atom_site_fract_z
Si Si1 0.247067 0.938238 0.906940
Si Si2 0.893166 0.623159 0.218209
Si Si3 0.106241 0.717574 0.439472
Si Si4 0.231008 0.348822 0.645597
Si Si5 0.891868 0.654328 0.902093
Si Si6 0.609274 0.680543 0.076116
Si Si7 0.390547 0.437952 0.175083
Si Si8 0.610023 0.219795 0.271212
O O1 0.168659 0.924144 0.790242
O O2 0.347299 0.934121 0.831857
O O3 0.226496 0.000000 0.962502
O O4 0.245857 0.900746 0.044524
O O5 0.876237 0.682035 0.296972
O O6 0.000000 0.604423 0.231359
O O7 0.863528 0.629406 0.054495
O O8 0.170212 0.698677 0.569443
O O9 0.131080 0.780268 0.399662
O O10 0.000000 0.712206 0.493301
O O11 0.174716 0.372186 0.782531
O O12 0.333301 0.325604 0.680975
O O13 0.000000 0.642107 0.867763
O O14 0.500000 0.676136 0.062699
O O15 0.648037 0.616378 0.086735
O O16 0.636021 0.717654 0.215153
O O17 0.644382 0.712802 0.934452
O O18 0.500000 0.432040 0.195294
O O19 0.366376 0.500000 0.107272
O O20 0.500000 0.207948 0.250561
#
# Coordination Sequence:
#
# PCOD8179413 Si02
#       8
#     8   8   8   8   8   8   8   8
#     4  10  23  41  58  80 108 145 194 243 286 337
#     4   9  19  35  57  81 109 147 187 227 278 340
#     4   9  18  34  54  82 117 149 181 221 275 343
#     4  11  23  34  57  83 113 153 189 231 287 349
#     4  10  20  35  55  84 118 145 179 230 285 344
#     4   9  20  38  58  83 120 156 192 237 286 339
#     4   9  19  37  63  88 111 149 199 245 286 334
#     4  10  23  38  55  87 124 158 189 232 288 345
#
# _framework density 19.832566
#
# number of rings (size 3 to 8) (size 9 to 14) (size 15 to 20)
#    0.000    2.375    0.000    1.125    5.250    4.250 
#    0.000    1.250    0.000    1.500    0.000    0.000 
#    0.000    0.000    0.000    0.000    0.000    0.000 
#
# Total GULP energy -396685.735370 kJ/mol
# GULP energy per Si atom -12396.429230 kJ/mol
# Density = 1.978743 g / cm^3
# Si number density = 19.832566 Si / 1000 Ang^3
#
#
#
# Elastic Constant Matrix: (Units=GPa)
#
#
# Indices 1 2 3 4 5 6 
#
# 1 56.4190 33.5023 34.5479 0.0000 0.0000 0.0000
# 2 33.5023 135.8298 66.3427 0.0000 0.0000 0.0000
# 3 34.5479 66.3427 120.7972 0.0000 0.0000 0.0000
# 4 0.0000 0.0000 0.0000 19.6309 0.0000 0.0000
# 5 0.0000 0.0000 0.0000 0.0000 31.2829 0.0000
# 6 0.0000 0.0000 0.0000 0.0000 0.0000 20.5787
#
#
#
# Elastic Compliance Matrix: (Units=1/GPa)
#
#
# Indices 1 2 3 4 5 6 
#
# 1 0.022515 -0.003291 -0.004632 0.000000 0.000000 0.000000
# 2 -0.003291 0.010542 -0.004849 0.000000 0.000000 0.000000
# 3 -0.004632 -0.004849 0.012266 0.000000 0.000000 0.000000
# 4 0.000000 0.000000 0.000000 0.050940 0.000000 0.000000
# 5 0.000000 0.000000 0.000000 0.000000 0.031966 0.000000
# 6 0.000000 0.000000 0.000000 0.000000 0.000000 0.048594
#
#
# Mechanical properties :
#
#
# Convention : Reuss Voigt Hill
#
# Bulk Modulus (GPa) = 50.55562 64.64798 57.60180
# Shear Modulus (GPa) = 23.92809 26.20871 25.06840
#
# Velocity S-wave (km/s) = 3.47725 3.63919 3.55914
# Velocity P-wave (km/s) = 6.45509 7.09407 6.78211
#
# Compressibility (1/GPa) = 0.01978020
#
# Stress axis : x y z
#
# Youngs Moduli (GPa) = 44.41478 94.85850 81.52704
#
# Poissons Ratio (x) = 0.31218 0.37762
# Poissons Ratio (y) = 0.14617 0.39529
# Poissons Ratio (z) = 0.20572 0.45992
#
# Static dielectric constant tensor:
#      x y z
#    x 3.676350 0.000000 0.000000 
#    y 0.000000 3.677790 0.000000 
#    z 0.000000 0.000000 3.698750 
# 
# 
# High freq. dielectric constant tensor:
#      x y z
#    x 1.783630 0.000000 0.000000 
#    y 0.000000 1.754790 0.000000 
#    z 0.000000 0.000000 1.767800 
# 
# From -- ./inp_files/5880.got.cif
#   From: 2010.03.12/outbox.cif.g09.slc.cpg/sg38_3_cif.got.tgz:5880.got - 2010.04.14 02:38:36.
