data_PCOD8179174
_publ_section_title
;
Structure prediction by ZEFSAII (Michael W. Deem and Ramdas Pophale) SiO2 
 PCOD8179174
Probable space group: A M M 2
;
_chemical_formula_sum "Si O2"
_cell_formula_units_Z 64
_cell_length_a 19.223667
_cell_length_b 9.142474
_cell_length_c 20.162557
_cell_angle_alpha 90.000000
_cell_angle_beta 90.000000
_cell_angle_gamma 90.000000
_cell_volume 3543.607212
_symmetry_space_group_name_H-M "A M M 2"
_symmetry_group_IT_number 38
_symmetry_cell_setting 'orthorhombic'
loop_
_space_group_symop_operation_xyz
x,y,z
-x,-y,z
-x,y,z
x,-y,z
x,1/2+y,1/2+z
-x,1/2-y,1/2+z
-x,1/2+y,1/2+z
x,1/2-y,1/2+z
loop_
_atom_site_type_symbol
_atom_site_label
_atom_site_fract_x
_atom_site_fract_y
_atom_site_fract_z
Si Si1 0.080558 0.332756 0.767160
Si Si2 0.080410 0.832072 0.114345
Si Si3 0.330857 0.329122 0.008137
Si Si4 0.328733 0.669404 0.375877
Si Si5 0.167921 0.830264 0.874490
Si Si6 0.580071 0.831699 0.751859
Si Si7 0.580873 0.330122 0.618626
Si Si8 0.830404 0.829441 0.507722
O O1 0.101171 0.500000 0.782328
O O2 0.096033 0.295102 0.690766
O O3 0.125535 0.225569 0.811713
O O4 0.000000 0.306714 0.783415
O O5 0.126933 0.726439 0.070367
O O6 0.000000 0.802694 0.097899
O O7 0.099532 0.000000 0.099051
O O8 0.346809 0.500000 0.008536
O O9 0.374932 0.253317 0.064580
O O10 0.250149 0.294139 0.021040
O O11 0.354501 0.264342 0.937779
O O12 0.341769 0.500000 0.392942
O O13 0.248522 0.700869 0.359667
O O14 0.373454 0.720329 0.313188
O O15 0.152392 0.000000 0.884778
O O16 0.143195 0.749040 0.941056
O O17 0.500000 0.808612 0.771704
O O18 0.601544 0.732060 0.690181
O O19 0.595225 0.000000 0.733240
O O20 0.500000 0.301976 0.603775
O O21 0.599915 0.500000 0.616842
O O22 0.843928 0.000000 0.498372
#
# Coordination Sequence:
#
# PCOD8179174 Si02
#       8
#     8   8   8   8   8   8   8   8
#     4   9  19  36  55  75 102 134 168 210 258 307
#     4   9  19  36  56  78 105 137 173 213 258 308
#     4  10  21  36  54  77 105 137 174 215 258 306
#     4   9  19  35  53  76 106 137 171 212 257 304
#     4  10  20  34  53  76 104 137 172 212 255 303
#     4   9  18  34  55  77 104 137 170 208 255 304
#     4  10  21  36  54  77 105 137 174 214 255 304
#     4  10  21  36  54  77 105 137 174 215 258 306
#
# _framework density 18.060693000000001
#
# number of rings (size 3 to 8) (size 9 to 14) (size 15 to 20)
#    0.000    2.500    0.000    2.250    0.000    6.250 
#    0.000    6.250    0.000    0.000    0.000    0.000 
#    0.000    0.000    0.000    0.000    0.000    0.000 
#
# Total GULP energy -396920.125948 kJ/mol
# GULP energy per Si atom -12403.753936 kJ/mol
# Density = 1.801959 g / cm^3
# Si number density = 18.060693 Si / 1000 Ang^3
#
#
#
# Elastic Constant Matrix: (Units=GPa)
#
#
# Indices 1 2 3 4 5 6 
#
# 1 70.5651 55.9588 76.1038 0.0000 0.0000 0.0000
# 2 55.9588 104.8022 81.3312 0.0000 0.0000 0.0000
# 3 76.1038 81.3312 143.0170 0.0000 0.0000 0.0000
# 4 0.0000 0.0000 0.0000 40.7889 0.0000 0.0000
# 5 0.0000 0.0000 0.0000 0.0000 41.5689 0.0000
# 6 0.0000 0.0000 0.0000 0.0000 0.0000 30.3533
#
#
#
# Elastic Compliance Matrix: (Units=1/GPa)
#
#
# Indices 1 2 3 4 5 6 
#
# 1 0.036601 -0.007926 -0.014969 0.000000 0.000000 0.000000
# 2 -0.007926 0.018796 -0.006471 0.000000 0.000000 0.000000
# 3 -0.014969 -0.006471 0.018637 0.000000 0.000000 0.000000
# 4 0.000000 0.000000 0.000000 0.024516 0.000000 0.000000
# 5 0.000000 0.000000 0.000000 0.000000 0.024056 0.000000
# 6 0.000000 0.000000 0.000000 0.000000 0.000000 0.032945
#
#
# Mechanical properties :
#
#
# Convention : Reuss Voigt Hill
#
# Bulk Modulus (GPa) = 65.35222 82.79685 74.07453
# Shear Modulus (GPa) = 22.79101 29.54160 26.16630
#
# Velocity S-wave (km/s) = 3.55619 4.04875 3.81044
# Velocity P-wave (km/s) = 7.28871 8.23406 7.77576
#
# Compressibility (1/GPa) = 0.01530170
#
# Stress axis : x y z
#
# Youngs Moduli (GPa) = 27.32195 53.20344 53.65548
#
# Poissons Ratio (x) = 0.42171 0.80316
# Poissons Ratio (y) = 0.21656 0.34720
# Poissons Ratio (z) = 0.40898 0.34428
#
# Static dielectric constant tensor:
#      x y z
#    x 3.281400 0.000000 0.000000 
#    y 0.000000 3.372230 0.000000 
#    z 0.000000 0.000000 3.374940 
# 
# 
# High freq. dielectric constant tensor:
#      x y z
#    x 1.695360 0.000000 0.000000 
#    y 0.000000 1.705840 0.000000 
#    z 0.000000 0.000000 1.706370 
# 
# From -- ./inp_files/18872.got.cif
#   From: 2010.03.12/outbox.cif.g09.slc.cpg/sg38_10_cif.got.tgz:18872.got - 2010.04.14 02:38:36.
