data_PCOD8179416
_publ_section_title
;
Structure prediction by ZEFSAII (Michael W. Deem and Ramdas Pophale) SiO2 
 PCOD8179416
Probable space group: A M M 2
;
_chemical_formula_sum "Si O2"
_cell_formula_units_Z 48
_cell_length_a 17.193844
_cell_length_b 8.744827
_cell_length_c 16.163647
_cell_angle_alpha 90.000000
_cell_angle_beta 90.000000
_cell_angle_gamma 90.000000
_cell_volume 2430.320563
_symmetry_space_group_name_H-M "A M M 2"
_symmetry_group_IT_number 38
_symmetry_cell_setting 'orthorhombic'
loop_
_space_group_symop_operation_xyz
x,y,z
-x,-y,z
-x,y,z
x,-y,z
x,1/2+y,1/2+z
-x,1/2-y,1/2+z
-x,1/2+y,1/2+z
x,1/2-y,1/2+z
loop_
_atom_site_type_symbol
_atom_site_label
_atom_site_fract_x
_atom_site_fract_y
_atom_site_fract_z
Si Si1 0.500000 0.824704 0.827540
Si Si2 0.088869 0.681883 0.405708
Si Si3 0.500000 0.326353 0.994411
Si Si4 0.649927 0.675975 0.235051
Si Si5 0.817614 0.678961 0.564573
Si Si6 0.823700 0.174166 0.744707
Si Si7 0.356024 0.673777 0.568642
O O1 0.500000 0.796653 0.923273
O O2 0.419133 0.759276 0.792554
O O3 0.500000 0.000000 0.806886
O O4 0.097936 0.500000 0.405044
O O5 0.128914 0.745340 0.490183
O O6 0.126485 0.748006 0.320256
O O7 0.000000 0.735755 0.407778
O O8 0.500000 0.500000 0.962760
O O9 0.421246 0.296031 0.044057
O O10 0.634678 0.500000 0.205002
O O11 0.734516 0.683764 0.277360
O O12 0.652271 0.804173 0.165572
O O13 0.831049 0.500000 0.576482
O O14 0.837341 0.750323 0.654483
O O15 0.729374 0.712274 0.532695
O O16 0.849519 0.000000 0.731746
O O17 0.381171 0.500000 0.547110
#
# Coordination Sequence:
#
# PCOD8179416 Si02
#       7
#     4   8   4   8   8   8   8
#     4  10  21  34  51  75 103 139 177 216 263 320
#     4   9  18  33  55  82 111 147 187 225 270 329
#     4  12  25  36  49  75 109 141 177 222 269 318
#     4   9  18  33  54  77 104 138 178 221 268 323
#     4   9  19  35  57  82 110 144 185 229 273 325
#     4   9  18  33  55  80 109 144 183 226 272 326
#     4  10  20  35  56  77 103 139 181 225 269 320
#
# _framework density 19.750481000000001
#
# number of rings (size 3 to 8) (size 9 to 14) (size 15 to 20)
#    0.000    2.500    0.000    1.750    2.333    2.667 
#    0.000    0.833    0.000    1.000    0.000    0.000 
#    0.000    0.000    0.000    0.000    0.000    0.000 
#
# Total GULP energy -297317.044482 kJ/mol
# GULP energy per Si atom -12388.210187 kJ/mol
# Density = 1.970553 g / cm^3
# Si number density = 19.750481 Si / 1000 Ang^3
#
#
#
# Elastic Constant Matrix: (Units=GPa)
#
#
# Indices 1 2 3 4 5 6 
#
# 1 150.0977 30.8357 79.0552 0.0000 0.0000 0.0000
# 2 30.8357 29.9924 22.8898 0.0000 0.0000 0.0000
# 3 79.0552 22.8898 122.9421 0.0000 0.0000 0.0000
# 4 0.0000 0.0000 0.0000 22.0522 0.0000 0.0000
# 5 0.0000 0.0000 0.0000 0.0000 57.2168 0.0000
# 6 0.0000 0.0000 0.0000 0.0000 0.0000 298.5650
#
#
#
# Elastic Compliance Matrix: (Units=1/GPa)
#
#
# Indices 1 2 3 4 5 6 
#
# 1 0.011215 -0.007025 -0.005904 0.000000 0.000000 0.000000
# 2 -0.007025 0.043264 -0.003538 0.000000 0.000000 0.000000
# 3 -0.005904 -0.003538 0.012589 0.000000 0.000000 0.000000
# 4 0.000000 0.000000 0.000000 0.045347 0.000000 0.000000
# 5 0.000000 0.000000 0.000000 0.000000 0.017477 0.000000
# 6 0.000000 0.000000 0.000000 0.000000 0.000000 0.003349
#
#
# Mechanical properties :
#
#
# Convention : Reuss Voigt Hill
#
# Bulk Modulus (GPa) = 29.29524 63.17708 46.23616
# Shear Modulus (GPa) = 28.16072 86.91689 57.53880
#
# Velocity S-wave (km/s) = 3.78011 6.64101 5.40334
# Velocity P-wave (km/s) = 5.82384 9.53211 7.89868
#
# Compressibility (1/GPa) = 0.03413524
#
# Stress axis : x y z
#
# Youngs Moduli (GPa) = 89.16787 23.11385 79.43572
#
# Poissons Ratio (x) = 0.16237 0.46895
# Poissons Ratio (y) = 0.62637 0.28105
# Poissons Ratio (z) = 0.52641 0.08178
#
# Static dielectric constant tensor:
#      x y z
#    x 2.026380 0.000000 0.000000 
#    y 0.000000 3.235250 0.000000 
#    z 0.000000 0.000000 3.538980 
# 
# 
# High freq. dielectric constant tensor:
#      x y z
#    x 1.780200 0.000000 0.000000 
#    y 0.000000 1.737200 0.000000 
#    z 0.000000 0.000000 1.765500 
# 
# From -- ./inp_files/14982.got.cif
#   From: 2010.03.12/outbox.cif.g09.slc.cpg/sg38_8_cif.got.tgz:14982.got - 2010.04.14 02:38:36.
