data_PCOD8179333
_publ_section_title
;
Structure prediction by ZEFSAII (Michael W. Deem and Ramdas Pophale) SiO2 
 PCOD8179333
Probable space group: A M M 2
;
_chemical_formula_sum "Si O2"
_cell_formula_units_Z 64
_cell_length_a 19.060567
_cell_length_b 20.889288
_cell_length_c 8.039861
_cell_angle_alpha 90.000000
_cell_angle_beta 90.000000
_cell_angle_gamma 90.000000
_cell_volume 3201.164511
_symmetry_space_group_name_H-M "A M M 2"
_symmetry_group_IT_number 38
_symmetry_cell_setting 'orthorhombic'
loop_
_space_group_symop_operation_xyz
x,y,z
-x,-y,z
-x,y,z
x,-y,z
x,1/2+y,1/2+z
-x,1/2-y,1/2+z
-x,1/2+y,1/2+z
x,1/2-y,1/2+z
loop_
_atom_site_type_symbol
_atom_site_label
_atom_site_fract_x
_atom_site_fract_y
_atom_site_fract_z
Si Si1 0.577202 0.072541 0.859990
Si Si2 0.671232 0.738945 0.865792
Si Si3 0.078332 0.287011 0.877421
Si Si4 0.077681 0.843025 0.017783
Si Si5 0.713565 0.374405 0.263179
Si Si6 0.786558 0.357313 0.941979
Si Si7 0.420348 0.683396 0.607484
Si Si8 0.207595 0.423834 0.584950
O O1 0.500000 0.083377 0.777858
O O2 0.637596 0.092842 0.730069
O O3 0.587493 0.000000 0.916652
O O4 0.583599 0.113507 0.027800
O O5 0.702452 0.798101 0.760500
O O6 0.738240 0.705481 0.946147
O O7 0.631156 0.683757 0.763855
O O8 0.611084 0.762371 0.988847
O O9 0.099177 0.211532 0.884206
O O10 0.079511 0.302518 0.685178
O O11 0.133382 0.334234 0.967860
O O12 0.000000 0.298099 0.953604
O O13 0.130644 0.902280 0.023068
O O14 0.000000 0.871304 0.983351
O O15 0.739017 0.396912 0.446409
O O16 0.764468 0.396143 0.110448
O O17 0.776451 0.397148 0.770613
O O18 0.500000 0.702340 0.653629
O O19 0.210891 0.500000 0.591006
#
# Coordination Sequence:
#
# PCOD8179333 Si02
#       8
#     8   8   8   8   8   8   8   8
#     4   9  19  37  59  82 113 157 204 243 290 356
#     4  11  20  36  54  88 118 150 190 241 312 364
#     4   9  19  34  57  89 120 152 191 241 304 360
#     4   9  19  36  59  88 120 154 193 244 299 353
#     4  11  23  38  61  89 119 158 196 250 305 358
#     4  11  23  38  61  88 122 157 199 251 301 362
#     4  10  20  34  56  86 119 152 190 242 302 362
#     4  11  25  41  59  86 119 160 206 246 292 355
#
# _framework density 19.992723999999999
#
# number of rings (size 3 to 8) (size 9 to 14) (size 15 to 20)
#    0.000    1.875    1.250    3.000    5.250    1.750 
#    0.000    0.000    0.000    0.750    0.000    8.750 
#    0.000    0.000    0.000    0.000    0.000    0.000 
#
# Total GULP energy -396524.412317 kJ/mol
# GULP energy per Si atom -12391.387885 kJ/mol
# Density = 1.994722 g / cm^3
# Si number density = 19.992724 Si / 1000 Ang^3
#
#
#
# Elastic Constant Matrix: (Units=GPa)
#
#
# Indices 1 2 3 4 5 6 
#
# 1 120.4471 42.4585 42.9760 0.0000 0.0000 0.0000
# 2 42.4585 98.2799 21.8847 0.0000 0.0000 0.0000
# 3 42.9760 21.8847 70.5633 0.0000 0.0000 0.0000
# 4 0.0000 0.0000 0.0000 13.6770 0.0000 0.0000
# 5 0.0000 0.0000 0.0000 0.0000 26.6101 0.0000
# 6 0.0000 0.0000 0.0000 0.0000 0.0000 24.4927
#
#
#
# Elastic Compliance Matrix: (Units=1/GPa)
#
#
# Indices 1 2 3 4 5 6 
#
# 1 0.011765 -0.003746 -0.006004 0.000000 0.000000 0.000000
# 2 -0.003746 0.012122 -0.001478 0.000000 0.000000 0.000000
# 3 -0.006004 -0.001478 0.018287 0.000000 0.000000 0.000000
# 4 0.000000 0.000000 0.000000 0.073115 0.000000 0.000000
# 5 0.000000 0.000000 0.000000 0.000000 0.037580 0.000000
# 6 0.000000 0.000000 0.000000 0.000000 0.000000 0.040828
#
#
# Mechanical properties :
#
#
# Convention : Reuss Voigt Hill
#
# Bulk Modulus (GPa) = 50.71375 55.99208 53.35292
# Shear Modulus (GPa) = 22.44913 25.08738 23.76826
#
# Velocity S-wave (km/s) = 3.35455 3.54619 3.45170
# Velocity P-wave (km/s) = 6.35808 6.69585 6.52915
#
# Compressibility (1/GPa) = 0.01971852
#
# Stress axis : x y z
#
# Youngs Moduli (GPa) = 84.99842 82.49156 54.68480
#
# Poissons Ratio (x) = 0.30899 0.32831
# Poissons Ratio (y) = 0.31838 0.08084
# Poissons Ratio (z) = 0.51030 0.12195
#
# Static dielectric constant tensor:
#      x y z
#    x 4.176490 0.000000 0.000000 
#    y 0.000000 3.422720 0.000000 
#    z 0.000000 0.000000 3.601570 
# 
# 
# High freq. dielectric constant tensor:
#      x y z
#    x 1.802730 0.000000 0.000000 
#    y 0.000000 1.755220 0.000000 
#    z 0.000000 0.000000 1.765910 
# 
# From -- ./inp_files/6503.got.cif
#   From: 2010.03.12/outbox.cif.g09.slc.cpg/sg38_4_cif.got.tgz:6503.got - 2010.04.14 02:38:36.
