data_PCOD8179579
_publ_section_title
;
Structure prediction by ZEFSAII (Michael W. Deem and Ramdas Pophale) SiO2 
 PCOD8179579
Probable space group: A M M 2
;
_chemical_formula_sum "Si O2"
_cell_formula_units_Z 48
_cell_length_a 16.866970
_cell_length_b 8.887374
_cell_length_c 15.848127
_cell_angle_alpha 90.000000
_cell_angle_beta 90.000000
_cell_angle_gamma 90.000000
_cell_volume 2375.682901
_symmetry_space_group_name_H-M "A M M 2"
_symmetry_group_IT_number 38
_symmetry_cell_setting 'orthorhombic'
loop_
_space_group_symop_operation_xyz
x,y,z
-x,-y,z
-x,y,z
x,-y,z
x,1/2+y,1/2+z
-x,1/2-y,1/2+z
-x,1/2+y,1/2+z
x,1/2-y,1/2+z
loop_
_atom_site_type_symbol
_atom_site_label
_atom_site_fract_x
_atom_site_fract_y
_atom_site_fract_z
Si Si1 0.182276 0.821877 0.152080
Si Si2 0.330748 0.672334 0.891415
Si Si3 0.500000 0.823435 0.645912
Si Si4 0.183304 0.322605 0.323395
Si Si5 0.667119 0.675947 0.084494
Si Si6 0.089548 0.178956 0.987555
Si Si7 0.500000 0.327145 0.821374
O O1 0.147772 0.752431 0.238719
O O2 0.272784 0.768561 0.142540
O O3 0.178596 0.000000 0.158163
O O4 0.131357 0.760647 0.072723
O O5 0.311948 0.500000 0.868080
O O6 0.275473 0.777383 0.834007
O O7 0.422998 0.708852 0.877194
O O8 0.310810 0.706681 0.988073
O O9 0.420809 0.758991 0.602147
O O10 0.500000 0.783701 0.743376
O O11 0.500000 0.000000 0.633168
O O12 0.175969 0.500000 0.314237
O O13 0.134303 0.261102 0.404065
O O14 0.673267 0.500000 0.107665
O O15 0.000000 0.240713 0.985893
O O16 0.091336 0.000000 0.987710
O O17 0.500000 0.500000 0.790551
#
# Coordination Sequence:
#
# PCOD8179579 Si02
#       7
#     8   8   4   8   8   8   4
#     4  11  22  38  61  89 119 154 195 238 289 347
#     4  10  20  36  58  82 113 152 196 242 289 339
#     4  10  21  35  51  77 111 152 195 239 285 337
#     4  11  22  38  61  89 119 154 195 238 289 347
#     4  10  20  36  58  82 113 152 196 242 289 339
#     4   9  20  40  63  86 117 154 190 235 291 349
#     4  10  21  35  51  77 111 152 195 239 285 337
#
# _framework density 20.204716000000001
#
# number of rings (size 3 to 8) (size 9 to 14) (size 15 to 20)
#    0.000    1.833    1.667    2.500    0.000    6.667 
#    0.000    0.000    0.000   10.000    0.000    0.000 
#    0.000    0.000    0.000    0.000    0.000    0.000 
#
# Total GULP energy -297663.066507 kJ/mol
# GULP energy per Si atom -12402.627771 kJ/mol
# Density = 2.015873 g / cm^3
# Si number density = 20.204716 Si / 1000 Ang^3
#
#
#
# Elastic Constant Matrix: (Units=GPa)
#
#
# Indices 1 2 3 4 5 6 
#
# 1 128.4625 27.8832 59.6231 0.0000 0.0000 0.0000
# 2 27.8832 46.3696 40.4024 0.0000 0.0000 0.0000
# 3 59.6231 40.4024 153.5380 0.0000 0.0000 0.0000
# 4 0.0000 0.0000 0.0000 32.9157 0.0000 0.0000
# 5 0.0000 0.0000 0.0000 0.0000 24.3919 0.0000
# 6 0.0000 0.0000 0.0000 0.0000 0.0000 19.9076
#
#
#
# Elastic Compliance Matrix: (Units=1/GPa)
#
#
# Indices 1 2 3 4 5 6 
#
# 1 0.009886 -0.003373 -0.002952 0.000000 0.000000 0.000000
# 2 -0.003373 0.029132 -0.006356 0.000000 0.000000 0.000000
# 3 -0.002952 -0.006356 0.009332 0.000000 0.000000 0.000000
# 4 0.000000 0.000000 0.000000 0.030381 0.000000 0.000000
# 5 0.000000 0.000000 0.000000 0.000000 0.040997 0.000000
# 6 0.000000 0.000000 0.000000 0.000000 0.000000 0.050232
#
#
# Mechanical properties :
#
#
# Convention : Reuss Voigt Hill
#
# Bulk Modulus (GPa) = 43.49923 64.90971 54.20447
# Shear Modulus (GPa) = 24.63236 28.80714 26.71975
#
# Velocity S-wave (km/s) = 3.49541 3.78002 3.64050
# Velocity P-wave (km/s) = 6.15357 7.15872 6.67509
#
# Compressibility (1/GPa) = 0.02298891
#
# Stress axis : x y z
#
# Youngs Moduli (GPa) = 101.14872 34.32609 107.16095
#
# Poissons Ratio (x) = 0.11579 0.31629
# Poissons Ratio (y) = 0.34120 0.68112
# Poissons Ratio (z) = 0.29854 0.21818
#
# Static dielectric constant tensor:
#      x y z
#    x 3.780060 0.000000 0.000000 
#    y 0.000000 3.373120 0.000000 
#    z 0.000000 0.000000 3.847860 
# 
# 
# High freq. dielectric constant tensor:
#      x y z
#    x 1.789220 0.000000 0.000000 
#    y 0.000000 1.762450 0.000000 
#    z 0.000000 0.000000 1.803110 
# 
# From -- ./inp_files/14989.got.cif
#   From: 2010.03.12/outbox.cif.g09.slc.cpg/sg38_8_cif.got.tgz:14989.got - 2010.04.14 02:38:36.
