data_PCOD8179350
_publ_section_title
;
Structure prediction by ZEFSAII (Michael W. Deem and Ramdas Pophale) SiO2 
 PCOD8179350
Probable space group: A M M 2
;
_chemical_formula_sum "Si O2"
_cell_formula_units_Z 64
_cell_length_a 14.106828
_cell_length_b 8.955012
_cell_length_c 25.885165
_cell_angle_alpha 90.000000
_cell_angle_beta 90.000000
_cell_angle_gamma 90.000000
_cell_volume 3269.990425
_symmetry_space_group_name_H-M "A M M 2"
_symmetry_group_IT_number 38
_symmetry_cell_setting 'orthorhombic'
loop_
_space_group_symop_operation_xyz
x,y,z
-x,-y,z
-x,y,z
x,-y,z
x,1/2+y,1/2+z
-x,1/2-y,1/2+z
-x,1/2+y,1/2+z
x,1/2-y,1/2+z
loop_
_atom_site_type_symbol
_atom_site_label
_atom_site_fract_x
_atom_site_fract_y
_atom_site_fract_z
Si Si1 0.892819 0.674615 0.014870
Si Si2 0.388276 0.162036 0.463281
Si Si3 0.395596 0.822646 0.574130
Si Si4 0.794250 0.825163 0.620985
Si Si5 0.110455 0.325296 0.716898
Si Si6 0.392343 0.678248 0.851565
Si Si7 0.891344 0.824360 0.912707
Si Si8 0.783175 0.176819 0.810849
O O1 0.889713 0.500000 0.005578
O O2 0.836885 0.720213 0.065910
O O3 0.000000 0.733102 0.021721
O O4 0.845974 0.751120 0.964278
O O5 0.500000 0.136918 0.461623
O O6 0.364448 0.246181 0.517649
O O7 0.362284 0.242726 0.408860
O O8 0.337262 0.000000 0.463729
O O9 0.500000 0.763107 0.591225
O O10 0.318008 0.784287 0.617840
O O11 0.399604 0.000000 0.565987
O O12 0.842318 0.723262 0.663477
O O13 0.811124 0.000000 0.633522
O O14 0.126982 0.500000 0.725509
O O15 0.158434 0.234337 0.762439
O O16 0.000000 0.284147 0.715025
O O17 0.500000 0.724669 0.837472
O O18 0.381980 0.500000 0.850410
O O19 0.322484 0.753886 0.810077
O O20 0.836032 0.767631 0.862409
O O21 0.000000 0.771896 0.906479
O O22 0.883347 0.000000 0.918493
O O23 0.776262 0.000000 0.807082
#
# Coordination Sequence:
#
# PCOD8179350 Si02
#       8
#     8   8   8   8   8   8   8   8
#     4   9  18  31  49  78 112 143 180 228 281 338
#     4   7  11  22  43  73 109 148 186 224 265 309
#     4   8  14  26  47  79 116 150 187 227 267 318
#     4  10  20  34  57  86 113 146 187 233 285 335
#     4  11  25  44  64  84 106 140 189 243 296 352
#     4   9  18  33  55  84 118 155 194 236 281 330
#     4   9  19  35  53  76 109 147 183 223 281 347
#     4  11  23  38  59  85 113 149 191 237 291 345
#
# _framework density 19.571923000000002
#
# number of rings (size 3 to 8) (size 9 to 14) (size 15 to 20)
#    0.000    2.750    0.000    3.000    1.750    3.750 
#    0.000    3.125    0.000    2.625    0.000    0.000 
#    0.000    0.000    0.000    0.000    0.000    0.000 
#
# Total GULP energy -396569.331444 kJ/mol
# GULP energy per Si atom -12392.791608 kJ/mol
# Density = 1.952738 g / cm^3
# Si number density = 19.571923 Si / 1000 Ang^3
#
#
#
# Elastic Constant Matrix: (Units=GPa)
#
#
# Indices 1 2 3 4 5 6 
#
# 1 110.3128 34.1917 60.7485 0.0000 0.0000 0.0000
# 2 34.1917 38.8285 33.2594 0.0000 0.0000 0.0000
# 3 60.7485 33.2594 102.6117 0.0000 0.0000 0.0000
# 4 0.0000 0.0000 0.0000 29.4369 0.0000 0.0000
# 5 0.0000 0.0000 0.0000 0.0000 35.6080 0.0000
# 6 0.0000 0.0000 0.0000 0.0000 0.0000 21.9286
#
#
#
# Elastic Compliance Matrix: (Units=1/GPa)
#
#
# Indices 1 2 3 4 5 6 
#
# 1 0.014959 -0.007734 -0.006349 0.000000 0.000000 0.000000
# 2 -0.007734 0.039651 -0.008274 0.000000 0.000000 0.000000
# 3 -0.006349 -0.008274 0.016186 0.000000 0.000000 0.000000
# 4 0.000000 0.000000 0.000000 0.033971 0.000000 0.000000
# 5 0.000000 0.000000 0.000000 0.000000 0.028084 0.000000
# 6 0.000000 0.000000 0.000000 0.000000 0.000000 0.045603
#
#
# Mechanical properties :
#
#
# Convention : Reuss Voigt Hill
#
# Bulk Modulus (GPa) = 38.33904 56.46135 47.40019
# Shear Modulus (GPa) = 21.56467 25.63159 23.59813
#
# Velocity S-wave (km/s) = 3.32296 3.62278 3.47611
# Velocity P-wave (km/s) = 5.86124 6.81250 6.35469
#
# Compressibility (1/GPa) = 0.02608308
#
# Stress axis : x y z
#
# Youngs Moduli (GPa) = 66.85081 25.21974 61.78185
#
# Poissons Ratio (x) = 0.19505 0.39226
# Poissons Ratio (y) = 0.51702 0.51115
# Poissons Ratio (z) = 0.42444 0.20866
#
# Static dielectric constant tensor:
#      x y z
#    x 3.797020 0.000000 0.000000 
#    y 0.000000 3.168140 0.000000 
#    z 0.000000 0.000000 3.719800 
# 
# 
# High freq. dielectric constant tensor:
#      x y z
#    x 1.773950 0.000000 0.000000 
#    y 0.000000 1.721300 0.000000 
#    z 0.000000 0.000000 1.755560 
# 
# From -- ./inp_files/22963.got.cif
#   From: 2010.03.12/outbox.cif.g09.slc.cpg/sg38_12_cif.got.tgz:22963.got - 2010.04.14 02:38:36.
