data_PCOD8179812
_publ_section_title
;
Structure prediction by ZEFSAII (Michael W. Deem and Ramdas Pophale) SiO2 
 PCOD8179812
Probable space group: A M M 2
;
_chemical_formula_sum "Si O2"
_cell_formula_units_Z 48
_cell_length_a 7.754912
_cell_length_b 34.187465
_cell_length_c 9.014705
_cell_angle_alpha 90.000000
_cell_angle_beta 90.000000
_cell_angle_gamma 90.000000
_cell_volume 2389.985644
_symmetry_space_group_name_H-M "A M M 2"
_symmetry_group_IT_number 38
_symmetry_cell_setting 'orthorhombic'
loop_
_space_group_symop_operation_xyz
x,y,z
-x,-y,z
-x,y,z
x,-y,z
x,1/2+y,1/2+z
-x,1/2-y,1/2+z
-x,1/2+y,1/2+z
x,1/2-y,1/2+z
loop_
_atom_site_type_symbol
_atom_site_label
_atom_site_fract_x
_atom_site_fract_y
_atom_site_fract_z
Si Si1 0.500000 0.708691 0.486780
Si Si2 0.199136 0.651330 0.486773
Si Si3 0.808419 0.653251 0.828890
Si Si4 0.704792 0.500000 0.819713
Si Si5 0.305056 0.077031 0.477332
Si Si6 0.296013 0.500000 0.481269
Si Si7 0.500000 0.208279 0.334971
Si Si8 0.803086 0.075566 0.802784
O O1 0.326454 0.686078 0.436481
O O2 0.500000 0.750363 0.412033
O O3 0.500000 0.715330 0.661101
O O4 0.230016 0.641403 0.659236
O O5 0.255378 0.613212 0.396020
O O6 0.000000 0.663404 0.456109
O O7 0.670145 0.684749 0.886371
O O8 0.000000 0.671587 0.844221
O O9 0.803475 0.614596 0.928916
O O10 0.500000 0.500000 0.832565
O O11 0.768399 0.500000 0.650643
O O12 0.777902 0.461556 0.902354
O O13 0.500000 0.082943 0.420739
O O14 0.308499 0.072193 0.654438
O O15 0.500000 0.500000 0.469949
O O16 0.220696 0.462037 0.403946
O O17 0.000000 0.079485 0.753719
#
# Coordination Sequence:
#
# PCOD8179812 Si02
#       8
#     4   8   8   4   8   4   4   8
#     4  10  22  38  64  85 122 149 196 234 295 346
#     4   9  21  39  61  87 117 155 198 241 289 350
#     4  10  20  39  62  86 118 155 195 241 290 345
#     4   9  21  37  56  82 114 152 199 246 289 343
#     4  11  21  36  58  87 119 153 196 243 293 346
#     4  11  22  37  58  82 110 155 202 245 293 341
#     4  10  22  40  58  93 114 155 190 238 285 360
#     4  11  23  38  55  84 120 154 194 244 298 347
#
# _framework density 20.083803
#
# number of rings (size 3 to 8) (size 9 to 14) (size 15 to 20)
#    0.000    1.833    0.833    2.750    2.333    2.667 
#    0.000    3.750    0.000    0.000    0.000    0.000 
#    0.000    0.000    0.000    0.000    0.000    0.000 
#
# Total GULP energy -297690.272770 kJ/mol
# GULP energy per Si atom -12403.761365 kJ/mol
# Density = 2.003809 g / cm^3
# Si number density = 20.083803 Si / 1000 Ang^3
#
#
#
# Elastic Constant Matrix: (Units=GPa)
#
#
# Indices 1 2 3 4 5 6 
#
# 1 97.1337 58.2981 28.7577 0.0000 0.0000 0.0000
# 2 58.2981 177.9301 68.8935 0.0000 0.0000 0.0000
# 3 28.7577 68.8935 99.2304 0.0000 0.0000 0.0000
# 4 0.0000 0.0000 0.0000 44.6016 0.0000 0.0000
# 5 0.0000 0.0000 0.0000 0.0000 23.0330 0.0000
# 6 0.0000 0.0000 0.0000 0.0000 0.0000 22.1641
#
#
#
# Elastic Compliance Matrix: (Units=1/GPa)
#
#
# Indices 1 2 3 4 5 6 
#
# 1 0.012902 -0.003802 -0.001100 0.000000 0.000000 0.000000
# 2 -0.003802 0.008807 -0.005012 0.000000 0.000000 0.000000
# 3 -0.001100 -0.005012 0.013876 0.000000 0.000000 0.000000
# 4 0.000000 0.000000 0.000000 0.022421 0.000000 0.000000
# 5 0.000000 0.000000 0.000000 0.000000 0.043416 0.000000
# 6 0.000000 0.000000 0.000000 0.000000 0.000000 0.045118
#
#
# Mechanical properties :
#
#
# Convention : Reuss Voigt Hill
#
# Bulk Modulus (GPa) = 63.46192 76.24365 69.85278
# Shear Modulus (GPa) = 29.13409 32.51605 30.82507
#
# Velocity S-wave (km/s) = 3.81284 4.02807 3.92193
# Velocity P-wave (km/s) = 7.14499 7.72522 7.44076
#
# Compressibility (1/GPa) = 0.01575748
#
# Stress axis : x y z
#
# Youngs Moduli (GPa) = 77.50528 113.55181 72.06495
#
# Poissons Ratio (x) = 0.43167 0.07926
# Poissons Ratio (y) = 0.29464 0.36122
# Poissons Ratio (z) = 0.08525 0.56918
#
# Static dielectric constant tensor:
#      x y z
#    x 3.756080 0.000000 0.000000 
#    y 0.000000 3.587280 0.000000 
#    z 0.000000 0.000000 3.561500 
# 
# 
# High freq. dielectric constant tensor:
#      x y z
#    x 1.792040 0.000000 0.000000 
#    y 0.000000 1.778400 0.000000 
#    z 0.000000 0.000000 1.782440 
# 
# From -- ./inp_files/3874.got.cif
#   From: 2010.03.12/outbox.cif.g09.slc.cpg/sg38_2_cif.got.tgz:3874.got - 2010.04.14 02:38:36.
