data_PCOD8179437
_publ_section_title
;
Structure prediction by ZEFSAII (Michael W. Deem and Ramdas Pophale) SiO2 
 PCOD8179437
Probable space group: A M M 2
;
_chemical_formula_sum "Si O2"
_cell_formula_units_Z 64
_cell_length_a 9.256310
_cell_length_b 24.545320
_cell_length_c 15.057081
_cell_angle_alpha 90.000000
_cell_angle_beta 90.000000
_cell_angle_gamma 90.000000
_cell_volume 3420.955116
_symmetry_space_group_name_H-M "A M M 2"
_symmetry_group_IT_number 38
_symmetry_cell_setting 'orthorhombic'
loop_
_space_group_symop_operation_xyz
x,y,z
-x,-y,z
-x,y,z
x,-y,z
x,1/2+y,1/2+z
-x,1/2-y,1/2+z
-x,1/2+y,1/2+z
x,1/2-y,1/2+z
loop_
_atom_site_type_symbol
_atom_site_label
_atom_site_fract_x
_atom_site_fract_y
_atom_site_fract_z
Si Si1 0.168794 0.865232 0.843880
Si Si2 0.665894 0.781509 0.552866
Si Si3 0.836164 0.767338 0.723863
Si Si4 0.671574 0.838773 0.015811
Si Si5 0.835042 0.561640 0.841352
Si Si6 0.333083 0.898734 0.506426
Si Si7 0.830532 0.645617 0.695488
Si Si8 0.666625 0.564206 0.201108
O O1 0.192662 0.802963 0.811468
O O2 0.232406 0.907650 0.773757
O O3 0.000000 0.878108 0.858604
O O4 0.254486 0.871661 0.935968
O O5 0.500000 0.777107 0.578878
O O6 0.743520 0.792539 0.645315
O O7 0.714857 0.725285 0.506404
O O8 0.695591 0.833997 0.491132
O O9 0.798138 0.704116 0.740939
O O10 0.000000 0.772971 0.692013
O O11 0.500000 0.848156 0.013757
O O12 0.736732 0.861927 0.106952
O O13 0.818731 0.500000 0.807340
O O14 0.751821 0.567933 0.933108
O O15 0.773534 0.600523 0.764335
O O16 0.000000 0.577386 0.860444
O O17 0.500000 0.913554 0.494897
O O18 0.280524 0.917328 0.603656
O O19 0.000000 0.638429 0.672585
O O20 0.500000 0.581697 0.216142
O O21 0.686200 0.500000 0.211059
#
# Coordination Sequence:
#
# PCOD8179437 Si02
#       8
#     8   8   8   8   8   8   8   8
#     4  11  22  35  55  84 115 150 189 231 280 335
#     4   9  18  33  53  80 112 145 181 221 272 327
#     4   9  18  32  52  79 108 142 181 222 273 330
#     4  10  21  36  56  83 114 147 185 233 282 335
#     4  10  22  38  57  82 111 146 188 231 277 329
#     4  10  20  35  56  83 114 149 184 222 275 334
#     4   9  19  38  58  78 109 146 186 234 284 333
#     4  10  21  38  59  81 111 152 192 233 280 329
#
# _framework density 18.708224999999999
#
# number of rings (size 3 to 8) (size 9 to 14) (size 15 to 20)
#    0.000    2.250    1.250    1.125    1.750    3.500 
#    0.000    0.625    0.000    2.250    0.000    0.000 
#    0.000    0.000    0.000    0.000    0.000    0.000 
#
# Total GULP energy -396809.394419 kJ/mol
# GULP energy per Si atom -12400.293576 kJ/mol
# Density = 1.866564 g / cm^3
# Si number density = 18.708225 Si / 1000 Ang^3
#
#
#
# Elastic Constant Matrix: (Units=GPa)
#
#
# Indices 1 2 3 4 5 6 
#
# 1 70.2397 35.0783 55.7684 0.0000 0.0000 0.0000
# 2 35.0783 85.8921 53.8164 0.0000 0.0000 0.0000
# 3 55.7684 53.8164 118.4231 0.0000 0.0000 0.0000
# 4 0.0000 0.0000 0.0000 28.0455 0.0000 0.0000
# 5 0.0000 0.0000 0.0000 0.0000 37.4141 0.0000
# 6 0.0000 0.0000 0.0000 0.0000 0.0000 24.7632
#
#
#
# Elastic Compliance Matrix: (Units=1/GPa)
#
#
# Indices 1 2 3 4 5 6 
#
# 1 0.023566 -0.003734 -0.009401 0.000000 0.000000 0.000000
# 2 -0.003734 0.016869 -0.005907 0.000000 0.000000 0.000000
# 3 -0.009401 -0.005907 0.015556 0.000000 0.000000 0.000000
# 4 0.000000 0.000000 0.000000 0.035656 0.000000 0.000000
# 5 0.000000 0.000000 0.000000 0.000000 0.026728 0.000000
# 6 0.000000 0.000000 0.000000 0.000000 0.000000 0.040382
#
#
# Mechanical properties :
#
#
# Convention : Reuss Voigt Hill
#
# Bulk Modulus (GPa) = 55.84740 62.65346 59.25043
# Shear Modulus (GPa) = 24.65358 26.70405 25.67881
#
# Velocity S-wave (km/s) = 3.63408 3.78219 3.70887
# Velocity P-wave (km/s) = 6.89386 7.25505 7.07676
#
# Compressibility (1/GPa) = 0.01790594
#
# Stress axis : x y z
#
# Youngs Moduli (GPa) = 42.43451 59.28076 64.28420
#
# Poissons Ratio (x) = 0.22136 0.60432
# Poissons Ratio (y) = 0.15846 0.37975
# Poissons Ratio (z) = 0.39892 0.35020
#
# Static dielectric constant tensor:
#      x y z
#    x 3.392830 0.000000 0.000000 
#    y 0.000000 3.518300 0.000000 
#    z 0.000000 0.000000 3.241580 
# 
# 
# High freq. dielectric constant tensor:
#      x y z
#    x 1.725430 0.000000 0.000000 
#    y 0.000000 1.725510 0.000000 
#    z 0.000000 0.000000 1.715110 
# 
# From -- ./inp_files/12798.got.cif
#   From: 2010.03.12/outbox.cif.g09.slc.cpg/sg38_7_cif.got.tgz:12798.got - 2010.04.14 02:38:36.
