data_PCOD8179153
_publ_section_title
;
Structure prediction by ZEFSAII (Michael W. Deem and Ramdas Pophale) SiO2 
 PCOD8179153
Probable space group: A M M 2
;
_chemical_formula_sum "Si O2"
_cell_formula_units_Z 64
_cell_length_a 12.899959
_cell_length_b 22.582401
_cell_length_c 12.098116
_cell_angle_alpha 90.000000
_cell_angle_beta 90.000000
_cell_angle_gamma 90.000000
_cell_volume 3524.326937
_symmetry_space_group_name_H-M "A M M 2"
_symmetry_group_IT_number 38
_symmetry_cell_setting 'orthorhombic'
loop_
_space_group_symop_operation_xyz
x,y,z
-x,-y,z
-x,y,z
x,-y,z
x,1/2+y,1/2+z
-x,1/2-y,1/2+z
-x,1/2+y,1/2+z
x,1/2-y,1/2+z
loop_
_atom_site_type_symbol
_atom_site_label
_atom_site_fract_x
_atom_site_fract_y
_atom_site_fract_z
Si Si1 0.885589 0.570024 0.121950
Si Si2 0.241248 0.069506 0.835268
Si Si3 0.618002 0.662629 0.250955
Si Si4 0.878754 0.853782 0.993037
Si Si5 0.618002 0.162629 0.492946
Si Si6 0.758752 0.569506 0.908633
Si Si7 0.237380 0.250000 0.371950
Si Si8 0.121246 0.646218 0.750863
O O1 0.893711 0.500000 0.121949
O O2 0.827310 0.591229 0.231383
O O3 0.000000 0.598783 0.121950
O O4 0.827310 0.591230 0.012518
O O5 0.349512 0.104467 0.821904
O O6 0.180230 0.088476 0.945519
O O7 0.263913 0.000000 0.837635
O O8 0.500000 0.677945 0.281841
O O9 0.689992 0.717834 0.282669
O O10 0.629958 0.648623 0.121950
O O11 0.836539 0.794989 0.935736
O O12 0.000000 0.860445 0.968628
O O13 0.854706 0.850485 0.121950
O O14 0.500000 0.177944 0.462059
O O15 0.650488 0.104467 0.421996
O O16 0.689991 0.217834 0.461231
O O17 0.736088 0.500000 0.906266
O O18 0.819770 0.588476 0.798381
O O19 0.163461 0.205011 0.308164
O O20 0.000000 0.639555 0.775272
#
# Coordination Sequence:
#
# PCOD8179153 Si02
#       8
#     8   8   8   8   8   8   8   8
#     4   9  16  28  47  71 101 135 170 208 252 305
#     4  10  20  34  52  77 109 141 178 221 266 316
#     4  10  20  34  54  79 106 138 179 227 275 319
#     4  10  21  36  55  80 109 143 181 219 264 321
#     4  10  20  34  54  79 106 138 179 227 275 319
#     4  10  20  34  52  77 109 141 178 221 266 316
#     4  10  20  36  56  78 106 140 178 224 274 320
#     4  10  21  36  55  80 109 143 181 219 264 321
#
# _framework density 18.159495
#
# number of rings (size 3 to 8) (size 9 to 14) (size 15 to 20)
#    0.000    2.125    1.250    2.250    0.000    2.500 
#    0.000    2.500    0.000    6.750    0.000    7.000 
#    0.000    0.000    0.000    0.000    0.000    0.000 
#
# Total GULP energy -396847.757248 kJ/mol
# GULP energy per Si atom -12401.492414 kJ/mol
# Density = 1.811816 g / cm^3
# Si number density = 18.159495 Si / 1000 Ang^3
#
#
#
# Elastic Constant Matrix: (Units=GPa)
#
#
# Indices 1 2 3 4 5 6 
#
# 1 65.2815 8.7344 31.7615 0.0000 0.0000 0.0000
# 2 8.7344 77.2657 18.7709 0.0000 0.0000 0.0000
# 3 31.7615 18.7709 84.5479 0.0000 0.0000 0.0000
# 4 0.0000 0.0000 0.0000 24.1466 0.0000 0.0000
# 5 0.0000 0.0000 0.0000 0.0000 29.9877 0.0000
# 6 0.0000 0.0000 0.0000 0.0000 0.0000 20.9681
#
#
#
# Elastic Compliance Matrix: (Units=1/GPa)
#
#
# Indices 1 2 3 4 5 6 
#
# 1 0.018758 -0.000432 -0.006951 0.000000 0.000000 0.000000
# 2 -0.000432 0.013690 -0.002877 0.000000 0.000000 0.000000
# 3 -0.006951 -0.002877 0.015078 0.000000 0.000000 0.000000
# 4 0.000000 0.000000 0.000000 0.041414 0.000000 0.000000
# 5 0.000000 0.000000 0.000000 0.000000 0.033347 0.000000
# 6 0.000000 0.000000 0.000000 0.000000 0.000000 0.047691
#
#
# Mechanical properties :
#
#
# Convention : Reuss Voigt Hill
#
# Bulk Modulus (GPa) = 37.02888 38.40320 37.71604
# Shear Modulus (GPa) = 25.06277 26.20904 25.63590
#
# Velocity S-wave (km/s) = 3.71906 3.80316 3.76135
# Velocity P-wave (km/s) = 6.23515 6.36231 6.29905
#
# Compressibility (1/GPa) = 0.02700595
#
# Stress axis : x y z
#
# Youngs Moduli (GPa) = 53.31113 73.04513 66.32385
#
# Poissons Ratio (x) = 0.03154 0.46100
# Poissons Ratio (y) = 0.02302 0.19083
# Poissons Ratio (z) = 0.37055 0.21017
#
# Static dielectric constant tensor:
#      x y z
#    x 3.472970 0.000000 0.000000 
#    y 0.000000 3.218150 0.000000 
#    z 0.000000 0.000000 3.344490 
# 
# 
# High freq. dielectric constant tensor:
#      x y z
#    x 1.708780 0.000000 0.000000 
#    y 0.000000 1.699390 0.000000 
#    z 0.000000 0.000000 1.702400 
# 
# From -- ./inp_files/9580.got.cif
#   From: 2010.03.12/outbox.cif.g09.slc.cpg/sg38_5_cif.got.tgz:9580.got - 2010.04.14 02:38:36.
