data_PCOD8179589
_publ_section_title
;
Structure prediction by ZEFSAII (Michael W. Deem and Ramdas Pophale) SiO2 
 PCOD8179589
Probable space group: A M M 2
;
_chemical_formula_sum "Si O2"
_cell_formula_units_Z 64
_cell_length_a 8.663372
_cell_length_b 24.510570
_cell_length_c 15.174545
_cell_angle_alpha 90.000000
_cell_angle_beta 90.000000
_cell_angle_gamma 90.000000
_cell_volume 3222.226404
_symmetry_space_group_name_H-M "A M M 2"
_symmetry_group_IT_number 38
_symmetry_cell_setting 'orthorhombic'
loop_
_space_group_symop_operation_xyz
x,y,z
-x,-y,z
-x,y,z
x,-y,z
x,1/2+y,1/2+z
-x,1/2-y,1/2+z
-x,1/2+y,1/2+z
x,1/2-y,1/2+z
loop_
_atom_site_type_symbol
_atom_site_label
_atom_site_fract_x
_atom_site_fract_y
_atom_site_fract_z
Si Si1 0.183488 0.438588 0.477790
Si Si2 0.323695 0.715831 0.330028
Si Si3 0.677119 0.563156 0.117632
Si Si4 0.180707 0.606695 0.291103
Si Si5 0.818588 0.858371 0.128836
Si Si6 0.180090 0.851335 0.492380
Si Si7 0.318979 0.161084 0.307854
Si Si8 0.677622 0.761989 0.031151
O O1 0.245621 0.500000 0.490506
O O2 0.243145 0.415087 0.384897
O O3 0.247011 0.401688 0.557830
O O4 0.000000 0.436986 0.478003
O O5 0.500000 0.702672 0.305441
O O6 0.215084 0.671284 0.283720
O O7 0.275815 0.775285 0.294893
O O8 0.297808 0.713578 0.434449
O O9 0.500000 0.581152 0.105817
O O10 0.699637 0.500000 0.095520
O O11 0.728311 0.573690 0.217461
O O12 0.784380 0.595881 0.050342
O O13 0.000000 0.596277 0.278671
O O14 0.736632 0.871408 0.221705
O O15 0.000000 0.864209 0.141645
O O16 0.778460 0.797299 0.098269
O O17 0.233256 0.863169 0.392722
O O18 0.269309 0.800429 0.535018
O O19 0.000000 0.838357 0.493616
O O20 0.500000 0.153766 0.323677
O O21 0.500000 0.764763 0.060864
#
# Coordination Sequence:
#
# PCOD8179589 Si02
#       8
#     8   8   8   8   8   8   8   8
#     4   9  19  36  57  84 121 160 197 243 299 351
#     4   9  19  35  55  81 117 159 198 236 292 360
#     4  11  25  44  64  87 119 159 203 251 305 368
#     4  11  21  35  59  89 122 159 199 249 300 354
#     4  11  21  35  58  89 121 158 207 255 299 352
#     4  11  23  41  65  91 118 152 201 256 305 361
#     4  10  22  40  60  85 122 164 199 246 308 366
#     4  10  20  36  58  85 122 161 195 239 300 365
#
# _framework density 19.862044000000001
#
# number of rings (size 3 to 8) (size 9 to 14) (size 15 to 20)
#    0.000    1.750    1.250    4.125    1.750    4.000 
#    0.000    0.625    0.000    6.000    0.000    0.000 
#    0.000    0.000    0.000    0.000    0.000    0.000 
#
# Total GULP energy -396949.790234 kJ/mol
# GULP energy per Si atom -12404.680945 kJ/mol
# Density = 1.981684 g / cm^3
# Si number density = 19.862044 Si / 1000 Ang^3
#
#
#
# Elastic Constant Matrix: (Units=GPa)
#
#
# Indices 1 2 3 4 5 6 
#
# 1 58.2684 21.3216 14.8986 0.0000 0.0000 0.0000
# 2 21.3216 85.5957 47.5127 0.0000 0.0000 0.0000
# 3 14.8986 47.5127 110.0422 0.0000 0.0000 0.0000
# 4 0.0000 0.0000 0.0000 30.2440 0.0000 0.0000
# 5 0.0000 0.0000 0.0000 0.0000 34.2729 0.0000
# 6 0.0000 0.0000 0.0000 0.0000 0.0000 25.2228
#
#
#
# Elastic Compliance Matrix: (Units=1/GPa)
#
#
# Indices 1 2 3 4 5 6 
#
# 1 0.018923 -0.004329 -0.000693 0.000000 0.000000 0.000000
# 2 -0.004329 0.016356 -0.006476 0.000000 0.000000 0.000000
# 3 -0.000693 -0.006476 0.011977 0.000000 0.000000 0.000000
# 4 0.000000 0.000000 0.000000 0.033064 0.000000 0.000000
# 5 0.000000 0.000000 0.000000 0.000000 0.029178 0.000000
# 6 0.000000 0.000000 0.000000 0.000000 0.000000 0.039647
#
#
# Mechanical properties :
#
#
# Convention : Reuss Voigt Hill
#
# Bulk Modulus (GPa) = 41.21877 46.81912 44.01894
# Shear Modulus (GPa) = 27.74274 29.29285 28.51780
#
# Velocity S-wave (km/s) = 3.74140 3.84450 3.79330
# Velocity P-wave (km/s) = 6.28185 6.58257 6.43397
#
# Compressibility (1/GPa) = 0.02426079
#
# Stress axis : x y z
#
# Youngs Moduli (GPa) = 52.84508 61.14044 83.49159
#
# Poissons Ratio (x) = 0.26468 0.05785
# Poissons Ratio (y) = 0.22877 0.54067
# Poissons Ratio (z) = 0.03661 0.39593
#
# Static dielectric constant tensor:
#      x y z
#    x 3.480750 0.000000 0.000000 
#    y 0.000000 3.554380 0.000000 
#    z 0.000000 0.000000 3.685410 
# 
# 
# High freq. dielectric constant tensor:
#      x y z
#    x 1.769990 0.000000 0.000000 
#    y 0.000000 1.762940 0.000000 
#    z 0.000000 0.000000 1.780020 
# 
# From -- ./inp_files/12707.got.cif
#   From: 2010.03.12/outbox.cif.g09.slc.cpg/sg38_7_cif.got.tgz:12707.got - 2010.04.14 02:38:36.
