data_PCOD8179033
_publ_section_title
;
Structure prediction by ZEFSAII (Michael W. Deem and Ramdas Pophale) SiO2 
 PCOD8179033
Probable space group: A M M 2
;
_chemical_formula_sum "Si O2"
_cell_formula_units_Z 56
_cell_length_a 13.905407
_cell_length_b 9.393941
_cell_length_c 22.480317
_cell_angle_alpha 90.000000
_cell_angle_beta 90.000000
_cell_angle_gamma 90.000000
_cell_volume 2936.526768
_symmetry_space_group_name_H-M "A M M 2"
_symmetry_group_IT_number 38
_symmetry_cell_setting 'orthorhombic'
loop_
_space_group_symop_operation_xyz
x,y,z
-x,-y,z
-x,y,z
x,-y,z
x,1/2+y,1/2+z
-x,1/2-y,1/2+z
-x,1/2+y,1/2+z
x,1/2-y,1/2+z
loop_
_atom_site_type_symbol
_atom_site_label
_atom_site_fract_x
_atom_site_fract_y
_atom_site_fract_z
Si Si1 0.153675 0.654678 0.966290
Si Si2 0.394682 0.157209 0.906284
Si Si3 0.000000 0.833691 0.024582
Si Si4 0.357918 0.661436 0.019422
Si Si5 0.248334 0.162762 0.342927
Si Si6 0.201191 0.833276 0.211477
Si Si7 0.000000 0.170082 0.158023
Si Si8 0.390684 0.666528 0.638961
O O1 0.102733 0.500000 0.972290
O O2 0.174308 0.682843 0.896967
O O3 0.244945 0.655749 0.008899
O O4 0.091453 0.784148 0.988345
O O5 0.500000 0.138732 0.879536
O O6 0.337161 0.233862 0.853905
O O7 0.350729 0.000000 0.920569
O O8 0.403116 0.251526 0.965336
O O9 0.000000 0.771789 0.090894
O O10 0.000000 0.000000 0.027483
O O11 0.399326 0.500000 0.021185
O O12 0.383830 0.741538 0.079582
O O13 0.199806 0.207102 0.281013
O O14 0.285747 0.000000 0.340607
O O15 0.100318 0.768753 0.186067
O O16 0.302498 0.780013 0.181752
O O17 0.197136 0.000000 0.201168
O O18 0.000000 0.000000 0.162695
O O19 0.500000 0.689366 0.665812
O O20 0.376574 0.500000 0.623737
#
# Coordination Sequence:
#
# PCOD8179033 Si02
#       8
#     8   8   4   8   8   8   4   8
#     4   9  19  34  51  75 106 135 167 216 274 322
#     4  10  20  33  51  76 106 140 175 217 273 327
#     4  11  21  32  53  83 107 133 172 215 266 327
#     4  10  20  34  53  77 105 140 182 224 268 321
#     4   9  19  35  55  78 102 135 179 222 266 318
#     4   9  18  34  55  78 105 140 183 224 265 316
#     4   9  18  32  53  81 107 133 174 227 268 307
#     4  10  20  33  51  78 112 146 178 219 273 327
#
# _framework density 19.070148
#
# number of rings (size 3 to 8) (size 9 to 14) (size 15 to 20)
#    0.000    2.429    0.000    3.214    0.000    8.286 
#    0.000    4.286    0.000    1.714    0.000    0.000 
#    0.000    0.000    0.000    0.000    0.000    0.000 
#
# Total GULP energy -346915.032315 kJ/mol
# GULP energy per Si atom -12389.822583 kJ/mol
# Density = 1.902674 g / cm^3
# Si number density = 19.070148 Si / 1000 Ang^3
#
#
#
# Elastic Constant Matrix: (Units=GPa)
#
#
# Indices 1 2 3 4 5 6 
#
# 1 137.0839 38.1457 63.1636 0.0000 0.0000 0.0000
# 2 38.1457 81.1693 43.6088 0.0000 0.0000 0.0000
# 3 63.1636 43.6088 105.5631 0.0000 0.0000 0.0000
# 4 0.0000 0.0000 0.0000 26.2018 0.0000 0.0000
# 5 0.0000 0.0000 0.0000 0.0000 -68.6714 0.0000
# 6 0.0000 0.0000 0.0000 0.0000 0.0000 59.3405
#
#
#
# Elastic Compliance Matrix: (Units=1/GPa)
#
#
# Indices 1 2 3 4 5 6 
#
# 1 0.010310 -0.001968 -0.005356 0.000000 0.000000 0.000000
# 2 -0.001968 0.016210 -0.005519 0.000000 0.000000 0.000000
# 3 -0.005356 -0.005519 0.014958 0.000000 0.000000 0.000000
# 4 0.000000 0.000000 0.000000 0.038165 0.000000 0.000000
# 5 0.000000 0.000000 0.000000 0.000000 -0.014562 0.000000
# 6 0.000000 0.000000 0.000000 0.000000 0.000000 0.016852
#
#
# Mechanical properties :
#
#
# Convention : Reuss Voigt Hill
#
# Bulk Modulus (GPa) = 63.32313 68.18361 65.75337
# Shear Modulus (GPa) = 44.29360 15.30073 29.79716
#
# Velocity S-wave (km/s) = 4.82463 2.83563 3.95714
# Velocity P-wave (km/s) = 8.01957 6.82296 7.44535
#
# Compressibility (1/GPa) = 0.01579202
#
# Stress axis : x y z
#
# Youngs Moduli (GPa) = 96.98993 61.69119 66.85428
#
# Poissons Ratio (x) = 0.12139 0.35809
# Poissons Ratio (y) = 0.19084 0.36897
# Poissons Ratio (z) = 0.51951 0.34047
#
# Static dielectric constant tensor:
#      x y z
#    x 4.463350 0.000000 0.000000 
#    y 0.000000 3.443640 0.000000 
#    z 0.000000 0.000000 3.441440 
# 
# 
# High freq. dielectric constant tensor:
#      x y z
#    x 1.748670 0.000000 0.000000 
#    y 0.000000 1.723220 0.000000 
#    z 0.000000 0.000000 1.732680 
# 
# From -- ./inp_files/21151.got.cif
#   From: 2010.03.12/outbox.cif.g09.slc.cpg/sg38_11_cif.got.tgz:21151.got - 2010.04.14 02:38:36.
