data_PCOD8179277
_publ_section_title
;
Structure prediction by ZEFSAII (Michael W. Deem and Ramdas Pophale) SiO2 
 PCOD8179277
Probable space group: A M M 2
;
_chemical_formula_sum "Si O2"
_cell_formula_units_Z 56
_cell_length_a 21.480603
_cell_length_b 8.823967
_cell_length_c 15.337764
_cell_angle_alpha 90.000000
_cell_angle_beta 90.000000
_cell_angle_gamma 90.000000
_cell_volume 2907.183164
_symmetry_space_group_name_H-M "A M M 2"
_symmetry_group_IT_number 38
_symmetry_cell_setting 'orthorhombic'
loop_
_space_group_symop_operation_xyz
x,y,z
-x,-y,z
-x,y,z
x,-y,z
x,1/2+y,1/2+z
-x,1/2-y,1/2+z
-x,1/2+y,1/2+z
x,1/2-y,1/2+z
loop_
_atom_site_type_symbol
_atom_site_label
_atom_site_fract_x
_atom_site_fract_y
_atom_site_fract_z
Si Si1 0.151794 0.679556 0.563660
Si Si2 0.500000 0.820746 0.162886
Si Si3 0.931043 0.680074 0.719672
Si Si4 0.707825 0.321116 0.571374
Si Si5 0.379647 0.326233 0.413624
Si Si6 0.373769 0.825804 0.717687
Si Si7 0.071868 0.176847 0.415324
Si Si8 0.500000 0.176933 0.475559
O O1 0.151753 0.500000 0.566520
O O2 0.117375 0.746692 0.649322
O O3 0.222143 0.741494 0.562387
O O4 0.116499 0.729621 0.477390
O O5 0.560549 0.757230 0.210057
O O6 0.500000 0.000000 0.170524
O O7 0.500000 0.774926 0.062591
O O8 0.932890 0.500000 0.715433
O O9 0.911551 0.729414 0.817024
O O10 0.000000 0.743395 0.697627
O O11 0.706418 0.500000 0.585182
O O12 0.671268 0.273363 0.484089
O O13 0.677702 0.246534 0.655965
O O14 0.399944 0.500000 0.430851
O O15 0.350377 0.308923 0.317329
O O16 0.439412 0.218537 0.419866
O O17 0.383170 0.000000 0.691070
O O18 0.000000 0.214542 0.436239
O O19 0.084944 0.000000 0.428215
O O20 0.500000 0.000000 0.498111
#
# Coordination Sequence:
#
# PCOD8179277 Si02
#       8
#     8   4   8   8   8   8   8   4
#     4  10  20  34  55  81 108 144 191 229 270 328
#     4  12  23  38  61  86 116 146 173 227 298 337
#     4   8  15  30  52  77 107 142 179 224 277 330
#     4  10  22  39  56  78 112 153 187 226 282 335
#     4  10  22  40  59  80 114 153 182 226 293 337
#     4  11  23  39  60  85 110 145 193 233 274 337
#     4   9  18  33  53  78 108 142 179 223 282 338
#     4  12  23  36  61  92 114 140 189 235 270 333
#
# _framework density 19.262633000000001
#
# number of rings (size 3 to 8) (size 9 to 14) (size 15 to 20)
#    0.000    2.000    1.429    3.429    0.000    5.429 
#    0.000    0.714    0.000    0.857    0.000    0.000 
#    0.000    0.000    0.000    0.000    0.000    0.000 
#
# Total GULP energy -347239.500156 kJ/mol
# GULP energy per Si atom -12401.410720 kJ/mol
# Density = 1.921879 g / cm^3
# Si number density = 19.262633 Si / 1000 Ang^3
#
#
#
# Elastic Constant Matrix: (Units=GPa)
#
#
# Indices 1 2 3 4 5 6 
#
# 1 151.0151 33.6182 81.7086 0.0000 0.0000 0.0000
# 2 33.6182 40.3160 25.0042 0.0000 0.0000 0.0000
# 3 81.7086 25.0042 142.9921 0.0000 0.0000 0.0000
# 4 0.0000 0.0000 0.0000 28.0476 0.0000 0.0000
# 5 0.0000 0.0000 0.0000 0.0000 13.0216 0.0000
# 6 0.0000 0.0000 0.0000 0.0000 0.0000 19.9010
#
#
#
# Elastic Compliance Matrix: (Units=1/GPa)
#
#
# Indices 1 2 3 4 5 6 
#
# 1 0.010646 -0.005725 -0.005082 0.000000 0.000000 0.000000
# 2 -0.005725 0.030900 -0.002132 0.000000 0.000000 0.000000
# 3 -0.005082 -0.002132 0.010270 0.000000 0.000000 0.000000
# 4 0.000000 0.000000 0.000000 0.035654 0.000000 0.000000
# 5 0.000000 0.000000 0.000000 0.000000 0.076796 0.000000
# 6 0.000000 0.000000 0.000000 0.000000 0.000000 0.050249
#
#
# Mechanical properties :
#
#
# Convention : Reuss Voigt Hill
#
# Bulk Modulus (GPa) = 38.55357 68.33170 53.44264
# Shear Modulus (GPa) = 20.07709 25.12686 22.60197
#
# Velocity S-wave (km/s) = 3.23194 3.61561 3.42915
# Velocity P-wave (km/s) = 5.82970 7.27880 6.59418
#
# Compressibility (1/GPa) = 0.02593793
#
# Stress axis : x y z
#
# Youngs Moduli (GPa) = 93.92945 32.36202 97.36819
#
# Poissons Ratio (x) = 0.18529 0.49486
# Poissons Ratio (y) = 0.53779 0.20756
# Poissons Ratio (z) = 0.47738 0.06899
#
# Static dielectric constant tensor:
#      x y z
#    x 3.695530 0.000000 0.000000 
#    y 0.000000 3.302460 0.000000 
#    z 0.000000 0.000000 3.694940 
# 
# 
# High freq. dielectric constant tensor:
#      x y z
#    x 1.745860 0.000000 0.000000 
#    y 0.000000 1.729750 0.000000 
#    z 0.000000 0.000000 1.764650 
# 
# From -- ./inp_files/15520.got.cif
#   From: 2010.03.12/outbox.cif.g09.slc.cpg/sg38_8_cif.got.tgz:15520.got - 2010.04.14 02:38:36.
