data_PCOD8179797
_publ_section_title
;
Structure prediction by ZEFSAII (Michael W. Deem and Ramdas Pophale) SiO2 
 PCOD8179797
Probable space group: A M M 2
;
_chemical_formula_sum "Si O2"
_cell_formula_units_Z 48
_cell_length_a 8.667567
_cell_length_b 18.410173
_cell_length_c 14.857993
_cell_angle_alpha 90.000000
_cell_angle_beta 90.000000
_cell_angle_gamma 90.000000
_cell_volume 2370.910862
_symmetry_space_group_name_H-M "A M M 2"
_symmetry_group_IT_number 38
_symmetry_cell_setting 'orthorhombic'
loop_
_space_group_symop_operation_xyz
x,y,z
-x,-y,z
-x,y,z
x,-y,z
x,1/2+y,1/2+z
-x,1/2-y,1/2+z
-x,1/2+y,1/2+z
x,1/2-y,1/2+z
loop_
_atom_site_type_symbol
_atom_site_label
_atom_site_fract_x
_atom_site_fract_y
_atom_site_fract_z
Si Si1 0.322974 0.500000 0.358261
Si Si2 0.322794 0.422640 0.852301
Si Si3 0.683232 0.770614 0.287336
Si Si4 0.323519 0.118527 0.550954
Si Si5 0.179354 0.737723 0.592455
Si Si6 0.179521 0.500000 0.170739
Si Si7 0.679406 0.656029 0.436331
O O1 0.500000 0.500000 0.323088
O O2 0.203530 0.500000 0.276909
O O3 0.289806 0.428348 0.416484
O O4 0.500000 0.420818 0.822342
O O5 0.249890 0.500000 0.817306
O O6 0.243673 0.349676 0.813443
O O7 0.309598 0.426307 0.959751
O O8 0.500000 0.772814 0.294610
O O9 0.732362 0.754501 0.186419
O O10 0.743667 0.707621 0.355305
O O11 0.500000 0.140336 0.571744
O O12 0.220739 0.190007 0.537377
O O13 0.259625 0.071812 0.633065
O O14 0.234096 0.670886 0.530560
O O15 0.000000 0.730449 0.612380
O O16 0.000000 0.500000 0.146289
O O17 0.500000 0.672464 0.451116
#
# Coordination Sequence:
#
# PCOD8179797 Si02
#       7
#     4   8   8   8   8   4   8
#     4  10  22  40  64  91 118 159 214 261 303 359
#     4   9  17  33  60  91 115 145 195 251 298 343
#     4  10  20  38  64  89 118 158 207 255 301 363
#     4  11  20  37  63  88 119 159 206 252 298 361
#     4  12  25  39  59  90 126 163 202 251 316 378
#     4  12  24  36  56  95 134 161 194 247 321 381
#     4  10  21  41  66  90 117 157 210 261 305 359
#
# _framework density 20.245384000000001
#
# number of rings (size 3 to 8) (size 9 to 14) (size 15 to 20)
#    0.000    1.500    2.500    3.750    0.000    2.667 
#    1.500    0.000    0.000    0.000    0.000    0.000 
#    0.000    0.000    0.000    0.000    0.000    0.000 
#
# Total GULP energy -297553.203581 kJ/mol
# GULP energy per Si atom -12398.050149 kJ/mol
# Density = 2.019930 g / cm^3
# Si number density = 20.245384 Si / 1000 Ang^3
#
#
#
# Elastic Constant Matrix: (Units=GPa)
#
#
# Indices 1 2 3 4 5 6 
#
# 1 38.0703 22.6906 17.1463 0.0000 0.0000 0.0000
# 2 22.6906 152.7243 29.7414 0.0000 0.0000 0.0000
# 3 17.1463 29.7414 75.5546 0.0000 0.0000 0.0000
# 4 0.0000 0.0000 0.0000 28.4513 0.0000 0.0000
# 5 0.0000 0.0000 0.0000 0.0000 9.6708 0.0000
# 6 0.0000 0.0000 0.0000 0.0000 0.0000 17.2450
#
#
#
# Elastic Compliance Matrix: (Units=1/GPa)
#
#
# Indices 1 2 3 4 5 6 
#
# 1 0.030886 -0.003491 -0.005635 0.000000 0.000000 0.000000
# 2 -0.003491 0.007486 -0.002154 0.000000 0.000000 0.000000
# 3 -0.005635 -0.002154 0.015362 0.000000 0.000000 0.000000
# 4 0.000000 0.000000 0.000000 0.035148 0.000000 0.000000
# 5 0.000000 0.000000 0.000000 0.000000 0.103404 0.000000
# 6 0.000000 0.000000 0.000000 0.000000 0.000000 0.057988
#
#
# Mechanical properties :
#
#
# Convention : Reuss Voigt Hill
#
# Bulk Modulus (GPa) = 32.07924 45.05620 38.56772
# Shear Modulus (GPa) = 17.65371 24.19148 20.92260
#
# Velocity S-wave (km/s) = 2.95615 3.46050 3.21822
# Velocity P-wave (km/s) = 5.24703 6.18629 5.73592
#
# Compressibility (1/GPa) = 0.03117281
#
# Stress axis : x y z
#
# Youngs Moduli (GPa) = 32.37707 133.58189 65.09432
#
# Poissons Ratio (x) = 0.46640 0.36680
# Poissons Ratio (y) = 0.11304 0.14024
# Poissons Ratio (z) = 0.18244 0.28780
#
# Static dielectric constant tensor:
#      x y z
#    x 3.354920 0.000000 0.000000 
#    y 0.000000 3.900730 0.000000 
#    z 0.000000 0.000000 3.491650 
# 
# 
# High freq. dielectric constant tensor:
#      x y z
#    x 1.757280 0.000000 0.000000 
#    y 0.000000 1.809020 0.000000 
#    z 0.000000 0.000000 1.781390 
# 
# From -- ./inp_files/12085.got.cif
#   From: 2010.03.12/outbox.cif.g09.slc.cpg/sg38_7_cif.got.tgz:12085.got - 2010.04.14 02:38:36.
