data_PCOD8179228
_publ_section_title
;
Structure prediction by ZEFSAII (Michael W. Deem and Ramdas Pophale) SiO2 
 PCOD8179228
Probable space group: A M M 2
;
_chemical_formula_sum "Si O2"
_cell_formula_units_Z 64
_cell_length_a 8.917884
_cell_length_b 19.923639
_cell_length_c 19.728974
_cell_angle_alpha 90.000000
_cell_angle_beta 90.000000
_cell_angle_gamma 90.000000
_cell_volume 3505.379024
_symmetry_space_group_name_H-M "A M M 2"
_symmetry_group_IT_number 38
_symmetry_cell_setting 'orthorhombic'
loop_
_space_group_symop_operation_xyz
x,y,z
-x,-y,z
-x,y,z
x,-y,z
x,1/2+y,1/2+z
-x,1/2-y,1/2+z
-x,1/2+y,1/2+z
x,1/2-y,1/2+z
loop_
_atom_site_type_symbol
_atom_site_label
_atom_site_fract_x
_atom_site_fract_y
_atom_site_fract_z
Si Si1 0.322342 0.426325 0.869280
Si Si2 0.174341 0.682661 0.623504
Si Si3 0.674476 0.921922 0.863476
Si Si4 0.824760 0.674638 0.467397
Si Si5 0.823780 0.577534 0.224152
Si Si6 0.327909 0.078302 0.216514
Si Si7 0.675633 0.811990 0.467841
Si Si8 0.325125 0.820092 0.624651
O O1 0.500000 0.430483 0.874578
O O2 0.255041 0.500000 0.886358
O O3 0.277908 0.405060 0.793224
O O4 0.259518 0.372746 0.922711
O O5 0.213878 0.664755 0.546228
O O6 0.219761 0.618954 0.667497
O O7 0.264495 0.747937 0.648795
O O8 0.000000 0.698450 0.632394
O O9 0.500000 0.905616 0.857240
O O10 0.742071 0.883921 0.927453
O O11 0.752742 0.897176 0.794527
O O12 0.706042 0.000000 0.875805
O O13 0.763620 0.746438 0.443217
O O14 0.000000 0.670564 0.452297
O O15 0.781858 0.500000 0.210826
O O16 0.758107 0.620177 0.162730
O O17 0.000000 0.588688 0.228512
O O18 0.500000 0.099593 0.204093
O O19 0.306466 0.000000 0.201019
O O20 0.500000 0.799515 0.455643
O O21 0.709605 0.830023 0.545439
O O22 0.500000 0.823948 0.641187
#
# Coordination Sequence:
#
# PCOD8179228 Si02
#       8
#     8   8   8   8   8   8   8   8
#     4   8  15  30  52  77 103 131 165 206 253 302
#     4  10  21  36  53  74 104 141 178 217 262 314
#     4  10  21  37  57  80 105 134 172 218 263 311
#     4  10  21  36  53  74 104 140 174 212 261 315
#     4  10  21  37  56  78 107 141 174 212 261 317
#     4   9  18  33  53  76 103 135 171 214 263 313
#     4   9  18  33  54  78 104 136 175 218 258 302
#     4  10  20  34  54  79 106 137 175 219 263 308
#
# _framework density 18.257655
#
# number of rings (size 3 to 8) (size 9 to 14) (size 15 to 20)
#    0.000    2.500    0.000    2.625    0.000    5.750 
#    0.000    8.125    0.000    1.125    0.000    0.000 
#    0.000    0.000    0.000    0.000    0.000    0.000 
#
# Total GULP energy -396882.772069 kJ/mol
# GULP energy per Si atom -12402.586627 kJ/mol
# Density = 1.821610 g / cm^3
# Si number density = 18.257655 Si / 1000 Ang^3
#
#
#
# Elastic Constant Matrix: (Units=GPa)
#
#
# Indices 1 2 3 4 5 6 
#
# 1 78.8067 48.6926 44.8916 0.0000 0.0000 0.0000
# 2 48.6926 102.8034 70.2033 0.0000 0.0000 0.0000
# 3 44.8916 70.2033 91.7293 0.0000 0.0000 0.0000
# 4 0.0000 0.0000 0.0000 33.5360 0.0000 0.0000
# 5 0.0000 0.0000 0.0000 0.0000 28.6900 0.0000
# 6 0.0000 0.0000 0.0000 0.0000 0.0000 28.7263
#
#
#
# Elastic Compliance Matrix: (Units=1/GPa)
#
#
# Indices 1 2 3 4 5 6 
#
# 1 0.018994 -0.005548 -0.005049 0.000000 0.000000 0.000000
# 2 -0.005548 0.021998 -0.014120 0.000000 0.000000 0.000000
# 3 -0.005049 -0.014120 0.024179 0.000000 0.000000 0.000000
# 4 0.000000 0.000000 0.000000 0.029819 0.000000 0.000000
# 5 0.000000 0.000000 0.000000 0.000000 0.034855 0.000000
# 6 0.000000 0.000000 0.000000 0.000000 0.000000 0.034811
#
#
# Mechanical properties :
#
#
# Convention : Reuss Voigt Hill
#
# Bulk Modulus (GPa) = 63.55093 66.76826 65.15960
# Shear Modulus (GPa) = 22.79601 25.49392 24.14496
#
# Velocity S-wave (km/s) = 3.53735 3.74082 3.64051
# Velocity P-wave (km/s) = 7.18103 7.43691 7.31009
#
# Compressibility (1/GPa) = 0.01573541
#
# Stress axis : x y z
#
# Youngs Moduli (GPa) = 52.64931 45.45891 41.35776
#
# Poissons Ratio (x) = 0.25222 0.20881
# Poissons Ratio (y) = 0.29212 0.58398
# Poissons Ratio (z) = 0.26582 0.64189
#
# Static dielectric constant tensor:
#      x y z
#    x 3.303000 0.000000 0.000000 
#    y 0.000000 3.503420 0.000000 
#    z 0.000000 0.000000 3.391100 
# 
# 
# High freq. dielectric constant tensor:
#      x y z
#    x 1.703370 0.000000 0.000000 
#    y 0.000000 1.711420 0.000000 
#    z 0.000000 0.000000 1.708390 
# 
# From -- ./inp_files/17159.got.cif
#   From: 2010.03.12/outbox.cif.g09.slc.cpg/sg38_9_cif.got.tgz:17159.got - 2010.04.14 02:38:36.
