data_PCOD8179241
_publ_section_title
;
Structure prediction by ZEFSAII (Michael W. Deem and Ramdas Pophale) SiO2 
 PCOD8179241
Probable space group: A M M 2
;
_chemical_formula_sum "Si O2"
_cell_formula_units_Z 56
_cell_length_a 19.500276
_cell_length_b 8.904594
_cell_length_c 15.979121
_cell_angle_alpha 90.000000
_cell_angle_beta 90.000000
_cell_angle_gamma 90.000000
_cell_volume 2774.647179
_symmetry_space_group_name_H-M "A M M 2"
_symmetry_group_IT_number 38
_symmetry_cell_setting 'orthorhombic'
loop_
_space_group_symop_operation_xyz
x,y,z
-x,-y,z
-x,y,z
x,-y,z
x,1/2+y,1/2+z
-x,1/2-y,1/2+z
-x,1/2+y,1/2+z
x,1/2-y,1/2+z
loop_
_atom_site_type_symbol
_atom_site_label
_atom_site_fract_x
_atom_site_fract_y
_atom_site_fract_z
Si Si1 0.843988 0.677749 0.406230
Si Si2 0.077575 0.178520 0.071311
Si Si3 0.283873 0.324535 0.976361
Si Si4 0.717271 0.672204 0.165702
Si Si5 0.157102 0.822836 0.235843
Si Si6 0.424541 0.828417 0.738810
Si Si7 0.425936 0.823029 0.412110
O O1 0.847919 0.500000 0.399189
O O2 0.887010 0.738476 0.486081
O O3 0.765445 0.730146 0.416158
O O4 0.873497 0.748422 0.320266
O O5 0.115337 0.238116 0.155029
O O6 0.000000 0.239106 0.072847
O O7 0.079973 0.000000 0.071121
O O8 0.278486 0.500000 0.952587
O O9 0.361658 0.263150 0.965604
O O10 0.261234 0.294174 0.070954
O O11 0.732219 0.500000 0.189874
O O12 0.763215 0.776524 0.225315
O O13 0.636234 0.708653 0.173923
O O14 0.150895 0.000000 0.244993
O O15 0.500000 0.801598 0.697110
O O16 0.414095 0.719764 0.816445
O O17 0.418859 0.000000 0.770023
O O18 0.500000 0.757606 0.443542
O O19 0.428342 0.000000 0.419442
#
# Coordination Sequence:
#
# PCOD8179241 Si02
#       7
#     8   8   8   8   8   8   8
#     4  11  22  38  61  88 117 153 192 233 282 337
#     4   9  20  40  63  87 118 153 188 228 279 339
#     4  10  20  34  54  80 111 146 188 239 286 334
#     4  10  20  34  54  80 111 146 188 239 286 334
#     4  11  22  38  61  88 117 153 192 233 282 337
#     4   9  18  32  49  71 101 140 185 232 282 334
#     4   9  18  32  49  71 101 140 185 232 282 334
#
# _framework density 20.182746000000002
#
# number of rings (size 3 to 8) (size 9 to 14) (size 15 to 20)
#    0.000    2.143    1.429    1.714    0.000    4.571 
#    0.000    2.857    0.000    6.000    0.000    6.000 
#    0.000    0.000    0.000    0.000    0.000    0.000 
#
# Total GULP energy -347108.831996 kJ/mol
# GULP energy per Si atom -12396.744000 kJ/mol
# Density = 2.013681 g / cm^3
# Si number density = 20.182746 Si / 1000 Ang^3
#
#
#
# Elastic Constant Matrix: (Units=GPa)
#
#
# Indices 1 2 3 4 5 6 
#
# 1 127.7689 29.0850 61.0768 0.0000 0.0000 0.0000
# 2 29.0850 37.0521 33.9549 0.0000 0.0000 0.0000
# 3 61.0768 33.9549 132.8962 0.0000 0.0000 0.0000
# 4 0.0000 0.0000 0.0000 28.5237 0.0000 0.0000
# 5 0.0000 0.0000 0.0000 0.0000 29.1720 0.0000
# 6 0.0000 0.0000 0.0000 0.0000 0.0000 20.9565
#
#
#
# Elastic Compliance Matrix: (Units=1/GPa)
#
#
# Indices 1 2 3 4 5 6 
#
# 1 0.010719 -0.005092 -0.003625 0.000000 0.000000 0.000000
# 2 -0.005092 0.037659 -0.007282 0.000000 0.000000 0.000000
# 3 -0.003625 -0.007282 0.011051 0.000000 0.000000 0.000000
# 4 0.000000 0.000000 0.000000 0.035059 0.000000 0.000000
# 5 0.000000 0.000000 0.000000 0.000000 0.034279 0.000000
# 6 0.000000 0.000000 0.000000 0.000000 0.000000 0.047718
#
#
# Mechanical properties :
#
#
# Convention : Reuss Voigt Hill
#
# Bulk Modulus (GPa) = 36.45441 60.66116 48.55779
# Shear Modulus (GPa) = 22.97519 27.30379 25.13949
#
# Velocity S-wave (km/s) = 3.37762 3.68207 3.53313
# Velocity P-wave (km/s) = 5.77169 6.94248 6.38398
#
# Compressibility (1/GPa) = 0.02743152
#
# Stress axis : x y z
#
# Youngs Moduli (GPa) = 93.29564 26.55406 90.48768
#
# Poissons Ratio (x) = 0.13521 0.32803
# Poissons Ratio (y) = 0.47503 0.65891
# Poissons Ratio (z) = 0.33821 0.19336
#
# Static dielectric constant tensor:
#      x y z
#    x 3.920710 0.000000 0.000000 
#    y 0.000000 3.389780 0.000000 
#    z 0.000000 0.000000 3.688800 
# 
# 
# High freq. dielectric constant tensor:
#      x y z
#    x 1.794750 0.000000 0.000000 
#    y 0.000000 1.761630 0.000000 
#    z 0.000000 0.000000 1.785220 
# 
# From -- ./inp_files/15499.got.cif
#   From: 2010.03.12/outbox.cif.g09.slc.cpg/sg38_8_cif.got.tgz:15499.got - 2010.04.14 02:38:36.
