data_PCOD8179629
_publ_section_title
;
Structure prediction by ZEFSAII (Michael W. Deem and Ramdas Pophale) SiO2 
 PCOD8179629
Probable space group: A M M 2
;
_chemical_formula_sum "Si O2"
_cell_formula_units_Z 48
_cell_length_a 19.052169
_cell_length_b 8.446674
_cell_length_c 14.977053
_cell_angle_alpha 90.000000
_cell_angle_beta 90.000000
_cell_angle_gamma 90.000000
_cell_volume 2410.219106
_symmetry_space_group_name_H-M "A M M 2"
_symmetry_group_IT_number 38
_symmetry_cell_setting 'orthorhombic'
loop_
_space_group_symop_operation_xyz
x,y,z
-x,-y,z
-x,y,z
x,-y,z
x,1/2+y,1/2+z
-x,1/2-y,1/2+z
-x,1/2+y,1/2+z
x,1/2-y,1/2+z
loop_
_atom_site_type_symbol
_atom_site_label
_atom_site_fract_x
_atom_site_fract_y
_atom_site_fract_z
Si Si1 0.323772 0.313124 0.575820
Si Si2 0.832507 0.682393 0.337274
Si Si3 0.172237 0.683269 0.647084
Si Si4 0.316651 0.684996 0.885340
Si Si5 0.080926 0.317181 0.993506
Si Si6 0.421887 0.812388 0.235184
O O1 0.325838 0.500000 0.557308
O O2 0.248140 0.260768 0.612792
O O3 0.340237 0.218686 0.485873
O O4 0.382495 0.256996 0.645724
O O5 0.847809 0.500000 0.357446
O O6 0.848940 0.718578 0.234339
O O7 0.752446 0.718528 0.361021
O O8 0.883790 0.785919 0.398184
O O9 0.174320 0.500000 0.673603
O O10 0.115677 0.711488 0.570170
O O11 0.301365 0.500000 0.870189
O O12 0.378974 0.746105 0.821482
O O13 0.091021 0.500000 0.018834
O O14 0.000000 0.269234 0.986704
O O15 0.500000 0.737858 0.237230
O O16 0.426492 0.000000 0.236411
#
# Coordination Sequence:
#
# PCOD8179629 Si02
#       6
#     8   8   8   8   8   8
#     4  10  20  36  59  89 118 155 202 246 298 361
#     4  12  24  39  63  92 123 162 207 252 300 359
#     4  11  22  39  64  93 123 159 202 250 302 361
#     4  11  21  36  60  89 120 157 204 253 302 360
#     4  11  25  44  65  92 125 159 199 251 308 363
#     4   9  19  37  59  84 120 162 200 245 303 362
#
# _framework density 19.915203000000002
#
# number of rings (size 3 to 8) (size 9 to 14) (size 15 to 20)
#    0.000    1.333    3.333    3.000    0.000    3.333 
#    0.000    0.000    0.000    3.500    0.000    0.000 
#    0.000    0.000    0.000    0.000    0.000    0.000 
#
# Total GULP energy -297741.774203 kJ/mol
# GULP energy per Si atom -12405.907258 kJ/mol
# Density = 1.986988 g / cm^3
# Si number density = 19.915203 Si / 1000 Ang^3
#
#
#
# Elastic Constant Matrix: (Units=GPa)
#
#
# Indices 1 2 3 4 5 6 
#
# 1 152.7988 15.7343 59.6691 0.0000 0.0000 0.0000
# 2 15.7343 40.4475 11.2251 0.0000 0.0000 0.0000
# 3 59.6691 11.2251 137.6781 0.0000 0.0000 0.0000
# 4 0.0000 0.0000 0.0000 35.3306 0.0000 0.0000
# 5 0.0000 0.0000 0.0000 0.0000 28.7318 0.0000
# 6 0.0000 0.0000 0.0000 0.0000 0.0000 20.1131
#
#
#
# Elastic Compliance Matrix: (Units=1/GPa)
#
#
# Indices 1 2 3 4 5 6 
#
# 1 0.008068 -0.002218 -0.003316 0.000000 0.000000 0.000000
# 2 -0.002218 0.025906 -0.001151 0.000000 0.000000 0.000000
# 3 -0.003316 -0.001151 0.008794 0.000000 0.000000 0.000000
# 4 0.000000 0.000000 0.000000 0.028304 0.000000 0.000000
# 5 0.000000 0.000000 0.000000 0.000000 0.034805 0.000000
# 6 0.000000 0.000000 0.000000 0.000000 0.000000 0.049719
#
#
# Mechanical properties :
#
#
# Convention : Reuss Voigt Hill
#
# Bulk Modulus (GPa) = 34.01564 56.02014 45.01789
# Shear Modulus (GPa) = 27.96984 33.12148 30.54566
#
# Velocity S-wave (km/s) = 3.75166 4.08257 3.92061
# Velocity P-wave (km/s) = 5.99032 7.10025 6.56877
#
# Compressibility (1/GPa) = 0.02939824
#
# Stress axis : x y z
#
# Youngs Moduli (GPa) = 123.94987 38.60163 113.71196
#
# Poissons Ratio (x) = 0.08563 0.37703
# Poissons Ratio (y) = 0.27495 0.13085
# Poissons Ratio (z) = 0.41098 0.04442
#
# Static dielectric constant tensor:
#      x y z
#    x 3.757180 0.000000 0.000000 
#    y 0.000000 3.443080 0.000000 
#    z 0.000000 0.000000 3.810980 
# 
# 
# High freq. dielectric constant tensor:
#      x y z
#    x 1.775100 0.000000 0.000000 
#    y 0.000000 1.764280 0.000000 
#    z 0.000000 0.000000 1.792450 
# 
# From -- ./inp_files/14966.got.cif
#   From: 2010.03.12/outbox.cif.g09.slc.cpg/sg38_8_cif.got.tgz:14966.got - 2010.04.14 02:38:36.
