data_PCOD8179062
_publ_section_title
;
Structure prediction by ZEFSAII (Michael W. Deem and Ramdas Pophale) SiO2 
 PCOD8179062
Probable space group: A M M 2
;
_chemical_formula_sum "Si O2"
_cell_formula_units_Z 48
_cell_length_a 9.238666
_cell_length_b 9.266878
_cell_length_c 30.744118
_cell_angle_alpha 90.000000
_cell_angle_beta 90.000000
_cell_angle_gamma 90.000000
_cell_volume 2632.114335
_symmetry_space_group_name_H-M "A M M 2"
_symmetry_group_IT_number 38
_symmetry_cell_setting 'orthorhombic'
loop_
_space_group_symop_operation_xyz
x,y,z
-x,-y,z
-x,y,z
x,-y,z
x,1/2+y,1/2+z
-x,1/2-y,1/2+z
-x,1/2+y,1/2+z
x,1/2-y,1/2+z
loop_
_atom_site_type_symbol
_atom_site_label
_atom_site_fract_x
_atom_site_fract_y
_atom_site_fract_z
Si Si1 0.665083 0.171339 0.818130
Si Si2 0.666768 0.832710 0.479953
Si Si3 0.839818 0.328849 0.235846
Si Si4 0.331751 0.667729 0.565411
Si Si5 0.170985 0.663698 0.139105
Si Si6 0.169115 0.832286 0.393464
O O1 0.500000 0.223945 0.821740
O O2 0.727661 0.227448 0.772004
O O3 0.758449 0.239465 0.856111
O O4 0.677041 0.000000 0.821841
O O5 0.500000 0.797714 0.468984
O O6 0.722237 0.743569 0.521347
O O7 0.762578 0.784159 0.439175
O O8 0.689396 0.000000 0.490958
O O9 0.849907 0.500000 0.236774
O O10 0.787453 0.282402 0.187732
O O11 0.000000 0.265061 0.245806
O O12 0.500000 0.699646 0.572935
O O13 0.297656 0.500000 0.561014
O O14 0.246443 0.729066 0.606143
O O15 0.225813 0.500000 0.131272
O O16 0.000000 0.671215 0.132559
O O17 0.000000 0.797754 0.394758
O O18 0.200538 0.000000 0.384453
#
# Coordination Sequence:
#
# PCOD8179062 Si02
#       6
#     8   8   8   8   8   8
#     4  10  20  33  52  79 107 135 169 209 253 301
#     4   9  18  34  54  73  97 133 174 213 253 298
#     4   8  15  30  51  74 101 133 170 212 254 296
#     4  10  21  35  51  75 107 138 168 206 253 304
#     4   9  18  33  54  78 102 132 172 214 254 299
#     4  10  21  36  54  77 104 134 169 209 253 302
#
# _framework density 18.23629
#
# number of rings (size 3 to 8) (size 9 to 14) (size 15 to 20)
#    0.000    2.667    0.000    2.500    0.000    5.333 
#    0.000    5.833    0.000    1.000    0.000    0.000 
#    0.000    0.000    0.000    0.000    0.000    0.000 
#
# Total GULP energy -297612.497866 kJ/mol
# GULP energy per Si atom -12400.520744 kJ/mol
# Density = 1.819478 g / cm^3
# Si number density = 18.236290 Si / 1000 Ang^3
#
#
#
# Elastic Constant Matrix: (Units=GPa)
#
#
# Indices 1 2 3 4 5 6 
#
# 1 89.7143 35.3327 77.6769 0.0000 0.0000 0.0000
# 2 35.3327 51.4035 56.9247 0.0000 0.0000 0.0000
# 3 77.6769 56.9247 168.6016 0.0000 0.0000 0.0000
# 4 0.0000 0.0000 0.0000 30.0727 0.0000 0.0000
# 5 0.0000 0.0000 0.0000 0.0000 39.2829 0.0000
# 6 0.0000 0.0000 0.0000 0.0000 0.0000 26.2455
#
#
#
# Elastic Compliance Matrix: (Units=1/GPa)
#
#
# Indices 1 2 3 4 5 6 
#
# 1 0.019474 -0.005510 -0.007111 0.000000 0.000000 0.000000
# 2 -0.005510 0.032630 -0.008478 0.000000 0.000000 0.000000
# 3 -0.007111 -0.008478 0.012070 0.000000 0.000000 0.000000
# 4 0.000000 0.000000 0.000000 0.033253 0.000000 0.000000
# 5 0.000000 0.000000 0.000000 0.000000 0.025456 0.000000
# 6 0.000000 0.000000 0.000000 0.000000 0.000000 0.038102
#
#
# Mechanical properties :
#
#
# Convention : Reuss Voigt Hill
#
# Bulk Modulus (GPa) = 45.50781 72.17641 58.84211
# Shear Modulus (GPa) = 23.75182 28.43921 26.09551
#
# Velocity S-wave (km/s) = 3.61286 3.95331 3.78692
# Velocity P-wave (km/s) = 6.51248 7.77834 7.17339
#
# Compressibility (1/GPa) = 0.02197425
#
# Stress axis : x y z
#
# Youngs Moduli (GPa) = 51.35070 30.64620 82.85019
#
# Poissons Ratio (x) = 0.16887 0.58918
# Poissons Ratio (y) = 0.28296 0.70243
# Poissons Ratio (z) = 0.36518 0.25983
#
# Static dielectric constant tensor:
#      x y z
#    x 2.984550 0.000000 0.000000 
#    y 0.000000 3.145010 0.000000 
#    z 0.000000 0.000000 3.582490 
# 
# 
# High freq. dielectric constant tensor:
#      x y z
#    x 1.706670 0.000000 0.000000 
#    y 0.000000 1.683080 0.000000 
#    z 0.000000 0.000000 1.720790 
# 
# From -- ./inp_files/24266.got.cif
#   From: 2010.03.12/outbox.cif.g09.slc.cpg/sg38_13_cif.got.tgz:24266.got - 2010.04.14 02:38:36.
