data_PCOD8179255
_publ_section_title
;
Structure prediction by ZEFSAII (Michael W. Deem and Ramdas Pophale) SiO2 
 PCOD8179255
Probable space group: A M M 2
;
_chemical_formula_sum "Si O2"
_cell_formula_units_Z 48
_cell_length_a 9.392345
_cell_length_b 7.806602
_cell_length_c 33.746584
_cell_angle_alpha 90.000000
_cell_angle_beta 90.000000
_cell_angle_gamma 90.000000
_cell_volume 2474.377131
_symmetry_space_group_name_H-M "A M M 2"
_symmetry_group_IT_number 38
_symmetry_cell_setting 'orthorhombic'
loop_
_space_group_symop_operation_xyz
x,y,z
-x,-y,z
-x,y,z
x,-y,z
x,1/2+y,1/2+z
-x,1/2-y,1/2+z
-x,1/2+y,1/2+z
x,1/2-y,1/2+z
loop_
_atom_site_type_symbol
_atom_site_label
_atom_site_fract_x
_atom_site_fract_y
_atom_site_fract_z
Si Si1 0.666347 0.500000 0.625000
Si Si2 0.168457 0.000000 0.206350
Si Si3 0.338907 0.702441 0.418332
Si Si4 0.162871 0.190591 0.761000
Si Si5 0.662384 0.303855 0.832677
Si Si6 0.835089 0.798353 0.993738
Si Si7 0.337668 0.307667 0.068161
O O1 0.500000 0.500000 0.635451
O O2 0.755575 0.500000 0.664632
O O3 0.710415 0.329829 0.600899
O O4 0.219963 0.830516 0.229836
O O5 0.000000 0.000000 0.199330
O O6 0.500000 0.766602 0.426459
O O7 0.333307 0.500000 0.415115
O O8 0.279532 0.779514 0.377262
O O9 0.238475 0.768924 0.453578
O O10 0.247668 0.193040 0.802061
O O11 0.000000 0.232879 0.771326
O O12 0.179333 0.000000 0.742500
O O13 0.500000 0.238673 0.831000
O O14 0.675929 0.500000 0.819884
O O15 0.763206 0.703388 0.030325
O O16 0.000000 0.748210 0.992131
O O17 0.811656 0.000000 0.998996
O O18 0.500000 0.268135 0.055003
O O19 0.324566 0.500000 0.085915
#
# Coordination Sequence:
#
# PCOD8179255 Si02
#       7
#     4   4   8   8   8   8   8
#     4  10  22  40  62  88 118 148 186 236 286 340
#     4  10  22  40  60  86 118 150 188 232 284 346
#     4   9  18  32  50  74 109 153 196 238 285 337
#     4  10  21  38  60  84 113 152 192 231 281 341
#     4  10  20  34  54  81 113 149 192 239 287 337
#     4  10  20  34  54  81 114 151 192 237 286 337
#     4  10  21  38  61  86 113 150 191 231 282 342
#
# _framework density 19.398820000000001
#
# number of rings (size 3 to 8) (size 9 to 14) (size 15 to 20)
#    0.000    2.167    1.667    1.000    0.000    5.333 
#    0.000    3.333    0.000    0.000    0.000    0.000 
#    0.000    0.000    0.000    0.000    0.000    0.000 
#
# Total GULP energy -297652.806014 kJ/mol
# GULP energy per Si atom -12402.200251 kJ/mol
# Density = 1.935467 g / cm^3
# Si number density = 19.398820 Si / 1000 Ang^3
#
#
#
# Elastic Constant Matrix: (Units=GPa)
#
#
# Indices 1 2 3 4 5 6 
#
# 1 77.5965 37.9168 65.7204 0.0000 0.0000 0.0000
# 2 37.9168 106.1471 62.4692 0.0000 0.0000 0.0000
# 3 65.7204 62.4692 145.6148 0.0000 0.0000 0.0000
# 4 0.0000 0.0000 0.0000 25.1166 0.0000 0.0000
# 5 0.0000 0.0000 0.0000 0.0000 -27.6061 0.0000
# 6 0.0000 0.0000 0.0000 0.0000 0.0000 18.9426
#
#
#
# Elastic Compliance Matrix: (Units=1/GPa)
#
#
# Indices 1 2 3 4 5 6 
#
# 1 0.021393 -0.002621 -0.008531 0.000000 0.000000 0.000000
# 2 -0.002621 0.012924 -0.004361 0.000000 0.000000 0.000000
# 3 -0.008531 -0.004361 0.012589 0.000000 0.000000 0.000000
# 4 0.000000 0.000000 0.000000 0.039814 0.000000 0.000000
# 5 0.000000 0.000000 0.000000 0.000000 -0.036224 0.000000
# 6 0.000000 0.000000 0.000000 0.000000 0.000000 0.052791
#
#
# Mechanical properties :
#
#
# Convention : Reuss Voigt Hill
#
# Bulk Modulus (GPa) = 62.97679 73.50792 68.24235
# Shear Modulus (GPa) = 35.81465 14.17408 24.99437
#
# Velocity S-wave (km/s) = 4.30144 2.70602 3.59339
# Velocity P-wave (km/s) = 7.56337 6.90931 7.24373
#
# Compressibility (1/GPa) = 0.01587887
#
# Stress axis : x y z
#
# Youngs Moduli (GPa) = 46.74355 77.37558 79.43624
#
# Poissons Ratio (x) = 0.20283 0.67766
# Poissons Ratio (y) = 0.12253 0.34645
# Poissons Ratio (z) = 0.39876 0.33746
#
# Static dielectric constant tensor:
#      x y z
#    x 3.528940 0.000000 0.000000 
#    y 0.000000 3.665410 0.000000 
#    z 0.000000 0.000000 3.393800 
# 
# 
# High freq. dielectric constant tensor:
#      x y z
#    x 1.745930 0.000000 0.000000 
#    y 0.000000 1.763600 0.000000 
#    z 0.000000 0.000000 1.745750 
# 
# From -- ./inp_files/24336.got.cif
#   From: 2010.03.12/outbox.cif.g09.slc.cpg/sg38_13_cif.got.tgz:24336.got - 2010.04.14 02:38:36.
