data_PCOD8179052
_publ_section_title
;
Structure prediction by ZEFSAII (Michael W. Deem and Ramdas Pophale) SiO2 
 PCOD8179052
Probable space group: A M M 2
;
_chemical_formula_sum "Si O2"
_cell_formula_units_Z 64
_cell_length_a 14.767546
_cell_length_b 8.923187
_cell_length_c 24.713910
_cell_angle_alpha 90.000000
_cell_angle_beta 90.000000
_cell_angle_gamma 90.000000
_cell_volume 3256.640260
_symmetry_space_group_name_H-M "A M M 2"
_symmetry_group_IT_number 38
_symmetry_cell_setting 'orthorhombic'
loop_
_space_group_symop_operation_xyz
x,y,z
-x,-y,z
-x,y,z
x,-y,z
x,1/2+y,1/2+z
-x,1/2-y,1/2+z
-x,1/2+y,1/2+z
x,1/2-y,1/2+z
loop_
_atom_site_type_symbol
_atom_site_label
_atom_site_fract_x
_atom_site_fract_y
_atom_site_fract_z
Si Si1 0.316392 0.829303 0.192000
Si Si2 0.901728 0.177367 0.545949
Si Si3 0.285867 0.323735 0.002985
Si Si4 0.395271 0.322479 0.406773
Si Si5 0.280643 0.326206 0.813698
Si Si6 0.100029 0.176061 0.780897
Si Si7 0.598853 0.831794 0.605482
Si Si8 0.140829 0.324789 0.162913
O O1 0.327702 0.801369 0.255614
O O2 0.403784 0.781209 0.157298
O O3 0.245462 0.715836 0.165276
O O4 0.288086 0.000000 0.181344
O O5 0.819304 0.232211 0.507444
O O6 0.899019 0.244771 0.607305
O O7 0.000000 0.221639 0.520659
O O8 0.890694 0.000000 0.550929
O O9 0.293557 0.500000 0.989432
O O10 0.338355 0.231697 0.957946
O O11 0.329073 0.283482 0.060496
O O12 0.500000 0.267089 0.409749
O O13 0.391588 0.500000 0.404081
O O14 0.346979 0.257639 0.354048
O O15 0.274226 0.500000 0.829750
O O16 0.178000 0.261426 0.814524
O O17 0.096443 0.236535 0.718676
O O18 0.000000 0.207511 0.806135
O O19 0.123207 0.000000 0.782366
O O20 0.500000 0.821964 0.578206
O O21 0.618786 0.000000 0.625883
O O22 0.125095 0.500000 0.161252
#
# Coordination Sequence:
#
# PCOD8179052 Si02
#       8
#     8   8   8   8   8   8   8   8
#     4  10  20  33  51  79 116 151 184 226 281 336
#     4   9  16  28  52  85 116 148 189 230 267 317
#     4  10  20  37  60  85 114 148 187 233 283 338
#     4  11  25  44  65  86 106 138 189 247 303 354
#     4  10  22  39  59  84 114 151 193 238 289 344
#     4   9  17  30  53  86 121 157 195 235 281 331
#     4  10  20  34  54  81 111 147 189 228 276 342
#     4   9  15  28  50  77 113 155 196 230 267 321
#
# _framework density 19.652153999999999
#
# number of rings (size 3 to 8) (size 9 to 14) (size 15 to 20)
#    0.000    2.250    1.250    1.875    0.000    6.000 
#    0.000    3.125    0.000    4.500    0.000    0.000 
#    0.000    0.000    0.000    0.000    0.000    0.000 
#
# Total GULP energy -396517.792861 kJ/mol
# GULP energy per Si atom -12391.181027 kJ/mol
# Density = 1.960743 g / cm^3
# Si number density = 19.652154 Si / 1000 Ang^3
#
#
#
# Elastic Constant Matrix: (Units=GPa)
#
#
# Indices 1 2 3 4 5 6 
#
# 1 158.2398 40.4273 65.5523 0.0000 0.0000 0.0000
# 2 40.4273 46.7229 39.5722 0.0000 0.0000 0.0000
# 3 65.5523 39.5722 91.2673 0.0000 0.0000 0.0000
# 4 0.0000 0.0000 0.0000 29.2257 0.0000 0.0000
# 5 0.0000 0.0000 0.0000 0.0000 18.0790 0.0000
# 6 0.0000 0.0000 0.0000 0.0000 0.0000 21.3129
#
#
#
# Elastic Compliance Matrix: (Units=1/GPa)
#
#
# Indices 1 2 3 4 5 6 
#
# 1 0.009409 -0.003820 -0.005101 0.000000 0.000000 0.000000
# 2 -0.003820 0.035375 -0.012594 0.000000 0.000000 0.000000
# 3 -0.005101 -0.012594 0.020082 0.000000 0.000000 0.000000
# 4 0.000000 0.000000 0.000000 0.034216 0.000000 0.000000
# 5 0.000000 0.000000 0.000000 0.000000 0.055313 0.000000
# 6 0.000000 0.000000 0.000000 0.000000 0.000000 0.046920
#
#
# Mechanical properties :
#
#
# Convention : Reuss Voigt Hill
#
# Bulk Modulus (GPa) = 45.80101 65.25927 55.53014
# Shear Modulus (GPa) = 19.87087 23.76872 21.81980
#
# Velocity S-wave (km/s) = 3.18328 3.48152 3.33573
# Velocity P-wave (km/s) = 6.07186 7.03140 6.56917
#
# Compressibility (1/GPa) = 0.02183358
#
# Stress axis : x y z
#
# Youngs Moduli (GPa) = 106.28268 28.26847 49.79707
#
# Poissons Ratio (x) = 0.10800 0.25403
# Poissons Ratio (y) = 0.40605 0.62715
# Poissons Ratio (z) = 0.54219 0.35602
#
# Static dielectric constant tensor:
#      x y z
#    x 3.867910 0.000000 0.000000 
#    y 0.000000 3.356250 0.000000 
#    z 0.000000 0.000000 3.510980 
# 
# 
# High freq. dielectric constant tensor:
#      x y z
#    x 1.777310 0.000000 0.000000 
#    y 0.000000 1.740340 0.000000 
#    z 0.000000 0.000000 1.749530 
# 
# From -- ./inp_files/22892.got.cif
#   From: 2010.03.12/outbox.cif.g09.slc.cpg/sg38_12_cif.got.tgz:22892.got - 2010.04.14 02:38:36.
