data_PCOD8179508
_publ_section_title
;
Structure prediction by ZEFSAII (Michael W. Deem and Ramdas Pophale) SiO2 
 PCOD8179508
Probable space group: A M M 2
;
_chemical_formula_sum "Si O2"
_cell_formula_units_Z 48
_cell_length_a 8.962526
_cell_length_b 23.129787
_cell_length_c 11.687332
_cell_angle_alpha 90.000000
_cell_angle_beta 90.000000
_cell_angle_gamma 90.000000
_cell_volume 2422.799320
_symmetry_space_group_name_H-M "A M M 2"
_symmetry_group_IT_number 38
_symmetry_cell_setting 'orthorhombic'
loop_
_space_group_symop_operation_xyz
x,y,z
-x,-y,z
-x,y,z
x,-y,z
x,1/2+y,1/2+z
-x,1/2-y,1/2+z
-x,1/2+y,1/2+z
x,1/2-y,1/2+z
loop_
_atom_site_type_symbol
_atom_site_label
_atom_site_fract_x
_atom_site_fract_y
_atom_site_fract_z
Si Si1 0.324693 0.932334 0.760380
Si Si2 0.669485 0.777878 0.399355
Si Si3 0.172627 0.561667 0.851220
Si Si4 0.178124 0.862369 0.557089
Si Si5 0.332909 0.150438 0.961869
Si Si6 0.828783 0.838851 0.194422
O O1 0.500000 0.928369 0.734379
O O2 0.238662 0.890207 0.673287
O O3 0.288326 0.905269 0.885131
O O4 0.271636 0.000000 0.755158
O O5 0.500000 0.800050 0.408085
O O6 0.755380 0.800346 0.515129
O O7 0.676040 0.708775 0.388026
O O8 0.738779 0.797451 0.279026
O O9 0.254360 0.500000 0.840438
O O10 0.196223 0.595236 0.733533
O O11 0.000000 0.553064 0.878143
O O12 0.240076 0.595830 0.957817
O O13 0.000000 0.856349 0.564957
O O14 0.500000 0.141463 0.010222
O O15 0.220699 0.161174 0.064628
O O16 0.000000 0.819394 0.203264
#
# Coordination Sequence:
#
# PCOD8179508 Si02
#       6
#     8   8   8   8   8   8
#     4  10  22  40  60  85 120 162 205 244 289 353
#     4  10  21  38  60  83 113 153 197 241 295 359
#     4   8  15  30  52  78 110 145 178 220 279 339
#     4  10  20  35  58  89 119 150 192 247 301 346
#     4  10  23  40  58  80 112 157 198 237 290 355
#     4  10  21  36  56  85 115 143 186 242 294 346
#
# _framework density 19.811792000000001
#
# number of rings (size 3 to 8) (size 9 to 14) (size 15 to 20)
#    0.000    2.333    0.000    3.000    2.333    3.667 
#    0.000    0.000    0.000    9.500    0.000    0.000 
#    0.000    0.000    0.000    0.000    0.000    0.000 
#
# Total GULP energy -297413.342992 kJ/mol
# GULP energy per Si atom -12392.222625 kJ/mol
# Density = 1.976670 g / cm^3
# Si number density = 19.811792 Si / 1000 Ang^3
#
#
#
# Elastic Constant Matrix: (Units=GPa)
#
#
# Indices 1 2 3 4 5 6 
#
# 1 90.2641 28.7536 43.9971 0.0000 0.0000 0.0000
# 2 28.7536 81.9531 23.4302 0.0000 0.0000 0.0000
# 3 43.9971 23.4302 100.1210 0.0000 0.0000 0.0000
# 4 0.0000 0.0000 0.0000 21.5308 0.0000 0.0000
# 5 0.0000 0.0000 0.0000 0.0000 34.8383 0.0000
# 6 0.0000 0.0000 0.0000 0.0000 0.0000 19.9324
#
#
#
# Elastic Compliance Matrix: (Units=1/GPa)
#
#
# Indices 1 2 3 4 5 6 
#
# 1 0.015043 -0.003631 -0.005761 0.000000 0.000000 0.000000
# 2 -0.003631 0.013953 -0.001670 0.000000 0.000000 0.000000
# 3 -0.005761 -0.001670 0.012910 0.000000 0.000000 0.000000
# 4 0.000000 0.000000 0.000000 0.046445 0.000000 0.000000
# 5 0.000000 0.000000 0.000000 0.000000 0.028704 0.000000
# 6 0.000000 0.000000 0.000000 0.000000 0.000000 0.050170
#
#
# Mechanical properties :
#
#
# Convention : Reuss Voigt Hill
#
# Bulk Modulus (GPa) = 50.54676 51.63333 51.09004
# Shear Modulus (GPa) = 25.51757 27.00412 26.26084
#
# Velocity S-wave (km/s) = 3.59276 3.69593 3.64471
# Velocity P-wave (km/s) = 6.54060 6.65821 6.59967
#
# Compressibility (1/GPa) = 0.01978366
#
# Stress axis : x y z
#
# Youngs Moduli (GPa) = 66.47502 71.66699 77.45796
#
# Poissons Ratio (x) = 0.26022 0.44623
# Poissons Ratio (y) = 0.24137 0.12934
# Poissons Ratio (z) = 0.38295 0.11967
#
# Static dielectric constant tensor:
#      x y z
#    x 3.497230 0.000000 0.000000 
#    y 0.000000 4.049220 0.000000 
#    z 0.000000 0.000000 3.433770 
# 
# 
# High freq. dielectric constant tensor:
#      x y z
#    x 1.761890 0.000000 0.000000 
#    y 0.000000 1.781450 0.000000 
#    z 0.000000 0.000000 1.765860 
# 
# From -- ./inp_files/8146.got.cif
#   From: 2010.03.12/outbox.cif.g09.slc.cpg/sg38_5_cif.got.tgz:8146.got - 2010.04.14 02:38:36.
