data_PCOD8179388
_publ_section_title
;
Structure prediction by ZEFSAII (Michael W. Deem and Ramdas Pophale) SiO2 
 PCOD8179388
Probable space group: A M M 2
;
_chemical_formula_sum "Si O2"
_cell_formula_units_Z 48
_cell_length_a 19.201074
_cell_length_b 10.005037
_cell_length_c 13.920255
_cell_angle_alpha 90.000000
_cell_angle_beta 90.000000
_cell_angle_gamma 90.000000
_cell_volume 2674.184772
_symmetry_space_group_name_H-M "A M M 2"
_symmetry_group_IT_number 38
_symmetry_cell_setting 'orthorhombic'
loop_
_space_group_symop_operation_xyz
x,y,z
-x,-y,z
-x,y,z
x,-y,z
x,1/2+y,1/2+z
-x,1/2-y,1/2+z
-x,1/2+y,1/2+z
x,1/2-y,1/2+z
loop_
_atom_site_type_symbol
_atom_site_label
_atom_site_fract_x
_atom_site_fract_y
_atom_site_fract_z
Si Si1 0.073744 0.236352 0.495240
Si Si2 0.335417 0.345693 0.134072
Si Si3 0.000000 0.850775 0.832337
Si Si4 0.307147 0.653973 0.352073
Si Si5 0.774743 0.351575 0.974674
Si Si6 0.000000 0.850684 0.158118
Si Si7 0.580036 0.847528 0.009439
O O1 0.069194 0.328150 0.398745
O O2 0.143077 0.149563 0.496141
O O3 0.069294 0.328074 0.591762
O O4 0.000000 0.149546 0.495332
O O5 0.359590 0.500000 0.127698
O O6 0.321039 0.303322 0.243090
O O7 0.265294 0.319456 0.073538
O O8 0.396740 0.252050 0.093983
O O9 0.000000 0.749785 0.745348
O O10 0.000000 0.000000 0.790277
O O11 0.283473 0.500000 0.359172
O O12 0.244979 0.744864 0.393303
O O13 0.377252 0.681199 0.412252
O O14 0.755028 0.500000 0.938258
O O15 0.000000 0.000000 0.199990
O O16 0.500000 0.819867 0.984476
O O17 0.591831 0.000000 0.044263
#
# Coordination Sequence:
#
# PCOD8179388 Si02
#       7
#     8   8   4   8   8   4   8
#     4   8  20  36  51  73 105 141 172 213 269 326
#     4   9  19  35  54  77 107 139 177 216 258 313
#     4   9  19  35  54  74  98 129 167 211 260 316
#     4   9  19  35  54  77 107 144 176 209 260 319
#     4  10  20  35  54  78 104 135 178 227 266 306
#     4   9  19  35  54  76 102 131 167 211 262 318
#     4   9  18  33  53  78 108 140 176 215 256 305
#
# _framework density 17.949394999999999
#
# number of rings (size 3 to 8) (size 9 to 14) (size 15 to 20)
#    1.000    1.833    0.000    1.000    0.000    6.000 
#    0.000    3.333    0.000    0.000    0.000    0.000 
#    0.000    0.000    0.000    0.000    0.000    0.000 
#
# Total GULP energy -297346.826941 kJ/mol
# GULP energy per Si atom -12389.451123 kJ/mol
# Density = 1.790854 g / cm^3
# Si number density = 17.949395 Si / 1000 Ang^3
#
#
#
# Elastic Constant Matrix: (Units=GPa)
#
#
# Indices 1 2 3 4 5 6 
#
# 1 104.7126 37.9557 29.9817 0.0000 0.0000 0.0000
# 2 37.9557 97.8588 65.6722 0.0000 0.0000 0.0000
# 3 29.9817 65.6722 134.8477 0.0000 0.0000 0.0000
# 4 0.0000 0.0000 0.0000 21.9182 0.0000 0.0000
# 5 0.0000 0.0000 0.0000 0.0000 10.2591 0.0000
# 6 0.0000 0.0000 0.0000 0.0000 0.0000 25.2573
#
#
#
# Elastic Compliance Matrix: (Units=1/GPa)
#
#
# Indices 1 2 3 4 5 6 
#
# 1 0.011140 -0.003949 -0.000553 0.000000 0.000000 0.000000
# 2 -0.003949 0.016580 -0.007197 0.000000 0.000000 0.000000
# 3 -0.000553 -0.007197 0.011044 0.000000 0.000000 0.000000
# 4 0.000000 0.000000 0.000000 0.045624 0.000000 0.000000
# 5 0.000000 0.000000 0.000000 0.000000 0.097475 0.000000
# 6 0.000000 0.000000 0.000000 0.000000 0.000000 0.039593
#
#
# Mechanical properties :
#
#
# Convention : Reuss Voigt Hill
#
# Bulk Modulus (GPa) = 65.08321 67.18201 66.13261
# Shear Modulus (GPa) = 20.00193 25.07422 22.53808
#
# Velocity S-wave (km/s) = 3.34181 3.74162 3.54735
# Velocity P-wave (km/s) = 7.15739 7.49507 7.32818
#
# Compressibility (1/GPa) = 0.01536495
#
# Stress axis : x y z
#
# Youngs Moduli (GPa) = 89.76702 60.31288 90.54963
#
# Poissons Ratio (x) = 0.23820 0.05012
# Poissons Ratio (y) = 0.35452 0.65165
# Poissons Ratio (z) = 0.04968 0.43405
#
# Static dielectric constant tensor:
#      x y z
#    x 3.129260 0.000000 0.000000 
#    y 0.000000 3.236950 0.000000 
#    z 0.000000 0.000000 3.294110 
# 
# 
# High freq. dielectric constant tensor:
#      x y z
#    x 1.677480 0.000000 0.000000 
#    y 0.000000 1.689250 0.000000 
#    z 0.000000 0.000000 1.693720 
# 
# From -- ./inp_files/15076.got.cif
#   From: 2010.03.12/outbox.cif.g09.slc.cpg/sg38_8_cif.got.tgz:15076.got - 2010.04.14 02:38:36.
