data_PCOD8179601
_publ_section_title
;
Structure prediction by ZEFSAII (Michael W. Deem and Ramdas Pophale) SiO2 
 PCOD8179601
Probable space group: A M M 2
;
_chemical_formula_sum "Si O2"
_cell_formula_units_Z 48
_cell_length_a 8.717245
_cell_length_b 18.886167
_cell_length_c 15.065826
_cell_angle_alpha 90.000000
_cell_angle_beta 90.000000
_cell_angle_gamma 90.000000
_cell_volume 2480.367459
_symmetry_space_group_name_H-M "A M M 2"
_symmetry_group_IT_number 38
_symmetry_cell_setting 'orthorhombic'
loop_
_space_group_symop_operation_xyz
x,y,z
-x,-y,z
-x,y,z
x,-y,z
x,1/2+y,1/2+z
-x,1/2-y,1/2+z
-x,1/2+y,1/2+z
x,1/2-y,1/2+z
loop_
_atom_site_type_symbol
_atom_site_label
_atom_site_fract_x
_atom_site_fract_y
_atom_site_fract_z
Si Si1 0.178066 0.917296 0.672360
Si Si2 0.819605 0.078467 0.180500
Si Si3 0.324642 0.333762 0.530308
Si Si4 0.320332 0.673121 0.019043
Si Si5 0.818640 0.181125 0.333934
Si Si6 0.322415 0.667218 0.325898
O O1 0.277501 0.880510 0.596363
O O2 0.225952 0.887764 0.767984
O O3 0.000000 0.901446 0.655414
O O4 0.214704 0.000000 0.670106
O O5 0.779866 0.115113 0.087817
O O6 0.758048 0.123735 0.263355
O O7 0.000000 0.072434 0.187109
O O8 0.745763 0.000000 0.184214
O O9 0.500000 0.345557 0.557989
O O10 0.275532 0.252627 0.548219
O O11 0.297753 0.353923 0.427952
O O12 0.500000 0.669044 0.997093
O O13 0.227594 0.652512 0.930706
O O14 0.734991 0.253622 0.308760
O O15 0.000000 0.193007 0.328980
O O16 0.500000 0.663344 0.298319
#
# Coordination Sequence:
#
# PCOD8179601 Si02
#       6
#     8   8   8   8   8   8
#     4  11  24  39  56  82 115 150 188 231 283 343
#     4  10  22  37  53  78 112 147 181 221 270 322
#     4   9  20  37  57  82 109 140 180 227 275 324
#     4  10  21  38  60  85 112 143 184 233 282 334
#     4  10  20  36  59  84 112 147 187 231 278 330
#     4  10  21  38  59  83 112 145 186 235 282 331
#
# _framework density 19.351970999999999
#
# number of rings (size 3 to 8) (size 9 to 14) (size 15 to 20)
#    0.000    2.000    0.000    4.000    0.000   11.000 
#    0.000    5.000    0.000    0.000    0.000    0.000 
#    0.000    0.000    0.000    0.000    0.000    0.000 
#
# Total GULP energy -297703.717854 kJ/mol
# GULP energy per Si atom -12404.321577 kJ/mol
# Density = 1.930793 g / cm^3
# Si number density = 19.351971 Si / 1000 Ang^3
#
#
#
# Elastic Constant Matrix: (Units=GPa)
#
#
# Indices 1 2 3 4 5 6 
#
# 1 31.5123 21.8101 17.3275 0.0000 0.0000 0.0000
# 2 21.8101 102.5657 58.6505 0.0000 0.0000 0.0000
# 3 17.3275 58.6505 99.6892 0.0000 0.0000 0.0000
# 4 0.0000 0.0000 0.0000 10.2737 0.0000 0.0000
# 5 0.0000 0.0000 0.0000 0.0000 20.7864 0.0000
# 6 0.0000 0.0000 0.0000 0.0000 0.0000 21.6473
#
#
#
# Elastic Compliance Matrix: (Units=1/GPa)
#
#
# Indices 1 2 3 4 5 6 
#
# 1 0.037710 -0.006436 -0.002768 0.000000 0.000000 0.000000
# 2 -0.006436 0.015791 -0.008172 0.000000 0.000000 0.000000
# 3 -0.002768 -0.008172 0.015320 0.000000 0.000000 0.000000
# 4 0.000000 0.000000 0.000000 0.097336 0.000000 0.000000
# 5 0.000000 0.000000 0.000000 0.000000 0.048108 0.000000
# 6 0.000000 0.000000 0.000000 0.000000 0.000000 0.046195
#
#
# Mechanical properties :
#
#
# Convention : Reuss Voigt Hill
#
# Bulk Modulus (GPa) = 29.35161 47.70482 38.52821
# Shear Modulus (GPa) = 16.30947 19.60675 17.95811
#
# Velocity S-wave (km/s) = 2.90622 3.18648 3.04957
# Velocity P-wave (km/s) = 5.14409 6.18408 5.68790
#
# Compressibility (1/GPa) = 0.03406968
#
# Stress axis : x y z
#
# Youngs Moduli (GPa) = 26.51804 63.32555 65.27358
#
# Poissons Ratio (x) = 0.40756 0.18068
# Poissons Ratio (y) = 0.17067 0.53341
# Poissons Ratio (z) = 0.07340 0.51749
#
# Static dielectric constant tensor:
#      x y z
#    x 3.518930 0.000000 0.000000 
#    y 0.000000 3.636270 0.000000 
#    z 0.000000 0.000000 3.612320 
# 
# 
# High freq. dielectric constant tensor:
#      x y z
#    x 1.756600 0.000000 0.000000 
#    y 0.000000 1.750500 0.000000 
#    z 0.000000 0.000000 1.763620 
# 
# From -- ./inp_files/12022.got.cif
#   From: 2010.03.12/outbox.cif.g09.slc.cpg/sg38_7_cif.got.tgz:12022.got - 2010.04.14 02:38:36.
