data_PCOD8179022
_publ_section_title
;
Structure prediction by ZEFSAII (Michael W. Deem and Ramdas Pophale) SiO2 
 PCOD8179022
Probable space group: A M M 2
;
_chemical_formula_sum "Si O2"
_cell_formula_units_Z 48
_cell_length_a 8.689438
_cell_length_b 9.161796
_cell_length_c 31.143391
_cell_angle_alpha 90.000000
_cell_angle_beta 90.000000
_cell_angle_gamma 90.000000
_cell_volume 2479.352088
_symmetry_space_group_name_H-M "A M M 2"
_symmetry_group_IT_number 38
_symmetry_cell_setting 'orthorhombic'
loop_
_space_group_symop_operation_xyz
x,y,z
-x,-y,z
-x,y,z
x,-y,z
x,1/2+y,1/2+z
-x,1/2-y,1/2+z
-x,1/2+y,1/2+z
x,1/2-y,1/2+z
loop_
_atom_site_type_symbol
_atom_site_label
_atom_site_fract_x
_atom_site_fract_y
_atom_site_fract_z
Si Si1 0.179775 0.829196 0.146140
Si Si2 0.320096 0.167752 0.725781
Si Si3 0.817318 0.336387 0.804708
Si Si4 0.182996 0.663846 0.385847
Si Si5 0.816970 0.336681 0.061408
Si Si6 0.816916 0.163997 0.980569
O O1 0.276719 0.755377 0.183406
O O2 0.237043 0.760852 0.101395
O O3 0.000000 0.798479 0.154157
O O4 0.215565 0.000000 0.145194
O O5 0.500000 0.182083 0.734173
O O6 0.232429 0.234750 0.765943
O O7 0.269026 0.000000 0.720324
O O8 0.751379 0.500000 0.798832
O O9 0.750727 0.270992 0.849315
O O10 0.000000 0.340122 0.805916
O O11 0.244720 0.500000 0.377317
O O12 0.237038 0.717758 0.433204
O O13 0.000000 0.662540 0.384071
O O14 0.751227 0.500000 0.066743
O O15 0.000000 0.339028 0.059153
O O16 0.748420 0.268761 0.017429
O O17 0.000000 0.164831 0.982888
O O18 0.756701 0.000000 0.988796
#
# Coordination Sequence:
#
# PCOD8179022 Si02
#       6
#     8   8   8   8   8   8
#     4  10  20  34  53  76 101 130 165 204 246 293
#     4  11  24  39  54  73  97 127 164 205 250 299
#     4  10  20  33  51  76 103 131 165 204 246 293
#     4   8  14  25  42  65  95 131 166 200 241 286
#     4   9  16  25  40  65  97 131 164 199 241 286
#     4   8  13  22  37  60  93 130 164 198 238 284
#
# _framework density 19.359897
#
# number of rings (size 3 to 8) (size 9 to 14) (size 15 to 20)
#    0.000    2.667    0.000    3.500    0.000    8.000 
#    0.000    3.333    0.000    0.000    0.000    1.167 
#    0.000    1.333    0.000    0.000    0.000    0.000 
#
# Total GULP energy -297532.678243 kJ/mol
# GULP energy per Si atom -12397.194927 kJ/mol
# Density = 1.931583 g / cm^3
# Si number density = 19.359897 Si / 1000 Ang^3
#
#
#
# Elastic Constant Matrix: (Units=GPa)
#
#
# Indices 1 2 3 4 5 6 
#
# 1 9.0050 13.6373 8.7949 0.0000 0.0000 0.0000
# 2 13.6373 136.2932 75.3285 0.0000 0.0000 0.0000
# 3 8.7949 75.3285 160.2821 0.0000 0.0000 0.0000
# 4 0.0000 0.0000 0.0000 45.1248 0.0000 0.0000
# 5 0.0000 0.0000 0.0000 0.0000 -4.5803 0.0000
# 6 0.0000 0.0000 0.0000 0.0000 0.0000 14.5617
#
#
#
# Elastic Compliance Matrix: (Units=1/GPa)
#
#
# Indices 1 2 3 4 5 6 
#
# 1 0.131110 -0.012351 -0.001390 0.000000 0.000000 0.000000
# 2 -0.012351 0.011075 -0.004527 0.000000 0.000000 0.000000
# 3 -0.001390 -0.004527 0.008443 0.000000 0.000000 0.000000
# 4 0.000000 0.000000 0.000000 0.022161 0.000000 0.000000
# 5 0.000000 0.000000 0.000000 0.000000 -0.218324 0.000000
# 6 0.000000 0.000000 0.000000 0.000000 0.000000 0.068673
#
#
# Mechanical properties :
#
#
# Convention : Reuss Voigt Hill
#
# Bulk Modulus (GPa) = 8.76479 55.67798 32.22139
# Shear Modulus (GPa) = 51.17496 24.87587 38.02542
#
# Velocity S-wave (km/s) = 5.14693 3.58846 4.43666
# Velocity P-wave (km/s) = 6.31334 6.78169 6.55170
#
# Compressibility (1/GPa) = 0.11409282
#
# Stress axis : x y z
#
# Youngs Moduli (GPa) = 7.62718 90.29228 118.44137
#
# Poissons Ratio (x) = 1.11516 0.16461
# Poissons Ratio (y) = 0.09420 0.53622
# Poissons Ratio (z) = 0.01060 0.40878
#
# Static dielectric constant tensor:
#      x y z
#    x 2.900140 0.000000 0.000000 
#    y 0.000000 3.829120 0.000000 
#    z 0.000000 0.000000 3.909730 
# 
# 
# High freq. dielectric constant tensor:
#      x y z
#    x 1.687230 0.000000 0.000000 
#    y 0.000000 1.762780 0.000000 
#    z 0.000000 0.000000 1.774120 
# 
# From -- ./inp_files/24293.got.cif
#   From: 2010.03.12/outbox.cif.g09.slc.cpg/sg38_13_cif.got.tgz:24293.got - 2010.04.14 02:38:36.
