data_PCOD8179734
_publ_section_title
;
Structure prediction by ZEFSAII (Michael W. Deem and Ramdas Pophale) SiO2 
 PCOD8179734
Probable space group: A M M 2
;
_chemical_formula_sum "Si O2"
_cell_formula_units_Z 64
_cell_length_a 23.663213
_cell_length_b 8.668646
_cell_length_c 15.414946
_cell_angle_alpha 90.000000
_cell_angle_beta 90.000000
_cell_angle_gamma 90.000000
_cell_volume 3162.037301
_symmetry_space_group_name_H-M "A M M 2"
_symmetry_group_IT_number 38
_symmetry_cell_setting 'orthorhombic'
loop_
_space_group_symop_operation_xyz
x,y,z
-x,-y,z
-x,y,z
x,-y,z
x,1/2+y,1/2+z
-x,1/2-y,1/2+z
-x,1/2+y,1/2+z
x,1/2-y,1/2+z
loop_
_atom_site_type_symbol
_atom_site_label
_atom_site_fract_x
_atom_site_fract_y
_atom_site_fract_z
Si Si1 0.563470 0.683605 0.168880
Si Si2 0.066165 0.177733 0.406634
Si Si3 0.132355 0.180409 0.751744
Si Si4 0.361972 0.681249 0.327325
Si Si5 0.250260 0.176942 0.267829
Si Si6 0.260165 0.824768 0.067257
Si Si7 0.631137 0.820150 0.502278
Si Si8 0.868687 0.818821 0.065081
O O1 0.500000 0.750511 0.171867
O O2 0.562508 0.500000 0.170597
O O3 0.597971 0.746883 0.251438
O O4 0.594109 0.742971 0.082163
O O5 0.087788 0.277695 0.325970
O O6 0.092823 0.229307 0.497480
O O7 0.000000 0.205386 0.414975
O O8 0.081343 0.000000 0.389654
O O9 0.194138 0.225781 0.787004
O O10 0.116718 0.268232 0.663018
O O11 0.130204 0.000000 0.732735
O O12 0.354007 0.500000 0.317959
O O13 0.300627 0.760343 0.326885
O O14 0.390508 0.727096 0.418344
O O15 0.269422 0.196794 0.169148
O O16 0.237268 0.000000 0.290664
O O17 0.196312 0.779535 0.042567
O O18 0.273434 0.000000 0.038923
O O19 0.302575 0.710742 0.018624
O O20 0.621570 0.000000 0.486665
O O21 0.880220 0.000000 0.057910
#
# Coordination Sequence:
#
# PCOD8179734 Si02
#       8
#     8   8   8   8   8   8   8   8
#     4   9  20  40  62  84 117 160 204 250 300 359
#     4  11  25  44  65  91 125 166 212 259 308 366
#     4  11  23  40  64  93 126 164 207 255 310 371
#     4  11  22  37  59  88 120 158 202 247 303 364
#     4  10  20  37  61  89 124 159 199 252 307 364
#     4   9  19  36  59  87 122 156 194 247 302 360
#     4  11  22  36  58  88 119 158 200 245 302 360
#     4  10  22  41  64  92 125 164 206 256 311 366
#
# _framework density 20.240116
#
# number of rings (size 3 to 8) (size 9 to 14) (size 15 to 20)
#    0.000    1.750    1.250    3.750    1.750    4.500 
#    0.000    0.000    0.000    5.250    0.000    0.000 
#    0.000    0.000    0.000    0.000    0.000    0.000 
#
# Total GULP energy -396938.274195 kJ/mol
# GULP energy per Si atom -12404.321069 kJ/mol
# Density = 2.019405 g / cm^3
# Si number density = 20.240116 Si / 1000 Ang^3
#
#
#
# Elastic Constant Matrix: (Units=GPa)
#
#
# Indices 1 2 3 4 5 6 
#
# 1 107.6364 26.7495 55.2675 0.0000 0.0000 0.0000
# 2 26.7495 58.8128 15.3839 0.0000 0.0000 0.0000
# 3 55.2675 15.3839 114.0013 0.0000 0.0000 0.0000
# 4 0.0000 0.0000 0.0000 35.5221 0.0000 0.0000
# 5 0.0000 0.0000 0.0000 0.0000 22.9140 0.0000
# 6 0.0000 0.0000 0.0000 0.0000 0.0000 21.9733
#
#
#
# Elastic Compliance Matrix: (Units=1/GPa)
#
#
# Indices 1 2 3 4 5 6 
#
# 1 0.013462 -0.004577 -0.005909 0.000000 0.000000 0.000000
# 2 -0.004577 0.019182 -0.000369 0.000000 0.000000 0.000000
# 3 -0.005909 -0.000369 0.011686 0.000000 0.000000 0.000000
# 4 0.000000 0.000000 0.000000 0.028151 0.000000 0.000000
# 5 0.000000 0.000000 0.000000 0.000000 0.043641 0.000000
# 6 0.000000 0.000000 0.000000 0.000000 0.000000 0.045510
#
#
# Mechanical properties :
#
#
# Convention : Reuss Voigt Hill
#
# Bulk Modulus (GPa) = 44.21050 52.80580 48.50815
# Shear Modulus (GPa) = 26.19409 28.28519 27.23964
#
# Velocity S-wave (km/s) = 3.60136 3.74235 3.67253
# Velocity P-wave (km/s) = 6.25967 6.69476 6.48087
#
# Compressibility (1/GPa) = 0.02261906
#
# Stress axis : x y z
#
# Youngs Moduli (GPa) = 74.28358 52.13338 85.57135
#
# Poissons Ratio (x) = 0.23863 0.50561
# Poissons Ratio (y) = 0.34002 0.03161
# Poissons Ratio (z) = 0.43891 0.01926
#
# Static dielectric constant tensor:
#      x y z
#    x 3.670470 0.000000 0.000000 
#    y 0.000000 3.573240 0.000000 
#    z 0.000000 0.000000 3.732230 
# 
# 
# High freq. dielectric constant tensor:
#      x y z
#    x 1.784450 0.000000 0.000000 
#    y 0.000000 1.784990 0.000000 
#    z 0.000000 0.000000 1.801040 
# 
# From -- ./inp_files/15871.got.cif
#   From: 2010.03.12/outbox.cif.g09.slc.cpg/sg38_8_cif.got.tgz:15871.got - 2010.04.14 02:38:36.
