data_PCOD8179470
_publ_section_title
;
Structure prediction by ZEFSAII (Michael W. Deem and Ramdas Pophale) SiO2 
 PCOD8179470
Probable space group: A M M 2
;
_chemical_formula_sum "Si O2"
_cell_formula_units_Z 64
_cell_length_a 8.960892
_cell_length_b 28.195441
_cell_length_c 12.636044
_cell_angle_alpha 90.000000
_cell_angle_beta 90.000000
_cell_angle_gamma 90.000000
_cell_volume 3192.576145
_symmetry_space_group_name_H-M "A M M 2"
_symmetry_group_IT_number 38
_symmetry_cell_setting 'orthorhombic'
loop_
_space_group_symop_operation_xyz
x,y,z
-x,-y,z
-x,y,z
x,-y,z
x,1/2+y,1/2+z
-x,1/2-y,1/2+z
-x,1/2+y,1/2+z
x,1/2-y,1/2+z
loop_
_atom_site_type_symbol
_atom_site_label
_atom_site_fract_x
_atom_site_fract_y
_atom_site_fract_z
Si Si1 0.666628 0.574613 0.820830
Si Si2 0.831811 0.947426 0.116161
Si Si3 0.324404 0.444655 0.228754
Si Si4 0.172620 0.203279 0.448172
Si Si5 0.324196 0.611400 0.438707
Si Si6 0.176149 0.100095 0.525548
Si Si7 0.173692 0.304290 0.531228
Si Si8 0.665424 0.818714 0.247114
O O1 0.500000 0.552549 0.827519
O O2 0.764156 0.548042 0.733393
O O3 0.656422 0.629061 0.791886
O O4 0.747288 0.568773 0.933930
O O5 0.000000 0.926568 0.121350
O O6 0.834043 0.000000 0.066865
O O7 0.729156 0.914724 0.044345
O O8 0.500000 0.438965 0.208964
O O9 0.279477 0.500000 0.236028
O O10 0.274562 0.418480 0.336523
O O11 0.236023 0.418408 0.136693
O O12 0.218954 0.155768 0.511932
O O13 0.209169 0.248667 0.519877
O O14 0.262266 0.212428 0.339894
O O15 0.000000 0.200323 0.416566
O O16 0.500000 0.616696 0.444968
O O17 0.252880 0.664113 0.439746
O O18 0.000000 0.092374 0.520159
O O19 0.231198 0.319460 0.645332
O O20 0.000000 0.314953 0.522877
O O21 0.500000 0.799370 0.219403
#
# Coordination Sequence:
#
# PCOD8179470 Si02
#       8
#     8   8   8   8   8   8   8   8
#     4  10  20  36  59  85 115 152 193 240 297 359
#     4  11  23  37  57  87 119 152 193 242 297 358
#     4  10  23  43  64  86 119 164 208 254 313 377
#     4   9  21  39  58  85 119 160 202 245 305 368
#     4  11  23  40  61  87 119 158 205 254 307 366
#     4  10  21  39  63  88 119 156 202 255 304 362
#     4  11  22  37  60  87 120 161 203 250 306 371
#     4  10  20  35  57  84 114 150 192 244 299 355
#
# _framework density 20.046506999999998
#
# number of rings (size 3 to 8) (size 9 to 14) (size 15 to 20)
#    0.000    1.750    1.250    2.625    0.000    6.750 
#    0.000    3.750    0.000    0.000    0.000    0.000 
#    0.000    0.000    0.000    0.000    0.000    0.000 
#
# Total GULP energy -396827.597890 kJ/mol
# GULP energy per Si atom -12400.862434 kJ/mol
# Density = 2.000088 g / cm^3
# Si number density = 20.046507 Si / 1000 Ang^3
#
#
#
# Elastic Constant Matrix: (Units=GPa)
#
#
# Indices 1 2 3 4 5 6 
#
# 1 101.4729 42.6733 57.2224 0.0000 0.0000 0.0000
# 2 42.6733 90.2111 46.9923 0.0000 0.0000 0.0000
# 3 57.2224 46.9923 127.1047 0.0000 0.0000 0.0000
# 4 0.0000 0.0000 0.0000 22.3573 0.0000 0.0000
# 5 0.0000 0.0000 0.0000 0.0000 35.1879 0.0000
# 6 0.0000 0.0000 0.0000 0.0000 0.0000 25.5053
#
#
#
# Elastic Compliance Matrix: (Units=1/GPa)
#
#
# Indices 1 2 3 4 5 6 
#
# 1 0.014419 -0.004260 -0.004916 0.000000 0.000000 0.000000
# 2 -0.004260 0.014988 -0.003623 0.000000 0.000000 0.000000
# 3 -0.004916 -0.003623 0.011421 0.000000 0.000000 0.000000
# 4 0.000000 0.000000 0.000000 0.044728 0.000000 0.000000
# 5 0.000000 0.000000 0.000000 0.000000 0.028419 0.000000
# 6 0.000000 0.000000 0.000000 0.000000 0.000000 0.039208
#
#
# Mechanical properties :
#
#
# Convention : Reuss Voigt Hill
#
# Bulk Modulus (GPa) = 65.66912 68.06275 66.86594
# Shear Modulus (GPa) = 27.19519 28.07014 27.63267
#
# Velocity S-wave (km/s) = 3.68721 3.74605 3.71675
# Velocity P-wave (km/s) = 7.13841 7.26200 7.20047
#
# Compressibility (1/GPa) = 0.01522786
#
# Stress axis : x y z
#
# Youngs Moduli (GPa) = 69.35478 66.72211 87.56140
#
# Poissons Ratio (x) = 0.28420 0.43049
# Poissons Ratio (y) = 0.29542 0.31728
# Poissons Ratio (z) = 0.34098 0.24177
#
# Static dielectric constant tensor:
#      x y z
#    x 3.851040 0.000000 0.000000 
#    y 0.000000 3.822110 0.000000 
#    z 0.000000 0.000000 3.625210 
# 
# 
# High freq. dielectric constant tensor:
#      x y z
#    x 1.792510 0.000000 0.000000 
#    y 0.000000 1.782660 0.000000 
#    z 0.000000 0.000000 1.778510 
# 
# From -- ./inp_files/8599.got.cif
#   From: 2010.03.12/outbox.cif.g09.slc.cpg/sg38_5_cif.got.tgz:8599.got - 2010.04.14 02:38:36.
