data_PCOD8179694
_publ_section_title
;
Structure prediction by ZEFSAII (Michael W. Deem and Ramdas Pophale) SiO2 
 PCOD8179694
Probable space group: A M M 2
;
_chemical_formula_sum "Si O2"
_cell_formula_units_Z 40
_cell_length_a 18.564935
_cell_length_b 18.538710
_cell_length_c 5.190819
_cell_angle_alpha 90.000000
_cell_angle_beta 90.000000
_cell_angle_gamma 90.000000
_cell_volume 1786.523896
_symmetry_space_group_name_H-M "A M M 2"
_symmetry_group_IT_number 38
_symmetry_cell_setting 'orthorhombic'
loop_
_space_group_symop_operation_xyz
x,y,z
-x,-y,z
-x,y,z
x,-y,z
x,1/2+y,1/2+z
-x,1/2-y,1/2+z
-x,1/2+y,1/2+z
x,1/2-y,1/2+z
loop_
_atom_site_type_symbol
_atom_site_label
_atom_site_fract_x
_atom_site_fract_y
_atom_site_fract_z
Si Si1 0.301209 0.586098 0.605690
Si Si2 0.781863 0.915437 0.610136
Si Si3 0.583987 0.204345 0.060672
Si Si4 0.918854 0.581485 0.823693
Si Si5 0.916446 0.214269 0.004826
O O1 0.315144 0.500000 0.592581
O O2 0.246042 0.614370 0.383184
O O3 0.376326 0.627277 0.569010
O O4 0.266958 0.612309 0.873718
O O5 0.865575 0.894958 0.554520
O O6 0.773389 0.000000 0.618754
O O7 0.500000 0.185461 0.064931
O O8 0.606000 0.253244 0.303227
O O9 0.903104 0.500000 0.730450
O O10 0.906167 0.629741 0.569514
O O11 0.000000 0.590947 0.932228
O O12 0.880079 0.261834 0.236331
O O13 0.000000 0.235818 0.984003
#
# Coordination Sequence:
#
# PCOD8179694 Si02
#       5
#     8   8   8   8   8
#     4  10  20  37  59  81 111 151 191 228 271 332
#     4   9  19  35  55  81 112 145 185 238 288 324
#     4  10  21  38  60  88 122 152 180 225 279 326
#     4   9  18  35  58  81 106 143 192 239 285 340
#     4   9  18  33  50  69  97 129 162 210 271 325
#
# _framework density 22.389849000000002
#
# number of rings (size 3 to 8) (size 9 to 14) (size 15 to 20)
#    0.000    2.600    0.000    1.200    0.000    2.000 
#    0.000   12.000    0.000   24.000    0.000    0.000 
#    0.000    0.000    0.000    0.000    0.000    0.000 
#
# Total GULP energy -247903.981427 kJ/mol
# GULP energy per Si atom -12395.199071 kJ/mol
# Density = 2.233889 g / cm^3
# Si number density = 22.389849 Si / 1000 Ang^3
#
#
#
# Elastic Constant Matrix: (Units=GPa)
#
#
# Indices 1 2 3 4 5 6 
#
# 1 84.6032 34.7023 18.6558 0.0000 0.0000 0.0000
# 2 34.7023 94.0271 21.7676 0.0000 0.0000 0.0000
# 3 18.6558 21.7676 122.3134 0.0000 0.0000 0.0000
# 4 0.0000 0.0000 0.0000 21.6417 0.0000 0.0000
# 5 0.0000 0.0000 0.0000 0.0000 10.3408 0.0000
# 6 0.0000 0.0000 0.0000 0.0000 0.0000 18.6501
#
#
#
# Elastic Compliance Matrix: (Units=1/GPa)
#
#
# Indices 1 2 3 4 5 6 
#
# 1 0.014118 -0.004914 -0.001279 0.000000 0.000000 0.000000
# 2 -0.004914 0.012803 -0.001529 0.000000 0.000000 0.000000
# 3 -0.001279 -0.001529 0.008643 0.000000 0.000000 0.000000
# 4 0.000000 0.000000 0.000000 0.046207 0.000000 0.000000
# 5 0.000000 0.000000 0.000000 0.000000 0.096705 0.000000
# 6 0.000000 0.000000 0.000000 0.000000 0.000000 0.053619
#
#
# Mechanical properties :
#
#
# Convention : Reuss Voigt Hill
#
# Bulk Modulus (GPa) = 49.70314 50.13280 49.91797
# Shear Modulus (GPa) = 19.66611 25.18105 22.42358
#
# Velocity S-wave (km/s) = 2.96691 3.35724 3.16809
# Velocity P-wave (km/s) = 5.82957 6.12107 5.97710
#
# Compressibility (1/GPa) = 0.02011945
#
# Stress axis : x y z
#
# Youngs Moduli (GPa) = 70.83363 78.10735 115.70261
#
# Poissons Ratio (x) = 0.38384 0.14795
# Poissons Ratio (y) = 0.34810 0.17690
# Poissons Ratio (z) = 0.09057 0.11942
#
# Static dielectric constant tensor:
#      x y z
#    x 3.871950 0.000000 0.000000 
#    y 0.000000 3.898850 0.000000 
#    z 0.000000 0.000000 4.506080 
# 
# 
# High freq. dielectric constant tensor:
#      x y z
#    x 1.854510 0.000000 0.000000 
#    y 0.000000 1.878160 0.000000 
#    z 0.000000 0.000000 1.894530 
# 
# From -- ./inp_files/1538.got.cif
#   From: 2010.03.12/outbox.cif.g09.slc.cpg/sg38_1_cif.got.tgz:1538.got - 2010.04.14 02:38:36.
