data_PCOD8179318
_publ_section_title
;
Structure prediction by ZEFSAII (Michael W. Deem and Ramdas Pophale) SiO2 
 PCOD8179318
Probable space group: A M M 2
;
_chemical_formula_sum "Si O2"
_cell_formula_units_Z 40
_cell_length_a 7.775376
_cell_length_b 7.603710
_cell_length_c 32.796875
_cell_angle_alpha 90.000000
_cell_angle_beta 90.000000
_cell_angle_gamma 90.000000
_cell_volume 1939.007144
_symmetry_space_group_name_H-M "A M M 2"
_symmetry_group_IT_number 38
_symmetry_cell_setting 'orthorhombic'
loop_
_space_group_symop_operation_xyz
x,y,z
-x,-y,z
-x,y,z
x,-y,z
x,1/2+y,1/2+z
-x,1/2-y,1/2+z
-x,1/2+y,1/2+z
x,1/2-y,1/2+z
loop_
_atom_site_type_symbol
_atom_site_label
_atom_site_fract_x
_atom_site_fract_y
_atom_site_fract_z
Si Si1 0.204009 0.697261 0.305370
Si Si2 0.687793 0.709153 0.216516
Si Si3 0.000000 0.205003 0.074646
Si Si4 0.204315 0.000000 0.363831
Si Si5 0.000000 0.699608 0.166220
Si Si6 0.695237 0.797971 0.015581
Si Si7 0.204499 0.500000 0.955965
O O1 0.272246 0.500000 0.314488
O O2 0.273228 0.770179 0.262465
O O3 0.000000 0.698076 0.303052
O O4 0.272541 0.825587 0.340900
O O5 0.500000 0.781554 0.203594
O O6 0.689756 0.500000 0.214639
O O7 0.828776 0.789764 0.185174
O O8 0.828509 0.263087 0.050451
O O9 0.000000 0.300194 0.117670
O O10 0.000000 0.000000 0.083234
O O11 0.274061 0.000000 0.409849
O O12 0.000000 0.000000 0.364113
O O13 0.000000 0.500000 0.181574
O O14 0.500000 0.777004 0.032091
O O15 0.732672 0.000000 0.002788
O O16 0.721628 0.675956 0.976453
O O17 0.000000 0.500000 0.958698
#
# Coordination Sequence:
#
# PCOD8179318 Si02
#       7
#     8   8   4   4   4   8   4
#     4   9  16  32  55  77 111 156 194 237 287 337
#     4   9  17  32  53  78 110 150 195 235 283 346
#     4  10  22  40  60  86 115 151 194 241 300 366
#     4   9  20  33  53  91 118 149 199 244 287 349
#     4  10  20  34  56  82 111 145 186 242 295 347
#     4  10  22  41  64  88 119 160 200 245 302 364
#     4  11  21  37  63  92 127 159 202 253 303 364
#
# _framework density 20.629114000000001
#
# number of rings (size 3 to 8) (size 9 to 14) (size 15 to 20)
#    0.000    2.400    2.000    0.300    1.400    1.600 
#    1.800    4.500    0.000    2.400    0.000    0.000 
#    0.000    0.000    0.000    0.000    0.000    0.000 
#
# Total GULP energy -247948.008254 kJ/mol
# GULP energy per Si atom -12397.400413 kJ/mol
# Density = 2.058216 g / cm^3
# Si number density = 20.629114 Si / 1000 Ang^3
#
#
#
# Elastic Constant Matrix: (Units=GPa)
#
#
# Indices 1 2 3 4 5 6 
#
# 1 133.4991 31.9342 75.2324 0.0000 0.0000 0.0000
# 2 31.9342 81.0630 54.5884 0.0000 0.0000 0.0000
# 3 75.2324 54.5884 169.2397 0.0000 0.0000 0.0000
# 4 0.0000 0.0000 0.0000 17.4769 0.0000 0.0000
# 5 0.0000 0.0000 0.0000 0.0000 10.5726 0.0000
# 6 0.0000 0.0000 0.0000 0.0000 0.0000 12.0394
#
#
#
# Elastic Compliance Matrix: (Units=1/GPa)
#
#
# Indices 1 2 3 4 5 6 
#
# 1 0.010088 -0.001219 -0.004091 0.000000 0.000000 0.000000
# 2 -0.001219 0.015906 -0.004589 0.000000 0.000000 0.000000
# 3 -0.004091 -0.004589 0.009208 0.000000 0.000000 0.000000
# 4 0.000000 0.000000 0.000000 0.057218 0.000000 0.000000
# 5 0.000000 0.000000 0.000000 0.000000 0.094584 0.000000
# 6 0.000000 0.000000 0.000000 0.000000 0.000000 0.083061
#
#
# Mechanical properties :
#
#
# Convention : Reuss Voigt Hill
#
# Bulk Modulus (GPa) = 64.91850 78.59021 71.75436
# Shear Modulus (GPa) = 16.94928 22.82088 19.88508
#
# Velocity S-wave (km/s) = 2.86950 3.32964 3.10810
# Velocity P-wave (km/s) = 6.52046 7.27746 6.90933
#
# Compressibility (1/GPa) = 0.01540393
#
# Stress axis : x y z
#
# Youngs Moduli (GPa) = 99.12927 62.86783 108.60668
#
# Poissons Ratio (x) = 0.07664 0.44433
# Poissons Ratio (y) = 0.12084 0.49837
# Poissons Ratio (z) = 0.40555 0.28848
#
# Static dielectric constant tensor:
#      x y z
#    x 3.985970 0.000000 0.000000 
#    y 0.000000 3.696740 0.000000 
#    z 0.000000 0.000000 3.631930 
# 
# 
# High freq. dielectric constant tensor:
#      x y z
#    x 1.812020 0.000000 0.000000 
#    y 0.000000 1.798100 0.000000 
#    z 0.000000 0.000000 1.790130 
# 
# From -- ./inp_files/23295.got.cif
#   From: 2010.03.12/outbox.cif.g09.slc.cpg/sg38_12_cif.got.tgz:23295.got - 2010.04.14 02:38:36.
