data_PCOD8179115
_publ_section_title
;
Structure prediction by ZEFSAII (Michael W. Deem and Ramdas Pophale) SiO2 
 PCOD8179115
Probable space group: A M M 2
;
_chemical_formula_sum "Si O2"
_cell_formula_units_Z 56
_cell_length_a 16.417837
_cell_length_b 8.874028
_cell_length_c 20.366571
_cell_angle_alpha 90.000000
_cell_angle_beta 90.000000
_cell_angle_gamma 90.000000
_cell_volume 2967.253493
_symmetry_space_group_name_H-M "A M M 2"
_symmetry_group_IT_number 38
_symmetry_cell_setting 'orthorhombic'
loop_
_space_group_symop_operation_xyz
x,y,z
-x,-y,z
-x,y,z
x,-y,z
x,1/2+y,1/2+z
-x,1/2-y,1/2+z
-x,1/2+y,1/2+z
x,1/2-y,1/2+z
loop_
_atom_site_type_symbol
_atom_site_label
_atom_site_fract_x
_atom_site_fract_y
_atom_site_fract_z
Si Si1 0.337668 0.676426 0.236350
Si Si2 0.500000 0.821688 0.038831
Si Si3 0.771443 0.672885 0.116749
Si Si4 0.092379 0.671690 0.546881
Si Si5 0.751005 0.676854 0.370801
Si Si6 0.500000 0.678440 0.688728
Si Si7 0.092414 0.677025 0.909356
Si Si8 0.660211 0.674103 0.991371
O O1 0.355907 0.500000 0.228305
O O2 0.273010 0.730636 0.182084
O O3 0.300198 0.717084 0.306483
O O4 0.421590 0.764295 0.227826
O O5 0.500000 0.759353 0.113773
O O6 0.500000 0.000000 0.038870
O O7 0.576972 0.764176 0.998497
O O8 0.798490 0.500000 0.123561
O O9 0.851695 0.773557 0.106845
O O10 0.710729 0.698671 0.057001
O O11 0.113155 0.500000 0.527594
O O12 0.109434 0.776090 0.484255
O O13 0.000000 0.687274 0.571271
O O14 0.752511 0.500000 0.384291
O O15 0.843965 0.736203 0.362423
O O16 0.710521 0.761509 0.431123
O O17 0.500000 0.500000 0.688866
O O18 0.107357 0.500000 0.903474
O O19 0.000000 0.720879 0.888857
O O20 0.640603 0.500000 0.978648
#
# Coordination Sequence:
#
# PCOD8179115 Si02
#       8
#     8   4   8   8   8   4   8   8
#     4  10  23  42  62  83 115 158 195 232 285 347
#     4  11  23  38  59  90 121 149 193 244 293 340
#     4  10  20  36  59  85 112 149 195 236 283 341
#     4  10  20  33  54  86 120 152 190 240 293 340
#     4  11  23  39  60  87 119 154 193 239 290 343
#     4  11  23  38  61  90 115 147 191 240 289 340
#     4  10  20  35  57  84 115 153 194 237 288 345
#     4  11  22  37  61  87 115 150 190 240 290 339
#
# _framework density 18.872671
#
# number of rings (size 3 to 8) (size 9 to 14) (size 15 to 20)
#    0.000    1.571    2.857    2.143    0.000    5.143 
#    0.000    1.429    0.000    4.286    0.000    0.000 
#    0.000    0.000    0.000    0.000    0.000    0.000 
#
# Total GULP energy -347322.000767 kJ/mol
# GULP energy per Si atom -12404.357170 kJ/mol
# Density = 1.882972 g / cm^3
# Si number density = 18.872671 Si / 1000 Ang^3
#
#
#
# Elastic Constant Matrix: (Units=GPa)
#
#
# Indices 1 2 3 4 5 6 
#
# 1 114.9463 46.0804 20.1545 0.0000 0.0000 0.0000
# 2 46.0804 74.9100 31.1989 0.0000 0.0000 0.0000
# 3 20.1545 31.1989 52.5986 0.0000 0.0000 0.0000
# 4 0.0000 0.0000 0.0000 25.5928 0.0000 0.0000
# 5 0.0000 0.0000 0.0000 0.0000 30.0681 0.0000
# 6 0.0000 0.0000 0.0000 0.0000 0.0000 37.9550
#
#
#
# Elastic Compliance Matrix: (Units=1/GPa)
#
#
# Indices 1 2 3 4 5 6 
#
# 1 0.011550 -0.006988 -0.000281 0.000000 0.000000 0.000000
# 2 -0.006988 0.021957 -0.010346 0.000000 0.000000 0.000000
# 3 -0.000281 -0.010346 0.025256 0.000000 0.000000 0.000000
# 4 0.000000 0.000000 0.000000 0.039073 0.000000 0.000000
# 5 0.000000 0.000000 0.000000 0.000000 0.033258 0.000000
# 6 0.000000 0.000000 0.000000 0.000000 0.000000 0.026347
#
#
# Mechanical properties :
#
#
# Convention : Reuss Voigt Hill
#
# Bulk Modulus (GPa) = 42.49252 48.59141 45.54196
# Shear Modulus (GPa) = 24.93553 28.39127 26.66340
#
# Velocity S-wave (km/s) = 3.63884 3.88281 3.76281
# Velocity P-wave (km/s) = 6.34186 6.77529 6.56215
#
# Compressibility (1/GPa) = 0.02353356
#
# Stress axis : x y z
#
# Youngs Moduli (GPa) = 86.57684 45.54322 39.59395
#
# Poissons Ratio (x) = 0.31827 0.01112
# Poissons Ratio (y) = 0.60502 0.40965
# Poissons Ratio (z) = 0.02431 0.47120
#
# Static dielectric constant tensor:
#      x y z
#    x 3.596830 0.000000 0.000000 
#    y 0.000000 3.496880 0.000000 
#    z 0.000000 0.000000 3.371510 
# 
# 
# High freq. dielectric constant tensor:
#      x y z
#    x 1.748620 0.000000 0.000000 
#    y 0.000000 1.741350 0.000000 
#    z 0.000000 0.000000 1.712870 
# 
# From -- ./inp_files/21136.got.cif
#   From: 2010.03.12/outbox.cif.g09.slc.cpg/sg38_11_cif.got.tgz:21136.got - 2010.04.14 02:38:36.
