data_PCOD8179285
_publ_section_title
;
Structure prediction by ZEFSAII (Michael W. Deem and Ramdas Pophale) SiO2 
 PCOD8179285
Probable space group: A M M 2
;
_chemical_formula_sum "Si O2"
_cell_formula_units_Z 56
_cell_length_a 20.218742
_cell_length_b 9.290328
_cell_length_c 14.556644
_cell_angle_alpha 90.000000
_cell_angle_beta 90.000000
_cell_angle_gamma 90.000000
_cell_volume 2734.301739
_symmetry_space_group_name_H-M "A M M 2"
_symmetry_group_IT_number 38
_symmetry_cell_setting 'orthorhombic'
loop_
_space_group_symop_operation_xyz
x,y,z
-x,-y,z
-x,y,z
x,-y,z
x,1/2+y,1/2+z
-x,1/2-y,1/2+z
-x,1/2+y,1/2+z
x,1/2-y,1/2+z
loop_
_atom_site_type_symbol
_atom_site_label
_atom_site_fract_x
_atom_site_fract_y
_atom_site_fract_z
Si Si1 0.210163 0.840640 0.210210
Si Si2 0.927266 0.832861 0.913344
Si Si3 0.334812 0.168095 0.718676
Si Si4 0.196097 0.837490 0.428840
Si Si5 0.322384 0.833894 0.929819
Si Si6 0.070617 0.664543 0.728473
Si Si7 0.575666 0.666605 0.585143
O O1 0.265651 0.728833 0.177297
O O2 0.198791 0.830068 0.319062
O O3 0.136884 0.806544 0.166591
O O4 0.234823 0.000000 0.181797
O O5 0.870030 0.742936 0.965465
O O6 0.931643 0.779434 0.809246
O O7 0.000000 0.810658 0.959615
O O8 0.907069 0.000000 0.913798
O O9 0.340949 0.207860 0.825747
O O10 0.396687 0.240680 0.669185
O O11 0.336537 0.000000 0.699670
O O12 0.260771 0.757533 0.468330
O O13 0.195833 0.000000 0.465961
O O14 0.301665 0.000000 0.935492
O O15 0.385843 0.797654 0.991371
O O16 0.077294 0.500000 0.767553
O O17 0.000000 0.677420 0.673529
O O18 0.500000 0.710275 0.568459
O O19 0.582983 0.500000 0.611773
#
# Coordination Sequence:
#
# PCOD8179285 Si02
#       7
#     8   8   8   8   8   8   8
#     4   8  14  25  42  65  96 135 175 213 257 312
#     4   9  15  21  32  55  90 131 173 217 263 310
#     4  10  20  34  55  82 110 140 176 220 264 307
#     4   9  16  26  43  67  96 132 174 219 264 310
#     4   9  19  36  57  80 108 142 177 215 262 315
#     4   8  13  21  34  56  89 128 170 217 265 309
#     4  10  22  40  60  82 109 141 175 210 256 319
#
# _framework density 20.480550000000001
#
# number of rings (size 3 to 8) (size 9 to 14) (size 15 to 20)
#    0.000    3.000    0.000    2.143    0.000    6.286 
#    0.000    1.429    0.000    0.000    0.000    1.000 
#    0.000    3.429    0.000    0.000    0.000    0.000 
#
# Total GULP energy -346968.656295 kJ/mol
# GULP energy per Si atom -12391.737725 kJ/mol
# Density = 2.043393 g / cm^3
# Si number density = 20.480550 Si / 1000 Ang^3
#
#
#
# Elastic Constant Matrix: (Units=GPa)
#
#
# Indices 1 2 3 4 5 6 
#
# 1 208.8142 92.0607 40.9409 0.0000 0.0000 0.0000
# 2 92.0607 120.5787 35.3470 0.0000 0.0000 0.0000
# 3 40.9409 35.3470 43.0846 0.0000 0.0000 0.0000
# 4 0.0000 0.0000 0.0000 16.0397 0.0000 0.0000
# 5 0.0000 0.0000 0.0000 0.0000 -21.6258 0.0000
# 6 0.0000 0.0000 0.0000 0.0000 0.0000 34.7482
#
#
#
# Elastic Compliance Matrix: (Units=1/GPa)
#
#
# Indices 1 2 3 4 5 6 
#
# 1 0.007543 -0.004816 -0.003216 0.000000 0.000000 0.000000
# 2 -0.004816 0.013994 -0.006905 0.000000 0.000000 0.000000
# 3 -0.003216 -0.006905 0.031931 0.000000 0.000000 0.000000
# 4 0.000000 0.000000 0.000000 0.062345 0.000000 0.000000
# 5 0.000000 0.000000 0.000000 0.000000 -0.046241 0.000000
# 6 0.000000 0.000000 0.000000 0.000000 0.000000 0.028779
#
#
# Mechanical properties :
#
#
# Convention : Reuss Voigt Hill
#
# Bulk Modulus (GPa) = 42.38344 78.79720 60.59032
# Shear Modulus (GPa) = 36.74026 19.44099 28.09063
#
# Velocity S-wave (km/s) = 4.24005 3.08432 3.70750
# Velocity P-wave (km/s) = 6.68656 7.15833 6.92647
#
# Compressibility (1/GPa) = 0.02359412
#
# Stress axis : x y z
#
# Youngs Moduli (GPa) = 132.57637 71.45709 31.31720
#
# Poissons Ratio (x) = 0.34414 0.10073
# Poissons Ratio (y) = 0.63849 0.21624
# Poissons Ratio (z) = 0.42642 0.49340
#
# Static dielectric constant tensor:
#      x y z
#    x 4.196720 0.000000 0.000000 
#    y 0.000000 3.726740 0.000000 
#    z 0.000000 0.000000 3.186650 
# 
# 
# High freq. dielectric constant tensor:
#      x y z
#    x 1.816930 0.000000 0.000000 
#    y 0.000000 1.799410 0.000000 
#    z 0.000000 0.000000 1.752870 
# 
# From -- ./inp_files/18829.got.cif
#   From: 2010.03.12/outbox.cif.g09.slc.cpg/sg38_10_cif.got.tgz:18829.got - 2010.04.14 02:38:36.
