data_PCOD8179997
_publ_section_title
;
Structure prediction by ZEFSAII (Michael W. Deem and Ramdas Pophale) SiO2 
 PCOD8179997
Probable space group: A M M 2
;
_chemical_formula_sum "Si O2"
_cell_formula_units_Z 56
_cell_length_a 21.471236
_cell_length_b 8.532896
_cell_length_c 15.391330
_cell_angle_alpha 90.000000
_cell_angle_beta 90.000000
_cell_angle_gamma 90.000000
_cell_volume 2819.873640
_symmetry_space_group_name_H-M "A M M 2"
_symmetry_group_IT_number 38
_symmetry_cell_setting 'orthorhombic'
loop_
_space_group_symop_operation_xyz
x,y,z
-x,-y,z
-x,y,z
x,-y,z
x,1/2+y,1/2+z
-x,1/2-y,1/2+z
-x,1/2+y,1/2+z
x,1/2-y,1/2+z
loop_
_atom_site_type_symbol
_atom_site_label
_atom_site_fract_x
_atom_site_fract_y
_atom_site_fract_z
Si Si1 0.430841 0.686451 0.176760
Si Si2 0.652443 0.315817 0.330879
Si Si3 0.866276 0.684006 0.990082
Si Si4 0.571704 0.683276 0.981926
Si Si5 0.131486 0.315697 0.671192
Si Si6 0.793178 0.184523 0.830393
Si Si7 0.000000 0.185346 0.432076
Si Si8 0.000000 0.313971 0.738250
O O1 0.500000 0.751250 0.197940
O O2 0.432351 0.500000 0.181243
O O3 0.383065 0.757988 0.247289
O O4 0.410986 0.737394 0.079724
O O5 0.654177 0.500000 0.320194
O O6 0.616757 0.276280 0.418787
O O7 0.722573 0.251536 0.334259
O O8 0.859225 0.500000 0.972028
O O9 0.842724 0.726470 0.086447
O O10 0.824773 0.777156 0.921753
O O11 0.937976 0.742120 0.981652
O O12 0.500000 0.725451 0.961520
O O13 0.583456 0.500000 0.969591
O O14 0.132909 0.500000 0.654026
O O15 0.173731 0.276684 0.753218
O O16 0.061345 0.254356 0.688749
O O17 0.796797 0.000000 0.812338
O O18 0.000000 0.257696 0.335252
O O19 0.000000 0.000000 0.425727
O O20 0.000000 0.500000 0.744865
#
# Coordination Sequence:
#
# PCOD8179997 Si02
#       8
#     8   8   8   8   8   8   4   4
#     4   8  15  31  55  80 106 139 177 217 267 325
#     4  10  21  36  56  80 109 146 189 232 274 328
#     4  11  22  39  62  85 113 149 190 238 291 345
#     4   9  18  33  55  84 114 143 181 227 275 333
#     4  11  22  39  62  86 115 149 187 235 292 349
#     4  11  24  40  55  81 117 153 198 243 283 336
#     4   9  17  34  60  87 112 142 186 235 286 349
#     4   9  17  34  60  87 114 144 182 231 288 351
#
# _framework density 19.859045999999999
#
# number of rings (size 3 to 8) (size 9 to 14) (size 15 to 20)
#    0.000    2.143    1.429    3.000    0.000    3.143 
#    0.000    5.000    0.000    0.857    0.000    0.000 
#    0.000    0.000    0.000    0.000    0.000    0.000 
#
# Total GULP energy -347211.745930 kJ/mol
# GULP energy per Si atom -12400.419498 kJ/mol
# Density = 1.981385 g / cm^3
# Si number density = 19.859046 Si / 1000 Ang^3
#
#
#
# Elastic Constant Matrix: (Units=GPa)
#
#
# Indices 1 2 3 4 5 6 
#
# 1 136.2375 14.3006 65.1554 0.0000 0.0000 0.0000
# 2 14.3006 26.3743 5.7565 0.0000 0.0000 0.0000
# 3 65.1554 5.7565 138.3979 0.0000 0.0000 0.0000
# 4 0.0000 0.0000 0.0000 30.7810 0.0000 0.0000
# 5 0.0000 0.0000 0.0000 0.0000 -0.5394 0.0000
# 6 0.0000 0.0000 0.0000 0.0000 0.0000 22.4922
#
#
#
# Elastic Compliance Matrix: (Units=1/GPa)
#
#
# Indices 1 2 3 4 5 6 
#
# 1 0.009958 -0.004416 -0.004504 0.000000 0.000000 0.000000
# 2 -0.004416 0.040222 0.000406 0.000000 0.000000 0.000000
# 3 -0.004504 0.000406 0.009329 0.000000 0.000000 0.000000
# 4 0.000000 0.000000 0.000000 0.032488 0.000000 0.000000
# 5 0.000000 0.000000 0.000000 0.000000 -1.854046 0.000000
# 6 0.000000 0.000000 0.000000 0.000000 0.000000 0.044460
#
#
# Mechanical properties :
#
#
# Convention : Reuss Voigt Hill
#
# Bulk Modulus (GPa) = 23.54057 52.38163 37.96110
# Shear Modulus (GPa) = -2.96489 24.93325 10.98418
#
# Velocity S-wave (km/s) = -1.22320 3.54716 2.35437
# Velocity P-wave (km/s) = 3.14398 6.57347 5.15243
#
# Compressibility (1/GPa) = 0.04247986
#
# Stress axis : x y z
#
# Youngs Moduli (GPa) = 100.42320 24.86225 107.19033
#
# Poissons Ratio (x) = 0.10980 0.48282
# Poissons Ratio (y) = 0.44349 -0.04353
# Poissons Ratio (z) = 0.45234 -0.01010
#
# Static dielectric constant tensor:
#      x y z
#    x 3.917530 0.000000 0.000000 
#    y 0.000000 3.228900 0.000000 
#    z 0.000000 0.000000 3.744250 
# 
# 
# High freq. dielectric constant tensor:
#      x y z
#    x 1.774030 0.000000 0.000000 
#    y 0.000000 1.744740 0.000000 
#    z 0.000000 0.000000 1.789320 
# 
# From -- ./inp_files/15565.got.cif
#   From: 2010.03.12/outbox.cif.g09.slc.cpg/sg38_8_cif.got.tgz:15565.got - 2010.04.14 02:38:36.
