data_PCOD8179132
_publ_section_title
;
Structure prediction by ZEFSAII (Michael W. Deem and Ramdas Pophale) SiO2 
 PCOD8179132
Probable space group: A M M 2
;
_chemical_formula_sum "Si O2"
_cell_formula_units_Z 64
_cell_length_a 8.934137
_cell_length_b 19.697931
_cell_length_c 20.300840
_cell_angle_alpha 90.000000
_cell_angle_beta 90.000000
_cell_angle_gamma 90.000000
_cell_volume 3572.623314
_symmetry_space_group_name_H-M "A M M 2"
_symmetry_group_IT_number 38
_symmetry_cell_setting 'orthorhombic'
loop_
_space_group_symop_operation_xyz
x,y,z
-x,-y,z
-x,y,z
x,-y,z
x,1/2+y,1/2+z
-x,1/2-y,1/2+z
-x,1/2+y,1/2+z
x,1/2-y,1/2+z
loop_
_atom_site_type_symbol
_atom_site_label
_atom_site_fract_x
_atom_site_fract_y
_atom_site_fract_z
Si Si1 0.173767 0.077825 0.563660
Si Si2 0.673203 0.420597 0.928867
Si Si3 0.823962 0.823582 0.823333
Si Si4 0.323131 0.822363 0.182404
Si Si5 0.176705 0.818621 0.676266
Si Si6 0.177508 0.576918 0.433229
Si Si7 0.177012 0.829478 0.320123
Si Si8 0.674252 0.422512 0.567103
O O1 0.268882 0.101116 0.500739
O O2 0.224202 0.123066 0.625443
O O3 0.000000 0.088630 0.546674
O O4 0.207425 0.000000 0.582497
O O5 0.500000 0.401104 0.923111
O O6 0.700996 0.500000 0.917322
O O7 0.766175 0.381314 0.874350
O O8 0.771793 0.842202 0.749236
O O9 0.752442 0.875851 0.875624
O O10 0.775711 0.746790 0.840992
O O11 0.000000 0.831084 0.827921
O O12 0.500000 0.817605 0.191614
O O13 0.260563 0.750435 0.157484
O O14 0.250823 0.847217 0.250419
O O15 0.275341 0.877584 0.128593
O O16 0.000000 0.804102 0.674934
O O17 0.231463 0.500000 0.419759
O O18 0.238781 0.603529 0.502757
O O19 0.000000 0.581592 0.435249
O O20 0.000000 0.836083 0.312528
O O21 0.500000 0.414346 0.552314
O O22 0.717109 0.500000 0.583608
#
# Coordination Sequence:
#
# PCOD8179132 Si02
#       8
#     8   8   8   8   8   8   8   8
#     4   9  18  33  53  76 101 132 172 214 255 302
#     4  10  21  36  53  74 102 134 167 207 255 307
#     4   8  16  31  49  72 101 129 159 199 247 292
#     4  10  20  34  52  74 100 132 169 208 252 303
#     4   9  18  33  52  74 102 135 169 209 254 298
#     4   9  17  30  50  74  98 126 162 202 241 286
#     4  10  20  35  54  75 101 132 166 207 252 299
#     4   9  19  35  51  68  95 129 162 199 244 292
#
# _framework density 17.914007000000002
#
# number of rings (size 3 to 8) (size 9 to 14) (size 15 to 20)
#    0.000    2.750    0.000    1.875    0.000    4.250 
#    0.000   10.625    0.000    0.000    0.000    3.500 
#    0.000    0.000    0.000    0.000    0.000    0.000 
#
# Total GULP energy -396807.686065 kJ/mol
# GULP energy per Si atom -12400.240190 kJ/mol
# Density = 1.787323 g / cm^3
# Si number density = 17.914007 Si / 1000 Ang^3
#
#
#
# Elastic Constant Matrix: (Units=GPa)
#
#
# Indices 1 2 3 4 5 6 
#
# 1 49.4325 36.8474 50.1065 0.0000 0.0000 0.0000
# 2 36.8474 97.9316 96.1313 0.0000 0.0000 0.0000
# 3 50.1065 96.1313 152.6092 0.0000 0.0000 0.0000
# 4 0.0000 0.0000 0.0000 41.0369 0.0000 0.0000
# 5 0.0000 0.0000 0.0000 0.0000 15.7255 0.0000
# 6 0.0000 0.0000 0.0000 0.0000 0.0000 24.2263
#
#
#
# Elastic Compliance Matrix: (Units=1/GPa)
#
#
# Indices 1 2 3 4 5 6 
#
# 1 0.031023 -0.004386 -0.007423 0.000000 0.000000 0.000000
# 2 -0.004386 0.027375 -0.015804 0.000000 0.000000 0.000000
# 3 -0.007423 -0.015804 0.018945 0.000000 0.000000 0.000000
# 4 0.000000 0.000000 0.000000 0.024368 0.000000 0.000000
# 5 0.000000 0.000000 0.000000 0.000000 0.063591 0.000000
# 6 0.000000 0.000000 0.000000 0.000000 0.000000 0.041278
#
#
# Mechanical properties :
#
#
# Convention : Reuss Voigt Hill
#
# Bulk Modulus (GPa) = 45.21371 74.01596 59.61483
# Shear Modulus (GPa) = 18.57507 23.99027 21.28267
#
# Velocity S-wave (km/s) = 3.22359 3.66347 3.45054
# Velocity P-wave (km/s) = 6.25695 7.70076 7.01609
#
# Compressibility (1/GPa) = 0.02211719
#
# Stress axis : x y z
#
# Youngs Moduli (GPa) = 32.23382 36.53010 52.78453
#
# Poissons Ratio (x) = 0.16023 0.39182
# Poissons Ratio (y) = 0.14138 0.83419
# Poissons Ratio (z) = 0.23927 0.57731
#
# Static dielectric constant tensor:
#      x y z
#    x 3.196920 0.000000 0.000000 
#    y 0.000000 3.442500 0.000000 
#    z 0.000000 0.000000 3.470950 
# 
# 
# High freq. dielectric constant tensor:
#      x y z
#    x 1.682500 0.000000 0.000000 
#    y 0.000000 1.692580 0.000000 
#    z 0.000000 0.000000 1.700620 
# 
# From -- ./inp_files/17229.got.cif
#   From: 2010.03.12/outbox.cif.g09.slc.cpg/sg38_9_cif.got.tgz:17229.got - 2010.04.14 02:38:36.
