data_PCOD8179340
_publ_section_title
;
Structure prediction by ZEFSAII (Michael W. Deem and Ramdas Pophale) SiO2 
 PCOD8179340
Probable space group: A M M 2
;
_chemical_formula_sum "Si O2"
_cell_formula_units_Z 40
_cell_length_a 8.372898
_cell_length_b 11.804588
_cell_length_c 20.227672
_cell_angle_alpha 90.000000
_cell_angle_beta 90.000000
_cell_angle_gamma 90.000000
_cell_volume 1999.275009
_symmetry_space_group_name_H-M "A M M 2"
_symmetry_group_IT_number 38
_symmetry_cell_setting 'orthorhombic'
loop_
_space_group_symop_operation_xyz
x,y,z
-x,-y,z
-x,y,z
x,-y,z
x,1/2+y,1/2+z
-x,1/2-y,1/2+z
-x,1/2+y,1/2+z
x,1/2-y,1/2+z
loop_
_atom_site_type_symbol
_atom_site_label
_atom_site_fract_x
_atom_site_fract_y
_atom_site_fract_z
Si Si1 0.811945 0.873118 0.677050
Si Si2 0.191340 0.253368 0.805531
Si Si3 0.818111 0.000000 0.322983
Si Si4 0.680500 0.500000 0.961091
Si Si5 0.312055 0.870978 0.935281
Si Si6 0.185842 0.206424 0.536586
O O1 0.740987 0.817342 0.743504
O O2 0.769805 0.793315 0.614500
O O3 0.000000 0.882116 0.685518
O O4 0.740556 0.000000 0.668058
O O5 0.257359 0.382379 0.796030
O O6 0.260463 0.202627 0.872692
O O7 0.000000 0.251634 0.810536
O O8 0.805797 0.000000 0.401894
O O9 0.000000 0.000000 0.300979
O O10 0.500000 0.500000 0.933553
O O11 0.706231 0.389351 0.004340
O O12 0.500000 0.862551 0.944898
O O13 0.255776 0.000000 0.924631
O O14 0.227945 0.825594 0.002213
O O15 0.000000 0.176920 0.526950
#
# Coordination Sequence:
#
# PCOD8179340 Si02
#       6
#     8   8   4   4   8   8
#     4   9  18  34  57  85 115 147 188 240 287 331
#     4  10  20  36  60  86 115 150 190 237 287 339
#     4  10  20  34  56  88 118 147 188 235 284 337
#     4  12  22  34  58  88 118 149 188 233 290 347
#     4  11  24  40  57  82 118 153 190 238 290 345
#     4  11  21  37  61  87 116 148 192 242 287 337
#
# _framework density 20.007254
#
# number of rings (size 3 to 8) (size 9 to 14) (size 15 to 20)
#    0.000    1.600    3.000    2.700    0.000    2.400 
#    1.800    2.000    0.000    0.000    0.000    0.000 
#    0.000    0.000    0.000    0.000    0.000    0.000 
#
# Total GULP energy -247954.557035 kJ/mol
# GULP energy per Si atom -12397.727852 kJ/mol
# Density = 1.996172 g / cm^3
# Si number density = 20.007254 Si / 1000 Ang^3
#
#
#
# Elastic Constant Matrix: (Units=GPa)
#
#
# Indices 1 2 3 4 5 6 
#
# 1 37.2734 19.7965 13.0226 0.0000 0.0000 0.0000
# 2 19.7965 150.9646 64.7171 0.0000 0.0000 0.0000
# 3 13.0226 64.7171 138.4807 0.0000 0.0000 0.0000
# 4 0.0000 0.0000 0.0000 40.2430 0.0000 0.0000
# 5 0.0000 0.0000 0.0000 0.0000 4.5608 0.0000
# 6 0.0000 0.0000 0.0000 0.0000 0.0000 168.4541
#
#
#
# Elastic Compliance Matrix: (Units=1/GPa)
#
#
# Indices 1 2 3 4 5 6 
#
# 1 0.028993 -0.003293 -0.001188 0.000000 0.000000 0.000000
# 2 -0.003293 0.008658 -0.003736 0.000000 0.000000 0.000000
# 3 -0.001188 -0.003736 0.009079 0.000000 0.000000 0.000000
# 4 0.000000 0.000000 0.000000 0.024849 0.000000 0.000000
# 5 0.000000 0.000000 0.000000 0.000000 0.219259 0.000000
# 6 0.000000 0.000000 0.000000 0.000000 0.000000 0.005936
#
#
# Mechanical properties :
#
#
# Convention : Reuss Voigt Hill
#
# Bulk Modulus (GPa) = 33.00793 57.97679 45.49236
# Shear Modulus (GPa) = 15.46524 57.93040 36.69782
#
# Velocity S-wave (km/s) = 2.78327 5.38679 4.28743
# Velocity P-wave (km/s) = 5.18291 8.22988 6.87726
#
# Compressibility (1/GPa) = 0.03029575
#
# Stress axis : x y z
#
# Youngs Moduli (GPa) = 34.49157 115.50521 110.14372
#
# Poissons Ratio (x) = 0.38034 0.13080
# Poissons Ratio (y) = 0.11357 0.41154
# Poissons Ratio (z) = 0.04096 0.43157
#
# Static dielectric constant tensor:
#      x y z
#    x 3.351170 0.000000 0.000000 
#    y 0.000000 4.354380 0.000000 
#    z 0.000000 0.000000 3.710960 
# 
# 
# High freq. dielectric constant tensor:
#      x y z
#    x 1.755260 0.000000 0.000000 
#    y 0.000000 1.788250 0.000000 
#    z 0.000000 0.000000 1.778530 
# 
# From -- ./inp_files/19479.got.cif
#   From: 2010.03.12/outbox.cif.g09.slc.cpg/sg38_10_cif.got.tgz:19479.got - 2010.04.14 02:38:36.
