data_PCOD8179238
_publ_section_title
;
Structure prediction by ZEFSAII (Michael W. Deem and Ramdas Pophale) SiO2 
 PCOD8179238
Probable space group: A M M 2
;
_chemical_formula_sum "Si O2"
_cell_formula_units_Z 56
_cell_length_a 9.038421
_cell_length_b 13.850376
_cell_length_c 23.469015
_cell_angle_alpha 90.000000
_cell_angle_beta 90.000000
_cell_angle_gamma 90.000000
_cell_volume 2937.981065
_symmetry_space_group_name_H-M "A M M 2"
_symmetry_group_IT_number 38
_symmetry_cell_setting 'orthorhombic'
loop_
_space_group_symop_operation_xyz
x,y,z
-x,-y,z
-x,y,z
x,-y,z
x,1/2+y,1/2+z
-x,1/2-y,1/2+z
-x,1/2+y,1/2+z
x,1/2-y,1/2+z
loop_
_atom_site_type_symbol
_atom_site_label
_atom_site_fract_x
_atom_site_fract_y
_atom_site_fract_z
Si Si1 0.825828 0.390958 0.593170
Si Si2 0.825234 0.610879 0.371702
Si Si3 0.670627 0.108162 0.205916
Si Si4 0.327960 0.201429 0.763431
Si Si5 0.167085 0.114215 0.655849
Si Si6 0.327265 0.888096 0.540428
Si Si7 0.825375 0.273674 0.483615
O O1 0.769717 0.500000 0.585329
O O2 0.757154 0.349021 0.651344
O O3 0.770966 0.333348 0.538351
O O4 0.000000 0.385601 0.598932
O O5 0.771158 0.500000 0.375367
O O6 0.751361 0.665123 0.319542
O O7 0.775462 0.666668 0.428415
O O8 0.000000 0.614623 0.363335
O O9 0.500000 0.105176 0.188683
O O10 0.696875 0.182559 0.257942
O O11 0.726059 0.000000 0.223087
O O12 0.500000 0.174925 0.766992
O O13 0.260997 0.149328 0.708967
O O14 0.243696 0.147868 0.597331
O O15 0.000000 0.156532 0.657306
O O16 0.162857 0.000000 0.658871
O O17 0.500000 0.867303 0.547947
O O18 0.260523 0.828518 0.486902
O O19 0.296334 0.000000 0.527801
O O20 0.000000 0.254947 0.483258
#
# Coordination Sequence:
#
# PCOD8179238 Si02
#       7
#     8   8   8   8   8   8   8
#     4   9  17  30  51  80 109 135 167 210 260 313
#     4  10  22  40  59  79 106 140 177 218 265 318
#     4   9  19  35  52  73 104 139 172 209 258 314
#     4  11  22  35  54  79 107 141 181 225 270 315
#     4  10  20  34  54  80 110 144 179 217 266 322
#     4  10  21  36  54  79 111 143 176 218 267 317
#     4  10  20  35  56  79 105 140 179 218 262 314
#
# _framework density 19.060708000000002
#
# number of rings (size 3 to 8) (size 9 to 14) (size 15 to 20)
#    0.000    2.143    0.000    3.000    0.000   10.000 
#    0.000    0.714    0.000    5.143    0.000    0.000 
#    0.000    0.000    0.000    0.000    0.000    0.000 
#
# Total GULP energy -347222.103065 kJ/mol
# GULP energy per Si atom -12400.789395 kJ/mol
# Density = 1.901732 g / cm^3
# Si number density = 19.060708 Si / 1000 Ang^3
#
#
#
# Elastic Constant Matrix: (Units=GPa)
#
#
# Indices 1 2 3 4 5 6 
#
# 1 5.3048 34.6339 28.6745 0.0000 0.0000 0.0000
# 2 34.6339 87.9881 82.7391 0.0000 0.0000 0.0000
# 3 28.6745 82.7391 120.5444 0.0000 0.0000 0.0000
# 4 0.0000 0.0000 0.0000 32.0910 0.0000 0.0000
# 5 0.0000 0.0000 0.0000 0.0000 1.4245 0.0000
# 6 0.0000 0.0000 0.0000 0.0000 0.0000 29.4007
#
#
#
# Elastic Compliance Matrix: (Units=1/GPa)
#
#
# Indices 1 2 3 4 5 6 
#
# 1 -0.115174 0.055200 -0.010491 0.000000 0.000000 0.000000
# 2 0.055200 0.005597 -0.016973 0.000000 0.000000 0.000000
# 3 -0.010491 -0.016973 0.022441 0.000000 0.000000 0.000000
# 4 0.000000 0.000000 0.000000 0.031161 0.000000 0.000000
# 5 0.000000 0.000000 0.000000 0.000000 0.702002 0.000000
# 6 0.000000 0.000000 0.000000 0.000000 0.000000 0.034013
#
#
# Mechanical properties :
#
#
# Convention : Reuss Voigt Hill
#
# Bulk Modulus (GPa) = -31.58251 56.21469 12.31609
# Shear Modulus (GPa) = 8.14315 17.10255 12.62285
#
# Velocity S-wave (km/s) = 2.06918 2.99869 2.57620
# Velocity P-wave (km/s) = 3.30102 6.44562 3.91467
#
# Compressibility (1/GPa) = -0.03166310
#
# Stress axis : x y z
#
# Youngs Moduli (GPa) = -8.68250 178.65501 44.56130
#
# Poissons Ratio (x) = -9.86182 0.46750
# Poissons Ratio (y) = 0.47928 0.75633
# Poissons Ratio (z) = -0.09109 3.03226
#
# Static dielectric constant tensor:
#      x y z
#    x 3.484570 0.000000 0.000000 
#    y 0.000000 3.816740 0.000000 
#    z 0.000000 0.000000 3.445070 
# 
# 
# High freq. dielectric constant tensor:
#      x y z
#    x 1.740140 0.000000 0.000000 
#    y 0.000000 1.758500 0.000000 
#    z 0.000000 0.000000 1.722740 
# 
# From -- ./inp_files/19743.got.cif
#   From: 2010.03.12/outbox.cif.g09.slc.cpg/sg38_10_cif.got.tgz:19743.got - 2010.04.14 02:38:36.
