data_PCOD8179435
_publ_section_title
;
Structure prediction by ZEFSAII (Michael W. Deem and Ramdas Pophale) SiO2 
 PCOD8179435
Probable space group: A M M 2
;
_chemical_formula_sum "Si O2"
_cell_formula_units_Z 56
_cell_length_a 15.056752
_cell_length_b 9.028942
_cell_length_c 20.137473
_cell_angle_alpha 90.000000
_cell_angle_beta 90.000000
_cell_angle_gamma 90.000000
_cell_volume 2737.619789
_symmetry_space_group_name_H-M "A M M 2"
_symmetry_group_IT_number 38
_symmetry_cell_setting 'orthorhombic'
loop_
_space_group_symop_operation_xyz
x,y,z
-x,-y,z
-x,y,z
x,-y,z
x,1/2+y,1/2+z
-x,1/2-y,1/2+z
-x,1/2+y,1/2+z
x,1/2-y,1/2+z
loop_
_atom_site_type_symbol
_atom_site_label
_atom_site_fract_x
_atom_site_fract_y
_atom_site_fract_z
Si Si1 0.282745 0.824707 0.010870
Si Si2 0.100128 0.326160 0.688746
Si Si3 0.866082 0.832789 0.336662
Si Si4 0.668164 0.832937 0.382765
Si Si5 0.273036 0.175845 0.643053
Si Si6 0.400222 0.671636 0.745302
Si Si7 0.904910 0.670491 0.463686
O O1 0.318406 0.742963 0.076566
O O2 0.291895 0.000000 0.020090
O O3 0.339533 0.775148 0.946355
O O4 0.180302 0.766824 0.002823
O O5 0.122866 0.500000 0.681748
O O6 0.107559 0.272146 0.764594
O O7 0.171975 0.235582 0.646380
O O8 0.000000 0.293793 0.662830
O O9 0.761696 0.817876 0.346218
O O10 0.917162 0.740209 0.391590
O O11 0.899424 0.000000 0.343680
O O12 0.599916 0.788810 0.324199
O O13 0.651701 0.000000 0.408493
O O14 0.331416 0.226922 0.705546
O O15 0.272369 0.000000 0.639642
O O16 0.500000 0.699931 0.719000
O O17 0.372028 0.500000 0.735907
O O18 0.884764 0.500000 0.452119
O O19 0.000000 0.694678 0.501691
#
# Coordination Sequence:
#
# PCOD8179435 Si02
#       7
#     8   8   8   8   8   8   8
#     4  10  21  37  58  81 113 159 206 245 297 357
#     4  10  20  35  56  82 116 161 209 253 301 357
#     4   9  16  29  51  78 110 147 188 236 291 349
#     4   9  17  34  60  89 118 146 186 240 300 360
#     4  12  25  40  59  86 125 165 205 253 302 356
#     4  10  21  41  70  97 121 154 196 243 301 368
#     4   9  18  31  48  74 108 146 193 247 297 345
#
# _framework density 20.455725999999999
#
# number of rings (size 3 to 8) (size 9 to 14) (size 15 to 20)
#    0.000    2.143    1.429    2.143    0.000    3.714 
#    0.000    2.143    0.000    2.571    0.000    0.000 
#    0.000    0.000    0.000    0.000    0.000    0.000 
#
# Total GULP energy -347084.442435 kJ/mol
# GULP energy per Si atom -12395.872944 kJ/mol
# Density = 2.040917 g / cm^3
# Si number density = 20.455726 Si / 1000 Ang^3
#
#
#
# Elastic Constant Matrix: (Units=GPa)
#
#
# Indices 1 2 3 4 5 6 
#
# 1 64.9072 29.7562 21.9649 0.0000 0.0000 0.0000
# 2 29.7562 91.9748 52.6344 0.0000 0.0000 0.0000
# 3 21.9649 52.6344 108.4675 0.0000 0.0000 0.0000
# 4 0.0000 0.0000 0.0000 34.6684 0.0000 0.0000
# 5 0.0000 0.0000 0.0000 0.0000 7.1314 0.0000
# 6 0.0000 0.0000 0.0000 0.0000 0.0000 17.4885
#
#
#
# Elastic Compliance Matrix: (Units=1/GPa)
#
#
# Indices 1 2 3 4 5 6 
#
# 1 0.018192 -0.005230 -0.001146 0.000000 0.000000 0.000000
# 2 -0.005230 0.016556 -0.006975 0.000000 0.000000 0.000000
# 3 -0.001146 -0.006975 0.012836 0.000000 0.000000 0.000000
# 4 0.000000 0.000000 0.000000 0.028845 0.000000 0.000000
# 5 0.000000 0.000000 0.000000 0.000000 0.140225 0.000000
# 6 0.000000 0.000000 0.000000 0.000000 0.000000 0.057180
#
#
# Mechanical properties :
#
#
# Convention : Reuss Voigt Hill
#
# Bulk Modulus (GPa) = 47.88674 52.67338 50.28006
# Shear Modulus (GPa) = 16.26035 22.59060 19.42547
#
# Velocity S-wave (km/s) = 2.82246 3.32680 3.08496
# Velocity P-wave (km/s) = 5.83802 6.36888 6.10922
#
# Compressibility (1/GPa) = 0.02088261
#
# Stress axis : x y z
#
# Youngs Moduli (GPa) = 54.96927 60.40120 77.90559
#
# Poissons Ratio (x) = 0.31588 0.08930
# Poissons Ratio (y) = 0.28747 0.54338
# Poissons Ratio (z) = 0.06301 0.42129
#
# Static dielectric constant tensor:
#      x y z
#    x 3.707200 0.000000 0.000000 
#    y 0.000000 3.535170 0.000000 
#    z 0.000000 0.000000 3.704920 
# 
# 
# High freq. dielectric constant tensor:
#      x y z
#    x 1.787660 0.000000 0.000000 
#    y 0.000000 1.780420 0.000000 
#    z 0.000000 0.000000 1.798580 
# 
# From -- ./inp_files/21084.got.cif
#   From: 2010.03.12/outbox.cif.g09.slc.cpg/sg38_11_cif.got.tgz:21084.got - 2010.04.14 02:38:36.
