data_PCOD8179527
_publ_section_title
;
Structure prediction by ZEFSAII (Michael W. Deem and Ramdas Pophale) SiO2 
 PCOD8179527
Probable space group: A M M 2
;
_chemical_formula_sum "Si O2"
_cell_formula_units_Z 40
_cell_length_a 14.136353
_cell_length_b 8.803638
_cell_length_c 15.596513
_cell_angle_alpha 90.000000
_cell_angle_beta 90.000000
_cell_angle_gamma 90.000000
_cell_volume 1941.006856
_symmetry_space_group_name_H-M "A M M 2"
_symmetry_group_IT_number 38
_symmetry_cell_setting 'orthorhombic'
loop_
_space_group_symop_operation_xyz
x,y,z
-x,-y,z
-x,y,z
x,-y,z
x,1/2+y,1/2+z
-x,1/2-y,1/2+z
-x,1/2+y,1/2+z
x,1/2-y,1/2+z
loop_
_atom_site_type_symbol
_atom_site_label
_atom_site_fract_x
_atom_site_fract_y
_atom_site_fract_z
Si Si1 0.714110 0.321512 0.816540
Si Si2 0.105207 0.672732 0.575005
Si Si3 0.892849 0.324046 0.252854
Si Si4 0.297669 0.176473 0.991806
Si Si5 0.388894 0.675180 0.156034
O O1 0.702425 0.500000 0.820329
O O2 0.824338 0.275951 0.811581
O O3 0.659915 0.259682 0.734404
O O4 0.669924 0.251122 0.902723
O O5 0.114552 0.500000 0.609747
O O6 0.123621 0.786018 0.653280
O O7 0.184750 0.703636 0.503692
O O8 0.000000 0.699299 0.535539
O O9 0.868833 0.500000 0.267335
O O10 0.000000 0.286074 0.280068
O O11 0.356407 0.252507 0.067283
O O12 0.323248 0.000000 0.989451
O O13 0.500000 0.696152 0.165547
O O14 0.358386 0.500000 0.157888
#
# Coordination Sequence:
#
# PCOD8179527 Si02
#       5
#     8   8   8   8   8
#     4  12  25  41  64  94 129 170 212 259 311 370
#     4   9  18  34  58  89 125 165 207 250 303 368
#     4  10  20  35  59  90 126 168 212 258 308 366
#     4  11  23  40  65  96 129 168 208 255 311 372
#     4  11  25  46  70  94 123 160 205 262 323 381
#
# _framework density 20.607862000000001
#
# number of rings (size 3 to 8) (size 9 to 14) (size 15 to 20)
#    0.000    1.400    2.000    3.600    0.000    5.200 
#    0.000    2.000    0.000    0.000    0.000    0.000 
#    0.000    0.000    0.000    0.000    0.000    0.000 
#
# Total GULP energy -248065.681015 kJ/mol
# GULP energy per Si atom -12403.284051 kJ/mol
# Density = 2.056096 g / cm^3
# Si number density = 20.607862 Si / 1000 Ang^3
#
#
#
# Elastic Constant Matrix: (Units=GPa)
#
#
# Indices 1 2 3 4 5 6 
#
# 1 77.0175 62.6597 48.0380 0.0000 0.0000 0.0000
# 2 62.6597 180.5629 94.4093 0.0000 0.0000 0.0000
# 3 48.0380 94.4093 164.2927 0.0000 0.0000 0.0000
# 4 0.0000 0.0000 0.0000 38.6547 0.0000 0.0000
# 5 0.0000 0.0000 0.0000 0.0000 7.8414 0.0000
# 6 0.0000 0.0000 0.0000 0.0000 0.0000 30.8249
#
#
#
# Elastic Compliance Matrix: (Units=1/GPa)
#
#
# Indices 1 2 3 4 5 6 
#
# 1 0.018782 -0.005213 -0.002496 0.000000 0.000000 0.000000
# 2 -0.005213 0.009364 -0.003857 0.000000 0.000000 0.000000
# 3 -0.002496 -0.003857 0.009033 0.000000 0.000000 0.000000
# 4 0.000000 0.000000 0.000000 0.025870 0.000000 0.000000
# 5 0.000000 0.000000 0.000000 0.000000 0.127529 0.000000
# 6 0.000000 0.000000 0.000000 0.000000 0.000000 0.032441
#
#
# Mechanical properties :
#
#
# Convention : Reuss Voigt Hill
#
# Bulk Modulus (GPa) = 71.18809 92.45411 81.82110
# Shear Modulus (GPa) = 19.93367 29.91529 24.92448
#
# Velocity S-wave (km/s) = 3.11349 3.81418 3.48151
# Velocity P-wave (km/s) = 6.89523 8.02236 7.48006
#
# Compressibility (1/GPa) = 0.01404729
#
# Stress axis : x y z
#
# Youngs Moduli (GPa) = 53.24277 106.79699 110.70804
#
# Poissons Ratio (x) = 0.55668 0.27637
# Poissons Ratio (y) = 0.27753 0.42695
# Poissons Ratio (z) = 0.13291 0.41187
#
# Static dielectric constant tensor:
#      x y z
#    x 3.898170 0.000000 0.000000 
#    y 0.000000 3.860790 0.000000 
#    z 0.000000 0.000000 3.599540 
# 
# 
# High freq. dielectric constant tensor:
#      x y z
#    x 1.810100 0.000000 0.000000 
#    y 0.000000 1.815660 0.000000 
#    z 0.000000 0.000000 1.799250 
# 
# From -- ./inp_files/14264.got.cif
#   From: 2010.03.12/outbox.cif.g09.slc.cpg/sg38_8_cif.got.tgz:14264.got - 2010.04.14 02:38:36.
