data_PCOD8179059
_publ_section_title
;
Structure prediction by ZEFSAII (Michael W. Deem and Ramdas Pophale) SiO2 
 PCOD8179059
Probable space group: A M M 2
;
_chemical_formula_sum "Si O2"
_cell_formula_units_Z 48
_cell_length_a 9.355687
_cell_length_b 9.183001
_cell_length_c 30.693167
_cell_angle_alpha 90.000000
_cell_angle_beta 90.000000
_cell_angle_gamma 90.000000
_cell_volume 2636.950745
_symmetry_space_group_name_H-M "A M M 2"
_symmetry_group_IT_number 38
_symmetry_cell_setting 'orthorhombic'
loop_
_space_group_symop_operation_xyz
x,y,z
-x,-y,z
-x,y,z
x,-y,z
x,1/2+y,1/2+z
-x,1/2-y,1/2+z
-x,1/2+y,1/2+z
x,1/2-y,1/2+z
loop_
_atom_site_type_symbol
_atom_site_label
_atom_site_fract_x
_atom_site_fract_y
_atom_site_fract_z
Si Si1 0.334591 0.830100 0.149090
Si Si2 0.835809 0.828671 0.723003
Si Si3 0.833485 0.829475 0.969999
Si Si4 0.334682 0.168323 0.807245
Si Si5 0.342079 0.327287 0.551907
Si Si6 0.665018 0.170903 0.394752
O O1 0.500000 0.796856 0.159593
O O2 0.233233 0.743568 0.181110
O O3 0.296784 0.775147 0.100180
O O4 0.302049 0.000000 0.154377
O O5 0.756949 0.774347 0.766584
O O6 0.000000 0.781219 0.726262
O O7 0.817373 0.000000 0.717870
O O8 0.761529 0.741387 0.931499
O O9 0.000000 0.794823 0.970320
O O10 0.801857 0.000000 0.963274
O O11 0.769811 0.772191 0.015856
O O12 0.500000 0.192740 0.795534
O O13 0.287935 0.262407 0.848685
O O14 0.302061 0.000000 0.817789
O O15 0.500000 0.266303 0.540180
O O16 0.348396 0.500000 0.552649
O O17 0.500000 0.208281 0.404572
O O18 0.693007 0.000000 0.393333
#
# Coordination Sequence:
#
# PCOD8179059 Si02
#       6
#     8   8   8   8   8   8
#     4   9  18  33  54  79 104 132 170 214 256 299
#     4  10  21  35  51  75 107 139 170 206 250 302
#     4  10  20  33  52  78 105 135 171 209 251 301
#     4   9  18  34  55  75  97 131 174 215 253 296
#     4   8  15  30  52  76 101 131 170 214 254 294
#     4  10  21  36  54  77 104 133 167 209 256 304
#
# _framework density 18.202843999999999
#
# number of rings (size 3 to 8) (size 9 to 14) (size 15 to 20)
#    0.000    2.667    0.000    2.500    0.000    5.333 
#    0.000    5.833    0.000    1.000    0.000    0.000 
#    0.000    0.000    0.000    0.000    0.000    0.000 
#
# Total GULP energy -297609.205069 kJ/mol
# GULP energy per Si atom -12400.383545 kJ/mol
# Density = 1.816141 g / cm^3
# Si number density = 18.202844 Si / 1000 Ang^3
#
#
#
# Elastic Constant Matrix: (Units=GPa)
#
#
# Indices 1 2 3 4 5 6 
#
# 1 115.4939 49.6045 103.9980 0.0000 0.0000 0.0000
# 2 49.6045 47.0786 59.0982 0.0000 0.0000 0.0000
# 3 103.9980 59.0982 179.1055 0.0000 0.0000 0.0000
# 4 0.0000 0.0000 0.0000 30.1314 0.0000 0.0000
# 5 0.0000 0.0000 0.0000 0.0000 1.5303 0.0000
# 6 0.0000 0.0000 0.0000 0.0000 0.0000 25.4499
#
#
#
# Elastic Compliance Matrix: (Units=1/GPa)
#
#
# Indices 1 2 3 4 5 6 
#
# 1 0.021445 -0.011889 -0.008529 0.000000 0.000000 0.000000
# 2 -0.011889 0.042851 -0.007236 0.000000 0.000000 0.000000
# 3 -0.008529 -0.007236 0.012923 0.000000 0.000000 0.000000
# 4 0.000000 0.000000 0.000000 0.033188 0.000000 0.000000
# 5 0.000000 0.000000 0.000000 0.000000 0.653475 0.000000
# 6 0.000000 0.000000 0.000000 0.000000 0.000000 0.039293
#
#
# Mechanical properties :
#
#
# Convention : Reuss Voigt Hill
#
# Bulk Modulus (GPa) = 45.63810 85.23105 65.43458
# Shear Modulus (GPa) = 5.77509 20.02081 12.89795
#
# Velocity S-wave (km/s) = 1.78312 3.32003 2.66478
# Velocity P-wave (km/s) = 5.41902 7.84993 6.74489
#
# Compressibility (1/GPa) = 0.02191152
#
# Stress axis : x y z
#
# Youngs Moduli (GPa) = 46.63121 23.33657 77.37886
#
# Poissons Ratio (x) = 0.27744 0.65998
# Poissons Ratio (y) = 0.55439 0.55992
# Poissons Ratio (z) = 0.39773 0.16887
#
# Static dielectric constant tensor:
#      x y z
#    x 3.498420 0.000000 0.000000 
#    y 0.000000 3.122600 0.000000 
#    z 0.000000 0.000000 3.576590 
# 
# 
# High freq. dielectric constant tensor:
#      x y z
#    x 1.704450 0.000000 0.000000 
#    y 0.000000 1.681030 0.000000 
#    z 0.000000 0.000000 1.719580 
# 
# From -- ./inp_files/24284.got.cif
#   From: 2010.03.12/outbox.cif.g09.slc.cpg/sg38_13_cif.got.tgz:24284.got - 2010.04.14 02:38:36.
