data_PCOD8179180
_publ_section_title
;
Structure prediction by ZEFSAII (Michael W. Deem and Ramdas Pophale) SiO2 
 PCOD8179180
Probable space group: A M M 2
;
_chemical_formula_sum "Si O2"
_cell_formula_units_Z 64
_cell_length_a 19.677635
_cell_length_b 8.928173
_cell_length_c 20.301639
_cell_angle_alpha 90.000000
_cell_angle_beta 90.000000
_cell_angle_gamma 90.000000
_cell_volume 3566.700137
_symmetry_space_group_name_H-M "A M M 2"
_symmetry_group_IT_number 38
_symmetry_cell_setting 'orthorhombic'
loop_
_space_group_symop_operation_xyz
x,y,z
-x,-y,z
-x,y,z
x,-y,z
x,1/2+y,1/2+z
-x,1/2-y,1/2+z
-x,1/2+y,1/2+z
x,1/2-y,1/2+z
loop_
_atom_site_type_symbol
_atom_site_label
_atom_site_fract_x
_atom_site_fract_y
_atom_site_fract_z
Si Si1 0.920188 0.672492 0.311610
Si Si2 0.423012 0.822340 0.308163
Si Si3 0.317071 0.176964 0.563678
Si Si4 0.678736 0.676147 0.916439
Si Si5 0.168404 0.822686 0.421684
Si Si6 0.824345 0.823282 0.059389
Si Si7 0.422683 0.324763 0.173330
Si Si8 0.078149 0.326674 0.677808
O O1 0.899202 0.500000 0.318300
O O2 0.883913 0.767558 0.367592
O O3 0.896926 0.730858 0.240239
O O4 0.000000 0.697052 0.321018
O O5 0.500000 0.769294 0.322931
O O6 0.374328 0.752524 0.364651
O O7 0.397594 0.759410 0.238513
O O8 0.418460 0.000000 0.305255
O O9 0.340561 0.226032 0.490493
O O10 0.248104 0.260777 0.582981
O O11 0.376013 0.228329 0.613048
O O12 0.303021 0.000000 0.566406
O O13 0.672446 0.500000 0.910061
O O14 0.755595 0.727114 0.900222
O O15 0.150145 0.750237 0.491733
O O16 0.163429 0.000000 0.429531
O O17 0.878438 0.778145 0.114884
O O18 0.819656 0.000000 0.049336
O O19 0.500000 0.281030 0.155675
O O20 0.415251 0.500000 0.186220
O O21 0.089305 0.500000 0.695593
O O22 0.000000 0.292272 0.660830
#
# Coordination Sequence:
#
# PCOD8179180 Si02
#       8
#     8   8   8   8   8   8   8   8
#     4  10  21  36  54  77 104 132 166 210 254 299
#     4   9  17  30  49  71  95 125 161 201 245 294
#     4   9  18  33  51  71  97 130 167 207 250 298
#     4   8  16  31  49  70  95 123 160 203 241 282
#     4  10  20  35  54  75 103 137 171 209 252 302
#     4  10  20  34  53  77 104 134 169 211 256 301
#     4   9  18  32  49  70  97 128 162 202 248 297
#     4   9  19  36  55  74  99 132 168 206 250 300
#
# _framework density 17.943757999999999
#
# number of rings (size 3 to 8) (size 9 to 14) (size 15 to 20)
#    0.000    2.750    0.000    1.875    0.000    4.250 
#    0.000   10.625    0.000    0.000    0.000    3.500 
#    0.000    0.000    0.000    0.000    0.000    0.000 
#
# Total GULP energy -396809.337086 kJ/mol
# GULP energy per Si atom -12400.291784 kJ/mol
# Density = 1.790292 g / cm^3
# Si number density = 17.943758 Si / 1000 Ang^3
#
#
#
# Elastic Constant Matrix: (Units=GPa)
#
#
# Indices 1 2 3 4 5 6 
#
# 1 89.3064 35.3236 89.5147 0.0000 0.0000 0.0000
# 2 35.3236 51.1096 49.3004 0.0000 0.0000 0.0000
# 3 89.5147 49.3004 149.4756 0.0000 0.0000 0.0000
# 4 0.0000 0.0000 0.0000 32.8000 0.0000 0.0000
# 5 0.0000 0.0000 0.0000 0.0000 41.1413 0.0000
# 6 0.0000 0.0000 0.0000 0.0000 0.0000 25.3106
#
#
#
# Elastic Compliance Matrix: (Units=1/GPa)
#
#
# Indices 1 2 3 4 5 6 
#
# 1 0.028790 -0.004791 -0.015661 0.000000 0.000000 0.000000
# 2 -0.004791 0.029492 -0.006858 0.000000 0.000000 0.000000
# 3 -0.015661 -0.006858 0.018330 0.000000 0.000000 0.000000
# 4 0.000000 0.000000 0.000000 0.030488 0.000000 0.000000
# 5 0.000000 0.000000 0.000000 0.000000 0.024307 0.000000
# 6 0.000000 0.000000 0.000000 0.000000 0.000000 0.039509
#
#
# Mechanical properties :
#
#
# Convention : Reuss Voigt Hill
#
# Bulk Modulus (GPa) = 45.46943 70.90765 58.18854
# Shear Modulus (GPa) = 21.47150 27.56723 24.51937
#
# Velocity S-wave (km/s) = 3.46294 3.92384 3.70057
# Velocity P-wave (km/s) = 6.43306 7.75442 7.12444
#
# Compressibility (1/GPa) = 0.02199280
#
# Stress axis : x y z
#
# Youngs Moduli (GPa) = 34.73463 33.90706 54.55390
#
# Poissons Ratio (x) = 0.16246 0.85435
# Poissons Ratio (y) = 0.16642 0.37413
# Poissons Ratio (z) = 0.54397 0.23253
#
# Static dielectric constant tensor:
#      x y z
#    x 3.450460 0.000000 0.000000 
#    y 0.000000 3.201670 0.000000 
#    z 0.000000 0.000000 3.454750 
# 
# 
# High freq. dielectric constant tensor:
#      x y z
#    x 1.693670 0.000000 0.000000 
#    y 0.000000 1.683980 0.000000 
#    z 0.000000 0.000000 1.701660 
# 
# From -- ./inp_files/18967.got.cif
#   From: 2010.03.12/outbox.cif.g09.slc.cpg/sg38_10_cif.got.tgz:18967.got - 2010.04.14 02:38:36.
