data_PCOD8179686
_publ_section_title
;
Structure prediction by ZEFSAII (Michael W. Deem and Ramdas Pophale) SiO2 
 PCOD8179686
Probable space group: A M M 2
;
_chemical_formula_sum "Si O2"
_cell_formula_units_Z 48
_cell_length_a 7.695136
_cell_length_b 16.197410
_cell_length_c 20.187787
_cell_angle_alpha 90.000000
_cell_angle_beta 90.000000
_cell_angle_gamma 90.000000
_cell_volume 2516.231467
_symmetry_space_group_name_H-M "A M M 2"
_symmetry_group_IT_number 38
_symmetry_cell_setting 'orthorhombic'
loop_
_space_group_symop_operation_xyz
x,y,z
-x,-y,z
-x,y,z
x,-y,z
x,1/2+y,1/2+z
-x,1/2-y,1/2+z
-x,1/2+y,1/2+z
x,1/2-y,1/2+z
loop_
_atom_site_type_symbol
_atom_site_label
_atom_site_fract_x
_atom_site_fract_y
_atom_site_fract_z
Si Si1 0.704572 0.797212 0.183940
Si Si2 0.291446 0.718003 0.915698
Si Si3 0.000000 0.092020 0.396454
Si Si4 0.000000 0.091587 0.240389
Si Si5 0.806059 0.500000 0.342982
Si Si6 0.204481 0.500000 0.488933
Si Si7 0.300178 0.171657 0.793586
Si Si8 0.299904 0.824331 0.037570
O O1 0.500000 0.822041 0.189731
O O2 0.821326 0.866070 0.218173
O O3 0.738374 0.709881 0.221119
O O4 0.769845 0.790578 0.108073
O O5 0.500000 0.699412 0.915954
O O6 0.228998 0.766780 0.849961
O O7 0.179348 0.634772 0.920334
O O8 0.221285 0.773242 0.976732
O O9 0.000000 0.088202 0.318321
O O10 0.000000 0.000000 0.426866
O O11 0.000000 0.000000 0.209628
O O12 0.707194 0.500000 0.414655
O O13 0.776919 0.419771 0.297899
O O14 0.000000 0.500000 0.367361
O O15 0.265787 0.421098 0.530104
O O16 0.000000 0.500000 0.486210
O O17 0.500000 0.160121 0.808059
O O18 0.500000 0.805508 0.035904
#
# Coordination Sequence:
#
# PCOD8179686 Si02
#       8
#     8   8   4   4   4   4   8   8
#     4  10  23  40  59  85 118 159 200 237 288 356
#     4  10  21  38  63  87 114 152 195 246 299 352
#     4  11  24  39  62  88 112 150 201 249 294 344
#     4  11  24  37  56  84 118 154 191 239 288 336
#     4  11  23  33  57  91 121 152 195 250 294 350
#     4  11  23  33  51  91 129 154 189 240 298 358
#     4  10  20  37  58  83 115 154 197 241 290 348
#     4  10  22  38  58  85 120 158 194 239 297 361
#
# _framework density 19.076145
#
# number of rings (size 3 to 8) (size 9 to 14) (size 15 to 20)
#    0.000    1.667    3.333    0.500    5.833    1.333 
#    0.000    1.667    1.833    0.000    0.000    0.000 
#    0.000    0.000    0.000    0.000    0.000    0.000 
#
# Total GULP energy -297473.049453 kJ/mol
# GULP energy per Si atom -12394.710394 kJ/mol
# Density = 1.903273 g / cm^3
# Si number density = 19.076145 Si / 1000 Ang^3
#
#
#
# Elastic Constant Matrix: (Units=GPa)
#
#
# Indices 1 2 3 4 5 6 
#
# 1 50.3776 39.0456 16.6118 0.0000 0.0000 0.0000
# 2 39.0456 148.3424 61.5108 0.0000 0.0000 0.0000
# 3 16.6118 61.5108 125.9066 0.0000 0.0000 0.0000
# 4 0.0000 0.0000 0.0000 31.1795 0.0000 0.0000
# 5 0.0000 0.0000 0.0000 0.0000 16.2277 0.0000
# 6 0.0000 0.0000 0.0000 0.0000 0.0000 25.3611
#
#
#
# Elastic Compliance Matrix: (Units=1/GPa)
#
#
# Indices 1 2 3 4 5 6 
#
# 1 0.024939 -0.006521 -0.000105 0.000000 0.000000 0.000000
# 2 -0.006521 0.010159 -0.004103 0.000000 0.000000 0.000000
# 3 -0.000105 -0.004103 0.009961 0.000000 0.000000 0.000000
# 4 0.000000 0.000000 0.000000 0.032072 0.000000 0.000000
# 5 0.000000 0.000000 0.000000 0.000000 0.061623 0.000000
# 6 0.000000 0.000000 0.000000 0.000000 0.000000 0.039430
#
#
# Mechanical properties :
#
#
# Convention : Reuss Voigt Hill
#
# Bulk Modulus (GPa) = 42.36985 62.10701 52.23843
# Shear Modulus (GPa) = 24.09555 28.38420 26.23987
#
# Velocity S-wave (km/s) = 3.55790 3.86157 3.71284
# Velocity P-wave (km/s) = 6.25599 7.24641 6.76933
#
# Compressibility (1/GPa) = 0.02360169
#
# Stress axis : x y z
#
# Youngs Moduli (GPa) = 40.09851 98.43797 100.39642
#
# Poissons Ratio (x) = 0.64189 0.01051
# Poissons Ratio (y) = 0.26147 0.41189
# Poissons Ratio (z) = 0.00420 0.40385
#
# Static dielectric constant tensor:
#      x y z
#    x 3.473880 0.000000 0.000000 
#    y 0.000000 3.476980 0.000000 
#    z 0.000000 0.000000 3.916920 
# 
# 
# High freq. dielectric constant tensor:
#      x y z
#    x 1.747060 0.000000 0.000000 
#    y 0.000000 1.729440 0.000000 
#    z 0.000000 0.000000 1.739870 
# 
# From -- ./inp_files/16760.got.cif
#   From: 2010.03.12/outbox.cif.g09.slc.cpg/sg38_9_cif.got.tgz:16760.got - 2010.04.14 02:38:36.
