data_PCOD8179456
_publ_section_title
;
Structure prediction by ZEFSAII (Michael W. Deem and Ramdas Pophale) SiO2 
 PCOD8179456
Probable space group: A M M 2
;
_chemical_formula_sum "Si O2"
_cell_formula_units_Z 64
_cell_length_a 9.098786
_cell_length_b 24.458792
_cell_length_c 14.897310
_cell_angle_alpha 90.000000
_cell_angle_beta 90.000000
_cell_angle_gamma 90.000000
_cell_volume 3315.326535
_symmetry_space_group_name_H-M "A M M 2"
_symmetry_group_IT_number 38
_symmetry_cell_setting 'orthorhombic'
loop_
_space_group_symop_operation_xyz
x,y,z
-x,-y,z
-x,y,z
x,-y,z
x,1/2+y,1/2+z
-x,1/2-y,1/2+z
-x,1/2+y,1/2+z
x,1/2-y,1/2+z
loop_
_atom_site_type_symbol
_atom_site_label
_atom_site_fract_x
_atom_site_fract_y
_atom_site_fract_z
Si Si1 0.169468 0.562916 0.062840
Si Si2 0.674467 0.642390 0.193535
Si Si3 0.330423 0.758077 0.386767
Si Si4 0.170538 0.751328 0.700920
Si Si5 0.169386 0.140010 0.402346
Si Si6 0.668789 0.861758 0.896554
Si Si7 0.674459 0.562297 0.550966
Si Si8 0.169570 0.130099 0.196887
O O1 0.215553 0.500000 0.058442
O O2 0.271420 0.591334 0.136354
O O3 0.000000 0.570446 0.091019
O O4 0.198444 0.587748 0.964504
O O5 0.500000 0.647124 0.189770
O O6 0.740647 0.699250 0.153245
O O7 0.734130 0.634193 0.295679
O O8 0.500000 0.767782 0.359546
O O9 0.226939 0.754799 0.301198
O O10 0.267674 0.809719 0.442545
O O11 0.313804 0.699786 0.437156
O O12 0.195749 0.691444 0.656772
O O13 0.000000 0.767240 0.700391
O O14 0.218279 0.125588 0.301092
O O15 0.000000 0.158520 0.404435
O O16 0.500000 0.878185 0.887900
O O17 0.742519 0.904268 0.966067
O O18 0.500000 0.567290 0.553822
O O19 0.726761 0.500000 0.541418
O O20 0.734270 0.586853 0.643155
O O21 0.000000 0.113612 0.187326
#
# Coordination Sequence:
#
# PCOD8179456 Si02
#       8
#     8   8   8   8   8   8   8   8
#     4  10  22  39  56  76 105 143 187 229 270 323
#     4  10  20  35  57  83 109 139 175 220 272 321
#     4   9  16  29  52  81 109 136 171 218 268 317
#     4   9  17  32  54  80 110 142 174 210 261 326
#     4   9  19  36  56  77 104 140 177 215 266 327
#     4   8  17  34  53  75 105 139 172 207 257 320
#     4  10  21  36  53  74 102 139 181 219 257 307
#     4   9  19  35  55  79 106 137 173 215 263 312
#
# _framework density 19.304282000000001
#
# number of rings (size 3 to 8) (size 9 to 14) (size 15 to 20)
#    0.000    2.750    0.000    2.625    0.000    5.500 
#    0.000    8.750    0.000    0.000    0.000    0.000 
#    0.000    0.000    0.000    0.000    0.000    0.000 
#
# Total GULP energy -396604.339360 kJ/mol
# GULP energy per Si atom -12393.885605 kJ/mol
# Density = 1.926034 g / cm^3
# Si number density = 19.304282 Si / 1000 Ang^3
#
#
#
# Elastic Constant Matrix: (Units=GPa)
#
#
# Indices 1 2 3 4 5 6 
#
# 1 64.4699 56.7182 32.6812 0.0000 0.0000 0.0000
# 2 56.7182 145.1158 51.0930 0.0000 0.0000 0.0000
# 3 32.6812 51.0930 75.0333 0.0000 0.0000 0.0000
# 4 0.0000 0.0000 0.0000 32.7444 0.0000 0.0000
# 5 0.0000 0.0000 0.0000 0.0000 21.3498 0.0000
# 6 0.0000 0.0000 0.0000 0.0000 0.0000 29.5522
#
#
#
# Elastic Compliance Matrix: (Units=1/GPa)
#
#
# Indices 1 2 3 4 5 6 
#
# 1 0.025336 -0.007915 -0.005646 0.000000 0.000000 0.000000
# 2 -0.007915 0.011537 -0.004408 0.000000 0.000000 0.000000
# 3 -0.005646 -0.004408 0.018788 0.000000 0.000000 0.000000
# 4 0.000000 0.000000 0.000000 0.030540 0.000000 0.000000
# 5 0.000000 0.000000 0.000000 0.000000 0.046839 0.000000
# 6 0.000000 0.000000 0.000000 0.000000 0.000000 0.033838
#
#
# Mechanical properties :
#
#
# Convention : Reuss Voigt Hill
#
# Bulk Modulus (GPa) = 50.70191 62.84486 56.77339
# Shear Modulus (GPa) = 23.87882 26.33773 25.10828
#
# Velocity S-wave (km/s) = 3.52087 3.69771 3.61038
# Velocity P-wave (km/s) = 6.54602 7.13136 6.84495
#
# Compressibility (1/GPa) = 0.01972312
#
# Stress axis : x y z
#
# Youngs Moduli (GPa) = 39.46914 86.68017 53.22445
#
# Poissons Ratio (x) = 0.68606 0.30050
# Poissons Ratio (y) = 0.31239 0.23464
# Poissons Ratio (z) = 0.22284 0.38212
#
# Static dielectric constant tensor:
#      x y z
#    x 3.439960 0.000000 0.000000 
#    y 0.000000 3.882790 0.000000 
#    z 0.000000 0.000000 3.411590 
# 
# 
# High freq. dielectric constant tensor:
#      x y z
#    x 1.738130 0.000000 0.000000 
#    y 0.000000 1.757090 0.000000 
#    z 0.000000 0.000000 1.733420 
# 
# From -- ./inp_files/12800.got.cif
#   From: 2010.03.12/outbox.cif.g09.slc.cpg/sg38_7_cif.got.tgz:12800.got - 2010.04.14 02:38:36.
