data_PCOD8179823
_publ_section_title
;
Structure prediction by ZEFSAII (Michael W. Deem and Ramdas Pophale) SiO2 
 PCOD8179823
Probable space group: A M M 2
;
_chemical_formula_sum "Si O2"
_cell_formula_units_Z 28
_cell_length_a 9.805626
_cell_length_b 11.068372
_cell_length_c 13.218314
_cell_angle_alpha 90.000000
_cell_angle_beta 90.000000
_cell_angle_gamma 90.000000
_cell_volume 1434.614235
_symmetry_space_group_name_H-M "A M M 2"
_symmetry_group_IT_number 38
_symmetry_cell_setting 'orthorhombic'
loop_
_space_group_symop_operation_xyz
x,y,z
-x,-y,z
-x,y,z
x,-y,z
x,1/2+y,1/2+z
-x,1/2-y,1/2+z
-x,1/2+y,1/2+z
x,1/2-y,1/2+z
loop_
_atom_site_type_symbol
_atom_site_label
_atom_site_fract_x
_atom_site_fract_y
_atom_site_fract_z
Si Si1 0.287237 0.731334 0.514410
Si Si2 0.000000 0.500000 0.779623
Si Si3 0.000000 0.000000 0.930566
Si Si4 0.500000 0.855866 0.859676
Si Si5 0.785538 0.000000 0.106158
Si Si6 0.500000 0.363011 0.136189
Si Si7 0.000000 0.264615 0.920478
O O1 0.363065 0.694791 0.411492
O O2 0.300475 0.622519 0.596887
O O3 0.365299 0.838486 0.570513
O O4 0.133015 0.774140 0.491928
O O5 0.133181 0.500000 0.710570
O O6 0.000000 0.624093 0.843104
O O7 0.000000 0.871682 0.867836
O O8 0.870599 0.000000 0.002436
O O9 0.500000 0.800275 0.746579
O O10 0.500000 0.000000 0.867578
O O11 0.500000 0.500000 0.165787
#
# Coordination Sequence:
#
# PCOD8179823 Si02
#       7
#     8   2   2   4   4   4   4
#     4  10  21  41  65  86 125 159 207 257 314 362
#     4  11  24  34  62  99 134 148 205 256 330 373
#     4   7  16  38  58  81 120 160 197 244 298 355
#     4  10  20  40  63  89 112 162 212 250 305 372
#     4   9  18  37  62  86 115 160 204 254 295 365
#     4  10  24  39  60  88 127 160 203 259 312 375
#     4  10  22  38  64  95 125 165 204 256 315 372
#
# _framework density 19.517443
#
# number of rings (size 3 to 8) (size 9 to 14) (size 15 to 20)
#    0.000    2.286    1.429    0.857    6.000    0.000 
#    0.000    0.000    0.000    5.143    0.000    0.000 
#    0.000    0.000    0.000    0.000    0.000    0.000 
#
# Total GULP energy -173456.039329 kJ/mol
# GULP energy per Si atom -12389.717095 kJ/mol
# Density = 1.947302 g / cm^3
# Si number density = 19.517443 Si / 1000 Ang^3
#
#
#
# Elastic Constant Matrix: (Units=GPa)
#
#
# Indices 1 2 3 4 5 6 
#
# 1 135.1286 23.3661 53.7358 0.0000 0.0000 0.0000
# 2 23.3661 104.6047 53.5396 0.0000 0.0000 0.0000
# 3 53.7358 53.5396 119.5907 0.0000 0.0000 0.0000
# 4 0.0000 0.0000 0.0000 23.5917 0.0000 0.0000
# 5 0.0000 0.0000 0.0000 0.0000 355.3147 0.0000
# 6 0.0000 0.0000 0.0000 0.0000 0.0000 15.7080
#
#
#
# Elastic Compliance Matrix: (Units=1/GPa)
#
#
# Indices 1 2 3 4 5 6 
#
# 1 0.009011 0.000077 -0.004083 0.000000 0.000000 0.000000
# 2 0.000077 0.012402 -0.005587 0.000000 0.000000 0.000000
# 3 -0.004083 -0.005587 0.012698 0.000000 0.000000 0.000000
# 4 0.000000 0.000000 0.000000 0.042388 0.000000 0.000000
# 5 0.000000 0.000000 0.000000 0.000000 0.002814 0.000000
# 6 0.000000 0.000000 0.000000 0.000000 0.000000 0.063662
#
#
# Mechanical properties :
#
#
# Convention : Reuss Voigt Hill
#
# Bulk Modulus (GPa) = 67.00412 68.95633 67.98023
# Shear Modulus (GPa) = 29.91576 94.16838 62.04207
#
# Velocity S-wave (km/s) = 3.91931 6.95364 5.64420
# Velocity P-wave (km/s) = 7.40852 9.99390 8.79671
#
# Compressibility (1/GPa) = 0.01492445
#
# Stress axis : x y z
#
# Youngs Moduli (GPa) = 110.97751 80.63116 78.75307
#
# Poissons Ratio (x) = -0.00623 0.32158
# Poissons Ratio (y) = -0.00857 0.44000
# Poissons Ratio (z) = 0.45317 0.45049
#
# Static dielectric constant tensor:
#      x y z
#    x 1.963030 0.000000 0.000000 
#    y 0.000000 3.793830 0.000000 
#    z 0.000000 0.000000 3.311730 
# 
# 
# High freq. dielectric constant tensor:
#      x y z
#    x 1.766200 0.000000 0.000000 
#    y 0.000000 1.762910 0.000000 
#    z 0.000000 0.000000 1.737900 
# 
# From -- ./inp_files/8867.got.cif
#   From: 2010.03.12/outbox.cif.g09.slc.cpg/sg38_5_cif.got.tgz:8867.got - 2010.04.14 02:38:36.
