data_PCOD8179320
_publ_section_title
;
Structure prediction by ZEFSAII (Michael W. Deem and Ramdas Pophale) SiO2 
 PCOD8179320
Probable space group: A M M 2
;
_chemical_formula_sum "Si O2"
_cell_formula_units_Z 64
_cell_length_a 23.783913
_cell_length_b 9.496383
_cell_length_c 15.190212
_cell_angle_alpha 90.000000
_cell_angle_beta 90.000000
_cell_angle_gamma 90.000000
_cell_volume 3430.878707
_symmetry_space_group_name_H-M "A M M 2"
_symmetry_group_IT_number 38
_symmetry_cell_setting 'orthorhombic'
loop_
_space_group_symop_operation_xyz
x,y,z
-x,-y,z
-x,y,z
x,-y,z
x,1/2+y,1/2+z
-x,1/2-y,1/2+z
-x,1/2+y,1/2+z
x,1/2-y,1/2+z
loop_
_atom_site_type_symbol
_atom_site_label
_atom_site_fract_x
_atom_site_fract_y
_atom_site_fract_z
Si Si1 0.129220 0.833922 0.288440
Si Si2 0.256247 0.157835 0.304104
Si Si3 0.619967 0.164152 0.037628
Si Si4 0.564238 0.336884 0.183771
Si Si5 0.934742 0.836332 0.930477
Si Si6 0.737328 0.341351 0.597459
Si Si7 0.640897 0.837467 0.843978
Si Si8 0.140758 0.832320 0.090999
O O1 0.191985 0.794743 0.321439
O O2 0.084106 0.750770 0.345861
O O3 0.120432 0.782943 0.187573
O O4 0.118311 0.000000 0.297620
O O5 0.269215 0.164280 0.201518
O O6 0.299494 0.259379 0.353388
O O7 0.265472 0.000000 0.339682
O O8 0.606110 0.184240 0.934476
O O9 0.617154 0.000000 0.065286
O O10 0.575176 0.249125 0.095211
O O11 0.682258 0.230497 0.055414
O O12 0.500000 0.314466 0.212529
O O13 0.576849 0.500000 0.164286
O O14 0.603032 0.279911 0.263677
O O15 0.000000 0.809790 0.947636
O O16 0.921449 0.000000 0.913875
O O17 0.902493 0.780015 0.017171
O O18 0.738385 0.500000 0.561809
O O19 0.796790 0.268991 0.569953
O O20 0.655312 0.000000 0.829299
O O21 0.145958 0.000000 0.094536
#
# Coordination Sequence:
#
# PCOD8179320 Si02
#       8
#     8   8   8   8   8   8   8   8
#     4   9  19  35  55  79 105 141 181 219 266 318
#     4   9  17  32  54  79 111 142 174 217 266 320
#     4  10  20  34  56  84 107 136 182 224 262 313
#     4  10  22  40  56  74 110 151 180 215 266 320
#     4  10  21  35  53  79 108 140 181 225 266 314
#     4   8  14  28  51  77 104 135 171 215 260 307
#     4  10  21  34  54  84 111 139 176 219 270 318
#     4   8  16  32  53  75 104 141 178 214 259 318
#
# _framework density 18.654114
#
# number of rings (size 3 to 8) (size 9 to 14) (size 15 to 20)
#    0.000    2.750    1.250    1.500    1.750    2.500 
#    0.000    3.125    0.000    0.750    0.000    0.000 
#    0.000    0.000    0.000    0.000    0.000    0.000 
#
# Total GULP energy -396679.351373 kJ/mol
# GULP energy per Si atom -12396.229730 kJ/mol
# Density = 1.861166 g / cm^3
# Si number density = 18.654114 Si / 1000 Ang^3
#
#
#
# Elastic Constant Matrix: (Units=GPa)
#
#
# Indices 1 2 3 4 5 6 
#
# 1 81.8640 28.6712 32.6498 0.0000 0.0000 0.0000
# 2 28.6712 39.3743 26.4010 0.0000 0.0000 0.0000
# 3 32.6498 26.4010 76.0672 0.0000 0.0000 0.0000
# 4 0.0000 0.0000 0.0000 25.9108 0.0000 0.0000
# 5 0.0000 0.0000 0.0000 0.0000 28.1260 0.0000
# 6 0.0000 0.0000 0.0000 0.0000 0.0000 27.8977
#
#
#
# Elastic Compliance Matrix: (Units=1/GPa)
#
#
# Indices 1 2 3 4 5 6 
#
# 1 0.017272 -0.009913 -0.003973 0.000000 0.000000 0.000000
# 2 -0.009913 0.038790 -0.009208 0.000000 0.000000 0.000000
# 3 -0.003973 -0.009208 0.018047 0.000000 0.000000 0.000000
# 4 0.000000 0.000000 0.000000 0.038594 0.000000 0.000000
# 5 0.000000 0.000000 0.000000 0.000000 0.035554 0.000000
# 6 0.000000 0.000000 0.000000 0.000000 0.000000 0.035845
#
#
# Mechanical properties :
#
#
# Convention : Reuss Voigt Hill
#
# Bulk Modulus (GPa) = 35.81521 41.41661 38.61591
# Shear Modulus (GPa) = 20.86839 23.69246 22.28042
#
# Velocity S-wave (km/s) = 3.34833 3.56770 3.45975
# Velocity P-wave (km/s) = 5.84720 6.26274 6.05853
#
# Compressibility (1/GPa) = 0.02792110
#
# Stress axis : x y z
#
# Youngs Moduli (GPa) = 57.89832 25.78010 55.40956
#
# Poissons Ratio (x) = 0.25555 0.22014
# Poissons Ratio (y) = 0.57393 0.51022
# Poissons Ratio (z) = 0.23003 0.23739
#
# Static dielectric constant tensor:
#      x y z
#    x 3.467380 0.000000 0.000000 
#    y 0.000000 3.099870 0.000000 
#    z 0.000000 0.000000 3.403260 
# 
# 
# High freq. dielectric constant tensor:
#      x y z
#    x 1.725150 0.000000 0.000000 
#    y 0.000000 1.687380 0.000000 
#    z 0.000000 0.000000 1.725180 
# 
# From -- ./inp_files/15875.got.cif
#   From: 2010.03.12/outbox.cif.g09.slc.cpg/sg38_8_cif.got.tgz:15875.got - 2010.04.14 02:38:36.
