data_PCOD8179727
_publ_section_title
;
Structure prediction by ZEFSAII (Michael W. Deem and Ramdas Pophale) SiO2 
 PCOD8179727
Probable space group: A M M 2
;
_chemical_formula_sum "Si O2"
_cell_formula_units_Z 64
_cell_length_a 14.190975
_cell_length_b 9.437428
_cell_length_c 24.761343
_cell_angle_alpha 90.000000
_cell_angle_beta 90.000000
_cell_angle_gamma 90.000000
_cell_volume 3316.195170
_symmetry_space_group_name_H-M "A M M 2"
_symmetry_group_IT_number 38
_symmetry_cell_setting 'orthorhombic'
loop_
_space_group_symop_operation_xyz
x,y,z
-x,-y,z
-x,y,z
x,-y,z
x,1/2+y,1/2+z
-x,1/2-y,1/2+z
-x,1/2+y,1/2+z
x,1/2-y,1/2+z
loop_
_atom_site_type_symbol
_atom_site_label
_atom_site_fract_x
_atom_site_fract_y
_atom_site_fract_z
Si Si1 0.298950 0.649842 0.611590
Si Si2 0.289091 0.168088 0.418736
Si Si3 0.389327 0.168050 0.823411
Si Si4 0.894236 0.158566 0.709865
Si Si5 0.897859 0.664227 0.974009
Si Si6 0.717098 0.165738 0.233903
Si Si7 0.895788 0.260924 0.593536
Si Si8 0.396051 0.165458 0.526592
O O1 0.346743 0.500000 0.595579
O O2 0.321911 0.683964 0.673509
O O3 0.186622 0.625615 0.602846
O O4 0.334748 0.775527 0.575095
O O5 0.326240 0.261557 0.369850
O O6 0.184638 0.224228 0.435401
O O7 0.355561 0.204696 0.468719
O O8 0.291257 0.000000 0.404721
O O9 0.500000 0.198069 0.833221
O O10 0.357134 0.245490 0.768910
O O11 0.369624 0.000000 0.820335
O O12 0.822096 0.267978 0.738026
O O13 0.888856 0.154772 0.644496
O O14 0.000000 0.202469 0.728085
O O15 0.870090 0.000000 0.729907
O O16 0.902727 0.500000 0.961884
O O17 0.000000 0.734336 0.959723
O O18 0.875179 0.681108 0.037338
O O19 0.721498 0.000000 0.251319
O O20 0.000000 0.332889 0.591993
O O21 0.500000 0.231193 0.529768
O O22 0.397184 0.000000 0.535507
#
# Coordination Sequence:
#
# PCOD8179727 Si02
#       8
#     8   8   8   8   8   8   8   8
#     4  10  21  35  53  82 118 152 186 229 282 339
#     4  10  20  37  61  86 114 148 187 233 283 339
#     4  11  25  44  65  86 106 138 190 250 305 353
#     4   9  17  30  53  86 121 157 195 235 280 331
#     4   9  16  28  51  84 118 151 188 226 266 320
#     4  10  22  39  59  84 114 151 193 238 290 346
#     4   9  16  28  49  79 117 158 195 229 269 324
#     4  10  21  36  55  81 112 148 189 230 279 342
#
# _framework density 19.299226000000001
#
# number of rings (size 3 to 8) (size 9 to 14) (size 15 to 20)
#    0.000    2.250    1.250    1.500    0.000    7.250 
#    0.000    5.625    0.000    2.625    0.000    0.000 
#    0.000    0.000    0.000    0.000    0.000    0.000 
#
# Total GULP energy -396515.730194 kJ/mol
# GULP energy per Si atom -12391.116569 kJ/mol
# Density = 1.925530 g / cm^3
# Si number density = 19.299226 Si / 1000 Ang^3
#
#
#
# Elastic Constant Matrix: (Units=GPa)
#
#
# Indices 1 2 3 4 5 6 
#
# 1 118.2101 43.1175 53.2928 0.0000 0.0000 0.0000
# 2 43.1175 73.2195 38.4115 0.0000 0.0000 0.0000
# 3 53.2928 38.4115 88.1327 0.0000 0.0000 0.0000
# 4 0.0000 0.0000 0.0000 22.9616 0.0000 0.0000
# 5 0.0000 0.0000 0.0000 0.0000 29.2190 0.0000
# 6 0.0000 0.0000 0.0000 0.0000 0.0000 19.5611
#
#
#
# Elastic Compliance Matrix: (Units=1/GPa)
#
#
# Indices 1 2 3 4 5 6 
#
# 1 0.012662 -0.004459 -0.005713 0.000000 0.000000 0.000000
# 2 -0.004459 0.019276 -0.005705 0.000000 0.000000 0.000000
# 3 -0.005713 -0.005705 0.017287 0.000000 0.000000 0.000000
# 4 0.000000 0.000000 0.000000 0.043551 0.000000 0.000000
# 5 0.000000 0.000000 0.000000 0.000000 0.034224 0.000000
# 6 0.000000 0.000000 0.000000 0.000000 0.000000 0.051122
#
#
# Mechanical properties :
#
#
# Convention : Reuss Voigt Hill
#
# Bulk Modulus (GPa) = 57.23616 61.02287 59.12951
# Shear Modulus (GPa) = 23.18033 23.99769 23.58901
#
# Velocity S-wave (km/s) = 3.46945 3.53009 3.49990
# Velocity P-wave (km/s) = 6.76543 6.95006 6.85837
#
# Compressibility (1/GPa) = 0.01747147
#
# Stress axis : x y z
#
# Youngs Moduli (GPa) = 78.97957 51.87721 57.84547
#
# Poissons Ratio (x) = 0.23133 0.33046
# Poissons Ratio (y) = 0.35218 0.33001
# Poissons Ratio (z) = 0.45120 0.29596
#
# Static dielectric constant tensor:
#      x y z
#    x 4.183140 0.000000 0.000000 
#    y 0.000000 3.323810 0.000000 
#    z 0.000000 0.000000 3.365030 
# 
# 
# High freq. dielectric constant tensor:
#      x y z
#    x 1.763570 0.000000 0.000000 
#    y 0.000000 1.735090 0.000000 
#    z 0.000000 0.000000 1.735290 
# 
# From -- ./inp_files/22958.got.cif
#   From: 2010.03.12/outbox.cif.g09.slc.cpg/sg38_12_cif.got.tgz:22958.got - 2010.04.14 02:38:36.
