data_PCOD8179193
_publ_section_title
;
Structure prediction by ZEFSAII (Michael W. Deem and Ramdas Pophale) SiO2 
 PCOD8179193
Probable space group: A M M 2
;
_chemical_formula_sum "Si O2"
_cell_formula_units_Z 64
_cell_length_a 8.893690
_cell_length_b 20.571365
_cell_length_c 19.405164
_cell_angle_alpha 90.000000
_cell_angle_beta 90.000000
_cell_angle_gamma 90.000000
_cell_volume 3550.278439
_symmetry_space_group_name_H-M "A M M 2"
_symmetry_group_IT_number 38
_symmetry_cell_setting 'orthorhombic'
loop_
_space_group_symop_operation_xyz
x,y,z
-x,-y,z
-x,y,z
x,-y,z
x,1/2+y,1/2+z
-x,1/2-y,1/2+z
-x,1/2+y,1/2+z
x,1/2-y,1/2+z
loop_
_atom_site_type_symbol
_atom_site_label
_atom_site_fract_x
_atom_site_fract_y
_atom_site_fract_z
Si Si1 0.177937 0.376936 0.639750
Si Si2 0.672676 0.573424 0.507728
Si Si3 0.823393 0.810898 0.507831
Si Si4 0.327779 0.268516 0.290803
Si Si5 0.823995 0.316445 0.421589
Si Si6 0.324770 0.261513 0.136392
Si Si7 0.325101 0.381916 0.780465
Si Si8 0.171756 0.927496 0.412364
O O1 0.237509 0.422452 0.579110
O O2 0.232367 0.304107 0.625184
O O3 0.238472 0.404426 0.712016
O O4 0.000000 0.378052 0.640082
O O5 0.500000 0.592185 0.521212
O O6 0.687997 0.500000 0.479565
O O7 0.739199 0.621245 0.450620
O O8 0.776407 0.747962 0.463483
O O9 0.732858 0.812386 0.579606
O O10 0.770239 0.875593 0.468064
O O11 0.000000 0.811795 0.523363
O O12 0.500000 0.281302 0.311822
O O13 0.220801 0.308347 0.341731
O O14 0.296299 0.291374 0.212337
O O15 0.287835 0.192710 0.297042
O O16 0.000000 0.329097 0.427266
O O17 0.500000 0.245305 0.126850
O O18 0.500000 0.392875 0.766884
O O19 0.271171 0.425233 0.843809
O O20 0.000000 0.910961 0.392344
O O21 0.186077 0.000000 0.443762
#
# Coordination Sequence:
#
# PCOD8179193 Si02
#       8
#     8   8   8   8   8   8   8   8
#     4  11  21  34  54  79 110 146 183 224 268 321
#     4  11  24  40  57  78 108 146 184 224 271 325
#     4  10  20  34  54  83 111 142 184 227 276 322
#     4   9  19  34  53  80 110 141 179 223 271 322
#     4  11  21  34  57  85 110 141 180 227 274 322
#     4  10  20  34  55  83 112 143 181 225 274 323
#     4  10  20  34  53  78 110 147 186 226 267 320
#     4  10  21  37  55  77 110 149 187 227 270 321
#
# _framework density 18.026755000000001
#
# number of rings (size 3 to 8) (size 9 to 14) (size 15 to 20)
#    0.000    1.750    2.500    3.375    0.000    5.250 
#    0.000    0.000    0.000    0.750    0.000    3.500 
#    0.000    0.000    0.000    0.000    0.000    0.000 
#
# Total GULP energy -396917.678762 kJ/mol
# GULP energy per Si atom -12403.677461 kJ/mol
# Density = 1.798573 g / cm^3
# Si number density = 18.026755 Si / 1000 Ang^3
#
#
#
# Elastic Constant Matrix: (Units=GPa)
#
#
# Indices 1 2 3 4 5 6 
#
# 1 103.8783 43.7537 49.3698 0.0000 0.0000 0.0000
# 2 43.7537 90.0006 52.3921 0.0000 0.0000 0.0000
# 3 49.3698 52.3921 114.0318 0.0000 0.0000 0.0000
# 4 0.0000 0.0000 0.0000 24.5936 0.0000 0.0000
# 5 0.0000 0.0000 0.0000 0.0000 36.4465 0.0000
# 6 0.0000 0.0000 0.0000 0.0000 0.0000 22.0300
#
#
#
# Elastic Compliance Matrix: (Units=1/GPa)
#
#
# Indices 1 2 3 4 5 6 
#
# 1 0.013198 -0.004218 -0.003776 0.000000 0.000000 0.000000
# 2 -0.004218 0.016516 -0.005762 0.000000 0.000000 0.000000
# 3 -0.003776 -0.005762 0.013052 0.000000 0.000000 0.000000
# 4 0.000000 0.000000 0.000000 0.040661 0.000000 0.000000
# 5 0.000000 0.000000 0.000000 0.000000 0.027437 0.000000
# 6 0.000000 0.000000 0.000000 0.000000 0.000000 0.045393
#
#
# Mechanical properties :
#
#
# Convention : Reuss Voigt Hill
#
# Bulk Modulus (GPa) = 65.55973 66.54912 66.05442
# Shear Modulus (GPa) = 26.47557 27.44035 26.95796
#
# Velocity S-wave (km/s) = 3.83650 3.90577 3.87129
# Velocity P-wave (km/s) = 7.48812 7.57213 7.53024
#
# Compressibility (1/GPa) = 0.01525327
#
# Stress axis : x y z
#
# Youngs Moduli (GPa) = 75.76966 60.54771 76.61832
#
# Poissons Ratio (x) = 0.25539 0.28931
# Poissons Ratio (y) = 0.31960 0.44148
# Poissons Ratio (z) = 0.28611 0.34888
#
# Static dielectric constant tensor:
#      x y z
#    x 3.354580 0.000000 0.000000 
#    y 0.000000 3.132270 0.000000 
#    z 0.000000 0.000000 3.401460 
# 
# 
# High freq. dielectric constant tensor:
#      x y z
#    x 1.707540 0.000000 0.000000 
#    y 0.000000 1.671590 0.000000 
#    z 0.000000 0.000000 1.698780 
# 
# From -- ./inp_files/17155.got.cif
#   From: 2010.03.12/outbox.cif.g09.slc.cpg/sg38_9_cif.got.tgz:17155.got - 2010.04.14 02:38:36.
