data_PCOD8179711
_publ_section_title
;
Structure prediction by ZEFSAII (Michael W. Deem and Ramdas Pophale) SiO2 
 PCOD8179711
Probable space group: A M M 2
;
_chemical_formula_sum "Si O2"
_cell_formula_units_Z 64
_cell_length_a 18.656109
_cell_length_b 8.838170
_cell_length_c 19.619965
_cell_angle_alpha 90.000000
_cell_angle_beta 90.000000
_cell_angle_gamma 90.000000
_cell_volume 3235.054859
_symmetry_space_group_name_H-M "A M M 2"
_symmetry_group_IT_number 38
_symmetry_cell_setting 'orthorhombic'
loop_
_space_group_symop_operation_xyz
x,y,z
-x,-y,z
-x,y,z
x,-y,z
x,1/2+y,1/2+z
-x,1/2-y,1/2+z
-x,1/2+y,1/2+z
x,1/2-y,1/2+z
loop_
_atom_site_type_symbol
_atom_site_label
_atom_site_fract_x
_atom_site_fract_y
_atom_site_fract_z
Si Si1 0.831239 0.325256 0.274420
Si Si2 0.689251 0.321520 0.806553
Si Si3 0.169538 0.676399 0.524645
Si Si4 0.921668 0.821949 0.897514
Si Si5 0.917513 0.674163 0.139704
Si Si6 0.309120 0.820987 0.463787
Si Si7 0.415971 0.824702 0.704882
Si Si8 0.416047 0.675695 0.564246
O O1 0.809105 0.500000 0.283230
O O2 0.758720 0.231071 0.263579
O O3 0.868013 0.254874 0.341629
O O4 0.889915 0.304791 0.216067
O O5 0.682055 0.500000 0.802782
O O6 0.693956 0.265209 0.885170
O O7 0.620265 0.249249 0.770857
O O8 0.188985 0.500000 0.525334
O O9 0.107666 0.717465 0.471464
O O10 0.136806 0.725079 0.596320
O O11 0.240649 0.767140 0.506393
O O12 0.000000 0.746760 0.890810
O O13 0.927602 0.000000 0.885281
O O14 0.912420 0.500000 0.116439
O O15 0.000000 0.730911 0.135081
O O16 0.379147 0.752420 0.499275
O O17 0.313502 0.000000 0.467202
O O18 0.500000 0.797947 0.714053
O O19 0.388394 0.748194 0.634987
O O20 0.395534 0.000000 0.701020
O O21 0.500000 0.704423 0.555171
O O22 0.396220 0.500000 0.566147
#
# Coordination Sequence:
#
# PCOD8179711 Si02
#       8
#     8   8   8   8   8   8   8   8
#     4  10  20  37  60  84 114 155 201 247 297 356
#     4  11  24  40  60  88 124 162 202 249 299 354
#     4  11  22  37  59  86 118 156 199 250 302 356
#     4   9  17  32  57  85 110 144 195 248 297 351
#     4  10  22  39  59  85 118 155 196 247 307 369
#     4  11  24  41  61  87 123 164 205 248 299 359
#     4  10  22  41  66  94 124 160 201 243 292 354
#     4  10  22  41  66  95 125 157 197 246 299 355
#
# _framework density 19.783282
#
# number of rings (size 3 to 8) (size 9 to 14) (size 15 to 20)
#    0.000    1.750    1.250    2.625    1.750    6.250 
#    0.000    2.500    0.000    1.875    0.000    0.000 
#    0.000    0.000    0.000    0.000    0.000    0.000 
#
# Total GULP energy -396892.479932 kJ/mol
# GULP energy per Si atom -12402.889998 kJ/mol
# Density = 1.973825 g / cm^3
# Si number density = 19.783282 Si / 1000 Ang^3
#
#
#
# Elastic Constant Matrix: (Units=GPa)
#
#
# Indices 1 2 3 4 5 6 
#
# 1 89.3148 42.7848 40.8997 0.0000 0.0000 0.0000
# 2 42.7848 83.4112 42.2252 0.0000 0.0000 0.0000
# 3 40.8997 42.2252 88.9203 0.0000 0.0000 0.0000
# 4 0.0000 0.0000 0.0000 31.7288 0.0000 0.0000
# 5 0.0000 0.0000 0.0000 0.0000 30.8072 0.0000
# 6 0.0000 0.0000 0.0000 0.0000 0.0000 28.7731
#
#
#
# Elastic Compliance Matrix: (Units=1/GPa)
#
#
# Indices 1 2 3 4 5 6 
#
# 1 0.016158 -0.005958 -0.004603 0.000000 0.000000 0.000000
# 2 -0.005958 0.017980 -0.005798 0.000000 0.000000 0.000000
# 3 -0.004603 -0.005798 0.016116 0.000000 0.000000 0.000000
# 4 0.000000 0.000000 0.000000 0.031517 0.000000 0.000000
# 5 0.000000 0.000000 0.000000 0.000000 0.032460 0.000000
# 6 0.000000 0.000000 0.000000 0.000000 0.000000 0.034755
#
#
# Mechanical properties :
#
#
# Convention : Reuss Voigt Hill
#
# Bulk Modulus (GPa) = 57.02117 57.05174 57.03646
# Shear Modulus (GPa) = 26.65976 27.31093 26.98534
#
# Velocity S-wave (km/s) = 3.67494 3.71955 3.69731
# Velocity P-wave (km/s) = 6.84780 6.88096 6.86440
#
# Compressibility (1/GPa) = 0.01753735
#
# Stress axis : x y z
#
# Youngs Moduli (GPa) = 61.88798 55.61804 62.04942
#
# Poissons Ratio (x) = 0.33138 0.28560
# Poissons Ratio (y) = 0.36873 0.35973
# Poissons Ratio (z) = 0.28486 0.32245
#
# Static dielectric constant tensor:
#      x y z
#    x 3.668610 0.000000 0.000000 
#    y 0.000000 3.509370 0.000000 
#    z 0.000000 0.000000 3.687680 
# 
# 
# High freq. dielectric constant tensor:
#      x y z
#    x 1.781190 0.000000 0.000000 
#    y 0.000000 1.761930 0.000000 
#    z 0.000000 0.000000 1.778390 
# 
# From -- ./inp_files/21422.got.cif
#   From: 2010.03.12/outbox.cif.g09.slc.cpg/sg38_11_cif.got.tgz:21422.got - 2010.04.14 02:38:36.
