data_PCOD8179955
_publ_section_title
;
Structure prediction by ZEFSAII (Michael W. Deem and Ramdas Pophale) SiO2 
 PCOD8179955
Probable space group: A M M 2
;
_chemical_formula_sum "Si O2"
_cell_formula_units_Z 64
_cell_length_a 20.371011
_cell_length_b 8.950818
_cell_length_c 18.604216
_cell_angle_alpha 90.000000
_cell_angle_beta 90.000000
_cell_angle_gamma 90.000000
_cell_volume 3392.240876
_symmetry_space_group_name_H-M "A M M 2"
_symmetry_group_IT_number 38
_symmetry_cell_setting 'orthorhombic'
loop_
_space_group_symop_operation_xyz
x,y,z
-x,-y,z
-x,y,z
x,-y,z
x,1/2+y,1/2+z
-x,1/2-y,1/2+z
-x,1/2+y,1/2+z
x,1/2-y,1/2+z
loop_
_atom_site_type_symbol
_atom_site_label
_atom_site_fract_x
_atom_site_fract_y
_atom_site_fract_z
Si Si1 0.194488 0.826458 0.343010
Si Si2 0.805512 0.326458 0.676215
Si Si3 0.073360 0.325768 0.582316
Si Si4 0.427183 0.677431 0.339960
Si Si5 0.572817 0.677431 0.179266
Si Si6 0.306575 0.822901 0.586725
Si Si7 0.926640 0.674232 0.936909
Si Si8 0.693425 0.322901 0.432500
O O1 0.195708 0.786301 0.259613
O O2 0.122086 0.785858 0.372001
O O3 0.246563 0.722992 0.382469
O O4 0.211247 0.000000 0.357056
O O5 0.788753 0.500000 0.662169
O O6 0.877914 0.285856 0.647224
O O7 0.753436 0.222992 0.636756
O O8 0.072663 0.500000 0.566915
O O9 0.099399 0.250001 0.509612
O O10 0.000000 0.268730 0.602404
O O11 0.500000 0.731683 0.363751
O O12 0.424692 0.500000 0.338330
O O13 0.411417 0.737968 0.259613
O O14 0.373629 0.738670 0.396060
O O15 0.500000 0.731683 0.155474
O O16 0.575308 0.500000 0.180895
O O17 0.626371 0.738670 0.123166
O O18 0.298489 0.750000 0.509613
O O19 0.307360 0.000000 0.578136
O O20 0.927336 0.500000 0.952311
O O21 0.000000 0.731269 0.916820
O O22 0.692640 0.500000 0.441090
#
# Coordination Sequence:
#
# PCOD8179955 Si02
#       8
#     8   8   8   8   8   8   8   8
#     4  10  21  36  54  77 105 136 171 214 261 307
#     4  10  21  36  54  77 105 136 171 214 261 307
#     4   9  18  33  53  76 102 134 171 209 251 301
#     4   8  15  30  52  76 101 131 169 211 254 302
#     4   8  15  30  52  76 101 131 169 211 254 302
#     4  11  22  35  53  77 105 138 175 214 257 305
#     4   9  18  33  53  76 102 134 171 209 251 301
#     4  11  22  35  53  77 105 138 175 214 257 305
#
# _framework density 18.866585000000001
#
# number of rings (size 3 to 8) (size 9 to 14) (size 15 to 20)
#    0.000    2.500    0.000    3.000    0.000    5.500 
#    0.000    2.500    0.000    2.250    0.000   14.000 
#    0.000    0.000    0.000    0.000    0.000    0.000 
#
# Total GULP energy -396766.550529 kJ/mol
# GULP energy per Si atom -12398.954704 kJ/mol
# Density = 1.882364 g / cm^3
# Si number density = 18.866585 Si / 1000 Ang^3
#
#
#
# Elastic Constant Matrix: (Units=GPa)
#
#
# Indices 1 2 3 4 5 6 
#
# 1 131.3762 38.4339 81.0850 0.0000 0.0000 0.0000
# 2 38.4339 41.0595 39.2635 0.0000 0.0000 0.0000
# 3 81.0850 39.2635 144.0723 0.0000 0.0000 0.0000
# 4 0.0000 0.0000 0.0000 15.3952 0.0000 0.0000
# 5 0.0000 0.0000 0.0000 0.0000 39.9942 0.0000
# 6 0.0000 0.0000 0.0000 0.0000 0.0000 12.1761
#
#
#
# Elastic Compliance Matrix: (Units=1/GPa)
#
#
# Indices 1 2 3 4 5 6 
#
# 1 0.012995 -0.006993 -0.005408 0.000000 0.000000 0.000000
# 2 -0.006993 0.036702 -0.006067 0.000000 0.000000 0.000000
# 3 -0.005408 -0.006067 0.011638 0.000000 0.000000 0.000000
# 4 0.000000 0.000000 0.000000 0.064955 0.000000 0.000000
# 5 0.000000 0.000000 0.000000 0.000000 0.025004 0.000000
# 6 0.000000 0.000000 0.000000 0.000000 0.000000 0.082128
#
#
# Mechanical properties :
#
#
# Convention : Reuss Voigt Hill
#
# Bulk Modulus (GPa) = 40.98349 70.45252 55.71801
# Shear Modulus (GPa) = 17.95393 24.02815 20.99104
#
# Velocity S-wave (km/s) = 3.08819 3.57260 3.33919
# Velocity P-wave (km/s) = 5.87246 7.37845 6.66811
#
# Compressibility (1/GPa) = 0.02440007
#
# Stress axis : x y z
#
# Youngs Moduli (GPa) = 76.95057 27.24665 85.92518
#
# Poissons Ratio (x) = 0.19053 0.46470
# Poissons Ratio (y) = 0.53810 0.52128
# Poissons Ratio (z) = 0.41616 0.16530
#
# Static dielectric constant tensor:
#      x y z
#    x 3.893380 0.000000 0.000000 
#    y 0.000000 3.183800 0.000000 
#    z 0.000000 0.000000 3.545560 
# 
# 
# High freq. dielectric constant tensor:
#      x y z
#    x 1.748820 0.000000 0.000000 
#    y 0.000000 1.704750 0.000000 
#    z 0.000000 0.000000 1.734570 
# 
# From -- ./inp_files/18865.got.cif
#   From: 2010.03.12/outbox.cif.g09.slc.cpg/sg38_10_cif.got.tgz:18865.got - 2010.04.14 02:38:36.
