data_PCOD8179644
_publ_section_title
;
Structure prediction by ZEFSAII (Michael W. Deem and Ramdas Pophale) SiO2 
 PCOD8179644
Probable space group: A M M 2
;
_chemical_formula_sum "Si O2"
_cell_formula_units_Z 40
_cell_length_a 9.179993
_cell_length_b 7.740277
_cell_length_c 28.458729
_cell_angle_alpha 90.000000
_cell_angle_beta 90.000000
_cell_angle_gamma 90.000000
_cell_volume 2022.154588
_symmetry_space_group_name_H-M "A M M 2"
_symmetry_group_IT_number 38
_symmetry_cell_setting 'orthorhombic'
loop_
_space_group_symop_operation_xyz
x,y,z
-x,-y,z
-x,y,z
x,-y,z
x,1/2+y,1/2+z
-x,1/2-y,1/2+z
-x,1/2+y,1/2+z
x,1/2-y,1/2+z
loop_
_atom_site_type_symbol
_atom_site_label
_atom_site_fract_x
_atom_site_fract_y
_atom_site_fract_z
Si Si1 0.672367 0.000000 0.803120
Si Si2 0.835480 0.197859 0.649048
Si Si3 0.334440 0.191700 0.236558
Si Si4 0.666852 0.199828 0.058285
Si Si5 0.331949 0.804126 0.454726
Si Si6 0.826268 0.000000 0.902022
O O1 0.721252 0.169784 0.774341
O O2 0.500000 0.000000 0.814500
O O3 0.765549 0.000000 0.849779
O O4 0.754806 0.308558 0.688395
O O5 0.765444 0.219126 0.598274
O O6 0.000000 0.264876 0.645942
O O7 0.827083 0.000000 0.664707
O O8 0.500000 0.236235 0.223016
O O9 0.320737 0.000000 0.258842
O O10 0.500000 0.227765 0.073122
O O11 0.704003 0.000000 0.051158
O O12 0.702693 0.296894 0.009982
O O13 0.500000 0.750712 0.445623
O O14 0.228419 0.673161 0.427371
O O15 0.302725 0.000000 0.437214
O O16 0.000000 0.000000 0.901627
#
# Coordination Sequence:
#
# PCOD8179644 Si02
#       6
#     4   8   8   8   8   4
#     4  10  22  42  66  90 120 158 208 264 307 360
#     4  11  23  36  53  83 125 167 203 242 298 367
#     4  10  21  39  64  91 117 152 202 255 305 356
#     4  10  20  36  60  88 119 157 205 256 303 356
#     4  10  21  41  68  93 121 162 214 266 311 364
#     4  12  26  42  64  94 132 168 202 256 323 390
#
# _framework density 19.78088
#
# number of rings (size 3 to 8) (size 9 to 14) (size 15 to 20)
#    0.000    1.600    2.000    2.700    0.000    8.000 
#    0.000    2.000    0.000    0.000    0.000    0.000 
#    0.000    0.000    0.000    0.000    0.000    0.000 
#
# Total GULP energy -248071.238672 kJ/mol
# GULP energy per Si atom -12403.561934 kJ/mol
# Density = 1.973586 g / cm^3
# Si number density = 19.780880 Si / 1000 Ang^3
#
#
#
# Elastic Constant Matrix: (Units=GPa)
#
#
# Indices 1 2 3 4 5 6 
#
# 1 110.5445 50.3919 69.8111 0.0000 0.0000 0.0000
# 2 50.3919 121.6118 53.8571 0.0000 0.0000 0.0000
# 3 69.8111 53.8571 117.9881 0.0000 0.0000 0.0000
# 4 0.0000 0.0000 0.0000 39.0060 0.0000 0.0000
# 5 0.0000 0.0000 0.0000 0.0000 -34.2421 0.0000
# 6 0.0000 0.0000 0.0000 0.0000 0.0000 21.5735
#
#
#
# Elastic Compliance Matrix: (Units=1/GPa)
#
#
# Indices 1 2 3 4 5 6 
#
# 1 0.015220 -0.002906 -0.007679 0.000000 0.000000 0.000000
# 2 -0.002906 0.010861 -0.003238 0.000000 0.000000 0.000000
# 3 -0.007679 -0.003238 0.014497 0.000000 0.000000 0.000000
# 4 0.000000 0.000000 0.000000 0.025637 0.000000 0.000000
# 5 0.000000 0.000000 0.000000 0.000000 -0.029204 0.000000
# 6 0.000000 0.000000 0.000000 0.000000 0.000000 0.046353
#
#
# Mechanical properties :
#
#
# Convention : Reuss Voigt Hill
#
# Bulk Modulus (GPa) = 77.32829 77.58495 77.45662
# Shear Modulus (GPa) = 43.35674 17.00645 30.18160
#
# Velocity S-wave (km/s) = 4.68680 2.93532 3.91038
# Velocity P-wave (km/s) = 8.27438 7.12709 7.72207
#
# Compressibility (1/GPa) = 0.01293188
#
# Stress axis : x y z
#
# Youngs Moduli (GPa) = 65.70158 92.07129 68.97933
#
# Poissons Ratio (x) = 0.26756 0.52970
# Poissons Ratio (y) = 0.19093 0.22337
# Poissons Ratio (z) = 0.50453 0.29815
#
# Static dielectric constant tensor:
#      x y z
#    x 3.554250 0.000000 0.000000 
#    y 0.000000 3.594250 0.000000 
#    z 0.000000 0.000000 3.481020 
# 
# 
# High freq. dielectric constant tensor:
#      x y z
#    x 1.759720 0.000000 0.000000 
#    y 0.000000 1.788840 0.000000 
#    z 0.000000 0.000000 1.765340 
# 
# From -- ./inp_files/23218.got.cif
#   From: 2010.03.12/outbox.cif.g09.slc.cpg/sg38_12_cif.got.tgz:23218.got - 2010.04.14 02:38:36.
