data_PCOD8179097
_publ_section_title
;
Structure prediction by ZEFSAII (Michael W. Deem and Ramdas Pophale) SiO2 
 PCOD8179097
Probable space group: A M M 2
;
_chemical_formula_sum "Si O2"
_cell_formula_units_Z 56
_cell_length_a 16.594041
_cell_length_b 8.972147
_cell_length_c 20.633282
_cell_angle_alpha 90.000000
_cell_angle_beta 90.000000
_cell_angle_gamma 90.000000
_cell_volume 3071.969172
_symmetry_space_group_name_H-M "A M M 2"
_symmetry_group_IT_number 38
_symmetry_cell_setting 'orthorhombic'
loop_
_space_group_symop_operation_xyz
x,y,z
-x,-y,z
-x,y,z
x,-y,z
x,1/2+y,1/2+z
-x,1/2-y,1/2+z
-x,1/2+y,1/2+z
x,1/2-y,1/2+z
loop_
_atom_site_type_symbol
_atom_site_label
_atom_site_fract_x
_atom_site_fract_y
_atom_site_fract_z
Si Si1 0.828175 0.677496 0.200530
Si Si2 0.734539 0.172768 0.316031
Si Si3 0.000000 0.176660 0.746407
Si Si4 0.591826 0.671059 0.375425
Si Si5 0.842509 0.826499 0.440515
Si Si6 0.589739 0.172352 0.511069
Si Si7 0.000000 0.323522 0.393032
Si Si8 0.753297 0.175456 0.568627
O O1 0.823717 0.500000 0.202285
O O2 0.775564 0.738190 0.258703
O O3 0.792348 0.744277 0.133597
O O4 0.920582 0.733151 0.208484
O O5 0.644425 0.234074 0.325111
O O6 0.782295 0.204011 0.381827
O O7 0.731653 0.000000 0.297867
O O8 0.000000 0.241237 0.819637
O O9 0.000000 0.000000 0.750239
O O10 0.500000 0.689022 0.352538
O O11 0.619730 0.500000 0.373903
O O12 0.602968 0.729328 0.448000
O O13 0.922848 0.733039 0.431434
O O14 0.800385 0.765276 0.505626
O O15 0.864939 0.000000 0.445675
O O16 0.500000 0.198679 0.540593
O O17 0.658033 0.217535 0.563562
O O18 0.601303 0.000000 0.490283
O O19 0.000000 0.500000 0.392185
O O20 0.763615 0.000000 0.571856
#
# Coordination Sequence:
#
# PCOD8179097 Si02
#       8
#     8   8   4   8   8   8   4   8
#     4  10  20  36  57  78 108 147 188 230 274 328
#     4  11  21  35  56  81 110 143 180 222 275 330
#     4   9  18  32  51  77 103 138 184 227 275 324
#     4  10  20  33  53  83 113 143 183 229 274 320
#     4  10  20  35  55  80 107 138 180 226 272 324
#     4   9  16  30  53  80 110 143 181 225 273 326
#     4  11  21  34  53  81 109 136 180 229 281 326
#     4   9  18  34  55  81 109 144 186 224 270 327
#
# _framework density 18.22935
#
# number of rings (size 3 to 8) (size 9 to 14) (size 15 to 20)
#    0.000    2.143    2.857    1.071    0.000    2.000 
#    0.000    4.643    0.000    2.571    0.000    0.000 
#    0.000    0.000    0.000    0.000    0.000    0.000 
#
# Total GULP energy -347183.138061 kJ/mol
# GULP energy per Si atom -12399.397788 kJ/mol
# Density = 1.818786 g / cm^3
# Si number density = 18.229350 Si / 1000 Ang^3
#
#
#
# Elastic Constant Matrix: (Units=GPa)
#
#
# Indices 1 2 3 4 5 6 
#
# 1 155.2778 34.2167 70.4861 0.0000 0.0000 0.0000
# 2 34.2167 34.5397 24.4641 0.0000 0.0000 0.0000
# 3 70.4861 24.4641 117.5264 0.0000 0.0000 0.0000
# 4 0.0000 0.0000 0.0000 21.5583 0.0000 0.0000
# 5 0.0000 0.0000 0.0000 0.0000 29.5146 0.0000
# 6 0.0000 0.0000 0.0000 0.0000 0.0000 23.0442
#
#
#
# Elastic Compliance Matrix: (Units=1/GPa)
#
#
# Indices 1 2 3 4 5 6 
#
# 1 0.009997 -0.006635 -0.004614 0.000000 0.000000 0.000000
# 2 -0.006635 0.038363 -0.004006 0.000000 0.000000 0.000000
# 3 -0.004614 -0.004006 0.012110 0.000000 0.000000 0.000000
# 4 0.000000 0.000000 0.000000 0.046386 0.000000 0.000000
# 5 0.000000 0.000000 0.000000 0.000000 0.033882 0.000000
# 6 0.000000 0.000000 0.000000 0.000000 0.000000 0.043395
#
#
# Mechanical properties :
#
#
# Convention : Reuss Voigt Hill
#
# Bulk Modulus (GPa) = 33.37963 62.85309 48.11636
# Shear Modulus (GPa) = 22.25891 26.70188 24.48040
#
# Velocity S-wave (km/s) = 3.49814 3.83139 3.66855
# Velocity P-wave (km/s) = 5.88784 7.35708 6.66308
#
# Compressibility (1/GPa) = 0.02995839
#
# Stress axis : x y z
#
# Youngs Moduli (GPa) = 100.03217 26.06704 82.57546
#
# Poissons Ratio (x) = 0.17295 0.38104
# Poissons Ratio (y) = 0.66371 0.33081
# Poissons Ratio (z) = 0.46159 0.10443
#
# Static dielectric constant tensor:
#      x y z
#    x 3.718630 0.000000 0.000000 
#    y 0.000000 3.184820 0.000000 
#    z 0.000000 0.000000 3.395600 
# 
# 
# High freq. dielectric constant tensor:
#      x y z
#    x 1.724350 0.000000 0.000000 
#    y 0.000000 1.685480 0.000000 
#    z 0.000000 0.000000 1.688470 
# 
# From -- ./inp_files/21164.got.cif
#   From: 2010.03.12/outbox.cif.g09.slc.cpg/sg38_11_cif.got.tgz:21164.got - 2010.04.14 02:38:36.
