data_PCOD8179698
_publ_section_title
;
Structure prediction by ZEFSAII (Michael W. Deem and Ramdas Pophale) SiO2 
 PCOD8179698
Probable space group: A M M 2
;
_chemical_formula_sum "Si O2"
_cell_formula_units_Z 64
_cell_length_a 8.870243
_cell_length_b 29.165118
_cell_length_c 12.814554
_cell_angle_alpha 90.000000
_cell_angle_beta 90.000000
_cell_angle_gamma 90.000000
_cell_volume 3315.146697
_symmetry_space_group_name_H-M "A M M 2"
_symmetry_group_IT_number 38
_symmetry_cell_setting 'orthorhombic'
loop_
_space_group_symop_operation_xyz
x,y,z
-x,-y,z
-x,y,z
x,-y,z
x,1/2+y,1/2+z
-x,1/2-y,1/2+z
-x,1/2+y,1/2+z
x,1/2-y,1/2+z
loop_
_atom_site_type_symbol
_atom_site_label
_atom_site_fract_x
_atom_site_fract_y
_atom_site_fract_z
Si Si1 0.675826 0.552153 0.026000
Si Si2 0.832105 0.715316 0.128100
Si Si3 0.167990 0.201872 0.270820
Si Si4 0.676001 0.624541 0.198611
Si Si5 0.675302 0.747973 0.439638
Si Si6 0.678782 0.378962 0.652655
Si Si7 0.176816 0.946924 0.312707
Si Si8 0.323371 0.354546 0.426555
O O1 0.500000 0.555987 0.001330
O O2 0.725861 0.500000 0.047765
O O3 0.717994 0.579896 0.130833
O O4 0.760545 0.571818 0.923641
O O5 0.839107 0.746282 0.230221
O O6 0.777302 0.664972 0.155386
O O7 0.000000 0.712483 0.077304
O O8 0.708887 0.741433 0.059135
O O9 0.242828 0.209359 0.382972
O O10 0.270368 0.169056 0.201291
O O11 0.000000 0.180475 0.280111
O O12 0.500000 0.637356 0.186931
O O13 0.715066 0.616405 0.321677
O O14 0.500000 0.750442 0.413114
O O15 0.741392 0.697201 0.414335
O O16 0.500000 0.383383 0.660441
O O17 0.751312 0.420949 0.714923
O O18 0.737052 0.379816 0.531534
O O19 0.000000 0.938648 0.311571
O O20 0.220728 0.000000 0.300258
O O21 0.500000 0.349039 0.442845
#
# Coordination Sequence:
#
# PCOD8179698 Si02
#       8
#     8   8   8   8   8   8   8   8
#     4   9  19  37  62  89 114 143 183 234 289 344
#     4  11  23  36  52  79 115 151 191 236 282 335
#     4  11  23  37  53  79 114 151 193 238 285 337
#     4  10  20  37  59  83 113 150 192 235 284 342
#     4  11  21  36  56  76 108 153 196 238 281 333
#     4  11  22  38  60  86 114 150 195 237 284 342
#     4  10  22  41  63  86 115 149 184 231 291 346
#     4   9  19  35  56  82 113 149 191 236 281 334
#
# _framework density 19.305330000000001
#
# number of rings (size 3 to 8) (size 9 to 14) (size 15 to 20)
#    0.000    1.750    2.500    1.875    1.750    2.250 
#    0.000    1.875    0.000    2.250    0.000    1.750 
#    0.000    0.000    0.000    0.000    0.000    0.000 
#
# Total GULP energy -396676.018432 kJ/mol
# GULP energy per Si atom -12396.125576 kJ/mol
# Density = 1.926139 g / cm^3
# Si number density = 19.305330 Si / 1000 Ang^3
#
#
#
# Elastic Constant Matrix: (Units=GPa)
#
#
# Indices 1 2 3 4 5 6 
#
# 1 63.8002 33.7209 40.6414 0.0000 0.0000 0.0000
# 2 33.7209 88.1392 58.2205 0.0000 0.0000 0.0000
# 3 40.6414 58.2205 137.7546 0.0000 0.0000 0.0000
# 4 0.0000 0.0000 0.0000 37.3523 0.0000 0.0000
# 5 0.0000 0.0000 0.0000 0.0000 17.9479 0.0000
# 6 0.0000 0.0000 0.0000 0.0000 0.0000 26.4956
#
#
#
# Elastic Compliance Matrix: (Units=1/GPa)
#
#
# Indices 1 2 3 4 5 6 
#
# 1 0.021052 -0.005482 -0.003894 0.000000 0.000000 0.000000
# 2 -0.005482 0.017167 -0.005638 0.000000 0.000000 0.000000
# 3 -0.003894 -0.005638 0.010791 0.000000 0.000000 0.000000
# 4 0.000000 0.000000 0.000000 0.026772 0.000000 0.000000
# 5 0.000000 0.000000 0.000000 0.000000 0.055717 0.000000
# 6 0.000000 0.000000 0.000000 0.000000 0.000000 0.037742
#
#
# Mechanical properties :
#
#
# Convention : Reuss Voigt Hill
#
# Bulk Modulus (GPa) = 52.68188 61.65105 57.16647
# Shear Modulus (GPa) = 24.31938 26.83323 25.57631
#
# Velocity S-wave (km/s) = 3.55311 3.73223 3.64377
# Velocity P-wave (km/s) = 6.64686 7.11174 6.88323
#
# Compressibility (1/GPa) = 0.01898186
#
# Stress axis : x y z
#
# Youngs Moduli (GPa) = 47.50168 58.24994 92.66912
#
# Poissons Ratio (x) = 0.31933 0.36085
# Poissons Ratio (y) = 0.26040 0.52249
# Poissons Ratio (z) = 0.18497 0.32843
#
# Static dielectric constant tensor:
#      x y z
#    x 3.489590 0.000000 0.000000 
#    y 0.000000 3.404450 0.000000 
#    z 0.000000 0.000000 3.716570 
# 
# 
# High freq. dielectric constant tensor:
#      x y z
#    x 1.745420 0.000000 0.000000 
#    y 0.000000 1.734050 0.000000 
#    z 0.000000 0.000000 1.760010 
# 
# From -- ./inp_files/8528.got.cif
#   From: 2010.03.12/outbox.cif.g09.slc.cpg/sg38_5_cif.got.tgz:8528.got - 2010.04.14 02:38:36.
