data_PCOD8179691
_publ_section_title
;
Structure prediction by ZEFSAII (Michael W. Deem and Ramdas Pophale) SiO2 
 PCOD8179691
Probable space group: A M M 2
;
_chemical_formula_sum "Si O2"
_cell_formula_units_Z 56
_cell_length_a 21.847318
_cell_length_b 8.463114
_cell_length_c 15.149703
_cell_angle_alpha 90.000000
_cell_angle_beta 90.000000
_cell_angle_gamma 90.000000
_cell_volume 2801.124680
_symmetry_space_group_name_H-M "A M M 2"
_symmetry_group_IT_number 38
_symmetry_cell_setting 'orthorhombic'
loop_
_space_group_symop_operation_xyz
x,y,z
-x,-y,z
-x,y,z
x,-y,z
x,1/2+y,1/2+z
-x,1/2-y,1/2+z
-x,1/2+y,1/2+z
x,1/2-y,1/2+z
loop_
_atom_site_type_symbol
_atom_site_label
_atom_site_fract_x
_atom_site_fract_y
_atom_site_fract_z
Si Si1 0.500000 0.678431 0.708330
Si Si2 0.070583 0.183982 0.898219
Si Si3 0.500000 0.177522 0.888728
Si Si4 0.368898 0.312906 0.375614
Si Si5 0.152272 0.184447 0.547454
Si Si6 0.711323 0.684326 0.028263
Si Si7 0.067713 0.187858 0.699593
Si Si8 0.365993 0.819349 0.181460
O O1 0.500000 0.500000 0.749821
O O2 0.500000 0.813018 0.782380
O O3 0.562415 0.700186 0.652299
O O4 0.114617 0.285862 0.958955
O O5 0.086291 0.236487 0.798521
O O6 0.000000 0.222334 0.920165
O O7 0.084210 0.000000 0.912853
O O8 0.565741 0.253119 0.916446
O O9 0.500000 0.000000 0.923483
O O10 0.373602 0.500000 0.359119
O O11 0.316463 0.276433 0.445324
O O12 0.354615 0.229483 0.282794
O O13 0.220472 0.254887 0.540930
O O14 0.116416 0.261394 0.630803
O O15 0.158153 0.000000 0.564159
O O16 0.712102 0.500000 0.005403
O O17 0.673878 0.710598 0.117823
O O18 0.000000 0.254662 0.676979
O O19 0.065567 0.000000 0.692569
O O20 0.345129 0.000000 0.169328
#
# Coordination Sequence:
#
# PCOD8179691 Si02
#       8
#     4   8   4   8   8   8   8   8
#     4   8  16  31  54  81 106 134 172 219 276 337
#     4   9  18  33  55  83 110 135 169 215 267 322
#     4   8  16  31  54  81 104 130 174 227 278 333
#     4  10  20  37  59  81 107 141 180 228 283 333
#     4  10  21  36  54  76 105 142 183 222 258 306
#     4  11  24  38  51  77 113 149 192 231 267 320
#     4   8  15  31  55  79 102 132 169 208 256 312
#     4  10  20  37  59  82 109 141 178 226 281 334
#
# _framework density 19.991969000000001
#
# number of rings (size 3 to 8) (size 9 to 14) (size 15 to 20)
#    0.000    2.571    0.000    2.571    0.000    4.857 
#    0.000    5.000    0.000    0.857    0.000    0.000 
#    0.000    0.000    0.000    0.000    0.000    0.000 
#
# Total GULP energy -347013.621607 kJ/mol
# GULP energy per Si atom -12393.343629 kJ/mol
# Density = 1.994647 g / cm^3
# Si number density = 19.991969 Si / 1000 Ang^3
#
#
#
# Elastic Constant Matrix: (Units=GPa)
#
#
# Indices 1 2 3 4 5 6 
#
# 1 143.1374 11.5049 68.5041 0.0000 0.0000 0.0000
# 2 11.5049 26.7007 2.5843 0.0000 0.0000 0.0000
# 3 68.5041 2.5843 104.0822 0.0000 0.0000 0.0000
# 4 0.0000 0.0000 0.0000 30.4440 0.0000 0.0000
# 5 0.0000 0.0000 0.0000 0.0000 19.1549 0.0000
# 6 0.0000 0.0000 0.0000 0.0000 0.0000 21.8510
#
#
#
# Elastic Compliance Matrix: (Units=1/GPa)
#
#
# Indices 1 2 3 4 5 6 
#
# 1 0.010589 -0.003897 -0.006872 0.000000 0.000000 0.000000
# 2 -0.003897 0.038977 0.001597 0.000000 0.000000 0.000000
# 3 -0.006872 0.001597 0.014091 0.000000 0.000000 0.000000
# 4 0.000000 0.000000 0.000000 0.032847 0.000000 0.000000
# 5 0.000000 0.000000 0.000000 0.000000 0.052206 0.000000
# 6 0.000000 0.000000 0.000000 0.000000 0.000000 0.045764
#
#
# Mechanical properties :
#
#
# Convention : Reuss Voigt Hill
#
# Bulk Modulus (GPa) = 22.06914 48.78967 35.42940
# Shear Modulus (GPa) = 21.93722 27.04512 24.49117
#
# Velocity S-wave (km/s) = 3.31615 3.68203 3.50387
# Velocity P-wave (km/s) = 5.07202 6.52182 5.84207
#
# Compressibility (1/GPa) = 0.04531215
#
# Stress axis : x y z
#
# Youngs Moduli (GPa) = 94.44135 25.65622 70.96563
#
# Poissons Ratio (x) = 0.09999 0.48770
# Poissons Ratio (y) = 0.36806 -0.11335
# Poissons Ratio (z) = 0.64903 -0.04098
#
# Static dielectric constant tensor:
#      x y z
#    x 4.067690 0.000000 0.000000 
#    y 0.000000 3.335960 0.000000 
#    z 0.000000 0.000000 3.495860 
# 
# 
# High freq. dielectric constant tensor:
#      x y z
#    x 1.788340 0.000000 0.000000 
#    y 0.000000 1.756090 0.000000 
#    z 0.000000 0.000000 1.771560 
# 
# From -- ./inp_files/15530.got.cif
#   From: 2010.03.12/outbox.cif.g09.slc.cpg/sg38_8_cif.got.tgz:15530.got - 2010.04.14 02:38:36.
