data_PCOD8179906
_publ_section_title
;
Structure prediction by ZEFSAII (Michael W. Deem and Ramdas Pophale) SiO2 
 PCOD8179906
Probable space group: A M M 2
;
_chemical_formula_sum "Si O2"
_cell_formula_units_Z 48
_cell_length_a 14.965606
_cell_length_b 8.948236
_cell_length_c 18.993786
_cell_angle_alpha 90.000000
_cell_angle_beta 90.000000
_cell_angle_gamma 90.000000
_cell_volume 2543.567560
_symmetry_space_group_name_H-M "A M M 2"
_symmetry_group_IT_number 38
_symmetry_cell_setting 'orthorhombic'
loop_
_space_group_symop_operation_xyz
x,y,z
-x,-y,z
-x,y,z
x,-y,z
x,1/2+y,1/2+z
-x,1/2-y,1/2+z
-x,1/2+y,1/2+z
x,1/2-y,1/2+z
loop_
_atom_site_type_symbol
_atom_site_label
_atom_site_fract_x
_atom_site_fract_y
_atom_site_fract_z
Si Si1 0.245109 0.674881 0.901430
Si Si2 0.401965 0.677228 0.157904
Si Si3 0.603443 0.172548 0.817059
Si Si4 0.102945 0.175539 0.805542
Si Si5 0.896127 0.673439 0.661345
Si Si6 0.240241 0.175807 0.564327
O O1 0.231835 0.500000 0.889278
O O2 0.338285 0.725439 0.868005
O O3 0.160792 0.759902 0.868939
O O4 0.249217 0.716988 0.983108
O O5 0.500000 0.741646 0.137212
O O6 0.406395 0.500000 0.154618
O O7 0.377508 0.725691 0.237284
O O8 0.328124 0.739079 0.104081
O O9 0.500000 0.196051 0.836570
O O10 0.631245 0.000000 0.826676
O O11 0.136586 0.246119 0.732464
O O12 0.000000 0.217342 0.820227
O O13 0.117932 0.000000 0.800275
O O14 0.873765 0.500000 0.668875
O O15 0.846178 0.741692 0.594505
O O16 0.000000 0.703347 0.648221
O O17 0.228967 0.000000 0.576775
#
# Coordination Sequence:
#
# PCOD8179906 Si02
#       6
#     8   8   8   8   8   8
#     4  11  23  35  51  80 115 148 183 227 274 319
#     4   8  15  31  55  78  99 130 176 223 263 309
#     4   9  18  34  57  81 104 138 186 234 277 325
#     4  10  21  38  60  81 103 139 185 228 273 329
#     4  10  21  37  58  83 109 137 173 222 276 326
#     4  10  21  35  53  79 110 146 183 218 263 320
#
# _framework density 18.871131999999999
#
# number of rings (size 3 to 8) (size 9 to 14) (size 15 to 20)
#    0.000    2.333    0.000    3.500    0.000    6.333 
#    0.000    5.000    0.000    1.500    0.000    0.000 
#    0.000    0.000    0.000    0.000    0.000    0.000 
#
# Total GULP energy -297662.177169 kJ/mol
# GULP energy per Si atom -12402.590715 kJ/mol
# Density = 1.882818 g / cm^3
# Si number density = 18.871132 Si / 1000 Ang^3
#
#
#
# Elastic Constant Matrix: (Units=GPa)
#
#
# Indices 1 2 3 4 5 6 
#
# 1 107.8214 45.1342 78.7946 0.0000 0.0000 0.0000
# 2 45.1342 65.3599 55.7466 0.0000 0.0000 0.0000
# 3 78.7946 55.7466 141.4963 0.0000 0.0000 0.0000
# 4 0.0000 0.0000 0.0000 28.1487 0.0000 0.0000
# 5 0.0000 0.0000 0.0000 0.0000 21.6351 0.0000
# 6 0.0000 0.0000 0.0000 0.0000 0.0000 29.9284
#
#
#
# Elastic Compliance Matrix: (Units=1/GPa)
#
#
# Indices 1 2 3 4 5 6 
#
# 1 0.016844 -0.005469 -0.007225 0.000000 0.000000 0.000000
# 2 -0.005469 0.024819 -0.006733 0.000000 0.000000 0.000000
# 3 -0.007225 -0.006733 0.013743 0.000000 0.000000 0.000000
# 4 0.000000 0.000000 0.000000 0.035526 0.000000 0.000000
# 5 0.000000 0.000000 0.000000 0.000000 0.046221 0.000000
# 6 0.000000 0.000000 0.000000 0.000000 0.000000 0.033413
#
#
# Mechanical properties :
#
#
# Convention : Reuss Voigt Hill
#
# Bulk Modulus (GPa) = 60.41382 74.89203 67.65293
# Shear Modulus (GPa) = 23.26259 24.94258 24.10259
#
# Velocity S-wave (km/s) = 3.51480 3.63951 3.57770
# Velocity P-wave (km/s) = 6.96815 7.57849 7.27972
#
# Compressibility (1/GPa) = 0.01655250
#
# Stress axis : x y z
#
# Youngs Moduli (GPa) = 59.36813 40.29181 72.76298
#
# Poissons Ratio (x) = 0.22036 0.52572
# Poissons Ratio (y) = 0.32469 0.48988
# Poissons Ratio (z) = 0.42894 0.27127
#
# Static dielectric constant tensor:
#      x y z
#    x 3.710010 0.000000 0.000000 
#    y 0.000000 3.295240 0.000000 
#    z 0.000000 0.000000 3.445710 
# 
# 
# High freq. dielectric constant tensor:
#      x y z
#    x 1.746340 0.000000 0.000000 
#    y 0.000000 1.719200 0.000000 
#    z 0.000000 0.000000 1.730420 
# 
# From -- ./inp_files/18148.got.cif
#   From: 2010.03.12/outbox.cif.g09.slc.cpg/sg38_10_cif.got.tgz:18148.got - 2010.04.14 02:38:36.
