data_PCOD8179337
_publ_section_title
;
Structure prediction by ZEFSAII (Michael W. Deem and Ramdas Pophale) SiO2 
 PCOD8179337
Probable space group: A M M 2
;
_chemical_formula_sum "Si O2"
_cell_formula_units_Z 48
_cell_length_a 13.875542
_cell_length_b 8.987513
_cell_length_c 20.353311
_cell_angle_alpha 90.000000
_cell_angle_beta 90.000000
_cell_angle_gamma 90.000000
_cell_volume 2538.192501
_symmetry_space_group_name_H-M "A M M 2"
_symmetry_group_IT_number 38
_symmetry_cell_setting 'orthorhombic'
loop_
_space_group_symop_operation_xyz
x,y,z
-x,-y,z
-x,y,z
x,-y,z
x,1/2+y,1/2+z
-x,1/2-y,1/2+z
-x,1/2+y,1/2+z
x,1/2-y,1/2+z
loop_
_atom_site_type_symbol
_atom_site_label
_atom_site_fract_x
_atom_site_fract_y
_atom_site_fract_z
Si Si1 0.108727 0.325734 0.275010
Si Si2 0.711319 0.674543 0.814306
Si Si3 0.892530 0.330012 0.639490
Si Si4 0.387583 0.329691 0.192593
Si Si5 0.299695 0.326778 0.570228
Si Si6 0.611203 0.326027 0.948734
O O1 0.126396 0.500000 0.280099
O O2 0.181788 0.242610 0.324279
O O3 0.130002 0.276312 0.200501
O O4 0.000000 0.282434 0.295441
O O5 0.719996 0.500000 0.805108
O O6 0.666782 0.740782 0.748656
O O7 0.644903 0.717039 0.875758
O O8 0.883854 0.500000 0.664409
O O9 0.814001 0.297683 0.583142
O O10 0.000000 0.298919 0.611135
O O11 0.500000 0.317329 0.206382
O O12 0.352615 0.500000 0.193081
O O13 0.365359 0.259313 0.122182
O O14 0.325310 0.500000 0.574283
O O15 0.323260 0.266568 0.498311
O O16 0.500000 0.279940 0.956458
O O17 0.626007 0.500000 0.962583
#
# Coordination Sequence:
#
# PCOD8179337 Si02
#       6
#     8   8   8   8   8   8
#     4  10  20  34  56  87 119 151 188 233 286 344
#     4  11  22  38  60  85 113 150 195 242 291 344
#     4   9  18  34  56  83 115 150 187 230 284 341
#     4  11  23  37  56  83 115 149 188 239 294 346
#     4  11  22  36  58  87 115 149 192 238 287 342
#     4  10  23  42  60  79 111 155 196 238 291 347
#
# _framework density 18.911096000000001
#
# number of rings (size 3 to 8) (size 9 to 14) (size 15 to 20)
#    0.000    1.667    1.667    3.000    0.000    7.333 
#    0.000    0.833    0.000    3.000    0.000    0.000 
#    0.000    0.000    0.000    0.000    0.000    0.000 
#
# Total GULP energy -297677.484817 kJ/mol
# GULP energy per Si atom -12403.228534 kJ/mol
# Density = 1.886805 g / cm^3
# Si number density = 18.911096 Si / 1000 Ang^3
#
#
#
# Elastic Constant Matrix: (Units=GPa)
#
#
# Indices 1 2 3 4 5 6 
#
# 1 114.3661 47.7731 34.0995 0.0000 0.0000 0.0000
# 2 47.7731 90.3512 39.5379 0.0000 0.0000 0.0000
# 3 34.0995 39.5379 66.0797 0.0000 0.0000 0.0000
# 4 0.0000 0.0000 0.0000 33.6111 0.0000 0.0000
# 5 0.0000 0.0000 0.0000 0.0000 33.1237 0.0000
# 6 0.0000 0.0000 0.0000 0.0000 0.0000 32.3006
#
#
#
# Elastic Compliance Matrix: (Units=1/GPa)
#
#
# Indices 1 2 3 4 5 6 
#
# 1 0.011691 -0.004798 -0.003162 0.000000 0.000000 0.000000
# 2 -0.004798 0.016963 -0.007674 0.000000 0.000000 0.000000
# 3 -0.003162 -0.007674 0.021356 0.000000 0.000000 0.000000
# 4 0.000000 0.000000 0.000000 0.029752 0.000000 0.000000
# 5 0.000000 0.000000 0.000000 0.000000 0.030190 0.000000
# 6 0.000000 0.000000 0.000000 0.000000 0.000000 0.030959
#
#
# Mechanical properties :
#
#
# Convention : Reuss Voigt Hill
#
# Bulk Modulus (GPa) = 53.35361 57.06866 55.21113
# Shear Modulus (GPa) = 28.02286 29.76619 28.89452
#
# Velocity S-wave (km/s) = 3.85362 3.97168 3.91309
# Velocity P-wave (km/s) = 6.93359 7.16067 7.04804
#
# Compressibility (1/GPa) = 0.01874288
#
# Stress axis : x y z
#
# Youngs Moduli (GPa) = 85.53735 58.95287 46.82424
#
# Poissons Ratio (x) = 0.28284 0.14807
# Poissons Ratio (y) = 0.41038 0.35931
# Poissons Ratio (z) = 0.27049 0.45238
#
# Static dielectric constant tensor:
#      x y z
#    x 3.868930 0.000000 0.000000 
#    y 0.000000 3.573220 0.000000 
#    z 0.000000 0.000000 3.225640 
# 
# 
# High freq. dielectric constant tensor:
#      x y z
#    x 1.754620 0.000000 0.000000 
#    y 0.000000 1.745050 0.000000 
#    z 0.000000 0.000000 1.710180 
# 
# From -- ./inp_files/18157.got.cif
#   From: 2010.03.12/outbox.cif.g09.slc.cpg/sg38_10_cif.got.tgz:18157.got - 2010.04.14 02:38:36.
