data_PCOD8179651
_publ_section_title
;
Structure prediction by ZEFSAII (Michael W. Deem and Ramdas Pophale) SiO2 
 PCOD8179651
Probable space group: A M M 2
;
_chemical_formula_sum "Si O2"
_cell_formula_units_Z 48
_cell_length_a 12.920753
_cell_length_b 16.346423
_cell_length_c 11.221655
_cell_angle_alpha 90.000000
_cell_angle_beta 90.000000
_cell_angle_gamma 90.000000
_cell_volume 2370.104364
_symmetry_space_group_name_H-M "A M M 2"
_symmetry_group_IT_number 38
_symmetry_cell_setting 'orthorhombic'
loop_
_space_group_symop_operation_xyz
x,y,z
-x,-y,z
-x,y,z
x,-y,z
x,1/2+y,1/2+z
-x,1/2-y,1/2+z
-x,1/2+y,1/2+z
x,1/2-y,1/2+z
loop_
_atom_site_type_symbol
_atom_site_label
_atom_site_fract_x
_atom_site_fract_y
_atom_site_fract_z
Si Si1 0.207916 0.191844 0.415890
Si Si2 0.259734 0.847932 0.799028
Si Si3 0.700171 0.908356 0.043981
Si Si4 0.618867 0.236219 0.593474
Si Si5 0.113770 0.410470 0.109748
Si Si6 0.883045 0.406480 0.707184
O O1 0.185189 0.281998 0.365178
O O2 0.320497 0.195274 0.481162
O O3 0.127096 0.163133 0.516153
O O4 0.194749 0.130702 0.305630
O O5 0.311763 0.903249 0.900846
O O6 0.345131 0.801163 0.719572
O O7 0.192101 0.906751 0.718473
O O8 0.662158 0.000000 0.083280
O O9 0.633014 0.834867 0.100793
O O10 0.821066 0.895902 0.082682
O O11 0.500000 0.214092 0.573827
O O12 0.129098 0.500000 0.048571
O O13 0.000000 0.402036 0.163822
O O14 0.897570 0.500000 0.741271
O O15 0.000000 0.366907 0.701249
#
# Coordination Sequence:
#
# PCOD8179651 Si02
#       6
#     8   8   8   8   8   8
#     4  10  20  37  57  86 116 150 197 240 293 345
#     4  10  21  38  57  86 116 153 191 247 296 344
#     4  10  21  39  61  88 120 154 198 244 291 355
#     4  10  22  41  63  84 114 154 200 252 310 352
#     4  10  21  36  56  82 115 156 194 233 286 346
#     4  10  20  36  60  89 125 165 197 235 294 356
#
# _framework density 20.252274
#
# number of rings (size 3 to 8) (size 9 to 14) (size 15 to 20)
#    0.000    2.000    1.667    1.500    0.000    6.333 
#    0.000    4.167    0.000   17.500    0.000    0.000 
#    0.000    0.000    0.000    0.000    0.000    0.000 
#
# Total GULP energy -297317.313048 kJ/mol
# GULP energy per Si atom -12388.221377 kJ/mol
# Density = 2.020618 g / cm^3
# Si number density = 20.252274 Si / 1000 Ang^3
#
#
#
# Elastic Constant Matrix: (Units=GPa)
#
#
# Indices 1 2 3 4 5 6 
#
# 1 103.0760 49.5720 36.2747 0.0000 0.0000 0.0000
# 2 49.5720 78.3251 27.8512 0.0000 0.0000 0.0000
# 3 36.2747 27.8512 94.2546 0.0000 0.0000 0.0000
# 4 0.0000 0.0000 0.0000 34.4072 0.0000 0.0000
# 5 0.0000 0.0000 0.0000 0.0000 14.9221 0.0000
# 6 0.0000 0.0000 0.0000 0.0000 0.0000 21.3810
#
#
#
# Elastic Compliance Matrix: (Units=1/GPa)
#
#
# Indices 1 2 3 4 5 6 
#
# 1 0.014797 -0.008202 -0.003271 0.000000 0.000000 0.000000
# 2 -0.008202 0.018813 -0.002402 0.000000 0.000000 0.000000
# 3 -0.003271 -0.002402 0.012578 0.000000 0.000000 0.000000
# 4 0.000000 0.000000 0.000000 0.029064 0.000000 0.000000
# 5 0.000000 0.000000 0.000000 0.000000 0.067015 0.000000
# 6 0.000000 0.000000 0.000000 0.000000 0.000000 0.046771
#
#
# Mechanical properties :
#
#
# Convention : Reuss Voigt Hill
#
# Bulk Modulus (GPa) = 54.23838 55.89462 55.06650
# Shear Modulus (GPa) = 22.42811 24.93924 23.68368
#
# Velocity S-wave (km/s) = 3.33143 3.51298 3.42341
# Velocity P-wave (km/s) = 6.45270 6.64182 6.54795
#
# Compressibility (1/GPa) = 0.01843713
#
# Stress axis : x y z
#
# Youngs Moduli (GPa) = 67.57930 53.15578 79.50142
#
# Poissons Ratio (x) = 0.43599 0.26007
# Poissons Ratio (y) = 0.55429 0.19098
# Poissons Ratio (z) = 0.22107 0.12769
#
# Static dielectric constant tensor:
#      x y z
#    x 3.422720 0.000000 0.000000 
#    y 0.000000 3.851700 0.000000 
#    z 0.000000 0.000000 3.839350 
# 
# 
# High freq. dielectric constant tensor:
#      x y z
#    x 1.759020 0.000000 0.000000 
#    y 0.000000 1.795790 0.000000 
#    z 0.000000 0.000000 1.796750 
# 
# From -- ./inp_files/9221.got.cif
#   From: 2010.03.12/outbox.cif.g09.slc.cpg/sg38_5_cif.got.tgz:9221.got - 2010.04.14 02:38:36.
