data_PCOD8179071
_publ_section_title
;
Structure prediction by ZEFSAII (Michael W. Deem and Ramdas Pophale) SiO2 
 PCOD8179071
Probable space group: A M M 2
;
_chemical_formula_sum "Si O2"
_cell_formula_units_Z 64
_cell_length_a 8.957207
_cell_length_b 19.579496
_cell_length_c 20.796911
_cell_angle_alpha 90.000000
_cell_angle_beta 90.000000
_cell_angle_gamma 90.000000
_cell_volume 3647.312310
_symmetry_space_group_name_H-M "A M M 2"
_symmetry_group_IT_number 38
_symmetry_cell_setting 'orthorhombic'
loop_
_space_group_symop_operation_xyz
x,y,z
-x,-y,z
-x,y,z
x,-y,z
x,1/2+y,1/2+z
-x,1/2-y,1/2+z
-x,1/2+y,1/2+z
x,1/2-y,1/2+z
loop_
_atom_site_type_symbol
_atom_site_label
_atom_site_fract_x
_atom_site_fract_y
_atom_site_fract_z
Si Si1 0.176585 0.074347 0.620280
Si Si2 0.170338 0.576311 0.516308
Si Si3 0.174059 0.790287 0.946061
Si Si4 0.822748 0.794411 0.199024
Si Si5 0.325551 0.077859 0.149099
Si Si6 0.177185 0.715138 0.072667
Si Si7 0.673764 0.714675 0.314763
Si Si8 0.670452 0.075617 0.753223
O O1 0.233540 0.136188 0.575164
O O2 0.225621 0.089522 0.692565
O O3 0.000000 0.073517 0.620486
O O4 0.238128 0.000000 0.596670
O O5 0.196906 0.500000 0.489109
O O6 0.204073 0.629440 0.459281
O O7 0.276911 0.591780 0.575976
O O8 0.000000 0.586075 0.540770
O O9 0.264969 0.765203 0.884516
O O10 0.000000 0.775571 0.934120
O O11 0.237419 0.748211 0.007139
O O12 0.763114 0.872094 0.196916
O O13 0.763206 0.755513 0.135227
O O14 0.758591 0.758136 0.261601
O O15 0.000000 0.794436 0.203679
O O16 0.500000 0.092869 0.154873
O O17 0.287130 0.000000 0.168773
O O18 0.000000 0.719756 0.073436
O O19 0.500000 0.732467 0.310880
O O20 0.705068 0.633719 0.305573
O O21 0.500000 0.080981 0.729462
O O22 0.702383 0.000000 0.782620
#
# Coordination Sequence:
#
# PCOD8179071 Si02
#       8
#     8   8   8   8   8   8   8   8
#     4   9  16  28  50  78 104 129 164 212 259 303
#     4   9  17  31  51  75 104 140 182 221 259 311
#     4  10  20  35  51  71 102 141 178 219 265 312
#     4  11  20  35  58  80 103 137 178 224 268 314
#     4  10  20  33  52  81 113 140 170 214 266 318
#     4   9  17  31  52  78 103 130 171 218 264 307
#     4  11  23  36  50  75 107 141 180 222 266 319
#     4   9  18  32  48  69 102 140 172 205 250 306
#
# _framework density 17.547167999999999
#
# number of rings (size 3 to 8) (size 9 to 14) (size 15 to 20)
#    0.000    2.250    2.500    1.125    0.000    2.250 
#    0.000    0.625    0.000    0.750    0.000    1.750 
#    0.000    0.000    0.000    0.000    0.000    0.000 
#
# Total GULP energy -396707.366278 kJ/mol
# GULP energy per Si atom -12397.105196 kJ/mol
# Density = 1.750723 g / cm^3
# Si number density = 17.547168 Si / 1000 Ang^3
#
#
#
# Elastic Constant Matrix: (Units=GPa)
#
#
# Indices 1 2 3 4 5 6 
#
# 1 56.8546 41.8120 37.1505 0.0000 0.0000 0.0000
# 2 41.8120 113.9086 65.2358 0.0000 0.0000 0.0000
# 3 37.1505 65.2358 113.2298 0.0000 0.0000 0.0000
# 4 0.0000 0.0000 0.0000 23.7581 0.0000 0.0000
# 5 0.0000 0.0000 0.0000 0.0000 18.7366 0.0000
# 6 0.0000 0.0000 0.0000 0.0000 0.0000 22.4741
#
#
#
# Elastic Compliance Matrix: (Units=1/GPa)
#
#
# Indices 1 2 3 4 5 6 
#
# 1 0.025505 -0.006820 -0.004439 0.000000 0.000000 0.000000
# 2 -0.006820 0.014926 -0.006362 0.000000 0.000000 0.000000
# 3 -0.004439 -0.006362 0.013953 0.000000 0.000000 0.000000
# 4 0.000000 0.000000 0.000000 0.042091 0.000000 0.000000
# 5 0.000000 0.000000 0.000000 0.000000 0.053371 0.000000
# 6 0.000000 0.000000 0.000000 0.000000 0.000000 0.044496
#
#
# Mechanical properties :
#
#
# Convention : Reuss Voigt Hill
#
# Bulk Modulus (GPa) = 52.23891 63.59885 57.91888
# Shear Modulus (GPa) = 21.18977 22.31340 21.75159
#
# Velocity S-wave (km/s) = 3.47881 3.56985 3.52462
# Velocity P-wave (km/s) = 6.78022 7.30171 7.04579
#
# Compressibility (1/GPa) = 0.01914282
#
# Stress axis : x y z
#
# Youngs Moduli (GPa) = 39.20861 66.99910 71.66828
#
# Poissons Ratio (x) = 0.45691 0.31813
# Poissons Ratio (y) = 0.26739 0.45593
# Poissons Ratio (z) = 0.17404 0.42622
#
# Static dielectric constant tensor:
#      x y z
#    x 3.167880 0.000000 0.000000 
#    y 0.000000 3.746180 0.000000 
#    z 0.000000 0.000000 2.982190 
# 
# 
# High freq. dielectric constant tensor:
#      x y z
#    x 1.669340 0.000000 0.000000 
#    y 0.000000 1.690050 0.000000 
#    z 0.000000 0.000000 1.644930 
# 
# From -- ./inp_files/20216.got.cif
#   From: 2010.03.12/outbox.cif.g09.slc.cpg/sg38_11_cif.got.tgz:20216.got - 2010.04.14 02:38:36.
