data_PCOD8179984
_publ_section_title
;
Structure prediction by ZEFSAII (Michael W. Deem and Ramdas Pophale) SiO2 
 PCOD8179984
Probable space group: A M M 2
;
_chemical_formula_sum "Si O2"
_cell_formula_units_Z 48
_cell_length_a 9.184508
_cell_length_b 8.984081
_cell_length_c 30.379889
_cell_angle_alpha 90.000000
_cell_angle_beta 90.000000
_cell_angle_gamma 90.000000
_cell_volume 2506.777214
_symmetry_space_group_name_H-M "A M M 2"
_symmetry_group_IT_number 38
_symmetry_cell_setting 'orthorhombic'
loop_
_space_group_symop_operation_xyz
x,y,z
-x,-y,z
-x,y,z
x,-y,z
x,1/2+y,1/2+z
-x,1/2-y,1/2+z
-x,1/2+y,1/2+z
x,1/2-y,1/2+z
loop_
_atom_site_type_symbol
_atom_site_label
_atom_site_fract_x
_atom_site_fract_y
_atom_site_fract_z
Si Si1 0.831963 0.172488 0.062250
Si Si2 0.332293 0.675244 0.826827
Si Si3 0.829800 0.166862 0.163030
Si Si4 0.670336 0.326771 0.986192
Si Si5 0.331591 0.829244 0.738036
Si Si6 0.169399 0.674355 0.406255
O O1 0.795660 0.209705 0.112766
O O2 0.000000 0.208197 0.051599
O O3 0.799517 0.000000 0.051870
O O4 0.728979 0.277281 0.033584
O O5 0.500000 0.721720 0.835094
O O6 0.312171 0.500000 0.828765
O O7 0.278128 0.732403 0.779441
O O8 0.232014 0.747649 0.863355
O O9 0.752101 0.283968 0.194218
O O10 0.000000 0.175035 0.172093
O O11 0.772661 0.000000 0.172828
O O12 0.500000 0.292652 0.983489
O O13 0.703043 0.500000 0.978770
O O14 0.750774 0.232819 0.949255
O O15 0.500000 0.800323 0.728775
O O16 0.298060 0.000000 0.748957
O O17 0.197312 0.500000 0.402107
O O18 0.000000 0.712971 0.410393
#
# Coordination Sequence:
#
# PCOD8179984 Si02
#       6
#     8   8   8   8   8   8
#     4   9  19  37  59  82 109 143 185 230 275 325
#     4  10  21  38  60  84 110 143 184 227 272 324
#     4   9  19  36  57  81 110 145 185 229 276 325
#     4  11  24  39  56  82 114 146 182 224 271 325
#     4  10  21  36  55  81 113 148 185 226 273 324
#     4  11  24  40  59  84 112 143 181 224 271 325
#
# _framework density 19.148091999999998
#
# number of rings (size 3 to 8) (size 9 to 14) (size 15 to 20)
#    0.000    2.000    0.000    4.000    0.000   11.333 
#    0.000    5.000    0.000    0.000    0.000    0.000 
#    0.000    0.000    0.000    0.000    0.000    0.000 
#
# Total GULP energy -297706.027997 kJ/mol
# GULP energy per Si atom -12404.417833 kJ/mol
# Density = 1.910451 g / cm^3
# Si number density = 19.148092 Si / 1000 Ang^3
#
#
#
# Elastic Constant Matrix: (Units=GPa)
#
#
# Indices 1 2 3 4 5 6 
#
# 1 72.1506 50.7441 57.6022 0.0000 0.0000 0.0000
# 2 50.7441 78.3294 50.8333 0.0000 0.0000 0.0000
# 3 57.6022 50.8333 120.2059 0.0000 0.0000 0.0000
# 4 0.0000 0.0000 0.0000 41.1653 0.0000 0.0000
# 5 0.0000 0.0000 0.0000 0.0000 40.7813 0.0000
# 6 0.0000 0.0000 0.0000 0.0000 0.0000 34.2578
#
#
#
# Elastic Compliance Matrix: (Units=1/GPa)
#
#
# Indices 1 2 3 4 5 6 
#
# 1 0.030961 -0.014374 -0.008758 0.000000 0.000000 0.000000
# 2 -0.014374 0.024269 -0.003375 0.000000 0.000000 0.000000
# 3 -0.008758 -0.003375 0.013943 0.000000 0.000000 0.000000
# 4 0.000000 0.000000 0.000000 0.024292 0.000000 0.000000
# 5 0.000000 0.000000 0.000000 0.000000 0.024521 0.000000
# 6 0.000000 0.000000 0.000000 0.000000 0.000000 0.029190
#
#
# Mechanical properties :
#
#
# Convention : Reuss Voigt Hill
#
# Bulk Modulus (GPa) = 61.88395 65.44943 63.66669
# Shear Modulus (GPa) = 24.32181 30.67463 27.49822
#
# Velocity S-wave (km/s) = 3.56785 4.00680 3.79368
# Velocity P-wave (km/s) = 7.02577 7.46062 7.24646
#
# Compressibility (1/GPa) = 0.01615928
#
# Stress axis : x y z
#
# Youngs Moduli (GPa) = 32.29849 41.20535 71.72030
#
# Poissons Ratio (x) = 0.59228 0.62812
# Poissons Ratio (y) = 0.46426 0.24205
# Poissons Ratio (z) = 0.28287 0.13907
#
# Static dielectric constant tensor:
#      x y z
#    x 3.440690 0.000000 0.000000 
#    y 0.000000 3.544190 0.000000 
#    z 0.000000 0.000000 3.631190 
# 
# 
# High freq. dielectric constant tensor:
#      x y z
#    x 1.742210 0.000000 0.000000 
#    y 0.000000 1.751970 0.000000 
#    z 0.000000 0.000000 1.758290 
# 
# From -- ./inp_files/24281.got.cif
#   From: 2010.03.12/outbox.cif.g09.slc.cpg/sg38_13_cif.got.tgz:24281.got - 2010.04.14 02:38:36.
