data_PCOD8179326
_publ_section_title
;
Structure prediction by ZEFSAII (Michael W. Deem and Ramdas Pophale) SiO2 
 PCOD8179326
Probable space group: A M M 2
;
_chemical_formula_sum "Si O2"
_cell_formula_units_Z 64
_cell_length_a 9.174130
_cell_length_b 31.549054
_cell_length_c 11.693228
_cell_angle_alpha 90.000000
_cell_angle_beta 90.000000
_cell_angle_gamma 90.000000
_cell_volume 3384.430882
_symmetry_space_group_name_H-M "A M M 2"
_symmetry_group_IT_number 38
_symmetry_cell_setting 'orthorhombic'
loop_
_space_group_symop_operation_xyz
x,y,z
-x,-y,z
-x,y,z
x,-y,z
x,1/2+y,1/2+z
-x,1/2-y,1/2+z
-x,1/2+y,1/2+z
x,1/2-y,1/2+z
loop_
_atom_site_type_symbol
_atom_site_label
_atom_site_fract_x
_atom_site_fract_y
_atom_site_fract_z
Si Si1 0.669792 0.720650 0.958660
Si Si2 0.170866 0.549506 0.430964
Si Si3 0.836163 0.906230 0.516848
Si Si4 0.669648 0.882022 0.066705
Si Si5 0.330658 0.136438 0.325807
Si Si6 0.669920 0.187160 0.880001
Si Si7 0.662403 0.450278 0.205686
Si Si8 0.836927 0.819597 0.653222
O O1 0.500000 0.721042 0.988974
O O2 0.708911 0.683822 0.868004
O O3 0.720240 0.765028 0.905835
O O4 0.752976 0.715331 0.078527
O O5 0.202473 0.500000 0.454268
O O6 0.236962 0.576406 0.535351
O O7 0.246717 0.566245 0.314716
O O8 0.000000 0.558330 0.418972
O O9 0.760992 0.898774 0.394368
O O10 0.743821 0.940146 0.587891
O O11 0.837383 0.862976 0.585405
O O12 0.000000 0.923489 0.497968
O O13 0.500000 0.894020 0.056939
O O14 0.711848 0.867399 0.193692
O O15 0.710463 0.842703 0.986033
O O16 0.500000 0.126936 0.347320
O O17 0.500000 0.185249 0.851292
O O18 0.756936 0.170817 0.771148
O O19 0.500000 0.429636 0.207538
O O20 0.648109 0.500000 0.214514
O O21 0.000000 0.803178 0.676474
#
# Coordination Sequence:
#
# PCOD8179326 Si02
#       8
#     8   8   8   8   8   8   8   8
#     4   9  19  35  57  78 103 140 182 227 272 319
#     4  10  21  37  57  82 113 148 185 226 278 336
#     4  10  20  35  55  78 107 142 179 219 267 326
#     4  10  21  36  56  84 112 143 188 234 277 329
#     4   9  19  36  56  78 107 145 187 230 272 321
#     4  10  21  34  55  82 108 139 180 228 272 323
#     4  10  20  34  56  85 113 140 175 223 276 327
#     4  10  21  35  51  75 107 139 175 217 266 321
#
# _framework density 18.910122000000001
#
# number of rings (size 3 to 8) (size 9 to 14) (size 15 to 20)
#    0.000    2.250    0.000    2.250    1.750    6.500 
#    0.000    0.625    0.000    0.750    0.000    0.000 
#    0.000    0.000    0.000    0.000    0.000    0.000 
#
# Total GULP energy -396899.694042 kJ/mol
# GULP energy per Si atom -12403.115439 kJ/mol
# Density = 1.886708 g / cm^3
# Si number density = 18.910122 Si / 1000 Ang^3
#
#
#
# Elastic Constant Matrix: (Units=GPa)
#
#
# Indices 1 2 3 4 5 6 
#
# 1 105.0386 37.7801 66.7644 0.0000 0.0000 0.0000
# 2 37.7801 54.6706 38.2744 0.0000 0.0000 0.0000
# 3 66.7644 38.2744 144.9922 0.0000 0.0000 0.0000
# 4 0.0000 0.0000 0.0000 21.9628 0.0000 0.0000
# 5 0.0000 0.0000 0.0000 0.0000 17.9224 0.0000
# 6 0.0000 0.0000 0.0000 0.0000 0.0000 21.3741
#
#
#
# Elastic Compliance Matrix: (Units=1/GPa)
#
#
# Indices 1 2 3 4 5 6 
#
# 1 0.015342 -0.006939 -0.005233 0.000000 0.000000 0.000000
# 2 -0.006939 0.025576 -0.003556 0.000000 0.000000 0.000000
# 3 -0.005233 -0.003556 0.010245 0.000000 0.000000 0.000000
# 4 0.000000 0.000000 0.000000 0.045532 0.000000 0.000000
# 5 0.000000 0.000000 0.000000 0.000000 0.055796 0.000000
# 6 0.000000 0.000000 0.000000 0.000000 0.000000 0.046786
#
#
# Mechanical properties :
#
#
# Convention : Reuss Voigt Hill
#
# Bulk Modulus (GPa) = 50.74197 65.59326 58.16761
# Shear Modulus (GPa) = 21.07017 23.04401 22.05709
#
# Velocity S-wave (km/s) = 3.34163 3.49464 3.41899
# Velocity P-wave (km/s) = 6.46375 7.14461 6.81269
#
# Compressibility (1/GPa) = 0.01970755
#
# Stress axis : x y z
#
# Youngs Moduli (GPa) = 65.17994 39.09896 97.60518
#
# Poissons Ratio (x) = 0.27129 0.51076
# Poissons Ratio (y) = 0.45226 0.34713
# Poissons Ratio (z) = 0.34108 0.13905
#
# Static dielectric constant tensor:
#      x y z
#    x 3.651090 0.000000 0.000000 
#    y 0.000000 3.376410 0.000000 
#    z 0.000000 0.000000 3.516580 
# 
# 
# High freq. dielectric constant tensor:
#      x y z
#    x 1.738340 0.000000 0.000000 
#    y 0.000000 1.725850 0.000000 
#    z 0.000000 0.000000 1.732750 
# 
# From -- ./inp_files/8550.got.cif
#   From: 2010.03.12/outbox.cif.g09.slc.cpg/sg38_5_cif.got.tgz:8550.got - 2010.04.14 02:38:36.
