data_PCOD8179450
_publ_section_title
;
Structure prediction by ZEFSAII (Michael W. Deem and Ramdas Pophale) SiO2 
 PCOD8179450
Probable space group: A M M 2
;
_chemical_formula_sum "Si O2"
_cell_formula_units_Z 64
_cell_length_a 19.076734
_cell_length_b 8.745831
_cell_length_c 19.830378
_cell_angle_alpha 90.000000
_cell_angle_beta 90.000000
_cell_angle_gamma 90.000000
_cell_volume 3308.537777
_symmetry_space_group_name_H-M "A M M 2"
_symmetry_group_IT_number 38
_symmetry_cell_setting 'orthorhombic'
loop_
_space_group_symop_operation_xyz
x,y,z
-x,-y,z
-x,y,z
x,-y,z
x,1/2+y,1/2+z
-x,1/2-y,1/2+z
-x,1/2+y,1/2+z
x,1/2-y,1/2+z
loop_
_atom_site_type_symbol
_atom_site_label
_atom_site_fract_x
_atom_site_fract_y
_atom_site_fract_z
Si Si1 0.078205 0.318353 0.485390
Si Si2 0.664182 0.174440 0.679089
Si Si3 0.335592 0.177910 0.423100
Si Si4 0.421148 0.181712 0.552088
Si Si5 0.078540 0.818254 0.135926
Si Si6 0.419889 0.327190 0.311113
Si Si7 0.802177 0.819375 0.235664
Si Si8 0.194912 0.819305 0.883993
O O1 0.081280 0.500000 0.485428
O O2 0.098667 0.259439 0.560576
O O3 0.130533 0.254031 0.428480
O O4 0.000000 0.261559 0.467088
O O5 0.628582 0.242760 0.611856
O O6 0.603474 0.183132 0.734263
O O7 0.730304 0.275956 0.699079
O O8 0.689854 0.000000 0.669011
O O9 0.385956 0.236102 0.482642
O O10 0.374663 0.207486 0.353089
O O11 0.264175 0.272842 0.424626
O O12 0.317477 0.000000 0.429702
O O13 0.500000 0.250472 0.556595
O O14 0.425790 0.000000 0.556102
O O15 0.133631 0.753948 0.190552
O O16 0.000000 0.761548 0.154829
O O17 0.080588 0.000000 0.136156
O O18 0.500000 0.276848 0.315728
O O19 0.408549 0.500000 0.338452
O O20 0.807196 0.750130 0.309777
O O21 0.806044 0.000000 0.242658
O O22 0.192351 0.000000 0.876169
#
# Coordination Sequence:
#
# PCOD8179450 Si02
#       8
#     8   8   8   8   8   8   8   8
#     4   8  16  33  57  83 109 142 185 227 269 322
#     4  10  20  36  57  80 109 146 183 222 268 327
#     4  11  22  36  55  81 113 148 184 227 274 328
#     4   9  19  36  57  81 108 141 181 224 275 331
#     4   8  16  33  56  82 111 144 182 222 269 325
#     4  10  20  35  57  81 106 142 187 229 271 322
#     4  11  22  35  55  83 114 146 182 227 274 325
#     4  11  22  36  56  81 112 148 186 230 275 326
#
# _framework density 19.343893000000001
#
# number of rings (size 3 to 8) (size 9 to 14) (size 15 to 20)
#    0.000    2.250    1.250    2.625    1.750    2.750 
#    0.000    0.625    0.000    4.875    0.000    7.000 
#    0.000    0.000    0.000    0.000    0.000    0.000 
#
# Total GULP energy -396767.962263 kJ/mol
# GULP energy per Si atom -12398.998821 kJ/mol
# Density = 1.929987 g / cm^3
# Si number density = 19.343893 Si / 1000 Ang^3
#
#
#
# Elastic Constant Matrix: (Units=GPa)
#
#
# Indices 1 2 3 4 5 6 
#
# 1 149.1770 26.0153 69.1619 0.0000 0.0000 0.0000
# 2 26.0153 39.6167 24.8002 0.0000 0.0000 0.0000
# 3 69.1619 24.8002 118.3108 0.0000 0.0000 0.0000
# 4 0.0000 0.0000 0.0000 9.7525 0.0000 0.0000
# 5 0.0000 0.0000 0.0000 0.0000 43.1115 0.0000
# 6 0.0000 0.0000 0.0000 0.0000 0.0000 16.7704
#
#
#
# Elastic Compliance Matrix: (Units=1/GPa)
#
#
# Indices 1 2 3 4 5 6 
#
# 1 0.009534 -0.003190 -0.004904 0.000000 0.000000 0.000000
# 2 -0.003190 0.030122 -0.004449 0.000000 0.000000 0.000000
# 3 -0.004904 -0.004449 0.012252 0.000000 0.000000 0.000000
# 4 0.000000 0.000000 0.000000 0.102538 0.000000 0.000000
# 5 0.000000 0.000000 0.000000 0.000000 0.023196 0.000000
# 6 0.000000 0.000000 0.000000 0.000000 0.000000 0.059629
#
#
# Mechanical properties :
#
#
# Convention : Reuss Voigt Hill
#
# Bulk Modulus (GPa) = 37.28576 60.78434 49.03505
# Shear Modulus (GPa) = 18.42992 26.40202 22.41597
#
# Velocity S-wave (km/s) = 3.09002 3.69843 3.40783
# Velocity P-wave (km/s) = 5.66109 7.05189 6.39441
#
# Compressibility (1/GPa) = 0.02681989
#
# Stress axis : x y z
#
# Youngs Moduli (GPa) = 104.89223 33.19823 81.61972
#
# Poissons Ratio (x) = 0.10591 0.40029
# Poissons Ratio (y) = 0.33464 0.36314
# Poissons Ratio (z) = 0.51443 0.14770
#
# Static dielectric constant tensor:
#      x y z
#    x 3.831470 0.000000 0.000000 
#    y 0.000000 3.165900 0.000000 
#    z 0.000000 0.000000 3.742060 
# 
# 
# High freq. dielectric constant tensor:
#      x y z
#    x 1.765570 0.000000 0.000000 
#    y 0.000000 1.714730 0.000000 
#    z 0.000000 0.000000 1.762560 
# 
# From -- ./inp_files/18922.got.cif
#   From: 2010.03.12/outbox.cif.g09.slc.cpg/sg38_10_cif.got.tgz:18922.got - 2010.04.14 02:38:36.
