data_PCOD8179421
_publ_section_title
;
Structure prediction by ZEFSAII (Michael W. Deem and Ramdas Pophale) SiO2 
 PCOD8179421
Probable space group: A M M 2
;
_chemical_formula_sum "Si O2"
_cell_formula_units_Z 32
_cell_length_a 7.805095
_cell_length_b 8.848504
_cell_length_c 24.156902
_cell_angle_alpha 90.000000
_cell_angle_beta 90.000000
_cell_angle_gamma 90.000000
_cell_volume 1668.358132
_symmetry_space_group_name_H-M "A M M 2"
_symmetry_group_IT_number 38
_symmetry_cell_setting 'orthorhombic'
loop_
_space_group_symop_operation_xyz
x,y,z
-x,-y,z
-x,y,z
x,-y,z
x,1/2+y,1/2+z
-x,1/2-y,1/2+z
-x,1/2+y,1/2+z
x,1/2-y,1/2+z
loop_
_atom_site_type_symbol
_atom_site_label
_atom_site_fract_x
_atom_site_fract_y
_atom_site_fract_z
Si Si1 0.000000 0.178806 0.439490
Si Si2 0.191998 0.179291 0.123679
Si Si3 0.000000 0.180143 0.314358
Si Si4 0.311245 0.679857 0.741111
Si Si5 0.307210 0.676654 0.505364
O O1 0.000000 0.241071 0.376828
O O2 0.172603 0.234900 0.468216
O O3 0.000000 0.000000 0.440820
O O4 0.279464 0.244232 0.179208
O O5 0.294184 0.231466 0.069102
O O6 0.000000 0.243530 0.119475
O O7 0.189489 0.000000 0.127307
O O8 0.168862 0.243884 0.283293
O O9 0.000000 0.000000 0.313097
O O10 0.500000 0.732795 0.760866
O O11 0.299735 0.500000 0.739810
O O12 0.500000 0.710891 0.484414
O O13 0.263150 0.500000 0.501212
#
# Coordination Sequence:
#
# PCOD8179421 Si02
#       5
#     4   8   4   8   8
#     4  11  23  36  51  73 107 145 180 215 252 300
#     4   9  14  24  46  74 102 126 155 205 264 313
#     4   9  18  30  41  61  95 135 170 201 244 300
#     4   9  15  24  41  66  96 127 158 199 255 309
#     4  10  20  35  56  80 105 135 173 216 261 309
#
# _framework density 19.180534999999999
#
# number of rings (size 3 to 8) (size 9 to 14) (size 15 to 20)
#    0.000    2.500    2.500    1.125    0.000    4.500 
#    0.000    2.500    0.000    0.000    0.000    7.000 
#    0.000    4.000    0.000    0.000    0.000    0.000 
#
# Total GULP energy -198330.204151 kJ/mol
# GULP energy per Si atom -12395.637759 kJ/mol
# Density = 1.913688 g / cm^3
# Si number density = 19.180535 Si / 1000 Ang^3
#
#
#
# Elastic Constant Matrix: (Units=GPa)
#
#
# Indices 1 2 3 4 5 6 
#
# 1 173.0495 25.5732 85.0916 0.0000 0.0000 0.0000
# 2 25.5732 22.7682 27.2040 0.0000 0.0000 0.0000
# 3 85.0916 27.2040 165.9460 0.0000 0.0000 0.0000
# 4 0.0000 0.0000 0.0000 17.6179 0.0000 0.0000
# 5 0.0000 0.0000 0.0000 0.0000 11.5844 0.0000
# 6 0.0000 0.0000 0.0000 0.0000 0.0000 16.0240
#
#
#
# Elastic Compliance Matrix: (Units=1/GPa)
#
#
# Indices 1 2 3 4 5 6 
#
# 1 0.008194 -0.005202 -0.003349 0.000000 0.000000 0.000000
# 2 -0.005202 0.057922 -0.006828 0.000000 0.000000 0.000000
# 3 -0.003349 -0.006828 0.008863 0.000000 0.000000 0.000000
# 4 0.000000 0.000000 0.000000 0.056760 0.000000 0.000000
# 5 0.000000 0.000000 0.000000 0.000000 0.086323 0.000000
# 6 0.000000 0.000000 0.000000 0.000000 0.000000 0.062406
#
#
# Mechanical properties :
#
#
# Convention : Reuss Voigt Hill
#
# Bulk Modulus (GPa) = 22.61370 70.83346 46.72358
# Shear Modulus (GPa) = 15.33899 23.97161 19.65530
#
# Velocity S-wave (km/s) = 2.83099 3.53907 3.20465
# Velocity P-wave (km/s) = 4.74358 7.32871 6.17299
#
# Compressibility (1/GPa) = 0.04422097
#
# Stress axis : x y z
#
# Youngs Moduli (GPa) = 122.03748 17.26452 112.83461
#
# Poissons Ratio (x) = 0.08982 0.37787
# Poissons Ratio (y) = 0.63489 0.77040
# Poissons Ratio (z) = 0.40869 0.11788
#
# Static dielectric constant tensor:
#      x y z
#    x 3.739420 0.000000 0.000000 
#    y 0.000000 2.782750 0.000000 
#    z 0.000000 0.000000 3.708110 
# 
# 
# High freq. dielectric constant tensor:
#      x y z
#    x 1.765250 0.000000 0.000000 
#    y 0.000000 1.666710 0.000000 
#    z 0.000000 0.000000 1.750130 
# 
# From -- ./inp_files/21619.got.cif
#   From: 2010.03.12/outbox.cif.g09.slc.cpg/sg38_11_cif.got.tgz:21619.got - 2010.04.14 02:38:36.
