data_PCOD8179619
_publ_section_title
;
Structure prediction by ZEFSAII (Michael W. Deem and Ramdas Pophale) SiO2 
 PCOD8179619
Probable space group: A M M 2
;
_chemical_formula_sum "Si O2"
_cell_formula_units_Z 64
_cell_length_a 9.029355
_cell_length_b 30.696449
_cell_length_c 11.948662
_cell_angle_alpha 90.000000
_cell_angle_beta 90.000000
_cell_angle_gamma 90.000000
_cell_volume 3311.800314
_symmetry_space_group_name_H-M "A M M 2"
_symmetry_group_IT_number 38
_symmetry_cell_setting 'orthorhombic'
loop_
_space_group_symop_operation_xyz
x,y,z
-x,-y,z
-x,y,z
x,-y,z
x,1/2+y,1/2+z
-x,1/2-y,1/2+z
-x,1/2+y,1/2+z
x,1/2-y,1/2+z
loop_
_atom_site_type_symbol
_atom_site_label
_atom_site_fract_x
_atom_site_fract_y
_atom_site_fract_z
Si Si1 0.330301 0.328309 0.513200
Si Si2 0.673593 0.201318 0.764990
Si Si3 0.829148 0.450814 0.275194
Si Si4 0.175367 0.371536 0.119746
Si Si5 0.169467 0.547777 0.720294
Si Si6 0.328296 0.428907 0.503903
Si Si7 0.824988 0.291527 0.720115
Si Si8 0.175509 0.373514 0.866636
O O1 0.500000 0.316624 0.541958
O O2 0.291256 0.317111 0.386660
O O3 0.296683 0.378758 0.529717
O O4 0.222339 0.301371 0.593262
O O5 0.500000 0.204073 0.739869
O O6 0.747264 0.169743 0.675172
O O7 0.744068 0.248637 0.760934
O O8 0.802574 0.500000 0.230055
O O9 0.778368 0.416573 0.180303
O O10 0.736534 0.443379 0.386199
O O11 0.000000 0.443208 0.305642
O O12 0.000000 0.364117 0.123973
O O13 0.236130 0.373568 0.992979
O O14 0.180655 0.500000 0.777612
O O15 0.254747 0.544397 0.603474
O O16 0.239565 0.583857 0.803132
O O17 0.000000 0.560119 0.693530
O O18 0.500000 0.439945 0.499822
O O19 0.771642 0.330339 0.801752
O O20 0.000000 0.284621 0.724483
O O21 0.000000 0.376221 0.869379
#
# Coordination Sequence:
#
# PCOD8179619 Si02
#       8
#     8   8   8   8   8   8   8   8
#     4  10  22  40  61  86 117 154 193 238 290 344
#     4  11  24  42  61  86 120 153 194 240 292 348
#     4  10  21  36  57  86 118 153 194 241 292 346
#     4  10  21  39  61  85 116 153 197 241 288 345
#     4  10  20  36  59  86 116 151 191 235 288 345
#     4  11  21  36  58  85 118 152 192 238 288 345
#     4  11  23  39  62  89 118 151 193 239 290 348
#     4   9  20  38  58  85 116 148 188 237 286 338
#
# _framework density 19.324836999999999
#
# number of rings (size 3 to 8) (size 9 to 14) (size 15 to 20)
#    0.000    1.750    2.500    1.500    1.750    4.000 
#    0.000    3.750    0.000    0.000    0.000    1.750 
#    0.000    0.000    0.000    0.000    0.000    0.000 
#
# Total GULP energy -396885.231320 kJ/mol
# GULP energy per Si atom -12402.663479 kJ/mol
# Density = 1.928085 g / cm^3
# Si number density = 19.324837 Si / 1000 Ang^3
#
#
#
# Elastic Constant Matrix: (Units=GPa)
#
#
# Indices 1 2 3 4 5 6 
#
# 1 54.0382 48.0963 40.9175 0.0000 0.0000 0.0000
# 2 48.0963 94.8756 71.1292 0.0000 0.0000 0.0000
# 3 40.9175 71.1292 124.5412 0.0000 0.0000 0.0000
# 4 0.0000 0.0000 0.0000 27.1116 0.0000 0.0000
# 5 0.0000 0.0000 0.0000 0.0000 19.0950 0.0000
# 6 0.0000 0.0000 0.0000 0.0000 0.0000 23.5266
#
#
#
# Elastic Compliance Matrix: (Units=1/GPa)
#
#
# Indices 1 2 3 4 5 6 
#
# 1 0.034101 -0.015543 -0.002327 0.000000 0.000000 0.000000
# 2 -0.015543 0.025517 -0.009467 0.000000 0.000000 0.000000
# 3 -0.002327 -0.009467 0.014201 0.000000 0.000000 0.000000
# 4 0.000000 0.000000 0.000000 0.036885 0.000000 0.000000
# 5 0.000000 0.000000 0.000000 0.000000 0.052370 0.000000
# 6 0.000000 0.000000 0.000000 0.000000 0.000000 0.042505
#
#
# Mechanical properties :
#
#
# Convention : Reuss Voigt Hill
#
# Bulk Modulus (GPa) = 52.23125 65.97124 59.10125
# Shear Modulus (GPa) = 18.75239 21.50078 20.12659
#
# Velocity S-wave (km/s) = 3.11847 3.33918 3.23071
# Velocity P-wave (km/s) = 6.32876 7.00564 6.67578
#
# Compressibility (1/GPa) = 0.01914563
#
# Stress axis : x y z
#
# Youngs Moduli (GPa) = 29.32466 39.18982 70.41865
#
# Poissons Ratio (x) = 0.60912 0.16385
# Poissons Ratio (y) = 0.45579 0.66665
# Poissons Ratio (z) = 0.06823 0.37101
#
# Static dielectric constant tensor:
#      x y z
#    x 3.389740 0.000000 0.000000 
#    y 0.000000 3.785920 0.000000 
#    z 0.000000 0.000000 3.602570 
# 
# 
# High freq. dielectric constant tensor:
#      x y z
#    x 1.737820 0.000000 0.000000 
#    y 0.000000 1.769800 0.000000 
#    z 0.000000 0.000000 1.753260 
# 
# From -- ./inp_files/8532.got.cif
#   From: 2010.03.12/outbox.cif.g09.slc.cpg/sg38_5_cif.got.tgz:8532.got - 2010.04.14 02:38:36.
