data_PCOD8179732
_publ_section_title
;
Structure prediction by ZEFSAII (Michael W. Deem and Ramdas Pophale) SiO2 
 PCOD8179732
Probable space group: A M M 2
;
_chemical_formula_sum "Si O2"
_cell_formula_units_Z 48
_cell_length_a 17.036684
_cell_length_b 9.109841
_cell_length_c 15.644953
_cell_angle_alpha 90.000000
_cell_angle_beta 90.000000
_cell_angle_gamma 90.000000
_cell_volume 2428.119898
_symmetry_space_group_name_H-M "A M M 2"
_symmetry_group_IT_number 38
_symmetry_cell_setting 'orthorhombic'
loop_
_space_group_symop_operation_xyz
x,y,z
-x,-y,z
-x,y,z
x,-y,z
x,1/2+y,1/2+z
-x,1/2-y,1/2+z
-x,1/2+y,1/2+z
x,1/2-y,1/2+z
loop_
_atom_site_type_symbol
_atom_site_label
_atom_site_fract_x
_atom_site_fract_y
_atom_site_fract_z
Si Si1 0.156388 0.167296 0.564810
Si Si2 0.837376 0.166663 0.368132
Si Si3 0.693800 0.171001 0.115918
Si Si4 0.000000 0.667503 0.608854
Si Si5 0.410150 0.671986 0.456718
Si Si6 0.325606 0.171549 0.305924
Si Si7 0.000000 0.167172 0.310179
O O1 0.182890 0.176099 0.467197
O O2 0.224241 0.242900 0.619920
O O3 0.075524 0.252203 0.572737
O O4 0.145254 0.000000 0.595459
O O5 0.762605 0.236493 0.319684
O O6 0.920465 0.246382 0.345334
O O7 0.846230 0.000000 0.335555
O O8 0.650282 0.197958 0.206927
O O9 0.713398 0.000000 0.104115
O O10 0.639242 0.228892 0.038659
O O11 0.000000 0.500000 0.576921
O O12 0.000000 0.677029 0.709671
O O13 0.500000 0.711592 0.475818
O O14 0.397610 0.500000 0.444397
O O15 0.385811 0.748270 0.368443
O O16 0.327250 0.000000 0.329678
O O17 0.000000 0.000000 0.344775
#
# Coordination Sequence:
#
# PCOD8179732 Si02
#       7
#     8   8   8   4   8   8   4
#     4  11  21  35  57  83 115 152 196 246 294 343
#     4   9  17  31  53  80 109 144 190 237 282 331
#     4  10  21  38  62  88 118 154 195 241 293 352
#     4  11  22  35  53  79 114 155 202 247 290 342
#     4  10  22  40  60  86 121 154 186 238 305 358
#     4  10  20  37  61  88 115 154 203 240 279 348
#     4   9  17  31  51  75 106 145 190 237 278 326
#
# _framework density 19.768381999999999
#
# number of rings (size 3 to 8) (size 9 to 14) (size 15 to 20)
#    0.000    2.000    1.667    2.250    0.000    5.667 
#    0.000    1.667    0.000    7.000    0.000    0.000 
#    0.000    0.000    0.000    0.000    0.000    0.000 
#
# Total GULP energy -297567.337006 kJ/mol
# GULP energy per Si atom -12398.639042 kJ/mol
# Density = 1.972339 g / cm^3
# Si number density = 19.768382 Si / 1000 Ang^3
#
#
#
# Elastic Constant Matrix: (Units=GPa)
#
#
# Indices 1 2 3 4 5 6 
#
# 1 119.5362 44.5498 43.5363 0.0000 0.0000 0.0000
# 2 44.5498 66.5991 35.6629 0.0000 0.0000 0.0000
# 3 43.5363 35.6629 100.5843 0.0000 0.0000 0.0000
# 4 0.0000 0.0000 0.0000 25.4485 0.0000 0.0000
# 5 0.0000 0.0000 0.0000 0.0000 21.3733 0.0000
# 6 0.0000 0.0000 0.0000 0.0000 0.0000 37.9801
#
#
#
# Elastic Compliance Matrix: (Units=1/GPa)
#
#
# Indices 1 2 3 4 5 6 
#
# 1 0.011767 -0.006349 -0.002842 0.000000 0.000000 0.000000
# 2 -0.006349 0.021960 -0.005038 0.000000 0.000000 0.000000
# 3 -0.002842 -0.005038 0.012958 0.000000 0.000000 0.000000
# 4 0.000000 0.000000 0.000000 0.039295 0.000000 0.000000
# 5 0.000000 0.000000 0.000000 0.000000 0.046787 0.000000
# 6 0.000000 0.000000 0.000000 0.000000 0.000000 0.026330
#
#
# Mechanical properties :
#
#
# Convention : Reuss Voigt Hill
#
# Bulk Modulus (GPa) = 54.86386 59.35750 57.11068
# Shear Modulus (GPa) = 25.82219 27.82510 26.82365
#
# Velocity S-wave (km/s) = 3.61811 3.75581 3.68760
# Velocity P-wave (km/s) = 6.72814 6.99284 6.86177
#
# Compressibility (1/GPa) = 0.01822694
#
# Stress axis : x y z
#
# Youngs Moduli (GPa) = 84.98267 45.53679 77.17104
#
# Poissons Ratio (x) = 0.28913 0.21932
# Poissons Ratio (y) = 0.53960 0.38878
# Poissons Ratio (z) = 0.24152 0.22941
#
# Static dielectric constant tensor:
#      x y z
#    x 3.727440 0.000000 0.000000 
#    y 0.000000 3.381610 0.000000 
#    z 0.000000 0.000000 3.645420 
# 
# 
# High freq. dielectric constant tensor:
#      x y z
#    x 1.776660 0.000000 0.000000 
#    y 0.000000 1.736460 0.000000 
#    z 0.000000 0.000000 1.779390 
# 
# From -- ./inp_files/14993.got.cif
#   From: 2010.03.12/outbox.cif.g09.slc.cpg/sg38_8_cif.got.tgz:14993.got - 2010.04.14 02:38:36.
