data_PCOD8179246
_publ_section_title
;
Structure prediction by ZEFSAII (Michael W. Deem and Ramdas Pophale) SiO2 
 PCOD8179246
Probable space group: A M M 2
;
_chemical_formula_sum "Si O2"
_cell_formula_units_Z 64
_cell_length_a 24.145978
_cell_length_b 9.450111
_cell_length_c 14.677907
_cell_angle_alpha 90.000000
_cell_angle_beta 90.000000
_cell_angle_gamma 90.000000
_cell_volume 3349.236704
_symmetry_space_group_name_H-M "A M M 2"
_symmetry_group_IT_number 38
_symmetry_cell_setting 'orthorhombic'
loop_
_space_group_symop_operation_xyz
x,y,z
-x,-y,z
-x,y,z
x,-y,z
x,1/2+y,1/2+z
-x,1/2-y,1/2+z
-x,1/2+y,1/2+z
x,1/2-y,1/2+z
loop_
_atom_site_type_symbol
_atom_site_label
_atom_site_fract_x
_atom_site_fract_y
_atom_site_fract_z
Si Si1 0.936299 0.164680 0.636970
Si Si2 0.250138 0.156196 0.250551
Si Si3 0.264771 0.657939 0.965894
Si Si4 0.631640 0.333079 0.445760
Si Si5 0.647496 0.163993 0.737055
Si Si6 0.128178 0.832551 0.277760
Si Si7 0.563655 0.163372 0.580357
Si Si8 0.144081 0.332108 0.980353
O O1 0.920887 0.251751 0.726714
O O2 0.899779 0.224799 0.553512
O O3 0.000000 0.191017 0.612313
O O4 0.924009 0.000000 0.654630
O O5 0.256786 0.151308 0.358444
O O6 0.295547 0.259967 0.206731
O O7 0.187245 0.206118 0.230443
O O8 0.260392 0.000000 0.209861
O O9 0.279941 0.500000 0.002352
O O10 0.313359 0.766549 0.992007
O O11 0.206730 0.714744 0.008196
O O12 0.631184 0.500000 0.462821
O O13 0.628518 0.294288 0.338944
O O14 0.579163 0.261168 0.494389
O O15 0.598614 0.208776 0.669110
O O16 0.661096 0.000000 0.731939
O O17 0.127040 0.774126 0.381110
O O18 0.117584 0.000000 0.273634
O O19 0.500000 0.189985 0.605184
O O20 0.574587 0.000000 0.554453
O O21 0.143759 0.500000 0.974500
#
# Coordination Sequence:
#
# PCOD8179246 Si02
#       8
#     8   8   8   8   8   8   8   8
#     4  10  21  35  50  72 101 132 171 216 256 296
#     4   8  15  29  51  79 107 131 160 204 254 303
#     4   8  14  29  53  77 102 133 168 203 245 303
#     4  10  20  34  54  81 109 133 162 207 260 305
#     4   9  19  35  55  78 104 136 170 205 250 303
#     4   9  18  34  55  77 101 132 169 207 251 303
#     4  10  22  39  55  72  98 136 180 215 245 293
#     4   8  16  33  55  75  98 134 174 207 245 300
#
# _framework density 19.108832
#
# number of rings (size 3 to 8) (size 9 to 14) (size 15 to 20)
#    0.000    3.000    0.000    1.875    0.000    4.000 
#    0.000    9.375    0.000    0.000    0.000    0.000 
#    0.000    0.000    0.000    0.000    0.000    0.000 
#
# Total GULP energy -396732.002959 kJ/mol
# GULP energy per Si atom -12397.875092 kJ/mol
# Density = 1.906534 g / cm^3
# Si number density = 19.108832 Si / 1000 Ang^3
#
#
#
# Elastic Constant Matrix: (Units=GPa)
#
#
# Indices 1 2 3 4 5 6 
#
# 1 98.9312 35.1739 29.3273 0.0000 0.0000 0.0000
# 2 35.1739 56.2132 24.7797 0.0000 0.0000 0.0000
# 3 29.3273 24.7797 56.7629 0.0000 0.0000 0.0000
# 4 0.0000 0.0000 0.0000 23.5995 0.0000 0.0000
# 5 0.0000 0.0000 0.0000 0.0000 34.0869 0.0000
# 6 0.0000 0.0000 0.0000 0.0000 0.0000 31.1123
#
#
#
# Elastic Compliance Matrix: (Units=1/GPa)
#
#
# Indices 1 2 3 4 5 6 
#
# 1 0.013745 -0.006774 -0.004145 0.000000 0.000000 0.000000
# 2 -0.006774 0.025367 -0.007574 0.000000 0.000000 0.000000
# 3 -0.004145 -0.007574 0.023065 0.000000 0.000000 0.000000
# 4 0.000000 0.000000 0.000000 0.042374 0.000000 0.000000
# 5 0.000000 0.000000 0.000000 0.000000 0.029337 0.000000
# 6 0.000000 0.000000 0.000000 0.000000 0.000000 0.032142
#
#
# Mechanical properties :
#
#
# Convention : Reuss Voigt Hill
#
# Bulk Modulus (GPa) = 39.69497 43.38546 41.54021
# Shear Modulus (GPa) = 23.65071 25.93484 24.79277
#
# Velocity S-wave (km/s) = 3.52189 3.68804 3.60592
# Velocity P-wave (km/s) = 6.11200 6.39447 6.25483
#
# Compressibility (1/GPa) = 0.02519211
#
# Stress axis : x y z
#
# Youngs Moduli (GPa) = 72.75428 39.42203 43.35591
#
# Poissons Ratio (x) = 0.26703 0.17969
# Poissons Ratio (y) = 0.49280 0.32838
# Poissons Ratio (z) = 0.30153 0.29859
#
# Static dielectric constant tensor:
#      x y z
#    x 3.635640 0.000000 0.000000 
#    y 0.000000 3.340430 0.000000 
#    z 0.000000 0.000000 3.434810 
# 
# 
# High freq. dielectric constant tensor:
#      x y z
#    x 1.743570 0.000000 0.000000 
#    y 0.000000 1.722670 0.000000 
#    z 0.000000 0.000000 1.735200 
# 
# From -- ./inp_files/15821.got.cif
#   From: 2010.03.12/outbox.cif.g09.slc.cpg/sg38_8_cif.got.tgz:15821.got - 2010.04.14 02:38:36.
