data_PCOD8179379
_publ_section_title
;
Structure prediction by ZEFSAII (Michael W. Deem and Ramdas Pophale) SiO2 
 PCOD8179379
Probable space group: A M M 2
;
_chemical_formula_sum "Si O2"
_cell_formula_units_Z 64
_cell_length_a 15.598439
_cell_length_b 9.556943
_cell_length_c 23.465884
_cell_angle_alpha 90.000000
_cell_angle_beta 90.000000
_cell_angle_gamma 90.000000
_cell_volume 3498.138934
_symmetry_space_group_name_H-M "A M M 2"
_symmetry_group_IT_number 38
_symmetry_cell_setting 'orthorhombic'
loop_
_space_group_symop_operation_xyz
x,y,z
-x,-y,z
-x,y,z
x,-y,z
x,1/2+y,1/2+z
-x,1/2-y,1/2+z
-x,1/2+y,1/2+z
x,1/2-y,1/2+z
loop_
_atom_site_type_symbol
_atom_site_label
_atom_site_fract_x
_atom_site_fract_y
_atom_site_fract_z
Si Si1 0.898541 0.836545 0.349820
Si Si2 0.814707 0.158373 0.640547
Si Si3 0.751571 0.836985 0.044942
Si Si4 0.097303 0.347575 0.247963
Si Si5 0.242542 0.833899 0.913692
Si Si6 0.597724 0.334592 0.337048
Si Si7 0.644625 0.661288 0.210560
Si Si8 0.408027 0.655693 0.614730
O O1 0.868372 0.776090 0.288353
O O2 0.841594 0.750143 0.394329
O O3 0.000000 0.814126 0.362467
O O4 0.875219 0.000000 0.351901
O O5 0.819869 0.255641 0.584690
O O6 0.896531 0.189488 0.680653
O O7 0.739365 0.190625 0.686306
O O8 0.810345 0.000000 0.617849
O O9 0.659385 0.788253 0.068740
O O10 0.770315 0.000000 0.051861
O O11 0.752289 0.792406 0.979755
O O12 0.144325 0.500000 0.259072
O O13 0.000000 0.368570 0.264309
O O14 0.331331 0.783306 0.883392
O O15 0.228390 0.000000 0.904417
O O16 0.500000 0.275822 0.348279
O O17 0.592735 0.500000 0.339927
O O18 0.632901 0.285665 0.275343
O O19 0.618079 0.500000 0.206193
O O20 0.581965 0.748798 0.170357
O O21 0.500000 0.654586 0.583575
O O22 0.381239 0.500000 0.634540
#
# Coordination Sequence:
#
# PCOD8179379 Si02
#       8
#     8   8   8   8   8   8   8   8
#     4  10  21  36  55  80 106 132 165 207 256 307
#     4   9  17  30  49  72  98 128 161 199 245 296
#     4   9  19  33  48  68  94 127 168 208 245 289
#     4   9  17  31  53  79 103 126 155 194 243 302
#     4  10  20  35  54  74 100 137 178 217 255 297
#     4   9  17  29  48  75 103 131 168 213 254 295
#     4   9  16  27  45  68  93 122 158 200 246 296
#     4   9  17  29  45  66  93 123 156 199 248 293
#
# _framework density 18.295442999999999
#
# number of rings (size 3 to 8) (size 9 to 14) (size 15 to 20)
#    0.000    2.750    0.000    1.500    0.000    5.000 
#    0.000    6.250    0.000    3.375    0.000    1.750 
#    0.000    0.000    0.000    0.000    0.000    0.000 
#
# Total GULP energy -396433.694839 kJ/mol
# GULP energy per Si atom -12388.552964 kJ/mol
# Density = 1.825380 g / cm^3
# Si number density = 18.295443 Si / 1000 Ang^3
#
#
#
# Elastic Constant Matrix: (Units=GPa)
#
#
# Indices 1 2 3 4 5 6 
#
# 1 56.4890 35.9272 43.7354 0.0000 0.0000 0.0000
# 2 35.9272 69.3373 61.9651 0.0000 0.0000 0.0000
# 3 43.7354 61.9651 153.0406 0.0000 0.0000 0.0000
# 4 0.0000 0.0000 0.0000 28.8108 0.0000 0.0000
# 5 0.0000 0.0000 0.0000 0.0000 19.6376 0.0000
# 6 0.0000 0.0000 0.0000 0.0000 0.0000 20.4399
#
#
#
# Elastic Compliance Matrix: (Units=1/GPa)
#
#
# Indices 1 2 3 4 5 6 
#
# 1 0.027406 -0.011284 -0.003263 0.000000 0.000000 0.000000
# 2 -0.011284 0.027246 -0.007807 0.000000 0.000000 0.000000
# 3 -0.003263 -0.007807 0.010628 0.000000 0.000000 0.000000
# 4 0.000000 0.000000 0.000000 0.034709 0.000000 0.000000
# 5 0.000000 0.000000 0.000000 0.000000 0.050923 0.000000
# 6 0.000000 0.000000 0.000000 0.000000 0.000000 0.048924
#
#
# Mechanical properties :
#
#
# Convention : Reuss Voigt Hill
#
# Bulk Modulus (GPa) = 48.61196 62.45805 55.53500
# Shear Modulus (GPa) = 19.88856 22.92693 21.40774
#
# Velocity S-wave (km/s) = 3.30066 3.54383 3.42440
# Velocity P-wave (km/s) = 6.41514 7.13846 6.78644
#
# Compressibility (1/GPa) = 0.02057107
#
# Stress axis : x y z
#
# Youngs Moduli (GPa) = 36.48879 36.70245 94.09363
#
# Poissons Ratio (x) = 0.41416 0.30703
# Poissons Ratio (y) = 0.41175 0.73459
# Poissons Ratio (z) = 0.11906 0.28654
#
# Static dielectric constant tensor:
#      x y z
#    x 3.498760 0.000000 0.000000 
#    y 0.000000 3.339080 0.000000 
#    z 0.000000 0.000000 3.388910 
# 
# 
# High freq. dielectric constant tensor:
#      x y z
#    x 1.706150 0.000000 0.000000 
#    y 0.000000 1.689930 0.000000 
#    z 0.000000 0.000000 1.699860 
# 
# From -- ./inp_files/21451.got.cif
#   From: 2010.03.12/outbox.cif.g09.slc.cpg/sg38_11_cif.got.tgz:21451.got - 2010.04.14 02:38:36.
