data_PCOD8179798
_publ_section_title
;
Structure prediction by ZEFSAII (Michael W. Deem and Ramdas Pophale) SiO2 
 PCOD8179798
Probable space group: A M M 2
;
_chemical_formula_sum "Si O2"
_cell_formula_units_Z 56
_cell_length_a 13.556401
_cell_length_b 20.053562
_cell_length_c 9.781691
_cell_angle_alpha 90.000000
_cell_angle_beta 90.000000
_cell_angle_gamma 90.000000
_cell_volume 2659.193077
_symmetry_space_group_name_H-M "A M M 2"
_symmetry_group_IT_number 38
_symmetry_cell_setting 'orthorhombic'
loop_
_space_group_symop_operation_xyz
x,y,z
-x,-y,z
-x,y,z
x,-y,z
x,1/2+y,1/2+z
-x,1/2-y,1/2+z
-x,1/2+y,1/2+z
x,1/2-y,1/2+z
loop_
_atom_site_type_symbol
_atom_site_label
_atom_site_fract_x
_atom_site_fract_y
_atom_site_fract_z
Si Si1 0.112145 0.344521 0.189980
Si Si2 0.613056 0.574874 0.169284
Si Si3 0.694326 0.296985 0.292450
Si Si4 0.893520 0.078054 0.955695
Si Si5 0.387337 0.302586 0.578818
Si Si6 0.730884 0.078330 0.163079
Si Si7 0.215781 0.075316 0.468000
O O1 0.191206 0.289131 0.242442
O O2 0.123914 0.404662 0.297669
O O3 0.000000 0.315804 0.185142
O O4 0.140613 0.373958 0.041857
O O5 0.500000 0.591252 0.133735
O O6 0.623746 0.500000 0.230785
O O7 0.656776 0.626432 0.278973
O O8 0.674243 0.581729 0.029252
O O9 0.681086 0.279045 0.451590
O O10 0.627527 0.249404 0.200750
O O11 0.000000 0.106999 0.002572
O O12 0.892806 0.000000 0.971666
O O13 0.809642 0.106626 0.053743
O O14 0.500000 0.301409 0.529947
O O15 0.365073 0.376990 0.635008
O O16 0.777238 0.094900 0.310021
O O17 0.704455 0.000000 0.148421
O O18 0.175268 0.000000 0.484181
#
# Coordination Sequence:
#
# PCOD8179798 Si02
#       7
#     8   8   8   8   8   8   8
#     4  10  20  38  64  92 123 164 212 259 313 372
#     4   9  18  35  61  90 121 160 207 263 318 367
#     4  11  25  44  64  93 128 162 215 260 317 384
#     4   9  17  33  60  90 122 162 203 251 314 373
#     4  12  26  44  67  92 125 171 213 262 321 387
#     4  10  22  40  61  92 130 166 208 266 320 368
#     4   9  19  33  55  90 130 165 204 256 311 372
#
# _framework density 21.059018999999999
#
# number of rings (size 3 to 8) (size 9 to 14) (size 15 to 20)
#    0.000    2.000    1.429    1.714    4.000    3.429 
#    0.000    4.286    0.000    0.000    0.000    0.000 
#    0.000    0.000    0.000    0.000    0.000    0.000 
#
# Total GULP energy -347134.603411 kJ/mol
# GULP energy per Si atom -12397.664408 kJ/mol
# Density = 2.101109 g / cm^3
# Si number density = 21.059019 Si / 1000 Ang^3
#
#
#
# Elastic Constant Matrix: (Units=GPa)
#
#
# Indices 1 2 3 4 5 6 
#
# 1 120.3304 29.5844 22.7879 0.0000 0.0000 0.0000
# 2 29.5844 62.8623 28.0740 0.0000 0.0000 0.0000
# 3 22.7879 28.0740 106.4519 0.0000 0.0000 0.0000
# 4 0.0000 0.0000 0.0000 26.9524 0.0000 0.0000
# 5 0.0000 0.0000 0.0000 0.0000 22.2622 0.0000
# 6 0.0000 0.0000 0.0000 0.0000 0.0000 26.3521
#
#
#
# Elastic Compliance Matrix: (Units=1/GPa)
#
#
# Indices 1 2 3 4 5 6 
#
# 1 0.009485 -0.004032 -0.000967 0.000000 0.000000 0.000000
# 2 -0.004032 0.019745 -0.004344 0.000000 0.000000 0.000000
# 3 -0.000967 -0.004344 0.010747 0.000000 0.000000 0.000000
# 4 0.000000 0.000000 0.000000 0.037102 0.000000 0.000000
# 5 0.000000 0.000000 0.000000 0.000000 0.044919 0.000000
# 6 0.000000 0.000000 0.000000 0.000000 0.000000 0.037948
#
#
# Mechanical properties :
#
#
# Convention : Reuss Voigt Hill
#
# Bulk Modulus (GPa) = 46.96948 50.05969 48.51459
# Shear Modulus (GPa) = 26.92089 29.05991 27.99040
#
# Velocity S-wave (km/s) = 3.57929 3.71877 3.64969
# Velocity P-wave (km/s) = 6.27964 6.50090 6.39123
#
# Compressibility (1/GPa) = 0.02129042
#
# Stress axis : x y z
#
# Youngs Moduli (GPa) = 105.43100 50.64472 93.05247
#
# Poissons Ratio (x) = 0.20419 0.08999
# Poissons Ratio (y) = 0.42509 0.40424
# Poissons Ratio (z) = 0.10196 0.22001
#
# Static dielectric constant tensor:
#      x y z
#    x 4.046330 0.000000 0.000000 
#    y 0.000000 3.645900 0.000000 
#    z 0.000000 0.000000 3.740510 
# 
# 
# High freq. dielectric constant tensor:
#      x y z
#    x 1.825880 0.000000 0.000000 
#    y 0.000000 1.805910 0.000000 
#    z 0.000000 0.000000 1.823880 
# 
# From -- ./inp_files/5705.got.cif
#   From: 2010.03.12/outbox.cif.g09.slc.cpg/sg38_3_cif.got.tgz:5705.got - 2010.04.14 02:38:36.
