data_PCOD8179639
_publ_section_title
;
Structure prediction by ZEFSAII (Michael W. Deem and Ramdas Pophale) SiO2 
 PCOD8179639
Probable space group: A M M 2
;
_chemical_formula_sum "Si O2"
_cell_formula_units_Z 48
_cell_length_a 7.737228
_cell_length_b 8.963316
_cell_length_c 34.203285
_cell_angle_alpha 90.000000
_cell_angle_beta 90.000000
_cell_angle_gamma 90.000000
_cell_volume 2372.039527
_symmetry_space_group_name_H-M "A M M 2"
_symmetry_group_IT_number 38
_symmetry_cell_setting 'orthorhombic'
loop_
_space_group_symop_operation_xyz
x,y,z
-x,-y,z
-x,y,z
x,-y,z
x,1/2+y,1/2+z
-x,1/2-y,1/2+z
-x,1/2+y,1/2+z
x,1/2-y,1/2+z
loop_
_atom_site_type_symbol
_atom_site_label
_atom_site_fract_x
_atom_site_fract_y
_atom_site_fract_z
Si Si1 0.500000 0.177817 0.555110
Si Si2 0.303887 0.665190 0.771976
Si Si3 0.500000 0.677769 0.471468
Si Si4 0.803203 0.662493 0.345549
Si Si5 0.797516 0.668074 0.197178
Si Si6 0.808994 0.322915 0.110378
Si Si7 0.203381 0.825053 0.422014
O O1 0.500000 0.271131 0.515981
O O2 0.331114 0.230085 0.579053
O O3 0.500000 0.000000 0.547208
O O4 0.500000 0.658178 0.786021
O O5 0.221044 0.500000 0.772312
O O6 0.205084 0.768179 0.802580
O O7 0.297012 0.728941 0.728391
O O8 0.500000 0.500000 0.468082
O O9 0.323061 0.740564 0.453040
O O10 0.708696 0.500000 0.346377
O O11 0.730972 0.771752 0.379165
O O12 0.000000 0.635578 0.355955
O O13 0.725252 0.500000 0.201247
O O14 0.758274 0.733369 0.153890
O O15 0.000000 0.670199 0.205740
O O16 0.815502 0.500000 0.112627
O O17 0.000000 0.262455 0.098427
O O18 0.000000 0.790360 0.430012
O O19 0.239126 0.000000 0.425215
#
# Coordination Sequence:
#
# PCOD8179639 Si02
#       7
#     4   8   4   8   8   8   8
#     4  10  20  36  60  87 114 151 194 238 293 352
#     4  11  24  36  48  75 114 155 196 239 283 336
#     4  12  26  42  62  91 128 165 196 240 299 362
#     4  10  21  38  60  85 113 148 191 239 292 350
#     4   9  18  34  56  81 108 142 188 241 292 341
#     4   8  16  32  56  86 115 144 187 242 294 348
#     4  10  22  42  68  94 121 157 201 250 301 356
#
# _framework density 20.235751
#
# number of rings (size 3 to 8) (size 9 to 14) (size 15 to 20)
#    0.000    2.167    0.000    3.750    2.333    6.333 
#    0.000    2.500    0.000    1.000    0.000    0.000 
#    0.000    0.000    0.000    0.000    0.000    0.000 
#
# Total GULP energy -297521.058710 kJ/mol
# GULP energy per Si atom -12396.710780 kJ/mol
# Density = 2.018969 g / cm^3
# Si number density = 20.235751 Si / 1000 Ang^3
#
#
#
# Elastic Constant Matrix: (Units=GPa)
#
#
# Indices 1 2 3 4 5 6 
#
# 1 86.1665 43.5255 58.3647 0.0000 0.0000 0.0000
# 2 43.5255 130.1906 63.5025 0.0000 0.0000 0.0000
# 3 58.3647 63.5025 155.0565 0.0000 0.0000 0.0000
# 4 0.0000 0.0000 0.0000 34.8262 0.0000 0.0000
# 5 0.0000 0.0000 0.0000 0.0000 32.5619 0.0000
# 6 0.0000 0.0000 0.0000 0.0000 0.0000 20.3273
#
#
#
# Elastic Compliance Matrix: (Units=1/GPa)
#
#
# Indices 1 2 3 4 5 6 
#
# 1 0.016528 -0.003113 -0.004947 0.000000 0.000000 0.000000
# 2 -0.003113 0.010185 -0.002999 0.000000 0.000000 0.000000
# 3 -0.004947 -0.002999 0.009540 0.000000 0.000000 0.000000
# 4 0.000000 0.000000 0.000000 0.028714 0.000000 0.000000
# 5 0.000000 0.000000 0.000000 0.000000 0.030711 0.000000
# 6 0.000000 0.000000 0.000000 0.000000 0.000000 0.049195
#
#
# Mechanical properties :
#
#
# Convention : Reuss Voigt Hill
#
# Bulk Modulus (GPa) = 70.74673 78.02211 74.38442
# Shear Modulus (GPa) = 29.12022 31.27781 30.19901
#
# Velocity S-wave (km/s) = 3.79759 3.93577 3.86730
# Velocity P-wave (km/s) = 7.36655 7.70026 7.53525
#
# Compressibility (1/GPa) = 0.01413493
#
# Stress axis : x y z
#
# Youngs Moduli (GPa) = 60.50169 98.18569 104.82693
#
# Poissons Ratio (x) = 0.30566 0.51853
# Poissons Ratio (y) = 0.18835 0.31441
# Poissons Ratio (z) = 0.29927 0.29449
#
# Static dielectric constant tensor:
#      x y z
#    x 3.797600 0.000000 0.000000 
#    y 0.000000 3.652480 0.000000 
#    z 0.000000 0.000000 3.655690 
# 
# 
# High freq. dielectric constant tensor:
#      x y z
#    x 1.791150 0.000000 0.000000 
#    y 0.000000 1.773970 0.000000 
#    z 0.000000 0.000000 1.791120 
# 
# From -- ./inp_files/24428.got.cif
#   From: 2010.03.12/outbox.cif.g09.slc.cpg/sg38_13_cif.got.tgz:24428.got - 2010.04.14 02:38:36.
