data_PCOD8179418
_publ_section_title
;
Structure prediction by ZEFSAII (Michael W. Deem and Ramdas Pophale) SiO2 
 PCOD8179418
Probable space group: A M M 2
;
_chemical_formula_sum "Si O2"
_cell_formula_units_Z 64
_cell_length_a 8.892903
_cell_length_b 20.481434
_cell_length_c 19.723574
_cell_angle_alpha 90.000000
_cell_angle_beta 90.000000
_cell_angle_gamma 90.000000
_cell_volume 3592.440050
_symmetry_space_group_name_H-M "A M M 2"
_symmetry_group_IT_number 38
_symmetry_cell_setting 'orthorhombic'
loop_
_space_group_symop_operation_xyz
x,y,z
-x,-y,z
-x,y,z
x,-y,z
x,1/2+y,1/2+z
-x,1/2-y,1/2+z
-x,1/2+y,1/2+z
x,1/2-y,1/2+z
loop_
_atom_site_type_symbol
_atom_site_label
_atom_site_fract_x
_atom_site_fract_y
_atom_site_fract_z
Si Si1 0.822183 0.376354 0.048660
Si Si2 0.822128 0.232224 0.046907
Si Si3 0.175202 0.926301 0.690414
Si Si4 0.323167 0.808543 0.765142
Si Si5 0.828015 0.883148 0.400539
Si Si6 0.328150 0.425685 0.769607
Si Si7 0.822543 0.813169 0.189125
Si Si8 0.827793 0.228148 0.898232
O O1 0.753928 0.304135 0.061216
O O2 0.774153 0.421787 0.111394
O O3 0.000000 0.370558 0.043095
O O4 0.767923 0.403736 0.975562
O O5 0.774314 0.186069 0.109596
O O6 0.000000 0.238855 0.042851
O O7 0.768787 0.206002 0.973206
O O8 0.272383 0.877830 0.735527
O O9 0.000000 0.907336 0.697294
O O10 0.205208 0.000000 0.715234
O O11 0.500000 0.801436 0.758112
O O12 0.247086 0.748854 0.726258
O O13 0.276994 0.807449 0.843875
O O14 0.724596 0.919995 0.346995
O O15 0.813438 0.805750 0.390671
O O16 0.000000 0.905294 0.389241
O O17 0.500000 0.402664 0.765064
O O18 0.308959 0.500000 0.745182
O O19 0.229976 0.380952 0.720478
O O20 0.000000 0.806902 0.197986
O O21 0.000000 0.206324 0.886317
#
# Coordination Sequence:
#
# PCOD8179418 Si02
#       8
#     8   8   8   8   8   8   8   8
#     4   8  14  28  50  79 108 134 173 220 264 307
#     4   8  15  29  54  83 107 129 166 222 273 308
#     4  10  20  35  56  79 105 142 184 224 265 310
#     4  12  23  34  52  80 112 145 177 216 265 316
#     4   9  17  30  53  79 104 139 180 220 258 306
#     4  11  24  38  50  72 111 150 179 215 265 318
#     4  11  20  35  60  83 103 134 179 227 265 309
#     4   9  17  32  55  82 107 135 172 220 267 311
#
# _framework density 17.815190000000001
#
# number of rings (size 3 to 8) (size 9 to 14) (size 15 to 20)
#    0.000    2.250    2.500    3.375    0.000    1.750 
#    0.000    3.125    0.000    0.750    0.000    1.750 
#    0.000    0.000    0.000    0.000    0.000    0.000 
#
# Total GULP energy -396668.533481 kJ/mol
# GULP energy per Si atom -12395.891671 kJ/mol
# Density = 1.777464 g / cm^3
# Si number density = 17.815190 Si / 1000 Ang^3
#
#
#
# Elastic Constant Matrix: (Units=GPa)
#
#
# Indices 1 2 3 4 5 6 
#
# 1 79.9233 38.0759 46.9957 0.0000 0.0000 0.0000
# 2 38.0759 76.4386 50.7690 0.0000 0.0000 0.0000
# 3 46.9957 50.7690 131.1572 0.0000 0.0000 0.0000
# 4 0.0000 0.0000 0.0000 24.2666 0.0000 0.0000
# 5 0.0000 0.0000 0.0000 0.0000 0.0291 0.0000
# 6 0.0000 0.0000 0.0000 0.0000 0.0000 21.3661
#
#
#
# Elastic Compliance Matrix: (Units=1/GPa)
#
#
# Indices 1 2 3 4 5 6 
#
# 1 0.017819 -0.006239 -0.003970 0.000000 0.000000 0.000000
# 2 -0.006239 0.019795 -0.005427 0.000000 0.000000 0.000000
# 3 -0.003970 -0.005427 0.011147 0.000000 0.000000 0.000000
# 4 0.000000 0.000000 0.000000 0.041209 0.000000 0.000000
# 5 0.000000 0.000000 0.000000 0.000000 34.371933 0.000000
# 6 0.000000 0.000000 0.000000 0.000000 0.000000 0.046803
#
#
# Mechanical properties :
#
#
# Convention : Reuss Voigt Hill
#
# Bulk Modulus (GPa) = 57.17675 62.13339 59.65507
# Shear Modulus (GPa) = 0.14474 19.24423 9.69448
#
# Velocity S-wave (km/s) = 0.28534 3.29023 2.33527
# Velocity P-wave (km/s) = 5.68090 7.02755 6.38980
#
# Compressibility (1/GPa) = 0.01748963
#
# Stress axis : x y z
#
# Youngs Moduli (GPa) = 56.12110 50.51885 89.70781
#
# Poissons Ratio (x) = 0.31521 0.35610
# Poissons Ratio (y) = 0.35016 0.48680
# Poissons Ratio (z) = 0.22277 0.27414
#
# Static dielectric constant tensor:
#      x y z
#    x 3.054270 0.000000 0.000000 
#    y 0.000000 3.062080 0.000000 
#    z 0.000000 0.000000 3.727620 
# 
# 
# High freq. dielectric constant tensor:
#      x y z
#    x 1.662900 0.000000 0.000000 
#    y 0.000000 1.662170 0.000000 
#    z 0.000000 0.000000 1.701100 
# 
# From -- ./inp_files/20222.got.cif
#   From: 2010.03.12/outbox.cif.g09.slc.cpg/sg38_11_cif.got.tgz:20222.got - 2010.04.14 02:38:36.
