data_PCOD8179616
_publ_section_title
;
Structure prediction by ZEFSAII (Michael W. Deem and Ramdas Pophale) SiO2 
 PCOD8179616
Probable space group: A M M 2
;
_chemical_formula_sum "Si O2"
_cell_formula_units_Z 64
_cell_length_a 8.868258
_cell_length_b 24.009887
_cell_length_c 15.397321
_cell_angle_alpha 90.000000
_cell_angle_beta 90.000000
_cell_angle_gamma 90.000000
_cell_volume 3278.488008
_symmetry_space_group_name_H-M "A M M 2"
_symmetry_group_IT_number 38
_symmetry_cell_setting 'orthorhombic'
loop_
_space_group_symop_operation_xyz
x,y,z
-x,-y,z
-x,y,z
x,-y,z
x,1/2+y,1/2+z
-x,1/2-y,1/2+z
-x,1/2+y,1/2+z
x,1/2-y,1/2+z
loop_
_atom_site_type_symbol
_atom_site_label
_atom_site_fract_x
_atom_site_fract_y
_atom_site_fract_z
Si Si1 0.828140 0.369513 0.432290
Si Si2 0.322204 0.936459 0.585623
Si Si3 0.323689 0.863950 0.234160
Si Si4 0.174672 0.866387 0.735104
Si Si5 0.678599 0.437887 0.579557
Si Si6 0.824606 0.252723 0.993066
Si Si7 0.323655 0.140924 0.427096
Si Si8 0.678203 0.744769 0.177738
O O1 0.799949 0.387657 0.333079
O O2 0.720913 0.406336 0.491746
O O3 0.789862 0.304402 0.443151
O O4 0.000000 0.380991 0.459910
O O5 0.500000 0.932583 0.597705
O O6 0.247520 0.910828 0.670700
O O7 0.270930 0.903118 0.499668
O O8 0.268223 0.000000 0.574921
O O9 0.500000 0.860940 0.215362
O O10 0.251984 0.906205 0.163766
O O11 0.290576 0.885131 0.331857
O O12 0.258905 0.801812 0.219731
O O13 0.247806 0.805988 0.728261
O O14 0.000000 0.860895 0.711887
O O15 0.500000 0.440481 0.585598
O O16 0.746992 0.500000 0.578229
O O17 0.774277 0.303180 0.931633
O O18 0.000000 0.258482 0.017588
O O19 0.722502 0.256870 0.077675
O O20 0.500000 0.155689 0.437104
O O21 0.500000 0.738573 0.185991
#
# Coordination Sequence:
#
# PCOD8179616 Si02
#       8
#     8   8   8   8   8   8   8   8
#     4  10  23  40  58  83 116 153 190 231 288 345
#     4  10  22  39  58  82 113 150 194 239 282 334
#     4   9  19  35  57  87 117 147 185 229 282 339
#     4  11  23  39  59  84 115 151 190 236 287 342
#     4  10  21  38  60  85 114 150 194 242 284 328
#     4  11  21  35  57  85 116 150 185 229 282 340
#     4  10  20  36  59  85 115 150 186 229 282 340
#     4  11  20  34  58  86 117 151 183 227 283 341
#
# _framework density 19.521194000000001
#
# number of rings (size 3 to 8) (size 9 to 14) (size 15 to 20)
#    0.000    1.750    2.500    1.875    0.000    3.000 
#    0.000    6.250    0.000    0.000    0.000    1.750 
#    0.000    0.000    0.000    0.000    0.000    0.000 
#
# Total GULP energy -396858.673002 kJ/mol
# GULP energy per Si atom -12401.833531 kJ/mol
# Density = 1.947676 g / cm^3
# Si number density = 19.521194 Si / 1000 Ang^3
#
#
#
# Elastic Constant Matrix: (Units=GPa)
#
#
# Indices 1 2 3 4 5 6 
#
# 1 20.4786 40.9646 20.1200 0.0000 0.0000 0.0000
# 2 40.9646 154.4231 65.2347 0.0000 0.0000 0.0000
# 3 20.1200 65.2347 125.7900 0.0000 0.0000 0.0000
# 4 0.0000 0.0000 0.0000 14.8382 0.0000 0.0000
# 5 0.0000 0.0000 0.0000 0.0000 19.2638 0.0000
# 6 0.0000 0.0000 0.0000 0.0000 0.0000 18.6909
#
#
#
# Elastic Compliance Matrix: (Units=1/GPa)
#
#
# Indices 1 2 3 4 5 6 
#
# 1 0.104920 -0.026563 -0.003006 0.000000 0.000000 0.000000
# 2 -0.026563 0.015017 -0.003539 0.000000 0.000000 0.000000
# 3 -0.003006 -0.003539 0.010266 0.000000 0.000000 0.000000
# 4 0.000000 0.000000 0.000000 0.067394 0.000000 0.000000
# 5 0.000000 0.000000 0.000000 0.000000 0.051911 0.000000
# 6 0.000000 0.000000 0.000000 0.000000 0.000000 0.053502
#
#
# Mechanical properties :
#
#
# Convention : Reuss Voigt Hill
#
# Bulk Modulus (GPa) = 15.62824 61.48114 38.55469
# Shear Modulus (GPa) = 12.80227 22.18341 17.49284
#
# Velocity S-wave (km/s) = 2.56366 3.37467 2.99673
# Velocity P-wave (km/s) = 4.09711 6.83721 5.63621
#
# Compressibility (1/GPa) = 0.06398675
#
# Stress axis : x y z
#
# Youngs Moduli (GPa) = 9.53105 66.58998 97.40782
#
# Poissons Ratio (x) = 1.76881 0.29285
# Poissons Ratio (y) = 0.25317 0.34476
# Poissons Ratio (z) = 0.02865 0.23568
#
# Static dielectric constant tensor:
#      x y z
#    x 3.382110 0.000000 0.000000 
#    y 0.000000 3.761270 0.000000 
#    z 0.000000 0.000000 3.614580 
# 
# 
# High freq. dielectric constant tensor:
#      x y z
#    x 1.742750 0.000000 0.000000 
#    y 0.000000 1.760090 0.000000 
#    z 0.000000 0.000000 1.772580 
# 
# From -- ./inp_files/12758.got.cif
#   From: 2010.03.12/outbox.cif.g09.slc.cpg/sg38_7_cif.got.tgz:12758.got - 2010.04.14 02:38:36.
