data_PCOD8179763
_publ_section_title
;
Structure prediction by ZEFSAII (Michael W. Deem and Ramdas Pophale) SiO2 
 PCOD8179763
Probable space group: A M M 2
;
_chemical_formula_sum "Si O2"
_cell_formula_units_Z 56
_cell_length_a 14.013770
_cell_length_b 13.971328
_cell_length_c 13.075710
_cell_angle_alpha 90.000000
_cell_angle_beta 90.000000
_cell_angle_gamma 90.000000
_cell_volume 2560.106038
_symmetry_space_group_name_H-M "A M M 2"
_symmetry_group_IT_number 38
_symmetry_cell_setting 'orthorhombic'
loop_
_space_group_symop_operation_xyz
x,y,z
-x,-y,z
-x,y,z
x,-y,z
x,1/2+y,1/2+z
-x,1/2-y,1/2+z
-x,1/2+y,1/2+z
x,1/2-y,1/2+z
loop_
_atom_site_type_symbol
_atom_site_label
_atom_site_fract_x
_atom_site_fract_y
_atom_site_fract_z
Si Si1 0.394724 0.888586 0.151520
Si Si2 0.110564 0.712285 0.133131
Si Si3 0.203802 0.889662 0.048879
Si Si4 0.390572 0.787700 0.363005
Si Si5 0.610084 0.606699 0.245499
Si Si6 0.108461 0.108760 0.839284
Si Si7 0.278356 0.887933 0.541296
O O1 0.500000 0.854491 0.112483
O O2 0.315430 0.863421 0.066016
O O3 0.366819 0.839036 0.256741
O O4 0.395988 0.000000 0.174750
O O5 0.138794 0.823663 0.122094
O O6 0.135154 0.680125 0.248294
O O7 0.169290 0.646665 0.053331
O O8 0.000000 0.696003 0.108136
O O9 0.181367 0.000000 0.076936
O O10 0.179298 0.867496 0.931603
O O11 0.500000 0.806015 0.395325
O O12 0.369983 0.675153 0.342230
O O13 0.322650 0.827825 0.449675
O O14 0.500000 0.611116 0.213035
O O15 0.640565 0.500000 0.280412
O O16 0.667452 0.639181 0.145488
O O17 0.000000 0.124171 0.877121
O O18 0.122925 0.000000 0.799987
O O19 0.284148 0.000000 0.516048
#
# Coordination Sequence:
#
# PCOD8179763 Si02
#       7
#     8   8   8   8   8   8   8
#     4   9  18  34  59  93 130 165 204 252 306 368
#     4  11  24  41  63  92 125 160 205 263 322 376
#     4  10  21  39  66  96 126 163 208 256 308 372
#     4  10  20  37  63  92 127 171 212 252 308 375
#     4   9  19  37  62  94 129 162 204 259 309 361
#     4   9  19  39  66  92 119 157 204 251 305 370
#     4  11  23  39  63  93 124 163 213 263 314 374
#
# _framework density 21.874093999999999
#
# number of rings (size 3 to 8) (size 9 to 14) (size 15 to 20)
#    0.000    2.143    0.000    2.571    0.000    5.429 
#    0.000    2.857    0.000    6.000    0.000   22.000 
#    0.000    0.000    0.000    0.000    0.000    0.000 
#
# Total GULP energy -347243.951381 kJ/mol
# GULP energy per Si atom -12401.569692 kJ/mol
# Density = 2.182431 g / cm^3
# Si number density = 21.874094 Si / 1000 Ang^3
#
#
#
# Elastic Constant Matrix: (Units=GPa)
#
#
# Indices 1 2 3 4 5 6 
#
# 1 150.3071 61.9633 95.9980 0.0000 0.0000 0.0000
# 2 61.9633 115.8678 81.6499 0.0000 0.0000 0.0000
# 3 95.9980 81.6499 119.4622 0.0000 0.0000 0.0000
# 4 0.0000 0.0000 0.0000 39.5057 0.0000 0.0000
# 5 0.0000 0.0000 0.0000 0.0000 42.8263 0.0000
# 6 0.0000 0.0000 0.0000 0.0000 0.0000 30.4322
#
#
#
# Elastic Compliance Matrix: (Units=1/GPa)
#
#
# Indices 1 2 3 4 5 6 
#
# 1 0.013709 0.000833 -0.011586 0.000000 0.000000 0.000000
# 2 0.000833 0.016700 -0.012084 0.000000 0.000000 0.000000
# 3 -0.011586 -0.012084 0.025940 0.000000 0.000000 0.000000
# 4 0.000000 0.000000 0.000000 0.025313 0.000000 0.000000
# 5 0.000000 0.000000 0.000000 0.000000 0.023350 0.000000
# 6 0.000000 0.000000 0.000000 0.000000 0.000000 0.032860
#
#
# Mechanical properties :
#
#
# Convention : Reuss Voigt Hill
#
# Bulk Modulus (GPa) = 93.66431 96.09548 94.87989
# Shear Modulus (GPa) = 26.72307 32.28791 29.50549
#
# Velocity S-wave (km/s) = 3.49904 3.84615 3.67669
# Velocity P-wave (km/s) = 7.69656 7.98438 7.84179
#
# Compressibility (1/GPa) = 0.01067643
#
# Stress axis : x y z
#
# Youngs Moduli (GPa) = 72.94287 59.87974 38.55049
#
# Poissons Ratio (x) = -0.04988 0.44664
# Poissons Ratio (y) = -0.06076 0.46583
# Poissons Ratio (z) = 0.84511 0.72356
#
# Static dielectric constant tensor:
#      x y z
#    x 4.165390 0.000000 0.000000 
#    y 0.000000 4.245310 0.000000 
#    z 0.000000 0.000000 3.723990 
# 
# 
# High freq. dielectric constant tensor:
#      x y z
#    x 1.869900 0.000000 0.000000 
#    y 0.000000 1.873620 0.000000 
#    z 0.000000 0.000000 1.842840 
# 
# From -- ./inp_files/10097.got.cif
#   From: 2010.03.12/outbox.cif.g09.slc.cpg/sg38_6_cif.got.tgz:10097.got - 2010.04.14 02:38:36.
