data_PCOD8179719
_publ_section_title
;
Structure prediction by ZEFSAII (Michael W. Deem and Ramdas Pophale) SiO2 
 PCOD8179719
Probable space group: A M M 2
;
_chemical_formula_sum "Si O2"
_cell_formula_units_Z 48
_cell_length_a 9.360552
_cell_length_b 27.691245
_cell_length_c 9.687950
_cell_angle_alpha 90.000000
_cell_angle_beta 90.000000
_cell_angle_gamma 90.000000
_cell_volume 2511.168362
_symmetry_space_group_name_H-M "A M M 2"
_symmetry_group_IT_number 38
_symmetry_cell_setting 'orthorhombic'
loop_
_space_group_symop_operation_xyz
x,y,z
-x,-y,z
-x,y,z
x,-y,z
x,1/2+y,1/2+z
-x,1/2-y,1/2+z
-x,1/2+y,1/2+z
x,1/2-y,1/2+z
loop_
_atom_site_type_symbol
_atom_site_label
_atom_site_fract_x
_atom_site_fract_y
_atom_site_fract_z
Si Si1 0.669059 0.704043 0.772020
Si Si2 0.663800 0.444150 0.167635
Si Si3 0.161584 0.053698 0.157609
Si Si4 0.665616 0.397969 0.878985
Si Si5 0.168098 0.612158 0.390364
Si Si6 0.329939 0.793863 0.954822
O O1 0.500000 0.703226 0.773665
O O2 0.729388 0.654482 0.838041
O O3 0.722573 0.747072 0.870419
O O4 0.721831 0.710926 0.614005
O O5 0.500000 0.437866 0.217011
O O6 0.694699 0.500000 0.130715
O O7 0.771843 0.427067 0.284470
O O8 0.694650 0.409725 0.037755
O O9 0.260487 0.060837 0.289387
O O10 0.000000 0.060875 0.207175
O O11 0.185990 0.000000 0.098082
O O12 0.201505 0.092122 0.041582
O O13 0.500000 0.400045 0.842937
O O14 0.252268 0.662204 0.377531
O O15 0.000000 0.619552 0.363953
O O16 0.500000 0.801553 0.945538
#
# Coordination Sequence:
#
# PCOD8179719 Si02
#       6
#     8   8   8   8   8   8
#     4   9  19  34  59  89 115 145 185 233 290 343
#     4  10  22  38  58  86 119 155 195 241 290 342
#     4  10  21  37  57  81 112 151 190 232 286 346
#     4  10  20  37  60  88 116 146 188 239 290 343
#     4  11  23  39  58  83 117 157 195 238 287 343
#     4  10  20  37  60  87 115 149 191 238 289 347
#
# _framework density 19.114609999999999
#
# number of rings (size 3 to 8) (size 9 to 14) (size 15 to 20)
#    0.000    2.000    1.667    1.500    2.333    3.333 
#    0.000    1.667    0.000    0.000    0.000    0.000 
#    0.000    0.000    0.000    0.000    0.000    0.000 
#
# Total GULP energy -297632.719177 kJ/mol
# GULP energy per Si atom -12401.363299 kJ/mol
# Density = 1.907110 g / cm^3
# Si number density = 19.114610 Si / 1000 Ang^3
#
#
#
# Elastic Constant Matrix: (Units=GPa)
#
#
# Indices 1 2 3 4 5 6 
#
# 1 59.0948 34.9892 42.0143 0.0000 0.0000 0.0000
# 2 34.9892 113.5088 43.5580 0.0000 0.0000 0.0000
# 3 42.0143 43.5580 84.2725 0.0000 0.0000 0.0000
# 4 0.0000 0.0000 0.0000 39.6718 0.0000 0.0000
# 5 0.0000 0.0000 0.0000 0.0000 21.8823 0.0000
# 6 0.0000 0.0000 0.0000 0.0000 0.0000 19.0320
#
#
#
# Elastic Compliance Matrix: (Units=1/GPa)
#
#
# Indices 1 2 3 4 5 6 
#
# 1 0.027615 -0.004028 -0.011685 0.000000 0.000000 0.000000
# 2 -0.004028 0.011577 -0.003976 0.000000 0.000000 0.000000
# 3 -0.011685 -0.003976 0.019747 0.000000 0.000000 0.000000
# 4 0.000000 0.000000 0.000000 0.025207 0.000000 0.000000
# 5 0.000000 0.000000 0.000000 0.000000 0.045699 0.000000
# 6 0.000000 0.000000 0.000000 0.000000 0.000000 0.052543
#
#
# Mechanical properties :
#
#
# Convention : Reuss Voigt Hill
#
# Bulk Modulus (GPa) = 51.12329 55.33324 53.22827
# Shear Modulus (GPa) = 21.90226 25.20486 23.55356
#
# Velocity S-wave (km/s) = 3.38870 3.63522 3.51412
# Velocity P-wave (km/s) = 6.48959 6.82867 6.66129
#
# Compressibility (1/GPa) = 0.01956056
#
# Stress axis : x y z
#
# Youngs Moduli (GPa) = 36.21229 86.37668 50.64055
#
# Poissons Ratio (x) = 0.34794 0.59176
# Poissons Ratio (y) = 0.14587 0.20133
# Poissons Ratio (z) = 0.42316 0.34341
#
# Static dielectric constant tensor:
#      x y z
#    x 3.258530 0.000000 0.000000 
#    y 0.000000 3.688290 0.000000 
#    z 0.000000 0.000000 3.469520 
# 
# 
# High freq. dielectric constant tensor:
#      x y z
#    x 1.719260 0.000000 0.000000 
#    y 0.000000 1.757110 0.000000 
#    z 0.000000 0.000000 1.745510 
# 
# From -- ./inp_files/3723.got.cif
#   From: 2010.03.12/outbox.cif.g09.slc.cpg/sg38_2_cif.got.tgz:3723.got - 2010.04.14 02:38:36.
