data_PCOD8179054
_publ_section_title
;
Structure prediction by ZEFSAII (Michael W. Deem and Ramdas Pophale) SiO2 
 PCOD8179054
Probable space group: A M M 2
;
_chemical_formula_sum "Si O2"
_cell_formula_units_Z 40
_cell_length_a 7.726571
_cell_length_b 28.280244
_cell_length_c 9.810074
_cell_angle_alpha 90.000000
_cell_angle_beta 90.000000
_cell_angle_gamma 90.000000
_cell_volume 2143.592532
_symmetry_space_group_name_H-M "A M M 2"
_symmetry_group_IT_number 38
_symmetry_cell_setting 'orthorhombic'
loop_
_space_group_symop_operation_xyz
x,y,z
-x,-y,z
-x,y,z
x,-y,z
x,1/2+y,1/2+z
-x,1/2-y,1/2+z
-x,1/2+y,1/2+z
x,1/2-y,1/2+z
loop_
_atom_site_type_symbol
_atom_site_label
_atom_site_fract_x
_atom_site_fract_y
_atom_site_fract_z
Si Si1 0.800097 0.866546 0.240070
Si Si2 0.191208 0.134610 0.928978
Si Si3 0.500000 0.295108 0.737084
Si Si4 0.696633 0.946665 0.744101
Si Si5 0.202803 0.447063 0.947040
Si Si6 0.500000 0.797166 0.918638
O O1 0.674148 0.823275 0.277108
O O2 0.741542 0.911703 0.327586
O O3 0.000000 0.852021 0.269498
O O4 0.771001 0.881177 0.083613
O O5 0.191705 0.087927 0.836992
O O6 0.330536 0.172735 0.879431
O O7 0.000000 0.157628 0.917637
O O8 0.500000 0.248107 0.824296
O O9 0.500000 0.282357 0.576922
O O10 0.500000 0.943843 0.794444
O O11 0.705751 0.930951 0.586453
O O12 0.770153 0.000000 0.759311
O O13 0.261981 0.500000 0.905084
O O14 0.000000 0.445191 0.973356
#
# Coordination Sequence:
#
# PCOD8179054 Si02
#       6
#     8   8   4   8   8   4
#     4   9  20  37  57  82 109 141 182 222 266 321
#     4  10  20  37  59  80 109 144 178 222 269 317
#     4  10  22  38  59  78 109 141 172 225 277 320
#     4  10  20  33  51  80 115 147 183 222 260 313
#     4   9  18  33  52  78 112 147 184 223 263 312
#     4  10  22  40  55  82 107 135 180 223 271 330
#
# _framework density 18.660261999999999
#
# number of rings (size 3 to 8) (size 9 to 14) (size 15 to 20)
#    0.000    2.400    1.000    0.600    1.400    4.400 
#    0.000    2.000    0.000    0.000    0.000    0.000 
#    0.000    0.000    0.000    0.000    0.000    0.000 
#
# Total GULP energy -248014.027455 kJ/mol
# GULP energy per Si atom -12400.701373 kJ/mol
# Density = 1.861779 g / cm^3
# Si number density = 18.660262 Si / 1000 Ang^3
#
#
#
# Elastic Constant Matrix: (Units=GPa)
#
#
# Indices 1 2 3 4 5 6 
#
# 1 98.1639 58.0482 44.5222 0.0000 0.0000 0.0000
# 2 58.0482 132.9510 83.7770 0.0000 0.0000 0.0000
# 3 44.5222 83.7770 89.2077 0.0000 0.0000 0.0000
# 4 0.0000 0.0000 0.0000 42.0610 0.0000 0.0000
# 5 0.0000 0.0000 0.0000 0.0000 25.0575 0.0000
# 6 0.0000 0.0000 0.0000 0.0000 0.0000 2.4281
#
#
#
# Elastic Compliance Matrix: (Units=1/GPa)
#
#
# Indices 1 2 3 4 5 6 
#
# 1 0.014067 -0.004208 -0.003069 0.000000 0.000000 0.000000
# 2 -0.004208 0.019684 -0.016385 0.000000 0.000000 0.000000
# 3 -0.003069 -0.016385 0.028129 0.000000 0.000000 0.000000
# 4 0.000000 0.000000 0.000000 0.023775 0.000000 0.000000
# 5 0.000000 0.000000 0.000000 0.000000 0.039908 0.000000
# 6 0.000000 0.000000 0.000000 0.000000 0.000000 0.411843
#
#
# Mechanical properties :
#
#
# Convention : Reuss Voigt Hill
#
# Bulk Modulus (GPa) = 68.70107 77.00194 72.85150
# Shear Modulus (GPa) = 8.48056 22.84099 15.66078
#
# Velocity S-wave (km/s) = 2.13415 3.50243 2.90014
# Velocity P-wave (km/s) = 6.55511 7.59676 7.09508
#
# Compressibility (1/GPa) = 0.01455581
#
# Stress axis : x y z
#
# Youngs Moduli (GPa) = 71.08637 50.80285 35.55032
#
# Poissons Ratio (x) = 0.21380 0.10909
# Poissons Ratio (y) = 0.29915 0.58250
# Poissons Ratio (z) = 0.21814 0.83242
#
# Static dielectric constant tensor:
#      x y z
#    x 3.583440 0.000000 0.000000 
#    y 0.000000 3.271870 0.000000 
#    z 0.000000 0.000000 3.378810 
# 
# 
# High freq. dielectric constant tensor:
#      x y z
#    x 1.738470 0.000000 0.000000 
#    y 0.000000 1.706460 0.000000 
#    z 0.000000 0.000000 1.721950 
# 
# From -- ./inp_files/3517.got.cif
#   From: 2010.03.12/outbox.cif.g09.slc.cpg/sg38_2_cif.got.tgz:3517.got - 2010.04.14 02:38:36.
