data_PCOD8179540
_publ_section_title
;
Structure prediction by ZEFSAII (Michael W. Deem and Ramdas Pophale) SiO2 
 PCOD8179540
Probable space group: A M M 2
;
_chemical_formula_sum "Si O2"
_cell_formula_units_Z 64
_cell_length_a 28.391721
_cell_length_b 8.489545
_cell_length_c 14.138625
_cell_angle_alpha 90.000000
_cell_angle_beta 90.000000
_cell_angle_gamma 90.000000
_cell_volume 3407.872274
_symmetry_space_group_name_H-M "A M M 2"
_symmetry_group_IT_number 38
_symmetry_cell_setting 'orthorhombic'
loop_
_space_group_symop_operation_xyz
x,y,z
-x,-y,z
-x,y,z
x,-y,z
x,1/2+y,1/2+z
-x,1/2-y,1/2+z
-x,1/2+y,1/2+z
x,1/2-y,1/2+z
loop_
_atom_site_type_symbol
_atom_site_label
_atom_site_fract_x
_atom_site_fract_y
_atom_site_fract_z
Si Si1 0.378725 0.186580 0.234540
Si Si2 0.698913 0.185916 0.381254
Si Si3 0.054657 0.185234 0.361715
Si Si4 0.805202 0.313938 0.859999
Si Si5 0.124103 0.815935 0.712716
Si Si6 0.370079 0.813543 0.023724
Si Si7 0.447287 0.313349 0.378366
Si Si8 0.875308 0.815051 0.005658
O O1 0.333386 0.244009 0.294115
O O2 0.373744 0.255663 0.129176
O O3 0.426638 0.254242 0.278839
O O4 0.382149 0.000000 0.233631
O O5 0.751691 0.247132 0.364837
O O6 0.678977 0.257472 0.478445
O O7 0.698186 0.000000 0.390951
O O8 0.077815 0.269986 0.271736
O O9 0.076889 0.249110 0.458930
O O10 0.000000 0.227546 0.362691
O O11 0.064126 0.000000 0.353678
O O12 0.808280 0.500000 0.843360
O O13 0.829475 0.226804 0.772117
O O14 0.830533 0.269597 0.958009
O O15 0.124268 0.718507 0.616361
O O16 0.123455 0.000000 0.689322
O O17 0.370590 0.000000 0.026013
O O18 0.414402 0.748407 0.963207
O O19 0.500000 0.245914 0.391500
O O20 0.447894 0.500000 0.378457
O O21 0.871781 0.000000 0.986409
#
# Coordination Sequence:
#
# PCOD8179540 Si02
#       8
#     8   8   8   8   8   8   8   8
#     4   9  18  33  51  73  99 129 167 206 249 300
#     4   9  19  34  52  75 104 134 165 208 255 302
#     4  10  21  38  59  83 111 142 178 221 266 313
#     4  10  20  36  55  78 109 141 176 219 265 312
#     4  11  22  37  57  81 110 143 179 219 265 316
#     4   9  18  32  51  73  99 132 168 207 248 299
#     4   9  18  32  48  69  98 130 165 207 254 300
#     4  11  22  37  57  80 108 142 180 222 266 314
#
# _framework density 18.780048000000001
#
# number of rings (size 3 to 8) (size 9 to 14) (size 15 to 20)
#    0.000    2.250    0.000    4.500    0.000    4.750 
#    0.000    2.500    0.000    0.000    0.000    0.000 
#    0.000    0.000    0.000    0.000    0.000    0.000 
#
# Total GULP energy -396865.538273 kJ/mol
# GULP energy per Si atom -12402.048071 kJ/mol
# Density = 1.873730 g / cm^3
# Si number density = 18.780048 Si / 1000 Ang^3
#
#
#
# Elastic Constant Matrix: (Units=GPa)
#
#
# Indices 1 2 3 4 5 6 
#
# 1 151.4404 22.1232 55.5684 0.0000 0.0000 0.0000
# 2 22.1232 43.4613 6.5725 0.0000 0.0000 0.0000
# 3 55.5684 6.5725 133.2226 0.0000 0.0000 0.0000
# 4 0.0000 0.0000 0.0000 25.9405 0.0000 0.0000
# 5 0.0000 0.0000 0.0000 0.0000 14.1839 0.0000
# 6 0.0000 0.0000 0.0000 0.0000 0.0000 27.5181
#
#
#
# Elastic Compliance Matrix: (Units=1/GPa)
#
#
# Indices 1 2 3 4 5 6 
#
# 1 0.008364 -0.003758 -0.003303 0.000000 0.000000 0.000000
# 2 -0.003758 0.024871 0.000341 0.000000 0.000000 0.000000
# 3 -0.003303 0.000341 0.008867 0.000000 0.000000 0.000000
# 4 0.000000 0.000000 0.000000 0.038550 0.000000 0.000000
# 5 0.000000 0.000000 0.000000 0.000000 0.070502 0.000000
# 6 0.000000 0.000000 0.000000 0.000000 0.000000 0.036340
#
#
# Mechanical properties :
#
#
# Convention : Reuss Voigt Hill
#
# Bulk Modulus (GPa) = 34.89165 55.18362 45.03763
# Shear Modulus (GPa) = 23.75415 29.78586 26.77001
#
# Velocity S-wave (km/s) = 3.56035 3.98683 3.77961
# Velocity P-wave (km/s) = 5.95994 7.11625 6.56361
#
# Compressibility (1/GPa) = 0.02866015
#
# Stress axis : x y z
#
# Youngs Moduli (GPa) = 119.55390 40.20824 112.77335
#
# Poissons Ratio (x) = 0.15111 0.37254
# Poissons Ratio (y) = 0.44931 -0.03841
# Poissons Ratio (z) = 0.39494 -0.01370
#
# Static dielectric constant tensor:
#      x y z
#    x 3.639390 0.000000 0.000000 
#    y 0.000000 3.357660 0.000000 
#    z 0.000000 0.000000 3.547470 
# 
# 
# High freq. dielectric constant tensor:
#      x y z
#    x 1.732080 0.000000 0.000000 
#    y 0.000000 1.728790 0.000000 
#    z 0.000000 0.000000 1.731450 
# 
# From -- ./inp_files/15917.got.cif
#   From: 2010.03.12/outbox.cif.g09.slc.cpg/sg38_8_cif.got.tgz:15917.got - 2010.04.14 02:38:36.
