data_PCOD8179420
_publ_section_title
;
Structure prediction by ZEFSAII (Michael W. Deem and Ramdas Pophale) SiO2 
 PCOD8179420
Probable space group: A M M 2
;
_chemical_formula_sum "Si O2"
_cell_formula_units_Z 48
_cell_length_a 15.445151
_cell_length_b 9.053609
_cell_length_c 18.530619
_cell_angle_alpha 90.000000
_cell_angle_beta 90.000000
_cell_angle_gamma 90.000000
_cell_volume 2591.217213
_symmetry_space_group_name_H-M "A M M 2"
_symmetry_group_IT_number 38
_symmetry_cell_setting 'orthorhombic'
loop_
_space_group_symop_operation_xyz
x,y,z
-x,-y,z
-x,y,z
x,-y,z
x,1/2+y,1/2+z
-x,1/2-y,1/2+z
-x,1/2+y,1/2+z
x,1/2-y,1/2+z
loop_
_atom_site_type_symbol
_atom_site_label
_atom_site_fract_x
_atom_site_fract_y
_atom_site_fract_z
Si Si1 0.337237 0.672555 0.437440
Si Si2 0.657861 0.673200 0.270182
Si Si3 0.166734 0.171928 0.271290
Si Si4 0.500000 0.674931 0.525320
Si Si5 0.500000 0.675546 0.690964
Si Si6 0.000000 0.327043 0.679424
Si Si7 0.163105 0.672362 0.937105
Si Si8 0.000000 0.824451 0.526663
O O1 0.324999 0.500000 0.449999
O O2 0.357159 0.708390 0.354211
O O3 0.415154 0.738186 0.485319
O O4 0.249867 0.749253 0.464260
O O5 0.651427 0.500000 0.253656
O O6 0.751411 0.732475 0.245092
O O7 0.585280 0.758914 0.226551
O O8 0.084605 0.218881 0.224186
O O9 0.143424 0.209027 0.353835
O O10 0.189753 0.000000 0.261826
O O11 0.500000 0.500000 0.517135
O O12 0.500000 0.725226 0.607815
O O13 0.500000 0.500000 0.699725
O O14 0.000000 0.500000 0.662488
O O15 0.000000 0.237083 0.606429
O O16 0.175868 0.500000 0.949247
O O17 0.084116 0.734517 0.984386
O O18 0.000000 0.000000 0.528678
#
# Coordination Sequence:
#
# PCOD8179420 Si02
#       8
#     8   8   8   4   4   4   8   4
#     4   9  18  35  57  77  99 131 171 213 255 300
#     4  10  20  35  56  80 105 134 170 216 266 310
#     4   9  18  35  57  78 101 134 178 220 256 303
#     4   9  19  35  53  73 100 135 170 204 248 301
#     4  11  22  35  53  77 106 141 176 210 252 307
#     4  10  21  35  53  77 105 140 178 214 254 306
#     4   9  18  34  55  77 101 132 171 213 256 302
#     4  10  21  35  51  75 109 142 168 206 264 316
#
# _framework density 18.524113
#
# number of rings (size 3 to 8) (size 9 to 14) (size 15 to 20)
#    0.000    2.500    0.000    1.750    0.000    6.667 
#    0.000    7.083    0.000    5.000    0.000    0.000 
#    0.000    0.000    0.000    0.000    0.000    0.000 
#
# Total GULP energy -297661.111315 kJ/mol
# GULP energy per Si atom -12402.546305 kJ/mol
# Density = 1.848195 g / cm^3
# Si number density = 18.524113 Si / 1000 Ang^3
#
#
#
# Elastic Constant Matrix: (Units=GPa)
#
#
# Indices 1 2 3 4 5 6 
#
# 1 192.7986 58.3151 97.7281 0.0000 0.0000 0.0000
# 2 58.3151 50.4777 42.4936 0.0000 0.0000 0.0000
# 3 97.7281 42.4936 107.3158 0.0000 0.0000 0.0000
# 4 0.0000 0.0000 0.0000 27.5112 0.0000 0.0000
# 5 0.0000 0.0000 0.0000 0.0000 4.9821 0.0000
# 6 0.0000 0.0000 0.0000 0.0000 0.0000 10.3187
#
#
#
# Elastic Compliance Matrix: (Units=1/GPa)
#
#
# Indices 1 2 3 4 5 6 
#
# 1 0.010827 -0.006312 -0.007360 0.000000 0.000000 0.000000
# 2 -0.006312 0.033396 -0.007476 0.000000 0.000000 0.000000
# 3 -0.007360 -0.007476 0.018981 0.000000 0.000000 0.000000
# 4 0.000000 0.000000 0.000000 0.036349 0.000000 0.000000
# 5 0.000000 0.000000 0.000000 0.000000 0.200717 0.000000
# 6 0.000000 0.000000 0.000000 0.000000 0.000000 0.096911
#
#
# Mechanical properties :
#
#
# Convention : Reuss Voigt Hill
#
# Bulk Modulus (GPa) = 47.82834 83.07396 65.45115
# Shear Modulus (GPa) = 11.19958 18.69943 14.94950
#
# Velocity S-wave (km/s) = 2.46152 3.18065 2.84391
# Velocity P-wave (km/s) = 5.82703 7.64411 6.79657
#
# Compressibility (1/GPa) = 0.02090810
#
# Stress axis : x y z
#
# Youngs Moduli (GPa) = 92.36488 29.94394 52.68385
#
# Poissons Ratio (x) = 0.18899 0.38776
# Poissons Ratio (y) = 0.58297 0.39386
# Poissons Ratio (z) = 0.67982 0.22386
#
# Static dielectric constant tensor:
#      x y z
#    x 3.690570 0.000000 0.000000 
#    y 0.000000 3.270400 0.000000 
#    z 0.000000 0.000000 3.395750 
# 
# 
# High freq. dielectric constant tensor:
#      x y z
#    x 1.735340 0.000000 0.000000 
#    y 0.000000 1.705800 0.000000 
#    z 0.000000 0.000000 1.714620 
# 
# From -- ./inp_files/18268.got.cif
#   From: 2010.03.12/outbox.cif.g09.slc.cpg/sg38_10_cif.got.tgz:18268.got - 2010.04.14 02:38:36.
