data_PCOD8179526
_publ_section_title
;
Structure prediction by ZEFSAII (Michael W. Deem and Ramdas Pophale) SiO2 
 PCOD8179526
Probable space group: A M M 2
;
_chemical_formula_sum "Si O2"
_cell_formula_units_Z 64
_cell_length_a 23.534876
_cell_length_b 8.625437
_cell_length_c 15.403405
_cell_angle_alpha 90.000000
_cell_angle_beta 90.000000
_cell_angle_gamma 90.000000
_cell_volume 3126.869500
_symmetry_space_group_name_H-M "A M M 2"
_symmetry_group_IT_number 38
_symmetry_cell_setting 'orthorhombic'
loop_
_space_group_symop_operation_xyz
x,y,z
-x,-y,z
-x,y,z
x,-y,z
x,1/2+y,1/2+z
-x,1/2-y,1/2+z
-x,1/2+y,1/2+z
x,1/2-y,1/2+z
loop_
_atom_site_type_symbol
_atom_site_label
_atom_site_fract_x
_atom_site_fract_y
_atom_site_fract_z
Si Si1 0.180262 0.678431 0.104150
Si Si2 0.638935 0.818462 0.764479
Si Si3 0.937200 0.323657 0.182063
Si Si4 0.761464 0.819848 0.267274
Si Si5 0.562834 0.316490 0.107180
Si Si6 0.173040 0.820841 0.926821
Si Si7 0.566759 0.321666 0.912452
Si Si8 0.935978 0.321489 0.864118
O O1 0.196147 0.500000 0.119256
O O2 0.112286 0.708610 0.112485
O O3 0.215189 0.778709 0.172638
O O4 0.199331 0.728193 0.008071
O O5 0.695720 0.720891 0.774128
O O6 0.606765 0.754075 0.678830
O O7 0.600006 0.791145 0.848249
O O8 0.653136 0.000000 0.756567
O O9 0.932220 0.500000 0.217110
O O10 0.928138 0.208571 0.262030
O O11 0.000000 0.297030 0.139912
O O12 0.795863 0.724773 0.338703
O O13 0.770531 0.000000 0.285667
O O14 0.500000 0.245766 0.125124
O O15 0.558268 0.500000 0.114131
O O16 0.583527 0.271286 0.010511
O O17 0.106183 0.784521 0.919320
O O18 0.182174 0.000000 0.945306
O O19 0.500000 0.298491 0.897880
O O20 0.583986 0.500000 0.895306
O O21 0.920997 0.500000 0.882366
O O22 0.000000 0.281758 0.893401
#
# Coordination Sequence:
#
# PCOD8179526 Si02
#       8
#     8   8   8   8   8   8   8   8
#     4  11  23  41  65  92 122 159 200 248 307 372
#     4  11  22  37  60  88 119 156 202 252 302 361
#     4   9  18  34  59  89 121 156 193 239 297 362
#     4  12  26  45  64  85 119 161 208 261 311 363
#     4   8  16  33  58  87 120 158 195 233 285 351
#     4  12  25  42  64  90 120 159 205 254 307 366
#     4   9  18  35  59  88 123 161 200 242 293 355
#     4  10  20  35  59  90 123 158 197 244 302 365
#
# _framework density 20.467753999999999
#
# number of rings (size 3 to 8) (size 9 to 14) (size 15 to 20)
#    0.000    1.750    1.250    4.500    0.000    3.500 
#    0.000    6.250    0.000    1.500    0.000    0.000 
#    0.000    0.000    0.000    0.000    0.000    0.000 
#
# Total GULP energy -396864.274840 kJ/mol
# GULP energy per Si atom -12402.008589 kJ/mol
# Density = 2.042117 g / cm^3
# Si number density = 20.467754 Si / 1000 Ang^3
#
#
#
# Elastic Constant Matrix: (Units=GPa)
#
#
# Indices 1 2 3 4 5 6 
#
# 1 87.0389 23.7769 39.5705 0.0000 0.0000 0.0000
# 2 23.7769 62.6469 12.4281 0.0000 0.0000 0.0000
# 3 39.5705 12.4281 103.6065 0.0000 0.0000 0.0000
# 4 0.0000 0.0000 0.0000 32.1878 0.0000 0.0000
# 5 0.0000 0.0000 0.0000 0.0000 7.6616 0.0000
# 6 0.0000 0.0000 0.0000 0.0000 0.0000 29.9222
#
#
#
# Elastic Compliance Matrix: (Units=1/GPa)
#
#
# Indices 1 2 3 4 5 6 
#
# 1 0.015151 -0.004714 -0.005221 0.000000 0.000000 0.000000
# 2 -0.004714 0.017819 -0.000337 0.000000 0.000000 0.000000
# 3 -0.005221 -0.000337 0.011686 0.000000 0.000000 0.000000
# 4 0.000000 0.000000 0.000000 0.031068 0.000000 0.000000
# 5 0.000000 0.000000 0.000000 0.000000 0.130520 0.000000
# 6 0.000000 0.000000 0.000000 0.000000 0.000000 0.033420
#
#
# Mechanical properties :
#
#
# Convention : Reuss Voigt Hill
#
# Bulk Modulus (GPa) = 41.47475 44.98259 43.22867
# Shear Modulus (GPa) = 18.63968 25.78879 22.21424
#
# Velocity S-wave (km/s) = 3.02103 3.55346 3.29801
# Velocity P-wave (km/s) = 5.69880 6.23387 5.97233
#
# Compressibility (1/GPa) = 0.02411105
#
# Stress axis : x y z
#
# Youngs Moduli (GPa) = 66.00399 56.12100 85.56999
#
# Poissons Ratio (x) = 0.26458 0.44676
# Poissons Ratio (y) = 0.31118 0.02882
# Poissons Ratio (z) = 0.34460 0.01890
#
# Static dielectric constant tensor:
#      x y z
#    x 3.897180 0.000000 0.000000 
#    y 0.000000 3.540370 0.000000 
#    z 0.000000 0.000000 3.686410 
# 
# 
# High freq. dielectric constant tensor:
#      x y z
#    x 1.800210 0.000000 0.000000 
#    y 0.000000 1.789090 0.000000 
#    z 0.000000 0.000000 1.799890 
# 
# From -- ./inp_files/15870.got.cif
#   From: 2010.03.12/outbox.cif.g09.slc.cpg/sg38_8_cif.got.tgz:15870.got - 2010.04.14 02:38:36.
