data_PCOD8179989
_publ_section_title
;
Structure prediction by ZEFSAII (Michael W. Deem and Ramdas Pophale) SiO2 
 PCOD8179989
Probable space group: A M M 2
;
_chemical_formula_sum "Si O2"
_cell_formula_units_Z 48
_cell_length_a 26.348145
_cell_length_b 9.138831
_cell_length_c 10.054762
_cell_angle_alpha 90.000000
_cell_angle_beta 90.000000
_cell_angle_gamma 90.000000
_cell_volume 2421.098653
_symmetry_space_group_name_H-M "A M M 2"
_symmetry_group_IT_number 38
_symmetry_cell_setting 'orthorhombic'
loop_
_space_group_symop_operation_xyz
x,y,z
-x,-y,z
-x,y,z
x,-y,z
x,1/2+y,1/2+z
-x,1/2-y,1/2+z
-x,1/2+y,1/2+z
x,1/2-y,1/2+z
loop_
_atom_site_type_symbol
_atom_site_label
_atom_site_fract_x
_atom_site_fract_y
_atom_site_fract_z
Si Si1 0.611184 0.827690 0.276560
Si Si2 0.274356 0.330213 0.739393
Si Si3 0.114606 0.169825 0.474841
Si Si4 0.217775 0.329851 0.470483
Si Si5 0.558149 0.830654 0.543245
Si Si6 0.058335 0.668644 0.244223
O O1 0.668365 0.771741 0.253837
O O2 0.593444 0.777858 0.422211
O O3 0.572857 0.758355 0.172658
O O4 0.607386 0.000000 0.258511
O O5 0.269998 0.500000 0.779999
O O6 0.258214 0.304212 0.587498
O O7 0.238205 0.237979 0.834500
O O8 0.165840 0.253095 0.512984
O O9 0.091751 0.230640 0.338739
O O10 0.074653 0.195483 0.592571
O O11 0.127169 0.000000 0.453877
O O12 0.207130 0.500000 0.445922
O O13 0.500000 0.798525 0.505740
O O14 0.567170 0.000000 0.574296
O O15 0.066514 0.500000 0.284843
O O16 0.000000 0.715536 0.257231
#
# Coordination Sequence:
#
# PCOD8179989 Si02
#       6
#     8   8   8   8   8   8
#     4  10  21  38  59  83 113 148 187 233 283 335
#     4  10  22  39  59  85 114 146 188 235 283 337
#     4  11  23  39  60  86 116 151 191 233 280 335
#     4  11  23  38  58  85 115 149 190 233 281 337
#     4  10  21  36  55  82 114 148 188 231 277 333
#     4  10  22  40  61  87 118 151 190 235 282 334
#
# _framework density 19.825709
#
# number of rings (size 3 to 8) (size 9 to 14) (size 15 to 20)
#    0.000    1.667    0.000    4.000    0.000    8.667 
#    0.000    0.000    0.000    0.000    0.000    0.000 
#    0.000    0.000    0.000    0.000    0.000    0.000 
#
# Total GULP energy -297767.462321 kJ/mol
# GULP energy per Si atom -12406.977597 kJ/mol
# Density = 1.978058 g / cm^3
# Si number density = 19.825709 Si / 1000 Ang^3
#
#
#
# Elastic Constant Matrix: (Units=GPa)
#
#
# Indices 1 2 3 4 5 6 
#
# 1 87.0568 29.7441 13.0513 0.0000 0.0000 0.0000
# 2 29.7441 72.8347 37.0986 0.0000 0.0000 0.0000
# 3 13.0513 37.0986 81.3222 0.0000 0.0000 0.0000
# 4 0.0000 0.0000 0.0000 28.6662 0.0000 0.0000
# 5 0.0000 0.0000 0.0000 0.0000 41.5952 0.0000
# 6 0.0000 0.0000 0.0000 0.0000 0.0000 32.1400
#
#
#
# Elastic Compliance Matrix: (Units=1/GPa)
#
#
# Indices 1 2 3 4 5 6 
#
# 1 0.013362 -0.005686 0.000449 0.000000 0.000000 0.000000
# 2 -0.005686 0.020305 -0.008350 0.000000 0.000000 0.000000
# 3 0.000449 -0.008350 0.016034 0.000000 0.000000 0.000000
# 4 0.000000 0.000000 0.000000 0.034884 0.000000 0.000000
# 5 0.000000 0.000000 0.000000 0.000000 0.024041 0.000000
# 6 0.000000 0.000000 0.000000 0.000000 0.000000 0.031114
#
#
# Mechanical properties :
#
#
# Convention : Reuss Voigt Hill
#
# Bulk Modulus (GPa) = 44.39036 44.55572 44.47304
# Shear Modulus (GPa) = 28.66593 31.23494 29.95044
#
# Velocity S-wave (km/s) = 3.80662 3.97353 3.89097
# Velocity P-wave (km/s) = 6.46215 6.60109 6.53199
#
# Compressibility (1/GPa) = 0.02252741
#
# Stress axis : x y z
#
# Youngs Moduli (GPa) = 74.83939 49.24909 62.36709
#
# Poissons Ratio (x) = 0.28001 -0.02802
# Poissons Ratio (y) = 0.42550 0.52080
# Poissons Ratio (z) = -0.03362 0.41125
#
# Static dielectric constant tensor:
#      x y z
#    x 3.841880 0.000000 0.000000 
#    y 0.000000 3.611990 0.000000 
#    z 0.000000 0.000000 3.531900 
# 
# 
# High freq. dielectric constant tensor:
#      x y z
#    x 1.788520 0.000000 0.000000 
#    y 0.000000 1.770880 0.000000 
#    z 0.000000 0.000000 1.781610 
# 
# From -- ./inp_files/7029.got.cif
#   From: 2010.03.12/outbox.cif.g09.slc.cpg/sg38_4_cif.got.tgz:7029.got - 2010.04.14 02:38:36.
