data_PCOD8179469
_publ_section_title
;
Structure prediction by ZEFSAII (Michael W. Deem and Ramdas Pophale) SiO2 
 PCOD8179469
Probable space group: A M M 2
;
_chemical_formula_sum "Si O2"
_cell_formula_units_Z 64
_cell_length_a 15.442036
_cell_length_b 8.924804
_cell_length_c 24.027669
_cell_angle_alpha 90.000000
_cell_angle_beta 90.000000
_cell_angle_gamma 90.000000
_cell_volume 3311.424734
_symmetry_space_group_name_H-M "A M M 2"
_symmetry_group_IT_number 38
_symmetry_cell_setting 'orthorhombic'
loop_
_space_group_symop_operation_xyz
x,y,z
-x,-y,z
-x,y,z
x,-y,z
x,1/2+y,1/2+z
-x,1/2-y,1/2+z
-x,1/2+y,1/2+z
x,1/2-y,1/2+z
loop_
_atom_site_type_symbol
_atom_site_label
_atom_site_fract_x
_atom_site_fract_y
_atom_site_fract_z
Si Si1 0.143622 0.823092 0.684980
Si Si2 0.404563 0.678296 0.299116
Si Si3 0.097581 0.171585 0.297324
Si Si4 0.748441 0.177126 0.995904
Si Si5 0.658460 0.322728 0.181954
Si Si6 0.598258 0.675622 0.063650
Si Si7 0.903788 0.827966 0.073804
Si Si8 0.756903 0.321942 0.369766
O O1 0.098220 0.744084 0.736522
O O2 0.242683 0.770455 0.682447
O O3 0.097531 0.772689 0.628652
O O4 0.134229 0.000000 0.692223
O O5 0.500000 0.732166 0.318882
O O6 0.400135 0.500000 0.297597
O O7 0.387757 0.742580 0.236990
O O8 0.331304 0.739045 0.341086
O O9 0.159782 0.257964 0.339150
O O10 0.000000 0.183927 0.320754
O O11 0.127631 0.000000 0.292877
O O12 0.757981 0.235468 0.933007
O O13 0.740038 0.000000 0.997099
O O14 0.660939 0.243828 0.020683
O O15 0.832897 0.231905 0.029860
O O16 0.650833 0.500000 0.182682
O O17 0.613399 0.260631 0.126053
O O18 0.500000 0.710204 0.045717
O O19 0.618862 0.500000 0.062170
O O20 0.000000 0.813456 0.047246
O O21 0.883838 0.000000 0.089834
O O22 0.761953 0.500000 0.365683
#
# Coordination Sequence:
#
# PCOD8179469 Si02
#       8
#     8   8   8   8   8   8   8   8
#     4  11  20  34  59  87 112 143 186 233 280 334
#     4   9  16  29  53  83 111 138 174 225 279 326
#     4  11  24  40  58  83 116 152 185 225 284 345
#     4  10  22  38  57  81 113 150 190 240 288 330
#     4   9  16  29  52  82 111 139 178 228 277 327
#     4  10  20  35  57  84 114 150 190 233 284 341
#     4  10  21  37  55  78 111 150 187 226 285 350
#     4  10  21  38  59  85 111 145 195 240 277 324
#
# _framework density 19.327027999999999
#
# number of rings (size 3 to 8) (size 9 to 14) (size 15 to 20)
#    0.000    2.000    2.500    1.500    0.000    6.000 
#    0.000    2.500    0.000    0.375    0.000    0.000 
#    0.000    0.000    0.000    0.000    0.000    0.000 
#
# Total GULP energy -396811.887653 kJ/mol
# GULP energy per Si atom -12400.371489 kJ/mol
# Density = 1.928304 g / cm^3
# Si number density = 19.327028 Si / 1000 Ang^3
#
#
#
# Elastic Constant Matrix: (Units=GPa)
#
#
# Indices 1 2 3 4 5 6 
#
# 1 134.0983 20.1071 67.6882 0.0000 0.0000 0.0000
# 2 20.1071 24.0540 25.7115 0.0000 0.0000 0.0000
# 3 67.6882 25.7115 154.2649 0.0000 0.0000 0.0000
# 4 0.0000 0.0000 0.0000 19.0240 0.0000 0.0000
# 5 0.0000 0.0000 0.0000 0.0000 9.3510 0.0000
# 6 0.0000 0.0000 0.0000 0.0000 0.0000 26.4397
#
#
#
# Elastic Compliance Matrix: (Units=1/GPa)
#
#
# Indices 1 2 3 4 5 6 
#
# 1 0.009954 -0.004444 -0.003627 0.000000 0.000000 0.000000
# 2 -0.004444 0.052569 -0.006812 0.000000 0.000000 0.000000
# 3 -0.003627 -0.006812 0.009209 0.000000 0.000000 0.000000
# 4 0.000000 0.000000 0.000000 0.052565 0.000000 0.000000
# 5 0.000000 0.000000 0.000000 0.000000 0.106940 0.000000
# 6 0.000000 0.000000 0.000000 0.000000 0.000000 0.037822
#
#
# Mechanical properties :
#
#
# Convention : Reuss Voigt Hill
#
# Bulk Modulus (GPa) = 23.82832 59.93675 41.88254
# Shear Modulus (GPa) = 15.98389 24.22363 20.10376
#
# Velocity S-wave (km/s) = 2.87892 3.54412 3.22870
# Velocity P-wave (km/s) = 4.83805 6.91570 5.96798
#
# Compressibility (1/GPa) = 0.04196686
#
# Stress axis : x y z
#
# Youngs Moduli (GPa) = 100.45809 19.02258 108.58732
#
# Poissons Ratio (x) = 0.08454 0.39386
# Poissons Ratio (y) = 0.44644 0.73967
# Poissons Ratio (z) = 0.36437 0.12958
#
# Static dielectric constant tensor:
#      x y z
#    x 3.743250 0.000000 0.000000 
#    y 0.000000 3.207560 0.000000 
#    z 0.000000 0.000000 3.647850 
# 
# 
# High freq. dielectric constant tensor:
#      x y z
#    x 1.769190 0.000000 0.000000 
#    y 0.000000 1.718210 0.000000 
#    z 0.000000 0.000000 1.750430 
# 
# From -- ./inp_files/22980.got.cif
#   From: 2010.03.12/outbox.cif.g09.slc.cpg/sg38_12_cif.got.tgz:22980.got - 2010.04.14 02:38:36.
