data_PCOD8179035
_publ_section_title
;
Structure prediction by ZEFSAII (Michael W. Deem and Ramdas Pophale) SiO2 
 PCOD8179035
Probable space group: A M M 2
;
_chemical_formula_sum "Si O2"
_cell_formula_units_Z 40
_cell_length_a 13.442104
_cell_length_b 23.297300
_cell_length_c 6.541687
_cell_angle_alpha 90.000000
_cell_angle_beta 90.000000
_cell_angle_gamma 90.000000
_cell_volume 2048.625640
_symmetry_space_group_name_H-M "A M M 2"
_symmetry_group_IT_number 38
_symmetry_cell_setting 'orthorhombic'
loop_
_space_group_symop_operation_xyz
x,y,z
-x,-y,z
-x,y,z
x,-y,z
x,1/2+y,1/2+z
-x,1/2-y,1/2+z
-x,1/2+y,1/2+z
x,1/2-y,1/2+z
loop_
_atom_site_type_symbol
_atom_site_label
_atom_site_fract_x
_atom_site_fract_y
_atom_site_fract_z
Si Si1 0.286197 0.710542 0.978620
Si Si2 0.615107 0.329306 0.607986
Si Si3 0.224470 0.635147 0.351526
Si Si4 0.886736 0.167607 0.237623
Si Si5 0.113699 0.064573 0.538890
O O1 0.363746 0.670003 0.851305
O O2 0.185190 0.715575 0.839819
O O3 0.340572 0.770335 0.016677
O O4 0.258405 0.683464 0.192913
O O5 0.500000 0.336700 0.557086
O O6 0.678159 0.379422 0.492218
O O7 0.138419 0.660506 0.498778
O O8 0.183342 0.579890 0.232518
O O9 0.866837 0.106668 0.349214
O O10 0.000000 0.188357 0.262972
O O11 0.000000 0.069643 0.613175
O O12 0.139070 0.000000 0.467785
#
# Coordination Sequence:
#
# PCOD8179035 Si02
#       5
#     8   8   8   8   8
#     4  10  20  33  51  76 109 143 186 231 272 324
#     4  11  21  34  55  79 106 143 188 235 278 323
#     4  10  20  34  55  81 114 144 183 230 278 325
#     4   9  19  35  52  75 112 150 184 224 270 328
#     4   9  18  34  58  86 114 146 183 224 272 328
#
# _framework density 19.525285
#
# number of rings (size 3 to 8) (size 9 to 14) (size 15 to 20)
#    0.000    2.200    2.000    1.200    0.000    2.400 
#    0.000    7.000    0.000    0.600    0.000    0.000 
#    0.000    0.000    0.000    0.000    0.000    0.000 
#
# Total GULP energy -247817.942451 kJ/mol
# GULP energy per Si atom -12390.897123 kJ/mol
# Density = 1.948084 g / cm^3
# Si number density = 19.525285 Si / 1000 Ang^3
#
#
#
# Elastic Constant Matrix: (Units=GPa)
#
#
# Indices 1 2 3 4 5 6 
#
# 1 137.5369 25.0825 31.1467 0.0000 0.0000 0.0000
# 2 25.0825 49.0297 17.3866 0.0000 0.0000 0.0000
# 3 31.1467 17.3866 109.8968 0.0000 0.0000 0.0000
# 4 0.0000 0.0000 0.0000 20.5337 0.0000 0.0000
# 5 0.0000 0.0000 0.0000 0.0000 28.1671 0.0000
# 6 0.0000 0.0000 0.0000 0.0000 0.0000 19.7857
#
#
#
# Elastic Compliance Matrix: (Units=1/GPa)
#
#
# Indices 1 2 3 4 5 6 
#
# 1 0.008338 -0.003631 -0.001789 0.000000 0.000000 0.000000
# 2 -0.003631 0.023190 -0.002640 0.000000 0.000000 0.000000
# 3 -0.001789 -0.002640 0.010024 0.000000 0.000000 0.000000
# 4 0.000000 0.000000 0.000000 0.048700 0.000000 0.000000
# 5 0.000000 0.000000 0.000000 0.000000 0.035502 0.000000
# 6 0.000000 0.000000 0.000000 0.000000 0.000000 0.050542
#
#
# Mechanical properties :
#
#
# Convention : Reuss Voigt Hill
#
# Bulk Modulus (GPa) = 39.31981 49.29945 44.30963
# Shear Modulus (GPa) = 24.88893 28.55381 26.72137
#
# Velocity S-wave (km/s) = 3.57417 3.82829 3.70341
# Velocity P-wave (km/s) = 6.10037 6.69663 6.40544
#
# Compressibility (1/GPa) = 0.02543247
#
# Stress axis : x y z
#
# Youngs Moduli (GPa) = 119.93183 43.12295 99.76065
#
# Poissons Ratio (x) = 0.15659 0.17844
# Poissons Ratio (y) = 0.43551 0.26333
# Poissons Ratio (z) = 0.21452 0.11383
#
# Static dielectric constant tensor:
#      x y z
#    x 3.684170 0.000000 0.000000 
#    y 0.000000 3.274050 0.000000 
#    z 0.000000 0.000000 4.032350 
# 
# 
# High freq. dielectric constant tensor:
#      x y z
#    x 1.757600 0.000000 0.000000 
#    y 0.000000 1.708170 0.000000 
#    z 0.000000 0.000000 1.783970 
# 
# From -- ./inp_files/898.got.cif
#   From: 2010.03.12/outbox.cif.g09.slc.cpg/sg38_1_cif.got.tgz:898.got - 2010.04.14 02:38:36.
