data_PCOD8179735
_publ_section_title
;
Structure prediction by ZEFSAII (Michael W. Deem and Ramdas Pophale) SiO2 
 PCOD8179735
Probable space group: A M M 2
;
_chemical_formula_sum "Si O2"
_cell_formula_units_Z 48
_cell_length_a 10.098867
_cell_length_b 8.486227
_cell_length_c 27.484782
_cell_angle_alpha 90.000000
_cell_angle_beta 90.000000
_cell_angle_gamma 90.000000
_cell_volume 2355.480938
_symmetry_space_group_name_H-M "A M M 2"
_symmetry_group_IT_number 38
_symmetry_cell_setting 'orthorhombic'
loop_
_space_group_symop_operation_xyz
x,y,z
-x,-y,z
-x,y,z
x,-y,z
x,1/2+y,1/2+z
-x,1/2-y,1/2+z
-x,1/2+y,1/2+z
x,1/2-y,1/2+z
loop_
_atom_site_type_symbol
_atom_site_label
_atom_site_fract_x
_atom_site_fract_y
_atom_site_fract_z
Si Si1 0.651372 0.817472 0.147730
Si Si2 0.500000 0.682322 0.815722
Si Si3 0.000000 0.685282 0.894039
Si Si4 0.500000 0.184734 0.921349
Si Si5 0.000000 0.313540 0.781694
Si Si6 0.852042 0.313027 0.565955
Si Si7 0.275563 0.316494 0.249418
Si Si8 0.226054 0.812498 0.960405
O O1 0.500000 0.798053 0.130170
O O2 0.746723 0.751098 0.105329
O O3 0.676481 0.712840 0.194820
O O4 0.682752 0.000000 0.159787
O O5 0.500000 0.500000 0.829514
O O6 0.500000 0.781885 0.864485
O O7 0.368352 0.719919 0.785730
O O8 0.129880 0.754922 0.918339
O O9 0.000000 0.500000 0.900021
O O10 0.000000 0.736670 0.837915
O O11 0.629248 0.255769 0.947608
O O12 0.500000 0.000000 0.929058
O O13 0.126182 0.241199 0.754918
O O14 0.000000 0.500000 0.774834
O O15 0.844829 0.500000 0.563488
O O16 0.816675 0.243964 0.512814
O O17 0.000000 0.256867 0.580496
O O18 0.288215 0.500000 0.261692
O O19 0.222862 0.000000 0.960904
#
# Coordination Sequence:
#
# PCOD8179735 Si02
#       8
#     8   4   4   4   4   8   8   8
#     4  10  21  37  61  90 121 160 204 249 302 364
#     4  12  24  42  65  88 121 167 212 253 305 372
#     4  11  23  39  60  87 118 157 204 251 298 355
#     4  10  22  36  59  94 125 157 200 253 305 358
#     4  11  25  43  64  91 124 165 210 251 300 371
#     4   9  18  34  59  90 119 156 203 248 295 357
#     4  12  25  42  64  92 126 160 202 259 314 365
#     4  10  20  37  61  89 124 161 199 247 301 356
#
# _framework density 20.378003
#
# number of rings (size 3 to 8) (size 9 to 14) (size 15 to 20)
#    0.000    1.500    1.667    3.750    2.333    4.667 
#    0.000    0.833    0.000    0.000    0.000    0.000 
#    0.000    0.000    0.000    0.000    0.000    0.000 
#
# Total GULP energy -297695.281548 kJ/mol
# GULP energy per Si atom -12403.970065 kJ/mol
# Density = 2.033162 g / cm^3
# Si number density = 20.378003 Si / 1000 Ang^3
#
#
#
# Elastic Constant Matrix: (Units=GPa)
#
#
# Indices 1 2 3 4 5 6 
#
# 1 172.0922 15.7236 50.1369 0.0000 0.0000 0.0000
# 2 15.7236 33.0012 3.8429 0.0000 0.0000 0.0000
# 3 50.1369 3.8429 101.6905 0.0000 0.0000 0.0000
# 4 0.0000 0.0000 0.0000 26.9224 0.0000 0.0000
# 5 0.0000 0.0000 0.0000 0.0000 56.7770 0.0000
# 6 0.0000 0.0000 0.0000 0.0000 0.0000 37.7921
#
#
#
# Elastic Compliance Matrix: (Units=1/GPa)
#
#
# Indices 1 2 3 4 5 6 
#
# 1 0.007065 -0.002973 -0.003371 0.000000 0.000000 0.000000
# 2 -0.002973 0.031687 0.000269 0.000000 0.000000 0.000000
# 3 -0.003371 0.000269 0.011485 0.000000 0.000000 0.000000
# 4 0.000000 0.000000 0.000000 0.037144 0.000000 0.000000
# 5 0.000000 0.000000 0.000000 0.000000 0.017613 0.000000
# 6 0.000000 0.000000 0.000000 0.000000 0.000000 0.026461
#
#
# Mechanical properties :
#
#
# Convention : Reuss Voigt Hill
#
# Bulk Modulus (GPa) = 26.25626 49.57675 37.91650
# Shear Modulus (GPa) = 31.98955 40.10366 36.04660
#
# Velocity S-wave (km/s) = 3.96638 4.44101 4.21039
# Velocity P-wave (km/s) = 5.82141 7.11886 6.50258
#
# Compressibility (1/GPa) = 0.03808616
#
# Stress axis : x y z
#
# Youngs Moduli (GPa) = 141.55259 31.55835 87.06652
#
# Poissons Ratio (x) = 0.09384 0.29347
# Poissons Ratio (y) = 0.42089 -0.02338
# Poissons Ratio (z) = 0.47713 -0.00847
#
# Static dielectric constant tensor:
#      x y z
#    x 4.045700 0.000000 0.000000 
#    y 0.000000 3.429210 0.000000 
#    z 0.000000 0.000000 3.826910 
# 
# 
# High freq. dielectric constant tensor:
#      x y z
#    x 1.818180 0.000000 0.000000 
#    y 0.000000 1.770340 0.000000 
#    z 0.000000 0.000000 1.803380 
# 
# From -- ./inp_files/24479.got.cif
#   From: 2010.03.12/outbox.cif.g09.slc.cpg/sg38_13_cif.got.tgz:24479.got - 2010.04.14 02:38:36.
