data_PCOD8179317
_publ_section_title
;
Structure prediction by ZEFSAII (Michael W. Deem and Ramdas Pophale) SiO2 
 PCOD8179317
Probable space group: A M M 2
;
_chemical_formula_sum "Si O2"
_cell_formula_units_Z 64
_cell_length_a 23.808869
_cell_length_b 8.942340
_cell_length_c 15.496496
_cell_angle_alpha 90.000000
_cell_angle_beta 90.000000
_cell_angle_gamma 90.000000
_cell_volume 3299.312499
_symmetry_space_group_name_H-M "A M M 2"
_symmetry_group_IT_number 38
_symmetry_cell_setting 'orthorhombic'
loop_
_space_group_symop_operation_xyz
x,y,z
-x,-y,z
-x,y,z
x,-y,z
x,1/2+y,1/2+z
-x,1/2-y,1/2+z
-x,1/2+y,1/2+z
x,1/2-y,1/2+z
loop_
_atom_site_type_symbol
_atom_site_label
_atom_site_fract_x
_atom_site_fract_y
_atom_site_fract_z
Si Si1 0.238858 0.177023 0.563970
Si Si2 0.437639 0.677696 0.898452
Si Si3 0.937073 0.671905 0.475396
Si Si4 0.434434 0.173172 0.205119
Si Si5 0.836357 0.672002 0.904915
Si Si6 0.170213 0.671483 0.713380
Si Si7 0.365388 0.822450 0.556478
Si Si8 0.063421 0.174675 0.656115
O O1 0.206301 0.230582 0.478192
O O2 0.210086 0.238516 0.649732
O O3 0.302056 0.240044 0.558666
O O4 0.238799 0.000000 0.570406
O O5 0.500000 0.741234 0.918046
O O6 0.439813 0.500000 0.902343
O O7 0.418526 0.725267 0.802291
O O8 0.395112 0.742401 0.970159
O O9 0.925778 0.500000 0.500574
O O10 0.892611 0.727380 0.404779
O O11 0.927912 0.775534 0.558029
O O12 0.000000 0.690863 0.437819
O O13 0.500000 0.202058 0.187661
O O14 0.398036 0.271530 0.141011
O O15 0.419478 0.000000 0.191194
O O16 0.853067 0.500000 0.921423
O O17 0.807118 0.689332 0.811295
O O18 0.169662 0.500000 0.683840
O O19 0.106698 0.733780 0.714339
O O20 0.365711 0.000000 0.554020
O O21 0.000000 0.209633 0.687314
O O22 0.077192 0.000000 0.662659
#
# Coordination Sequence:
#
# PCOD8179317 Si02
#       8
#     8   8   8   8   8   8   8   8
#     4  10  22  40  57  77 109 147 186 231 282 331
#     4   8  15  30  53  80 110 145 182 218 263 325
#     4  10  20  34  56  86 115 142 178 225 275 332
#     4   9  18  33  54  82 115 147 179 220 273 329
#     4  10  22  39  58  80 109 146 186 229 281 336
#     4  11  23  38  59  85 109 141 188 235 278 331
#     4  10  20  34  56  82 107 142 189 232 271 320
#     4  10  20  35  57  83 113 148 180 218 277 338
#
# _framework density 19.397981999999999
#
# number of rings (size 3 to 8) (size 9 to 14) (size 15 to 20)
#    0.000    2.250    1.250    2.250    0.000    5.250 
#    0.000    5.625    0.000    0.750    0.000    0.000 
#    0.000    0.000    0.000    0.000    0.000    0.000 
#
# Total GULP energy -396783.694166 kJ/mol
# GULP energy per Si atom -12399.490443 kJ/mol
# Density = 1.935383 g / cm^3
# Si number density = 19.397982 Si / 1000 Ang^3
#
#
#
# Elastic Constant Matrix: (Units=GPa)
#
#
# Indices 1 2 3 4 5 6 
#
# 1 119.4896 23.5634 67.1538 0.0000 0.0000 0.0000
# 2 23.5634 24.7105 18.0750 0.0000 0.0000 0.0000
# 3 67.1538 18.0750 124.8632 0.0000 0.0000 0.0000
# 4 0.0000 0.0000 0.0000 29.1284 0.0000 0.0000
# 5 0.0000 0.0000 0.0000 0.0000 13.3947 0.0000
# 6 0.0000 0.0000 0.0000 0.0000 0.0000 23.5196
#
#
#
# Elastic Compliance Matrix: (Units=1/GPa)
#
#
# Indices 1 2 3 4 5 6 
#
# 1 0.013387 -0.008387 -0.005986 0.000000 0.000000 0.000000
# 2 -0.008387 0.050516 -0.002802 0.000000 0.000000 0.000000
# 3 -0.005986 -0.002802 0.011634 0.000000 0.000000 0.000000
# 4 0.000000 0.000000 0.000000 0.034331 0.000000 0.000000
# 5 0.000000 0.000000 0.000000 0.000000 0.074657 0.000000
# 6 0.000000 0.000000 0.000000 0.000000 0.000000 0.042518
#
#
# Mechanical properties :
#
#
# Convention : Reuss Voigt Hill
#
# Bulk Modulus (GPa) = 24.27947 54.07199 39.17573
# Shear Modulus (GPa) = 18.17394 23.89327 21.03361
#
# Velocity S-wave (km/s) = 3.06420 3.51342 3.29647
# Velocity P-wave (km/s) = 5.00627 6.66291 5.89310
#
# Compressibility (1/GPa) = 0.04118707
#
# Stress axis : x y z
#
# Youngs Moduli (GPa) = 74.70050 19.79579 85.95860
#
# Poissons Ratio (x) = 0.16603 0.51451
# Poissons Ratio (y) = 0.62652 0.24084
# Poissons Ratio (z) = 0.44713 0.05547
#
# Static dielectric constant tensor:
#      x y z
#    x 3.768000 0.000000 0.000000 
#    y 0.000000 3.330270 0.000000 
#    z 0.000000 0.000000 3.555620 
# 
# 
# High freq. dielectric constant tensor:
#      x y z
#    x 1.752540 0.000000 0.000000 
#    y 0.000000 1.737540 0.000000 
#    z 0.000000 0.000000 1.758800 
# 
# From -- ./inp_files/15824.got.cif
#   From: 2010.03.12/outbox.cif.g09.slc.cpg/sg38_8_cif.got.tgz:15824.got - 2010.04.14 02:38:36.
