data_PCOD8179360
_publ_section_title
;
Structure prediction by ZEFSAII (Michael W. Deem and Ramdas Pophale) SiO2 
 PCOD8179360
Probable space group: A M M 2
;
_chemical_formula_sum "Si O2"
_cell_formula_units_Z 48
_cell_length_a 7.854795
_cell_length_b 9.755884
_cell_length_c 33.805915
_cell_angle_alpha 90.000000
_cell_angle_beta 90.000000
_cell_angle_gamma 90.000000
_cell_volume 2590.563117
_symmetry_space_group_name_H-M "A M M 2"
_symmetry_group_IT_number 38
_symmetry_cell_setting 'orthorhombic'
loop_
_space_group_symop_operation_xyz
x,y,z
-x,-y,z
-x,y,z
x,-y,z
x,1/2+y,1/2+z
-x,1/2-y,1/2+z
-x,1/2+y,1/2+z
x,1/2-y,1/2+z
loop_
_atom_site_type_symbol
_atom_site_label
_atom_site_fract_x
_atom_site_fract_y
_atom_site_fract_z
Si Si1 0.696816 0.648232 0.939950
Si Si2 0.500000 0.339764 0.228227
Si Si3 0.189113 0.337189 0.595554
Si Si4 0.696311 0.160433 0.353287
Si Si5 0.800862 0.652275 0.507967
Si Si6 0.810010 0.655858 0.284378
Si Si7 0.500000 0.836447 0.149840
O O1 0.500000 0.625725 0.931874
O O2 0.777169 0.500000 0.951953
O O3 0.769447 0.696285 0.897274
O O4 0.719793 0.755399 0.974546
O O5 0.500000 0.500000 0.216149
O O6 0.330470 0.299809 0.252315
O O7 0.500000 0.243236 0.190457
O O8 0.182966 0.500000 0.593425
O O9 0.238322 0.284973 0.551450
O O10 0.331648 0.287605 0.626228
O O11 0.000000 0.282549 0.607865
O O12 0.500000 0.203609 0.348509
O O13 0.804532 0.247786 0.322489
O O14 0.721580 0.000000 0.344374
O O15 0.721860 0.500000 0.504178
O O16 0.000000 0.645958 0.500854
O O17 0.773569 0.500000 0.297844
O O18 0.000000 0.669198 0.265760
O O19 0.500000 0.000000 0.156801
#
# Coordination Sequence:
#
# PCOD8179360 Si02
#       7
#     8   4   8   8   8   8   4
#     4   9  19  33  48  72 106 142 177 215 259 306
#     4  10  22  40  56  77 112 139 161 210 269 314
#     4   8  16  32  52  77 108 135 168 218 263 301
#     4   9  18  34  54  75 105 142 179 221 265 308
#     4   9  18  32  50  73 102 137 177 220 260 301
#     4  10  21  37  58  81 105 139 178 213 258 316
#     4  10  20  34  58  83 100 133 175 208 257 318
#
# _framework density 18.528790000000001
#
# number of rings (size 3 to 8) (size 9 to 14) (size 15 to 20)
#    0.000    2.833    0.833    2.000    1.167    3.667 
#    0.000    5.833    0.000    1.000    0.000    0.000 
#    0.000    0.000    0.000    0.000    0.000    0.000 
#
# Total GULP energy -297449.371007 kJ/mol
# GULP energy per Si atom -12393.723792 kJ/mol
# Density = 1.848662 g / cm^3
# Si number density = 18.528790 Si / 1000 Ang^3
#
#
#
# Elastic Constant Matrix: (Units=GPa)
#
#
# Indices 1 2 3 4 5 6 
#
# 1 99.9484 33.2647 65.7287 0.0000 0.0000 0.0000
# 2 33.2647 59.7993 59.5396 0.0000 0.0000 0.0000
# 3 65.7287 59.5396 140.4977 0.0000 0.0000 0.0000
# 4 0.0000 0.0000 0.0000 28.2897 0.0000 0.0000
# 5 0.0000 0.0000 0.0000 0.0000 12.7310 0.0000
# 6 0.0000 0.0000 0.0000 0.0000 0.0000 14.5608
#
#
#
# Elastic Compliance Matrix: (Units=1/GPa)
#
#
# Indices 1 2 3 4 5 6 
#
# 1 0.014630 -0.002290 -0.005874 0.000000 0.000000 0.000000
# 2 -0.002290 0.029287 -0.011340 0.000000 0.000000 0.000000
# 3 -0.005874 -0.011340 0.014671 0.000000 0.000000 0.000000
# 4 0.000000 0.000000 0.000000 0.035349 0.000000 0.000000
# 5 0.000000 0.000000 0.000000 0.000000 0.078549 0.000000
# 6 0.000000 0.000000 0.000000 0.000000 0.000000 0.068677
#
#
# Mechanical properties :
#
#
# Convention : Reuss Voigt Hill
#
# Bulk Modulus (GPa) = 51.07033 68.59016 59.83024
# Shear Modulus (GPa) = 17.43999 20.56380 19.00190
#
# Velocity S-wave (km/s) = 3.07129 3.33502 3.20587
# Velocity P-wave (km/s) = 6.34032 7.20613 6.78705
#
# Compressibility (1/GPa) = 0.01958084
#
# Stress axis : x y z
#
# Youngs Moduli (GPa) = 68.35193 34.14477 68.16086
#
# Poissons Ratio (x) = 0.07819 0.40038
# Poissons Ratio (y) = 0.15652 0.77294
# Poissons Ratio (z) = 0.40150 0.38720
#
# Static dielectric constant tensor:
#      x y z
#    x 3.566390 0.000000 0.000000 
#    y 0.000000 4.981550 0.000000 
#    z 0.000000 0.000000 3.395170 
# 
# 
# High freq. dielectric constant tensor:
#      x y z
#    x 1.722870 0.000000 0.000000 
#    y 0.000000 1.695110 0.000000 
#    z 0.000000 0.000000 1.713580 
# 
# From -- ./inp_files/24342.got.cif
#   From: 2010.03.12/outbox.cif.g09.slc.cpg/sg38_13_cif.got.tgz:24342.got - 2010.04.14 02:38:36.
