data_PCOD8179544
_publ_section_title
;
Structure prediction by ZEFSAII (Michael W. Deem and Ramdas Pophale) SiO2 
 PCOD8179544
Probable space group: A M M 2
;
_chemical_formula_sum "Si O2"
_cell_formula_units_Z 56
_cell_length_a 18.417080
_cell_length_b 7.861088
_cell_length_c 20.331815
_cell_angle_alpha 90.000000
_cell_angle_beta 90.000000
_cell_angle_gamma 90.000000
_cell_volume 2943.605339
_symmetry_space_group_name_H-M "A M M 2"
_symmetry_group_IT_number 38
_symmetry_cell_setting 'orthorhombic'
loop_
_space_group_symop_operation_xyz
x,y,z
-x,-y,z
-x,y,z
x,-y,z
x,1/2+y,1/2+z
-x,1/2-y,1/2+z
-x,1/2+y,1/2+z
x,1/2-y,1/2+z
loop_
_atom_site_type_symbol
_atom_site_label
_atom_site_fract_x
_atom_site_fract_y
_atom_site_fract_z
Si Si1 0.162983 0.190109 0.340190
Si Si2 0.681270 0.693084 0.047276
Si Si3 0.419152 0.000000 0.892613
Si Si4 0.080293 0.193984 0.717134
Si Si5 0.419076 0.500000 0.548470
Si Si6 0.160175 0.801657 0.589606
Si Si7 0.918254 0.307257 0.462660
Si Si8 0.317072 0.803799 0.393236
O O1 0.124019 0.301677 0.285204
O O2 0.119551 0.191259 0.408345
O O3 0.245161 0.250659 0.353471
O O4 0.163371 0.000000 0.312672
O O5 0.652905 0.500000 0.059570
O O6 0.621457 0.828184 0.072081
O O7 0.753551 0.730063 0.089061
O O8 0.699369 0.719256 0.970432
O O9 0.379161 0.826876 0.869241
O O10 0.500000 0.000000 0.861920
O O11 0.423844 0.000000 0.970532
O O12 0.127687 0.273539 0.657736
O O13 0.000000 0.281425 0.723047
O O14 0.068026 0.000000 0.698921
O O15 0.500000 0.500000 0.579062
O O16 0.123109 0.699302 0.531286
O O17 0.143538 0.000000 0.579379
O O18 0.916780 0.500000 0.436539
O O19 0.000000 0.241625 0.473088
O O20 0.339906 0.000000 0.378498
#
# Coordination Sequence:
#
# PCOD8179544 Si02
#       8
#     8   8   4   8   4   8   8   8
#     4  11  22  36  54  76 105 144 186 229 279 330
#     4   9  17  31  52  78 107 141 181 224 268 326
#     4   9  18  30  50  80 112 148 174 207 278 337
#     4  10  22  38  54  75 108 145 185 235 285 330
#     4   9  18  30  48  80 116 146 172 211 276 333
#     4  10  20  36  56  77 105 143 185 229 279 331
#     4  11  23  34  51  79 105 138 183 229 279 330
#     4   9  18  31  50  79 109 139 180 227 267 323
#
# _framework density 19.024289
#
# number of rings (size 3 to 8) (size 9 to 14) (size 15 to 20)
#    0.000    2.143    1.429    1.714    3.000    4.857 
#    0.000    2.857    0.000    0.000    0.000    1.000 
#    0.000    0.000    0.000    0.000    0.000    0.000 
#
# Total GULP energy -347149.159066 kJ/mol
# GULP energy per Si atom -12398.184252 kJ/mol
# Density = 1.898099 g / cm^3
# Si number density = 19.024289 Si / 1000 Ang^3
#
#
#
# Elastic Constant Matrix: (Units=GPa)
#
#
# Indices 1 2 3 4 5 6 
#
# 1 159.7874 68.1306 46.6352 0.0000 0.0000 0.0000
# 2 68.1306 85.4936 16.6820 0.0000 0.0000 0.0000
# 3 46.6352 16.6820 82.9314 0.0000 0.0000 0.0000
# 4 0.0000 0.0000 0.0000 16.7471 0.0000 0.0000
# 5 0.0000 0.0000 0.0000 0.0000 20.0396 0.0000
# 6 0.0000 0.0000 0.0000 0.0000 0.0000 27.8139
#
#
#
# Elastic Compliance Matrix: (Units=1/GPa)
#
#
# Indices 1 2 3 4 5 6 
#
# 1 0.010924 -0.007813 -0.004571 0.000000 0.000000 0.000000
# 2 -0.007813 0.017763 0.000821 0.000000 0.000000 0.000000
# 3 -0.004571 0.000821 0.014464 0.000000 0.000000 0.000000
# 4 0.000000 0.000000 0.000000 0.059712 0.000000 0.000000
# 5 0.000000 0.000000 0.000000 0.000000 0.049901 0.000000
# 6 0.000000 0.000000 0.000000 0.000000 0.000000 0.035953
#
#
# Mechanical properties :
#
#
# Convention : Reuss Voigt Hill
#
# Bulk Modulus (GPa) = 49.94312 65.67868 57.81090
# Shear Modulus (GPa) = 22.88123 26.03775 24.45949
#
# Velocity S-wave (km/s) = 3.47181 3.70355 3.58955
# Velocity P-wave (km/s) = 6.51004 7.27234 6.90172
#
# Compressibility (1/GPa) = 0.02002278
#
# Stress axis : x y z
#
# Youngs Moduli (GPa) = 91.54155 56.29594 69.13883
#
# Poissons Ratio (x) = 0.43987 0.31605
# Poissons Ratio (y) = 0.71526 -0.05674
# Poissons Ratio (z) = 0.41846 -0.04620
#
# Static dielectric constant tensor:
#      x y z
#    x 3.681310 0.000000 0.000000 
#    y 0.000000 3.454630 0.000000 
#    z 0.000000 0.000000 3.116620 
# 
# 
# High freq. dielectric constant tensor:
#      x y z
#    x 1.737810 0.000000 0.000000 
#    y 0.000000 1.742940 0.000000 
#    z 0.000000 0.000000 1.700270 
# 
# From -- ./inp_files/21131.got.cif
#   From: 2010.03.12/outbox.cif.g09.slc.cpg/sg38_11_cif.got.tgz:21131.got - 2010.04.14 02:38:36.
