data_PCOD8179679
_publ_section_title
;
Structure prediction by ZEFSAII (Michael W. Deem and Ramdas Pophale) SiO2 
 PCOD8179679
Probable space group: A M M 2
;
_chemical_formula_sum "Si O2"
_cell_formula_units_Z 48
_cell_length_a 9.128808
_cell_length_b 9.983231
_cell_length_c 28.161407
_cell_angle_alpha 90.000000
_cell_angle_beta 90.000000
_cell_angle_gamma 90.000000
_cell_volume 2566.489799
_symmetry_space_group_name_H-M "A M M 2"
_symmetry_group_IT_number 38
_symmetry_cell_setting 'orthorhombic'
loop_
_space_group_symop_operation_xyz
x,y,z
-x,-y,z
-x,y,z
x,-y,z
x,1/2+y,1/2+z
-x,1/2-y,1/2+z
-x,1/2+y,1/2+z
x,1/2-y,1/2+z
loop_
_atom_site_type_symbol
_atom_site_label
_atom_site_fract_x
_atom_site_fract_y
_atom_site_fract_z
Si Si1 0.172242 0.652417 0.626290
Si Si2 0.168859 0.000000 0.466259
Si Si3 0.825766 0.155846 0.710295
Si Si4 0.673358 0.246627 0.803870
Si Si5 0.672265 0.000000 0.365120
Si Si6 0.829986 0.767738 0.021435
Si Si7 0.326747 0.000000 0.969123
Si Si8 0.326567 0.500000 0.364266
O O1 0.238740 0.500000 0.630501
O O2 0.231600 0.756252 0.665751
O O3 0.213593 0.722137 0.576579
O O4 0.000000 0.639104 0.631646
O O5 0.208251 0.124028 0.499934
O O6 0.256688 0.000000 0.417102
O O7 0.000000 0.000000 0.451580
O O8 0.756511 0.233898 0.754437
O O9 0.000000 0.159214 0.714491
O O10 0.772449 0.000000 0.706437
O O11 0.500000 0.243303 0.794136
O O12 0.722344 0.376083 0.833106
O O13 0.730954 0.127556 0.836467
O O14 0.500000 0.000000 0.374413
O O15 0.000000 0.805646 0.014362
O O16 0.727782 0.868680 0.994281
O O17 0.258877 0.000000 0.916499
O O18 0.500000 0.000000 0.968594
O O19 0.500000 0.500000 0.367429
#
# Coordination Sequence:
#
# PCOD8179679 Si02
#       8
#     8   4   8   8   4   8   4   4
#     4   9  18  34  57  81 108 146 183 218 273 338
#     4  10  22  36  57  88 118 149 189 236 281 326
#     4  10  21  35  55  85 112 138 180 232 279 326
#     4  10  20  37  57  77 106 147 186 222 271 334
#     4  10  22  38  57  80 111 151 192 228 273 334
#     4  10  20  37  58  83 115 151 188 228 278 340
#     4  11  21  35  58  85 110 145 189 237 282 329
#     4   9  18  33  54  75 101 141 182 215 266 335
#
# _framework density 18.702587000000001
#
# number of rings (size 3 to 8) (size 9 to 14) (size 15 to 20)
#    0.000    2.167    1.667    1.250    2.333    2.667 
#    0.000    2.500    0.000    0.000    0.000    0.000 
#    0.000    0.000    0.000    0.000    0.000    0.000 
#
# Total GULP energy -297512.966674 kJ/mol
# GULP energy per Si atom -12396.373611 kJ/mol
# Density = 1.866002 g / cm^3
# Si number density = 18.702587 Si / 1000 Ang^3
#
#
#
# Elastic Constant Matrix: (Units=GPa)
#
#
# Indices 1 2 3 4 5 6 
#
# 1 32.0882 34.3324 40.6041 0.0000 0.0000 0.0000
# 2 34.3324 173.3292 95.8368 0.0000 0.0000 0.0000
# 3 40.6041 95.8368 191.3332 0.0000 0.0000 0.0000
# 4 0.0000 0.0000 0.0000 40.9121 0.0000 0.0000
# 5 0.0000 0.0000 0.0000 0.0000 17.0615 0.0000
# 6 0.0000 0.0000 0.0000 0.0000 0.0000 23.5717
#
#
#
# Elastic Compliance Matrix: (Units=1/GPa)
#
#
# Indices 1 2 3 4 5 6 
#
# 1 0.045644 -0.005097 -0.007134 0.000000 0.000000 0.000000
# 2 -0.005097 0.008548 -0.003200 0.000000 0.000000 0.000000
# 3 -0.007134 -0.003200 0.008343 0.000000 0.000000 0.000000
# 4 0.000000 0.000000 0.000000 0.024443 0.000000 0.000000
# 5 0.000000 0.000000 0.000000 0.000000 0.058612 0.000000
# 6 0.000000 0.000000 0.000000 0.000000 0.000000 0.042424
#
#
# Mechanical properties :
#
#
# Convention : Reuss Voigt Hill
#
# Bulk Modulus (GPa) = 31.57087 82.03301 56.80194
# Shear Modulus (GPa) = 21.79290 31.37422 26.58356
#
# Velocity S-wave (km/s) = 3.41726 4.10021 3.77421
# Velocity P-wave (km/s) = 5.69976 8.14695 7.03065
#
# Compressibility (1/GPa) = 0.03167477
#
# Stress axis : x y z
#
# Youngs Moduli (GPa) = 21.90869 116.98191 119.85724
#
# Poissons Ratio (x) = 0.59623 0.85500
# Poissons Ratio (y) = 0.11166 0.38356
# Poissons Ratio (z) = 0.15629 0.37436
#
# Static dielectric constant tensor:
#      x y z
#    x 3.088420 0.000000 0.000000 
#    y 0.000000 3.573250 0.000000 
#    z 0.000000 0.000000 3.691230 
# 
# 
# High freq. dielectric constant tensor:
#      x y z
#    x 1.690660 0.000000 0.000000 
#    y 0.000000 1.744400 0.000000 
#    z 0.000000 0.000000 1.742780 
# 
# From -- ./inp_files/24502.got.cif
#   From: 2010.03.12/outbox.cif.g09.slc.cpg/sg38_13_cif.got.tgz:24502.got - 2010.04.14 02:38:36.
