data_PCOD8179074
_publ_section_title
;
Structure prediction by ZEFSAII (Michael W. Deem and Ramdas Pophale) SiO2 
 PCOD8179074
Probable space group: A M M 2
;
_chemical_formula_sum "Si O2"
_cell_formula_units_Z 56
_cell_length_a 9.088129
_cell_length_b 13.862663
_cell_length_c 23.342999
_cell_angle_alpha 90.000000
_cell_angle_beta 90.000000
_cell_angle_gamma 90.000000
_cell_volume 2940.883360
_symmetry_space_group_name_H-M "A M M 2"
_symmetry_group_IT_number 38
_symmetry_cell_setting 'orthorhombic'
loop_
_space_group_symop_operation_xyz
x,y,z
-x,-y,z
-x,y,z
x,-y,z
x,1/2+y,1/2+z
-x,1/2-y,1/2+z
-x,1/2+y,1/2+z
x,1/2-y,1/2+z
loop_
_atom_site_type_symbol
_atom_site_label
_atom_site_fract_x
_atom_site_fract_y
_atom_site_fract_z
Si Si1 0.169302 0.607474 0.949480
Si Si2 0.665496 0.613928 0.396512
Si Si3 0.674296 0.775237 0.225122
Si Si4 0.327386 0.109145 0.336501
Si Si5 0.827784 0.612211 0.281808
Si Si6 0.830487 0.199789 0.003200
Si Si7 0.828219 0.113045 0.124191
O O1 0.226305 0.500000 0.967433
O O2 0.254627 0.649879 0.894414
O O3 0.193009 0.683694 0.001136
O O4 0.000000 0.601756 0.931915
O O5 0.500000 0.654979 0.389514
O O6 0.664237 0.500000 0.399267
O O7 0.758566 0.648589 0.341713
O O8 0.734035 0.650202 0.455075
O O9 0.500000 0.763132 0.220232
O O10 0.725290 0.832110 0.281618
O O11 0.751228 0.670381 0.229632
O O12 0.731168 0.834211 0.171189
O O13 0.500000 0.115758 0.344708
O O14 0.273770 0.000000 0.327039
O O15 0.795203 0.500000 0.270888
O O16 0.000000 0.634280 0.283225
O O17 0.000000 0.172284 0.991848
O O18 0.779570 0.159983 0.064231
O O19 0.000000 0.130774 0.136525
O O20 0.790172 0.000000 0.123500
#
# Coordination Sequence:
#
# PCOD8179074 Si02
#       7
#     8   8   8   8   8   8   8
#     4   9  18  32  51  77 106 135 170 214 263 313
#     4  10  20  33  52  81 114 144 176 220 275 330
#     4  11  22  36  56  80 108 142 180 225 276 328
#     4   9  18  32  50  75 107 140 172 209 259 319
#     4  10  21  37  57  81 110 144 181 221 268 326
#     4  10  20  35  55  77 105 144 187 229 271 317
#     4  10  22  39  57  78 106 141 183 229 274 326
#
# _framework density 19.041896999999999
#
# number of rings (size 3 to 8) (size 9 to 14) (size 15 to 20)
#    0.000    2.143    0.000    3.000    0.000    7.714 
#    0.000    2.143    0.000    2.571    0.000    0.000 
#    0.000    0.000    0.000    0.000    0.000    0.000 
#
# Total GULP energy -347226.154327 kJ/mol
# GULP energy per Si atom -12400.934083 kJ/mol
# Density = 1.899856 g / cm^3
# Si number density = 19.041897 Si / 1000 Ang^3
#
#
#
# Elastic Constant Matrix: (Units=GPa)
#
#
# Indices 1 2 3 4 5 6 
#
# 1 84.2314 53.4721 56.6181 0.0000 0.0000 0.0000
# 2 53.4721 82.6674 81.4973 0.0000 0.0000 0.0000
# 3 56.6181 81.4973 114.0051 0.0000 0.0000 0.0000
# 4 0.0000 0.0000 0.0000 34.5582 0.0000 0.0000
# 5 0.0000 0.0000 0.0000 0.0000 14.0351 0.0000
# 6 0.0000 0.0000 0.0000 0.0000 0.0000 26.8368
#
#
#
# Elastic Compliance Matrix: (Units=1/GPa)
#
#
# Indices 1 2 3 4 5 6 
#
# 1 0.020329 -0.010826 -0.002357 0.000000 0.000000 0.000000
# 2 -0.010826 0.046734 -0.028032 0.000000 0.000000 0.000000
# 3 -0.002357 -0.028032 0.029981 0.000000 0.000000 0.000000
# 4 0.000000 0.000000 0.000000 0.028937 0.000000 0.000000
# 5 0.000000 0.000000 0.000000 0.000000 0.071250 0.000000
# 6 0.000000 0.000000 0.000000 0.000000 0.000000 0.037262
#
#
# Mechanical properties :
#
#
# Convention : Reuss Voigt Hill
#
# Bulk Modulus (GPa) = 68.42453 73.78654 71.10553
# Shear Modulus (GPa) = 15.53791 21.04045 18.28918
#
# Velocity S-wave (km/s) = 2.85964 3.32769 3.10251
# Velocity P-wave (km/s) = 6.84946 7.32109 7.08920
#
# Compressibility (1/GPa) = 0.01461464
#
# Stress axis : x y z
#
# Youngs Moduli (GPa) = 49.19132 21.39757 33.35453
#
# Poissons Ratio (x) = 0.23164 0.07862
# Poissons Ratio (y) = 0.53253 0.93499
# Poissons Ratio (z) = 0.11595 0.59982
#
# Static dielectric constant tensor:
#      x y z
#    x 3.482410 0.000000 0.000000 
#    y 0.000000 3.812700 0.000000 
#    z 0.000000 0.000000 3.355600 
# 
# 
# High freq. dielectric constant tensor:
#      x y z
#    x 1.740990 0.000000 0.000000 
#    y 0.000000 1.758580 0.000000 
#    z 0.000000 0.000000 1.719570 
# 
# From -- ./inp_files/19788.got.cif
#   From: 2010.03.12/outbox.cif.g09.slc.cpg/sg38_10_cif.got.tgz:19788.got - 2010.04.14 02:38:36.
