data_PCOD8179582
_publ_section_title
;
Structure prediction by ZEFSAII (Michael W. Deem and Ramdas Pophale) SiO2 
 PCOD8179582
Probable space group: A M M 2
;
_chemical_formula_sum "Si O2"
_cell_formula_units_Z 48
_cell_length_a 14.934362
_cell_length_b 9.082126
_cell_length_c 18.908690
_cell_angle_alpha 90.000000
_cell_angle_beta 90.000000
_cell_angle_gamma 90.000000
_cell_volume 2564.694490
_symmetry_space_group_name_H-M "A M M 2"
_symmetry_group_IT_number 38
_symmetry_cell_setting 'orthorhombic'
loop_
_space_group_symop_operation_xyz
x,y,z
-x,-y,z
-x,y,z
x,-y,z
x,1/2+y,1/2+z
-x,1/2-y,1/2+z
-x,1/2+y,1/2+z
x,1/2-y,1/2+z
loop_
_atom_site_type_symbol
_atom_site_label
_atom_site_fract_x
_atom_site_fract_y
_atom_site_fract_z
Si Si1 0.226434 0.170252 0.396110
Si Si2 0.699099 0.325005 0.529313
Si Si3 0.359070 0.842381 0.281294
Si Si4 0.895138 0.831096 0.783284
Si Si5 0.500000 0.826045 0.061860
Si Si6 0.203318 0.161752 0.171333
Si Si7 0.500000 0.167752 0.708547
O O1 0.238665 0.250067 0.470875
O O2 0.324150 0.185233 0.360346
O O3 0.150604 0.246912 0.348690
O O4 0.199192 0.000000 0.407442
O O5 0.702722 0.500000 0.520844
O O6 0.593707 0.272372 0.525772
O O7 0.745005 0.273912 0.602967
O O8 0.273168 0.856982 0.233364
O O9 0.415732 0.702306 0.257888
O O10 0.411618 0.000000 0.277716
O O11 0.872150 0.768276 0.704538
O O12 0.000000 0.815066 0.795022
O O13 0.863480 0.000000 0.785283
O O14 0.500000 0.772042 0.141778
O O15 0.500000 0.000000 0.065880
O O16 0.162029 0.000000 0.153720
O O17 0.500000 0.000000 0.684228
#
# Coordination Sequence:
#
# PCOD8179582 Si02
#       7
#     8   8   8   8   4   8   4
#     4  10  22  38  57  81 111 148 186 230 282 336
#     4  10  20  36  58  83 114 153 191 229 278 330
#     4   9  18  35  53  71 103 144 183 222 276 332
#     4  10  21  38  61  87 113 142 181 231 283 338
#     4  10  20  37  56  75 111 157 193 229 276 329
#     4   9  18  34  58  83 108 142 182 224 274 332
#     4  12  22  29  48  81 107 137 189 243 278 315
#
# _framework density 18.715679999999999
#
# number of rings (size 3 to 8) (size 9 to 14) (size 15 to 20)
#    0.000    2.167    1.667    2.750    0.000    6.667 
#    0.000    2.500    0.000    1.000    0.000    0.000 
#    0.000    0.000    0.000    0.000    0.000    0.000 
#
# Total GULP energy -297384.676940 kJ/mol
# GULP energy per Si atom -12391.028206 kJ/mol
# Density = 1.867308 g / cm^3
# Si number density = 18.715680 Si / 1000 Ang^3
#
#
#
# Elastic Constant Matrix: (Units=GPa)
#
#
# Indices 1 2 3 4 5 6 
#
# 1 79.2883 40.5642 33.4382 0.0000 0.0000 0.0000
# 2 40.5642 64.8367 34.8277 0.0000 0.0000 0.0000
# 3 33.4382 34.8277 97.4516 0.0000 0.0000 0.0000
# 4 0.0000 0.0000 0.0000 24.8504 0.0000 0.0000
# 5 0.0000 0.0000 0.0000 0.0000 -113.8945 0.0000
# 6 0.0000 0.0000 0.0000 0.0000 0.0000 26.6820
#
#
#
# Elastic Compliance Matrix: (Units=1/GPa)
#
#
# Indices 1 2 3 4 5 6 
#
# 1 0.019162 -0.010466 -0.002835 0.000000 0.000000 0.000000
# 2 -0.010466 0.024804 -0.005273 0.000000 0.000000 0.000000
# 3 -0.002835 -0.005273 0.013119 0.000000 0.000000 0.000000
# 4 0.000000 0.000000 0.000000 0.040241 0.000000 0.000000
# 5 0.000000 0.000000 0.000000 0.000000 -0.008780 0.000000
# 6 0.000000 0.000000 0.000000 0.000000 0.000000 0.037478
#
#
# Mechanical properties :
#
#
# Convention : Reuss Voigt Hill
#
# Bulk Modulus (GPa) = 50.15833 51.02630 50.59231
# Shear Modulus (GPa) = 29.44344 -3.62265 12.91040
#
# Velocity S-wave (km/s) = 3.97066 -1.39278 2.62929
# Velocity P-wave (km/s) = 6.91953 4.97360 6.02563
#
# Compressibility (1/GPa) = 0.01993687
#
# Stress axis : x y z
#
# Youngs Moduli (GPa) = 52.18664 40.31638 76.22649
#
# Poissons Ratio (x) = 0.42194 0.21608
# Poissons Ratio (y) = 0.54617 0.40198
# Poissons Ratio (z) = 0.14793 0.21261
#
# Static dielectric constant tensor:
#      x y z
#    x 3.726460 0.000000 0.000000 
#    y 0.000000 3.579240 0.000000 
#    z 0.000000 0.000000 3.411080 
# 
# 
# High freq. dielectric constant tensor:
#      x y z
#    x 1.711420 0.000000 0.000000 
#    y 0.000000 1.725590 0.000000 
#    z 0.000000 0.000000 1.721500 
# 
# From -- ./inp_files/18177.got.cif
#   From: 2010.03.12/outbox.cif.g09.slc.cpg/sg38_10_cif.got.tgz:18177.got - 2010.04.14 02:38:36.
