data_PCOD8179227
_publ_section_title
;
Structure prediction by ZEFSAII (Michael W. Deem and Ramdas Pophale) SiO2 
 PCOD8179227
Probable space group: A M M 2
;
_chemical_formula_sum "Si O2"
_cell_formula_units_Z 64
_cell_length_a 19.388827
_cell_length_b 20.017620
_cell_length_c 8.816000
_cell_angle_alpha 90.000000
_cell_angle_beta 90.000000
_cell_angle_gamma 90.000000
_cell_volume 3421.649797
_symmetry_space_group_name_H-M "A M M 2"
_symmetry_group_IT_number 38
_symmetry_cell_setting 'orthorhombic'
loop_
_space_group_symop_operation_xyz
x,y,z
-x,-y,z
-x,y,z
x,-y,z
x,1/2+y,1/2+z
-x,1/2-y,1/2+z
-x,1/2+y,1/2+z
x,1/2-y,1/2+z
loop_
_atom_site_type_symbol
_atom_site_label
_atom_site_fract_x
_atom_site_fract_y
_atom_site_fract_z
Si Si1 0.330789 0.075760 0.670310
Si Si2 0.420180 0.172742 0.505108
Si Si3 0.419446 0.426077 0.468780
Si Si4 0.579225 0.196190 0.158418
Si Si5 0.195086 0.341718 0.172992
Si Si6 0.920988 0.675847 0.589824
Si Si7 0.846550 0.274973 0.877169
Si Si8 0.919844 0.077626 0.830995
O O1 0.372973 0.108482 0.532571
O O2 0.379816 0.082034 0.813532
O O3 0.259403 0.111499 0.706581
O O4 0.314717 0.000000 0.625155
O O5 0.500000 0.156460 0.543226
O O6 0.409908 0.194078 0.334544
O O7 0.388279 0.234317 0.601413
O O8 0.500000 0.415156 0.434968
O O9 0.406843 0.500000 0.539032
O O10 0.388909 0.370530 0.583228
O O11 0.500000 0.198687 0.109065
O O12 0.200654 0.278911 0.288177
O O13 0.125024 0.383325 0.205443
O O14 0.197509 0.319320 0.995887
O O15 0.879406 0.677463 0.748065
O O16 0.903958 0.737844 0.479006
O O17 0.904899 0.607258 0.499276
O O18 0.000000 0.681414 0.635647
O O19 0.000000 0.088215 0.787640
O O20 0.899443 0.000000 0.833450
#
# Coordination Sequence:
#
# PCOD8179227 Si02
#       8
#     8   8   8   8   8   8   8   8
#     4  11  23  37  54  75 104 142 177 217 266 313
#     4  10  20  34  54  79 106 137 175 217 261 312
#     4   9  18  34  56  81 107 136 173 214 259 315
#     4   9  18  33  54  81 110 139 173 217 266 310
#     4  10  21  37  54  77 107 136 175 218 262 318
#     4   9  16  29  53  82 108 131 164 211 258 309
#     4   9  19  33  52  78 105 135 168 211 268 314
#     4   9  18  34  55  77 105 143 179 211 252 305
#
# _framework density 18.704428
#
# number of rings (size 3 to 8) (size 9 to 14) (size 15 to 20)
#    0.000    2.500    0.000    1.875    0.000    8.750 
#    0.000    5.000    0.000    1.500    0.000    0.000 
#    0.000    0.000    0.000    0.000    0.000    0.000 
#
# Total GULP energy -396711.237686 kJ/mol
# GULP energy per Si atom -12397.226178 kJ/mol
# Density = 1.866186 g / cm^3
# Si number density = 18.704428 Si / 1000 Ang^3
#
#
#
# Elastic Constant Matrix: (Units=GPa)
#
#
# Indices 1 2 3 4 5 6 
#
# 1 61.7649 42.7147 26.6835 0.0000 0.0000 0.0000
# 2 42.7147 117.9955 45.0264 0.0000 0.0000 0.0000
# 3 26.6835 45.0264 75.4107 0.0000 0.0000 0.0000
# 4 0.0000 0.0000 0.0000 27.4966 0.0000 0.0000
# 5 0.0000 0.0000 0.0000 0.0000 -2.2706 0.0000
# 6 0.0000 0.0000 0.0000 0.0000 0.0000 26.2055
#
#
#
# Elastic Compliance Matrix: (Units=1/GPa)
#
#
# Indices 1 2 3 4 5 6 
#
# 1 0.022497 -0.006613 -0.004012 0.000000 0.000000 0.000000
# 2 -0.006613 0.012920 -0.005374 0.000000 0.000000 0.000000
# 3 -0.004012 -0.005374 0.017889 0.000000 0.000000 0.000000
# 4 0.000000 0.000000 0.000000 0.036368 0.000000 0.000000
# 5 0.000000 0.000000 0.000000 0.000000 -0.440403 0.000000
# 6 0.000000 0.000000 0.000000 0.000000 0.000000 0.038160
#
#
# Mechanical properties :
#
#
# Convention : Reuss Voigt Hill
#
# Bulk Modulus (GPa) = 46.93151 53.78003 50.35577
# Shear Modulus (GPa) = -18.28359 19.66940 0.69290
#
# Velocity S-wave (km/s) = -3.12989 3.24634 0.60930
# Velocity P-wave (km/s) = 3.47620 6.54726 5.24169
#
# Compressibility (1/GPa) = 0.02130765
#
# Stress axis : x y z
#
# Youngs Moduli (GPa) = 44.45037 77.40210 55.90024
#
# Poissons Ratio (x) = 0.51187 0.22426
# Poissons Ratio (y) = 0.29395 0.30041
# Poissons Ratio (z) = 0.17833 0.41596
#
# Static dielectric constant tensor:
#      x y z
#    x 3.242210 0.000000 0.000000 
#    y 0.000000 3.708850 0.000000 
#    z 0.000000 0.000000 3.357210 
# 
# 
# High freq. dielectric constant tensor:
#      x y z
#    x 1.707190 0.000000 0.000000 
#    y 0.000000 1.732640 0.000000 
#    z 0.000000 0.000000 1.722160 
# 
# From -- ./inp_files/6475.got.cif
#   From: 2010.03.12/outbox.cif.g09.slc.cpg/sg38_4_cif.got.tgz:6475.got - 2010.04.14 02:38:36.
