data_PCOD8179334
_publ_section_title
;
Structure prediction by ZEFSAII (Michael W. Deem and Ramdas Pophale) SiO2 
 PCOD8179334
Probable space group: A M M 2
;
_chemical_formula_sum "Si O2"
_cell_formula_units_Z 40
_cell_length_a 7.694669
_cell_length_b 8.904549
_cell_length_c 28.774918
_cell_angle_alpha 90.000000
_cell_angle_beta 90.000000
_cell_angle_gamma 90.000000
_cell_volume 1971.587089
_symmetry_space_group_name_H-M "A M M 2"
_symmetry_group_IT_number 38
_symmetry_cell_setting 'orthorhombic'
loop_
_space_group_symop_operation_xyz
x,y,z
-x,-y,z
-x,y,z
x,-y,z
x,1/2+y,1/2+z
-x,1/2-y,1/2+z
-x,1/2+y,1/2+z
x,1/2-y,1/2+z
loop_
_atom_site_type_symbol
_atom_site_label
_atom_site_fract_x
_atom_site_fract_y
_atom_site_fract_z
Si Si1 0.297932 0.173301 0.832250
Si Si2 0.295173 0.672965 0.926249
Si Si3 0.196242 0.827082 0.018176
Si Si4 0.500000 0.676538 0.674127
Si Si5 0.193461 0.329644 0.741393
Si Si6 0.500000 0.322480 0.074962
O O1 0.500000 0.203925 0.823615
O O2 0.230991 0.265683 0.876649
O O3 0.197324 0.226899 0.786816
O O4 0.257138 0.000000 0.841405
O O5 0.500000 0.696432 0.932358
O O6 0.241458 0.500000 0.930284
O O7 0.199236 0.765844 0.965905
O O8 0.326024 0.736000 0.050715
O O9 0.000000 0.809437 0.037509
O O10 0.254553 0.000000 0.018032
O O11 0.500000 0.500000 0.662029
O O12 0.670495 0.725177 0.702814
O O13 0.500000 0.772536 0.627894
O O14 0.239548 0.500000 0.756138
O O15 0.000000 0.318958 0.719824
O O16 0.500000 0.500000 0.071018
#
# Coordination Sequence:
#
# PCOD8179334 Si02
#       6
#     8   8   8   4   8   4
#     4  10  20  34  56  86 122 164 206 247 296 357
#     4  10  20  35  59  90 124 164 206 250 303 360
#     4  11  24  42  66  94 125 163 207 254 306 366
#     4  10  22  42  65  88 119 156 198 251 305 365
#     4  10  21  38  62  90 119 155 200 248 300 357
#     4  12  26  44  67  94 125 160 200 253 315 373
#
# _framework density 20.288224
#
# number of rings (size 3 to 8) (size 9 to 14) (size 15 to 20)
#    0.000    1.600    2.000    2.700    0.000    6.000 
#    0.000    2.000    0.000    0.000    0.000    0.000 
#    0.000    0.000    0.000    0.000    0.000    0.000 
#
# Total GULP energy -248098.808245 kJ/mol
# GULP energy per Si atom -12404.940412 kJ/mol
# Density = 2.024205 g / cm^3
# Si number density = 20.288224 Si / 1000 Ang^3
#
#
#
# Elastic Constant Matrix: (Units=GPa)
#
#
# Indices 1 2 3 4 5 6 
#
# 1 113.4465 53.6551 60.8038 0.0000 0.0000 0.0000
# 2 53.6551 130.3589 64.2288 0.0000 0.0000 0.0000
# 3 60.8038 64.2288 135.6194 0.0000 0.0000 0.0000
# 4 0.0000 0.0000 0.0000 40.9686 0.0000 0.0000
# 5 0.0000 0.0000 0.0000 0.0000 4.8435 0.0000
# 6 0.0000 0.0000 0.0000 0.0000 0.0000 20.8912
#
#
#
# Elastic Compliance Matrix: (Units=1/GPa)
#
#
# Indices 1 2 3 4 5 6 
#
# 1 0.012500 -0.003109 -0.004132 0.000000 0.000000 0.000000
# 2 -0.003109 0.010779 -0.003711 0.000000 0.000000 0.000000
# 3 -0.004132 -0.003711 0.010984 0.000000 0.000000 0.000000
# 4 0.000000 0.000000 0.000000 0.024409 0.000000 0.000000
# 5 0.000000 0.000000 0.000000 0.000000 0.206464 0.000000
# 6 0.000000 0.000000 0.000000 0.000000 0.000000 0.047867
#
#
# Mechanical properties :
#
#
# Convention : Reuss Voigt Hill
#
# Bulk Modulus (GPa) = 80.91417 81.86670 81.39043
# Shear Modulus (GPa) = 14.74813 26.72312 20.73563
#
# Velocity S-wave (km/s) = 2.69909 3.63323 3.20042
# Velocity P-wave (km/s) = 7.04857 7.61839 7.33901
#
# Compressibility (1/GPa) = 0.01235878
#
# Stress axis : x y z
#
# Youngs Moduli (GPa) = 80.00244 92.77037 91.04540
#
# Poissons Ratio (x) = 0.28843 0.37617
# Poissons Ratio (y) = 0.24873 0.33788
# Poissons Ratio (z) = 0.33054 0.34428
#
# Static dielectric constant tensor:
#      x y z
#    x 3.738510 0.000000 0.000000 
#    y 0.000000 3.705890 0.000000 
#    z 0.000000 0.000000 3.585190 
# 
# 
# High freq. dielectric constant tensor:
#      x y z
#    x 1.798210 0.000000 0.000000 
#    y 0.000000 1.797200 0.000000 
#    z 0.000000 0.000000 1.786260 
# 
# From -- ./inp_files/23221.got.cif
#   From: 2010.03.12/outbox.cif.g09.slc.cpg/sg38_12_cif.got.tgz:23221.got - 2010.04.14 02:38:36.
