data_PCOD8179565
_publ_section_title
;
Structure prediction by ZEFSAII (Michael W. Deem and Ramdas Pophale) SiO2 
 PCOD8179565
Probable space group: A M M 2
;
_chemical_formula_sum "Si O2"
_cell_formula_units_Z 48
_cell_length_a 8.876723
_cell_length_b 16.402135
_cell_length_c 18.279532
_cell_angle_alpha 90.000000
_cell_angle_beta 90.000000
_cell_angle_gamma 90.000000
_cell_volume 2661.448841
_symmetry_space_group_name_H-M "A M M 2"
_symmetry_group_IT_number 38
_symmetry_cell_setting 'orthorhombic'
loop_
_space_group_symop_operation_xyz
x,y,z
-x,-y,z
-x,y,z
x,-y,z
x,1/2+y,1/2+z
-x,1/2-y,1/2+z
-x,1/2+y,1/2+z
x,1/2-y,1/2+z
loop_
_atom_site_type_symbol
_atom_site_label
_atom_site_fract_x
_atom_site_fract_y
_atom_site_fract_z
Si Si1 0.824408 0.592924 0.898850
Si Si2 0.827029 0.161602 0.850589
Si Si3 0.828003 0.239992 0.496668
Si Si4 0.673907 0.690890 0.777326
Si Si5 0.673568 0.654458 0.608891
Si Si6 0.322410 0.000000 0.883366
Si Si7 0.177254 0.500000 0.541474
O O1 0.789264 0.500000 0.921020
O O2 0.732202 0.615682 0.826271
O O3 0.000000 0.607128 0.881017
O O4 0.777073 0.651370 0.966300
O O5 0.766077 0.227620 0.793793
O O6 0.000000 0.144014 0.832215
O O7 0.733475 0.079174 0.839705
O O8 0.807728 0.193097 0.933263
O O9 0.721913 0.264717 0.564152
O O10 0.000000 0.237227 0.523927
O O11 0.500000 0.706389 0.795466
O O12 0.700694 0.669146 0.693725
O O13 0.500000 0.634275 0.591764
O O14 0.777685 0.579352 0.586791
O O15 0.500000 0.000000 0.887201
O O16 0.257674 0.000000 0.964275
O O17 0.000000 0.500000 0.527610
#
# Coordination Sequence:
#
# PCOD8179565 Si02
#       7
#     8   8   8   8   8   4   4
#     4   9  19  36  57  81 107 138 179 229 277 325
#     4  10  20  36  57  82 110 144 187 227 267 325
#     4   9  18  33  55  79 106 140 181 226 270 324
#     4  10  22  37  54  79 112 147 182 224 276 329
#     4  11  23  37  54  79 114 148 182 225 275 329
#     4  12  22  34  58  86 114 143 178 227 278 326
#     4  12  24  36  54  82 114 147 184 225 272 328
#
# _framework density 18.03529
#
# number of rings (size 3 to 8) (size 9 to 14) (size 15 to 20)
#    0.000    1.833    1.667    4.000    1.167    5.667 
#    0.000    0.000    1.833    0.000    0.000    0.000 
#    0.000    0.000    0.000    0.000    0.000    0.000 
#
# Total GULP energy -297691.740112 kJ/mol
# GULP energy per Si atom -12403.822505 kJ/mol
# Density = 1.799424 g / cm^3
# Si number density = 18.035290 Si / 1000 Ang^3
#
#
#
# Elastic Constant Matrix: (Units=GPa)
#
#
# Indices 1 2 3 4 5 6 
#
# 1 110.1888 51.2417 33.8698 0.0000 0.0000 0.0000
# 2 51.2417 132.0489 37.5740 0.0000 0.0000 0.0000
# 3 33.8698 37.5740 59.2167 0.0000 0.0000 0.0000
# 4 0.0000 0.0000 0.0000 15.6184 0.0000 0.0000
# 5 0.0000 0.0000 0.0000 0.0000 24.4088 0.0000
# 6 0.0000 0.0000 0.0000 0.0000 0.0000 26.5798
#
#
#
# Elastic Compliance Matrix: (Units=1/GPa)
#
#
# Indices 1 2 3 4 5 6 
#
# 1 0.012101 -0.003327 -0.004810 0.000000 0.000000 0.000000
# 2 -0.003327 0.010156 -0.004541 0.000000 0.000000 0.000000
# 3 -0.004810 -0.004541 0.022520 0.000000 0.000000 0.000000
# 4 0.000000 0.000000 0.000000 0.064027 0.000000 0.000000
# 5 0.000000 0.000000 0.000000 0.000000 0.040969 0.000000
# 6 0.000000 0.000000 0.000000 0.000000 0.000000 0.037623
#
#
# Mechanical properties :
#
#
# Convention : Reuss Voigt Hill
#
# Bulk Modulus (GPa) = 51.49352 60.75835 56.12594
# Shear Modulus (GPa) = 22.80745 25.23933 24.02339
#
# Velocity S-wave (km/s) = 3.55998 3.74497 3.65365
# Velocity P-wave (km/s) = 6.74622 7.24303 6.99903
#
# Compressibility (1/GPa) = 0.01941992
#
# Stress axis : x y z
#
# Youngs Moduli (GPa) = 82.63680 98.46145 44.40498
#
# Poissons Ratio (x) = 0.32759 0.21360
# Poissons Ratio (y) = 0.27494 0.20166
# Poissons Ratio (z) = 0.39751 0.44715
#
# Static dielectric constant tensor:
#      x y z
#    x 3.478720 0.000000 0.000000 
#    y 0.000000 3.572600 0.000000 
#    z 0.000000 0.000000 3.139510 
# 
# 
# High freq. dielectric constant tensor:
#      x y z
#    x 1.709450 0.000000 0.000000 
#    y 0.000000 1.704740 0.000000 
#    z 0.000000 0.000000 1.675660 
# 
# From -- ./inp_files/16704.got.cif
#   From: 2010.03.12/outbox.cif.g09.slc.cpg/sg38_9_cif.got.tgz:16704.got - 2010.04.14 02:38:36.
