data_PCOD8179916
_publ_section_title
;
Structure prediction by ZEFSAII (Michael W. Deem and Ramdas Pophale) SiO2 
 PCOD8179916
Probable space group: A M M 2
;
_chemical_formula_sum "Si O2"
_cell_formula_units_Z 64
_cell_length_a 17.685644
_cell_length_b 18.915442
_cell_length_c 9.815021
_cell_angle_alpha 90.000000
_cell_angle_beta 90.000000
_cell_angle_gamma 90.000000
_cell_volume 3283.436380
_symmetry_space_group_name_H-M "A M M 2"
_symmetry_group_IT_number 38
_symmetry_cell_setting 'orthorhombic'
loop_
_space_group_symop_operation_xyz
x,y,z
-x,-y,z
-x,y,z
x,-y,z
x,1/2+y,1/2+z
-x,1/2-y,1/2+z
-x,1/2+y,1/2+z
x,1/2-y,1/2+z
loop_
_atom_site_type_symbol
_atom_site_label
_atom_site_fract_x
_atom_site_fract_y
_atom_site_fract_z
Si Si1 0.328673 0.772679 0.119010
Si Si2 0.413412 0.205260 0.853996
Si Si3 0.885632 0.080827 0.162932
Si Si4 0.916958 0.659423 0.940399
Si Si5 0.320466 0.922305 0.808263
Si Si6 0.797883 0.162447 0.659103
Si Si7 0.716755 0.924293 0.108120
Si Si8 0.083931 0.176098 0.900193
O O1 0.394072 0.741939 0.212612
O O2 0.244784 0.738040 0.134040
O O3 0.328581 0.855869 0.158046
O O4 0.356750 0.761336 0.964955
O O5 0.500000 0.216983 0.894944
O O6 0.396701 0.122112 0.834822
O O7 0.915871 0.125401 0.290812
O O8 0.796619 0.076641 0.181299
O O9 0.918635 0.000000 0.160050
O O10 0.907700 0.122640 0.026487
O O11 0.907533 0.743547 0.947091
O O12 0.000000 0.640343 0.001848
O O13 0.847103 0.632604 0.032895
O O14 0.269805 0.892300 0.685476
O O15 0.347090 0.000000 0.766543
O O16 0.270123 0.920747 0.945245
O O17 0.852524 0.164285 0.787964
O O18 0.675867 0.000000 0.143539
O O19 0.000000 0.164570 0.837457
#
# Coordination Sequence:
#
# PCOD8179916 Si02
#       8
#     8   8   8   8   8   8   8   8
#     4  10  21  35  60  90 116 150 191 240 282 351
#     4  10  21  37  60  90 120 151 182 229 292 353
#     4  11  23  39  61  86 119 157 204 262 316 367
#     4  11  24  38  55  84 122 160 202 258 318 370
#     4   9  19  36  57  84 111 146 193 238 282 343
#     4  11  22  35  59  84 115 156 204 248 298 353
#     4   9  17  33  57  83 110 142 187 240 287 337
#     4  11  22  38  59  83 116 161 211 259 308 366
#
# _framework density 19.491772999999998
#
# number of rings (size 3 to 8) (size 9 to 14) (size 15 to 20)
#    0.000    1.750    1.250    3.375    5.250    3.750 
#    0.000    0.000    0.000    3.375    0.000    0.000 
#    0.000    0.000    0.000    0.000    0.000    0.000 
#
# Total GULP energy -396537.809570 kJ/mol
# GULP energy per Si atom -12391.806549 kJ/mol
# Density = 1.944741 g / cm^3
# Si number density = 19.491773 Si / 1000 Ang^3
#
#
#
# Elastic Constant Matrix: (Units=GPa)
#
#
# Indices 1 2 3 4 5 6 
#
# 1 95.8299 29.7364 37.7088 0.0000 0.0000 0.0000
# 2 29.7364 130.1823 42.9743 0.0000 0.0000 0.0000
# 3 37.7088 42.9743 81.9055 0.0000 0.0000 0.0000
# 4 0.0000 0.0000 0.0000 24.5694 0.0000 0.0000
# 5 0.0000 0.0000 0.0000 0.0000 19.2255 0.0000
# 6 0.0000 0.0000 0.0000 0.0000 0.0000 -21.8724
#
#
#
# Elastic Compliance Matrix: (Units=1/GPa)
#
#
# Indices 1 2 3 4 5 6 
#
# 1 0.012895 -0.001192 -0.005311 0.000000 0.000000 0.000000
# 2 -0.001192 0.009401 -0.004384 0.000000 0.000000 0.000000
# 3 -0.005311 -0.004384 0.016954 0.000000 0.000000 0.000000
# 4 0.000000 0.000000 0.000000 0.040701 0.000000 0.000000
# 5 0.000000 0.000000 0.000000 0.000000 0.052014 0.000000
# 6 0.000000 0.000000 0.000000 0.000000 0.000000 -0.045720
#
#
# Mechanical properties :
#
#
# Convention : Reuss Voigt Hill
#
# Bulk Modulus (GPa) = 57.22041 58.75074 57.98558
# Shear Modulus (GPa) = 43.91913 17.55106 30.73509
#
# Velocity S-wave (km/s) = 4.75195 3.00398 3.97523
# Velocity P-wave (km/s) = 7.71544 6.49912 7.13325
#
# Compressibility (1/GPa) = 0.01747628
#
# Stress axis : x y z
#
# Youngs Moduli (GPa) = 77.54897 106.37247 58.98145
#
# Poissons Ratio (x) = 0.12682 0.31327
# Poissons Ratio (y) = 0.09245 0.25855
# Poissons Ratio (z) = 0.41188 0.46630
#
# Static dielectric constant tensor:
#      x y z
#    x 3.476010 0.000000 0.000000 
#    y 0.000000 3.802920 0.000000 
#    z 0.000000 0.000000 3.428660 
# 
# 
# High freq. dielectric constant tensor:
#      x y z
#    x 1.750230 0.000000 0.000000 
#    y 0.000000 1.760850 0.000000 
#    z 0.000000 0.000000 1.747950 
# 
# From -- ./inp_files/6500.got.cif
#   From: 2010.03.12/outbox.cif.g09.slc.cpg/sg38_4_cif.got.tgz:6500.got - 2010.04.14 02:38:36.
