data_PCOD8179951
_publ_section_title
;
Structure prediction by ZEFSAII (Michael W. Deem and Ramdas Pophale) SiO2 
 PCOD8179951
Probable space group: A M M 2
;
_chemical_formula_sum "Si O2"
_cell_formula_units_Z 56
_cell_length_a 9.098397
_cell_length_b 14.278736
_cell_length_c 23.034114
_cell_angle_alpha 90.000000
_cell_angle_beta 90.000000
_cell_angle_gamma 90.000000
_cell_volume 2992.444875
_symmetry_space_group_name_H-M "A M M 2"
_symmetry_group_IT_number 38
_symmetry_cell_setting 'orthorhombic'
loop_
_space_group_symop_operation_xyz
x,y,z
-x,-y,z
-x,y,z
x,-y,z
x,1/2+y,1/2+z
-x,1/2-y,1/2+z
-x,1/2+y,1/2+z
x,1/2-y,1/2+z
loop_
_atom_site_type_symbol
_atom_site_label
_atom_site_fract_x
_atom_site_fract_y
_atom_site_fract_z
Si Si1 0.170228 0.393037 0.155490
Si Si2 0.672885 0.391897 0.584420
Si Si3 0.673193 0.609730 0.939115
Si Si4 0.327734 0.103447 0.772333
Si Si5 0.327106 0.210879 0.324490
Si Si6 0.325452 0.604072 0.714173
Si Si7 0.826240 0.718508 0.041875
O O1 0.207541 0.500000 0.139066
O O2 0.257949 0.361489 0.212357
O O3 0.220301 0.328913 0.102306
O O4 0.000000 0.380223 0.169597
O O5 0.500000 0.373728 0.577551
O O6 0.709530 0.500000 0.569140
O O7 0.728978 0.367677 0.649743
O O8 0.759509 0.323487 0.540472
O O9 0.500000 0.627083 0.946948
O O10 0.709632 0.500000 0.934777
O O11 0.736794 0.660826 0.881425
O O12 0.758348 0.654663 0.992185
O O13 0.500000 0.101208 0.761092
O O14 0.289728 0.177725 0.823448
O O15 0.269335 0.000000 0.790433
O O16 0.500000 0.192190 0.324044
O O17 0.258946 0.168878 0.264977
O O18 0.500000 0.607999 0.713218
O O19 0.270910 0.500000 0.728696
O O20 0.000000 0.723081 0.033201
#
# Coordination Sequence:
#
# PCOD8179951 Si02
#       7
#     8   8   8   8   8   8   8
#     4   9  18  32  49  71 101 136 171 207 251 302
#     4   9  18  33  54  80 107 134 167 208 252 300
#     4  10  21  36  54  75  98 129 173 219 257 299
#     4   9  17  29  48  75 102 127 159 202 252 305
#     4   9  16  28  47  71 100 130 161 203 253 301
#     4   8  13  23  44  74 102 126 155 197 251 302
#     4  11  22  35  52  73 102 140 175 210 256 306
#
# _framework density 18.713794
#
# number of rings (size 3 to 8) (size 9 to 14) (size 15 to 20)
#    0.000    2.714    0.000    3.000    0.000    5.143 
#    0.000    2.857    0.000    3.429    0.000    2.000 
#    0.000    0.000    0.000    0.000    0.000    0.000 
#
# Total GULP energy -347065.947069 kJ/mol
# GULP energy per Si atom -12395.212395 kJ/mol
# Density = 1.867120 g / cm^3
# Si number density = 18.713794 Si / 1000 Ang^3
#
#
#
# Elastic Constant Matrix: (Units=GPa)
#
#
# Indices 1 2 3 4 5 6 
#
# 1 38.8489 43.4839 35.1701 0.0000 0.0000 0.0000
# 2 43.4839 135.8802 77.7304 0.0000 0.0000 0.0000
# 3 35.1701 77.7304 90.8989 0.0000 0.0000 0.0000
# 4 0.0000 0.0000 0.0000 35.3687 0.0000 0.0000
# 5 0.0000 0.0000 0.0000 0.0000 11.9927 0.0000
# 6 0.0000 0.0000 0.0000 0.0000 0.0000 18.4309
#
#
#
# Elastic Compliance Matrix: (Units=1/GPa)
#
#
# Indices 1 2 3 4 5 6 
#
# 1 0.044149 -0.008529 -0.009789 0.000000 0.000000 0.000000
# 2 -0.008529 0.016055 -0.010429 0.000000 0.000000 0.000000
# 3 -0.009789 -0.010429 0.023707 0.000000 0.000000 0.000000
# 4 0.000000 0.000000 0.000000 0.028274 0.000000 0.000000
# 5 0.000000 0.000000 0.000000 0.000000 0.083384 0.000000
# 6 0.000000 0.000000 0.000000 0.000000 0.000000 0.054257
#
#
# Mechanical properties :
#
#
# Convention : Reuss Voigt Hill
#
# Bulk Modulus (GPa) = 37.85365 64.26632 51.05999
# Shear Modulus (GPa) = 15.81666 20.44138 18.12902
#
# Velocity S-wave (km/s) = 2.91036 3.30861 3.11585
# Velocity P-wave (km/s) = 5.61829 7.00086 6.34733
#
# Compressibility (1/GPa) = 0.02641753
#
# Stress axis : x y z
#
# Youngs Moduli (GPa) = 22.65072 62.28723 42.18228
#
# Poissons Ratio (x) = 0.53123 0.41290
# Poissons Ratio (y) = 0.19318 0.43992
# Poissons Ratio (z) = 0.22172 0.64959
#
# Static dielectric constant tensor:
#      x y z
#    x 3.030310 0.000000 0.000000 
#    y 0.000000 3.707730 0.000000 
#    z 0.000000 0.000000 3.442620 
# 
# 
# High freq. dielectric constant tensor:
#      x y z
#    x 1.686600 0.000000 0.000000 
#    y 0.000000 1.744770 0.000000 
#    z 0.000000 0.000000 1.710490 
# 
# From -- ./inp_files/19746.got.cif
#   From: 2010.03.12/outbox.cif.g09.slc.cpg/sg38_10_cif.got.tgz:19746.got - 2010.04.14 02:38:36.
