data_PCOD8179720
_publ_section_title
;
Structure prediction by ZEFSAII (Michael W. Deem and Ramdas Pophale) SiO2 
 PCOD8179720
Probable space group: A M M 2
;
_chemical_formula_sum "Si O2"
_cell_formula_units_Z 64
_cell_length_a 9.093398
_cell_length_b 24.698284
_cell_length_c 14.839840
_cell_angle_alpha 90.000000
_cell_angle_beta 90.000000
_cell_angle_gamma 90.000000
_cell_volume 3332.899348
_symmetry_space_group_name_H-M "A M M 2"
_symmetry_group_IT_number 38
_symmetry_cell_setting 'orthorhombic'
loop_
_space_group_symop_operation_xyz
x,y,z
-x,-y,z
-x,y,z
x,-y,z
x,1/2+y,1/2+z
-x,1/2-y,1/2+z
-x,1/2+y,1/2+z
x,1/2-y,1/2+z
loop_
_atom_site_type_symbol
_atom_site_label
_atom_site_fract_x
_atom_site_fract_y
_atom_site_fract_z
Si Si1 0.667325 0.757209 0.946550
Si Si2 0.172381 0.349251 0.918052
Si Si3 0.333958 0.227023 0.739233
Si Si4 0.674056 0.365888 0.543769
Si Si5 0.330943 0.437830 0.030160
Si Si6 0.829308 0.063609 0.896769
Si Si7 0.827632 0.167578 0.212561
Si Si8 0.329891 0.894325 0.721923
O O1 0.500000 0.741091 0.967086
O O2 0.762792 0.704001 0.966237
O O3 0.688090 0.778615 0.845763
O O4 0.719143 0.806146 0.009678
O O5 0.217148 0.350714 0.812964
O O6 0.000000 0.346915 0.930620
O O7 0.232110 0.403267 0.963217
O O8 0.500000 0.245867 0.715950
O O9 0.222919 0.270403 0.697063
O O10 0.300151 0.168422 0.697424
O O11 0.500000 0.374164 0.546389
O O12 0.741838 0.411354 0.480119
O O13 0.742859 0.371921 0.643511
O O14 0.500000 0.421169 0.015711
O O15 0.302549 0.500000 0.005809
O O16 0.286851 0.428518 0.134026
O O17 0.772040 0.086720 0.802744
O O18 0.000000 0.078704 0.905978
O O19 0.802045 0.000000 0.899095
O O20 0.000000 0.163199 0.195061
O O21 0.500000 0.902896 0.750166
#
# Coordination Sequence:
#
# PCOD8179720 Si02
#       8
#     8   8   8   8   8   8   8   8
#     4   9  18  34  56  83 114 148 187 232 282 339
#     4  10  22  39  59  84 115 153 195 239 296 352
#     4   9  17  33  55  83 117 153 191 229 277 343
#     4  11  22  38  61  88 116 155 201 244 291 346
#     4  10  22  39  60  86 115 151 198 248 293 340
#     4  11  24  40  59  86 122 160 196 241 296 353
#     4  10  22  38  56  84 121 156 192 242 299 353
#     4  10  20  37  60  87 118 155 197 240 288 346
#
# _framework density 19.202501000000002
#
# number of rings (size 3 to 8) (size 9 to 14) (size 15 to 20)
#    0.000    2.000    1.250    1.875    1.750    5.250 
#    0.000    0.625    0.000    0.750    0.000    0.000 
#    0.000    0.000    0.000    0.000    0.000    0.000 
#
# Total GULP energy -396921.478778 kJ/mol
# GULP energy per Si atom -12403.796212 kJ/mol
# Density = 1.915879 g / cm^3
# Si number density = 19.202501 Si / 1000 Ang^3
#
#
#
# Elastic Constant Matrix: (Units=GPa)
#
#
# Indices 1 2 3 4 5 6 
#
# 1 74.7668 35.9619 34.8408 0.0000 0.0000 0.0000
# 2 35.9619 76.5456 28.9088 0.0000 0.0000 0.0000
# 3 34.8408 28.9088 65.5944 0.0000 0.0000 0.0000
# 4 0.0000 0.0000 0.0000 31.4246 0.0000 0.0000
# 5 0.0000 0.0000 0.0000 0.0000 32.5863 0.0000
# 6 0.0000 0.0000 0.0000 0.0000 0.0000 30.2601
#
#
#
# Elastic Compliance Matrix: (Units=1/GPa)
#
#
# Indices 1 2 3 4 5 6 
#
# 1 0.020159 -0.006511 -0.007838 0.000000 0.000000 0.000000
# 2 -0.006511 0.017776 -0.004376 0.000000 0.000000 0.000000
# 3 -0.007838 -0.004376 0.021337 0.000000 0.000000 0.000000
# 4 0.000000 0.000000 0.000000 0.031822 0.000000 0.000000
# 5 0.000000 0.000000 0.000000 0.000000 0.030688 0.000000
# 6 0.000000 0.000000 0.000000 0.000000 0.000000 0.033047
#
#
# Mechanical properties :
#
#
# Convention : Reuss Voigt Hill
#
# Bulk Modulus (GPa) = 45.82508 46.25890 46.04199
# Shear Modulus (GPa) = 25.05617 26.66723 25.86170
#
# Velocity S-wave (km/s) = 3.61617 3.73062 3.67384
# Velocity P-wave (km/s) = 6.43052 6.53445 6.48269
#
# Compressibility (1/GPa) = 0.02182211
#
# Stress axis : x y z
#
# Youngs Moduli (GPa) = 49.60564 56.25720 46.86691
#
# Poissons Ratio (x) = 0.36627 0.36735
# Poissons Ratio (y) = 0.32297 0.20508
# Poissons Ratio (z) = 0.38882 0.24617
#
# Static dielectric constant tensor:
#      x y z
#    x 3.495300 0.000000 0.000000 
#    y 0.000000 3.442870 0.000000 
#    z 0.000000 0.000000 3.530390 
# 
# 
# High freq. dielectric constant tensor:
#      x y z
#    x 1.746360 0.000000 0.000000 
#    y 0.000000 1.739550 0.000000 
#    z 0.000000 0.000000 1.750650 
# 
# From -- ./inp_files/12721.got.cif
#   From: 2010.03.12/outbox.cif.g09.slc.cpg/sg38_7_cif.got.tgz:12721.got - 2010.04.14 02:38:36.
