data_PCOD8179956
_publ_section_title
;
Structure prediction by ZEFSAII (Michael W. Deem and Ramdas Pophale) SiO2 
 PCOD8179956
Probable space group: A M M 2
;
_chemical_formula_sum "Si O2"
_cell_formula_units_Z 64
_cell_length_a 19.493787
_cell_length_b 8.909342
_cell_length_c 19.987432
_cell_angle_alpha 90.000000
_cell_angle_beta 90.000000
_cell_angle_gamma 90.000000
_cell_volume 3471.353535
_symmetry_space_group_name_H-M "A M M 2"
_symmetry_group_IT_number 38
_symmetry_cell_setting 'orthorhombic'
loop_
_space_group_symop_operation_xyz
x,y,z
-x,-y,z
-x,y,z
x,-y,z
x,1/2+y,1/2+z
-x,1/2-y,1/2+z
-x,1/2+y,1/2+z
x,1/2-y,1/2+z
loop_
_atom_site_type_symbol
_atom_site_label
_atom_site_fract_x
_atom_site_fract_y
_atom_site_fract_z
Si Si1 0.578802 0.673879 0.431760
Si Si2 0.920921 0.173741 0.438995
Si Si3 0.580275 0.673819 0.067892
Si Si4 0.174615 0.826748 0.318372
Si Si5 0.080368 0.173043 0.075731
Si Si6 0.331087 0.670696 0.825018
Si Si7 0.178762 0.323014 0.178802
Si Si8 0.678496 0.175610 0.171514
O O1 0.500000 0.711256 0.415274
O O2 0.589347 0.500000 0.448334
O O3 0.604525 0.768016 0.495542
O O4 0.622963 0.717009 0.367520
O O5 0.876382 0.228150 0.376134
O O6 0.897885 0.271386 0.502279
O O7 0.000000 0.201648 0.420605
O O8 0.906621 0.000000 0.455618
O O9 0.500000 0.704030 0.077656
O O10 0.599303 0.500000 0.073650
O O11 0.618234 0.764718 0.125261
O O12 0.251908 0.804550 0.344530
O O13 0.159918 0.728176 0.253393
O O14 0.161880 0.000000 0.298797
O O15 0.118270 0.271208 0.130681
O O16 0.000000 0.198377 0.086907
O O17 0.101353 0.000000 0.083157
O O18 0.353728 0.500000 0.839755
O O19 0.342526 0.711298 0.747548
O O20 0.185297 0.500000 0.176847
O O21 0.250126 0.254202 0.153057
O O22 0.689048 0.000000 0.160374
#
# Coordination Sequence:
#
# PCOD8179956 Si02
#       8
#     8   8   8   8   8   8   8   8
#     4  10  21  36  54  77 106 140 179 223 267 314
#     4   9  18  34  56  80 107 140 178 221 268 318
#     4  10  21  37  57  81 110 143 180 223 269 318
#     4   9  19  36  55  78 109 142 177 217 264 319
#     4  10  21  37  56  78 108 145 183 224 269 319
#     4   9  19  35  54  76 105 140 176 218 266 317
#     4  11  22  36  56  81 110 142 179 225 271 318
#     4  10  21  38  58  80 109 143 180 222 268 322
#
# _framework density 18.436612
#
# number of rings (size 3 to 8) (size 9 to 14) (size 15 to 20)
#    0.000    2.250    0.000    3.375    0.000    7.250 
#    0.000    7.500    0.000    0.000    0.000    0.000 
#    0.000    0.000    0.000    0.000    0.000    0.000 
#
# Total GULP energy -396948.887690 kJ/mol
# GULP energy per Si atom -12404.652740 kJ/mol
# Density = 1.839465 g / cm^3
# Si number density = 18.436612 Si / 1000 Ang^3
#
#
#
# Elastic Constant Matrix: (Units=GPa)
#
#
# Indices 1 2 3 4 5 6 
#
# 1 74.0735 47.7160 66.2412 0.0000 0.0000 0.0000
# 2 47.7160 108.3770 61.2339 0.0000 0.0000 0.0000
# 3 66.2412 61.2339 107.9745 0.0000 0.0000 0.0000
# 4 0.0000 0.0000 0.0000 37.9185 0.0000 0.0000
# 5 0.0000 0.0000 0.0000 0.0000 -39.5092 0.0000
# 6 0.0000 0.0000 0.0000 0.0000 0.0000 31.4173
#
#
#
# Elastic Compliance Matrix: (Units=1/GPa)
#
#
# Indices 1 2 3 4 5 6 
#
# 1 0.031214 -0.004302 -0.016710 0.000000 0.000000 0.000000
# 2 -0.004302 0.014170 -0.005397 0.000000 0.000000 0.000000
# 3 -0.016710 -0.005397 0.022574 0.000000 0.000000 0.000000
# 4 0.000000 0.000000 0.000000 0.026372 0.000000 0.000000
# 5 0.000000 0.000000 0.000000 0.000000 -0.025311 0.000000
# 6 0.000000 0.000000 0.000000 0.000000 0.000000 0.031830
#
#
# Mechanical properties :
#
#
# Convention : Reuss Voigt Hill
#
# Bulk Modulus (GPa) = 66.04791 71.20081 68.62436
# Shear Modulus (GPa) = 31.50301 13.64757 22.57529
#
# Velocity S-wave (km/s) = 4.13815 2.72369 3.50306
# Velocity P-wave (km/s) = 7.66384 6.97097 7.32560
#
# Compressibility (1/GPa) = 0.01514053
#
# Stress axis : x y z
#
# Youngs Moduli (GPa) = 32.03657 70.56932 44.29910
#
# Poissons Ratio (x) = 0.30356 0.74024
# Poissons Ratio (y) = 0.13781 0.23909
# Poissons Ratio (z) = 0.53534 0.38088
#
# Static dielectric constant tensor:
#      x y z
#    x 3.370110 0.000000 0.000000 
#    y 0.000000 3.423840 0.000000 
#    z 0.000000 0.000000 3.383480 
# 
# 
# High freq. dielectric constant tensor:
#      x y z
#    x 1.713840 0.000000 0.000000 
#    y 0.000000 1.722290 0.000000 
#    z 0.000000 0.000000 1.718290 
# 
# From -- ./inp_files/18873.got.cif
#   From: 2010.03.12/outbox.cif.g09.slc.cpg/sg38_10_cif.got.tgz:18873.got - 2010.04.14 02:38:36.
