data_PCOD8179553
_publ_section_title
;
Structure prediction by ZEFSAII (Michael W. Deem and Ramdas Pophale) SiO2 
 PCOD8179553
Probable space group: A M M 2
;
_chemical_formula_sum "Si O2"
_cell_formula_units_Z 64
_cell_length_a 23.775472
_cell_length_b 9.096645
_cell_length_c 15.600585
_cell_angle_alpha 90.000000
_cell_angle_beta 90.000000
_cell_angle_gamma 90.000000
_cell_volume 3374.048167
_symmetry_space_group_name_H-M "A M M 2"
_symmetry_group_IT_number 38
_symmetry_cell_setting 'orthorhombic'
loop_
_space_group_symop_operation_xyz
x,y,z
-x,-y,z
-x,y,z
x,-y,z
x,1/2+y,1/2+z
-x,1/2-y,1/2+z
-x,1/2+y,1/2+z
x,1/2-y,1/2+z
loop_
_atom_site_type_symbol
_atom_site_label
_atom_site_fract_x
_atom_site_fract_y
_atom_site_fract_z
Si Si1 0.245654 0.674790 0.003330
Si Si2 0.938812 0.174124 0.409149
Si Si3 0.635027 0.326155 0.507110
Si Si4 0.179592 0.330538 0.652146
Si Si5 0.435697 0.327433 0.342788
Si Si6 0.564381 0.827860 0.171850
Si Si7 0.938257 0.834472 0.082883
Si Si8 0.823750 0.674265 0.840898
O O1 0.249441 0.500000 0.005560
O O2 0.209077 0.727321 0.083550
O O3 0.306869 0.742059 0.009216
O O4 0.217407 0.733516 0.915266
O O5 0.928936 0.221456 0.506536
O O6 0.887086 0.237971 0.353566
O O7 0.000000 0.232173 0.375968
O O8 0.938123 0.000000 0.407384
O O9 0.645455 0.500000 0.506810
O O10 0.600880 0.275086 0.423391
O O11 0.600335 0.276574 0.590538
O O12 0.196719 0.500000 0.634731
O O13 0.111785 0.311145 0.650879
O O14 0.199002 0.279227 0.747221
O O15 0.500000 0.279815 0.360225
O O16 0.430844 0.500000 0.329195
O O17 0.412209 0.250842 0.257023
O O18 0.500000 0.782040 0.154256
O O19 0.570108 0.000000 0.187079
O O20 0.000000 0.809041 0.126359
O O21 0.935036 0.000000 0.045577
O O22 0.826706 0.500000 0.846913
#
# Coordination Sequence:
#
# PCOD8179553 Si02
#       8
#     8   8   8   8   8   8   8   8
#     4  11  23  39  55  75 106 139 180 230 271 309
#     4   9  16  29  52  77 102 134 170 209 259 319
#     4  10  21  37  57  79 107 145 185 218 260 318
#     4  10  20  36  57  77 102 139 178 217 266 323
#     4   9  18  34  57  85 116 146 177 217 262 311
#     4   9  18  34  57  84 113 144 177 215 261 314
#     4   9  17  29  49  78 107 132 163 210 264 316
#     4   9  19  35  54  76 102 134 174 218 265 315
#
# _framework density 18.968313999999999
#
# number of rings (size 3 to 8) (size 9 to 14) (size 15 to 20)
#    0.000    2.500    1.250    0.750    0.000    4.000 
#    0.000    8.125    0.000    3.750    0.000    3.500 
#    0.000    0.000    0.000    0.000    0.000    0.000 
#
# Total GULP energy -396672.778365 kJ/mol
# GULP energy per Si atom -12396.024324 kJ/mol
# Density = 1.892514 g / cm^3
# Si number density = 18.968314 Si / 1000 Ang^3
#
#
#
# Elastic Constant Matrix: (Units=GPa)
#
#
# Indices 1 2 3 4 5 6 
#
# 1 123.7772 35.5143 78.1845 0.0000 0.0000 0.0000
# 2 35.5143 25.3636 32.1033 0.0000 0.0000 0.0000
# 3 78.1845 32.1033 152.8943 0.0000 0.0000 0.0000
# 4 0.0000 0.0000 0.0000 27.7011 0.0000 0.0000
# 5 0.0000 0.0000 0.0000 0.0000 12.9429 0.0000
# 6 0.0000 0.0000 0.0000 0.0000 0.0000 24.1992
#
#
#
# Elastic Compliance Matrix: (Units=1/GPa)
#
#
# Indices 1 2 3 4 5 6 
#
# 1 0.015574 -0.015971 -0.004610 0.000000 0.000000 0.000000
# 2 -0.015971 0.070076 -0.006547 0.000000 0.000000 0.000000
# 3 -0.004610 -0.006547 0.010273 0.000000 0.000000 0.000000
# 4 0.000000 0.000000 0.000000 0.036100 0.000000 0.000000
# 5 0.000000 0.000000 0.000000 0.000000 0.077262 0.000000
# 6 0.000000 0.000000 0.000000 0.000000 0.000000 0.041324
#
#
# Mechanical properties :
#
#
# Convention : Reuss Voigt Hill
#
# Bulk Modulus (GPa) = 24.00049 65.95991 44.98020
# Shear Modulus (GPa) = 15.68614 23.38417 19.53516
#
# Velocity S-wave (km/s) = 2.87882 3.51494 3.21266
# Velocity P-wave (km/s) = 4.87140 7.16396 6.12588
#
# Compressibility (1/GPa) = 0.04166582
#
# Stress axis : x y z
#
# Youngs Moduli (GPa) = 64.21138 14.27025 97.34550
#
# Poissons Ratio (x) = 0.22791 0.44880
# Poissons Ratio (y) = 1.02551 0.63732
# Poissons Ratio (z) = 0.29604 0.09343
#
# Static dielectric constant tensor:
#      x y z
#    x 3.686670 0.000000 0.000000 
#    y 0.000000 3.267470 0.000000 
#    z 0.000000 0.000000 3.571120 
# 
# 
# High freq. dielectric constant tensor:
#      x y z
#    x 1.742910 0.000000 0.000000 
#    y 0.000000 1.713410 0.000000 
#    z 0.000000 0.000000 1.736290 
# 
# From -- ./inp_files/15831.got.cif
#   From: 2010.03.12/outbox.cif.g09.slc.cpg/sg38_8_cif.got.tgz:15831.got - 2010.04.14 02:38:36.
