data_PCOD8179207
_publ_section_title
;
Structure prediction by ZEFSAII (Michael W. Deem and Ramdas Pophale) SiO2 
 PCOD8179207
Probable space group: A M M 2
;
_chemical_formula_sum "Si O2"
_cell_formula_units_Z 64
_cell_length_a 9.061597
_cell_length_b 24.442262
_cell_length_c 15.214846
_cell_angle_alpha 90.000000
_cell_angle_beta 90.000000
_cell_angle_gamma 90.000000
_cell_volume 3369.874286
_symmetry_space_group_name_H-M "A M M 2"
_symmetry_group_IT_number 38
_symmetry_cell_setting 'orthorhombic'
loop_
_space_group_symop_operation_xyz
x,y,z
-x,-y,z
-x,y,z
x,-y,z
x,1/2+y,1/2+z
-x,1/2-y,1/2+z
-x,1/2+y,1/2+z
x,1/2-y,1/2+z
loop_
_atom_site_type_symbol
_atom_site_label
_atom_site_fract_x
_atom_site_fract_y
_atom_site_fract_z
Si Si1 0.827028 0.763283 0.930870
Si Si2 0.173401 0.358507 0.891306
Si Si3 0.332979 0.219036 0.758744
Si Si4 0.672915 0.356811 0.521248
Si Si5 0.331832 0.436795 0.022447
Si Si6 0.828288 0.063612 0.885626
Si Si7 0.331280 0.160520 0.216322
Si Si8 0.330401 0.899371 0.710537
O O1 0.778412 0.699826 0.932233
O O2 0.782166 0.789077 0.837568
O O3 0.000000 0.770723 0.945982
O O4 0.739439 0.796524 0.004785
O O5 0.233416 0.366008 0.792593
O O6 0.000000 0.363308 0.885362
O O7 0.233047 0.405858 0.952522
O O8 0.500000 0.220864 0.797015
O O9 0.297895 0.274464 0.705508
O O10 0.313119 0.166089 0.697207
O O11 0.500000 0.355943 0.499679
O O12 0.749002 0.402871 0.462585
O O13 0.702941 0.369297 0.624068
O O14 0.500000 0.415735 0.015782
O O15 0.319478 0.500000 0.998927
O O16 0.272043 0.426688 0.120977
O O17 0.765187 0.078266 0.790528
O O18 0.000000 0.078878 0.886739
O O19 0.801517 0.000000 0.905209
O O20 0.500000 0.151235 0.243710
O O21 0.500000 0.915791 0.728706
#
# Coordination Sequence:
#
# PCOD8179207 Si02
#       8
#     8   8   8   8   8   8   8   8
#     4  10  20  34  53  82 118 152 186 228 281 342
#     4  10  22  39  59  85 115 153 195 237 291 344
#     4   9  17  32  54  83 115 149 187 227 278 337
#     4  11  22  36  59  88 115 150 194 238 287 340
#     4  10  22  39  60  86 115 151 196 244 291 338
#     4  11  24  40  58  82 117 158 194 235 288 342
#     4   9  20  37  58  85 117 151 191 239 289 340
#     4  10  20  35  59  88 116 151 193 237 283 337
#
# _framework density 18.991807000000001
#
# number of rings (size 3 to 8) (size 9 to 14) (size 15 to 20)
#    0.000    2.000    1.250    1.875    1.750    4.750 
#    0.000    0.625    0.000    0.750    0.000    0.000 
#    0.000    0.000    0.000    0.000    0.000    0.000 
#
# Total GULP energy -396829.262291 kJ/mol
# GULP energy per Si atom -12400.914447 kJ/mol
# Density = 1.894858 g / cm^3
# Si number density = 18.991807 Si / 1000 Ang^3
#
#
#
# Elastic Constant Matrix: (Units=GPa)
#
#
# Indices 1 2 3 4 5 6 
#
# 1 93.9568 46.6443 66.1698 0.0000 0.0000 0.0000
# 2 46.6443 80.8137 58.0388 0.0000 0.0000 0.0000
# 3 66.1698 58.0388 126.7852 0.0000 0.0000 0.0000
# 4 0.0000 0.0000 0.0000 28.5704 0.0000 0.0000
# 5 0.0000 0.0000 0.0000 0.0000 0.5102 0.0000
# 6 0.0000 0.0000 0.0000 0.0000 0.0000 29.3456
#
#
#
# Elastic Compliance Matrix: (Units=1/GPa)
#
#
# Indices 1 2 3 4 5 6 
#
# 1 0.018351 -0.005532 -0.007045 0.000000 0.000000 0.000000
# 2 -0.005532 0.020103 -0.006315 0.000000 0.000000 0.000000
# 3 -0.007045 -0.006315 0.014455 0.000000 0.000000 0.000000
# 4 0.000000 0.000000 0.000000 0.035001 0.000000 0.000000
# 5 0.000000 0.000000 0.000000 0.000000 1.960166 0.000000
# 6 0.000000 0.000000 0.000000 0.000000 0.000000 0.034077
#
#
# Mechanical properties :
#
#
# Convention : Reuss Voigt Hill
#
# Bulk Modulus (GPa) = 66.12017 71.47351 68.79684
# Shear Modulus (GPa) = 2.35296 20.39873 11.37585
#
# Velocity S-wave (km/s) = 1.11428 3.28087 2.45008
# Velocity P-wave (km/s) = 6.04534 7.21580 6.65635
#
# Compressibility (1/GPa) = 0.01512398
#
# Stress axis : x y z
#
# Youngs Moduli (GPa) = 54.49224 49.74441 69.18003
#
# Poissons Ratio (x) = 0.27521 0.48737
# Poissons Ratio (y) = 0.30148 0.43688
# Poissons Ratio (z) = 0.38390 0.31414
#
# Static dielectric constant tensor:
#      x y z
#    x 3.493290 0.000000 0.000000 
#    y 0.000000 3.510430 0.000000 
#    z 0.000000 0.000000 3.378970 
# 
# 
# High freq. dielectric constant tensor:
#      x y z
#    x 1.739900 0.000000 0.000000 
#    y 0.000000 1.734570 0.000000 
#    z 0.000000 0.000000 1.731420 
# 
# From -- ./inp_files/12720.got.cif
#   From: 2010.03.12/outbox.cif.g09.slc.cpg/sg38_7_cif.got.tgz:12720.got - 2010.04.14 02:38:36.
