data_PCOD8179730
_publ_section_title
;
Structure prediction by ZEFSAII (Michael W. Deem and Ramdas Pophale) SiO2 
 PCOD8179730
Probable space group: A M M 2
;
_chemical_formula_sum "Si O2"
_cell_formula_units_Z 48
_cell_length_a 8.706589
_cell_length_b 18.262924
_cell_length_c 15.044551
_cell_angle_alpha 90.000000
_cell_angle_beta 90.000000
_cell_angle_gamma 90.000000
_cell_volume 2392.200553
_symmetry_space_group_name_H-M "A M M 2"
_symmetry_group_IT_number 38
_symmetry_cell_setting 'orthorhombic'
loop_
_space_group_symop_operation_xyz
x,y,z
-x,-y,z
-x,y,z
x,-y,z
x,1/2+y,1/2+z
-x,1/2-y,1/2+z
-x,1/2+y,1/2+z
x,1/2-y,1/2+z
loop_
_atom_site_type_symbol
_atom_site_label
_atom_site_fract_x
_atom_site_fract_y
_atom_site_fract_z
Si Si1 0.680674 0.734575 0.937280
Si Si2 0.820551 0.883854 0.974617
Si Si3 0.678808 0.500000 0.353083
Si Si4 0.175175 0.500000 0.169990
Si Si5 0.681540 0.770708 0.236249
Si Si6 0.324011 0.079194 0.149216
Si Si7 0.822436 0.158036 0.595466
O O1 0.500000 0.723945 0.936211
O O2 0.727878 0.809009 0.985506
O O3 0.745775 0.736723 0.836665
O O4 0.750983 0.670534 0.997883
O O5 0.759746 0.927453 0.889644
O O6 0.000000 0.869038 0.963040
O O7 0.784653 0.928437 0.063503
O O8 0.500000 0.500000 0.377888
O O9 0.701432 0.500000 0.248289
O O10 0.206256 0.427561 0.112670
O O11 0.000000 0.500000 0.206638
O O12 0.500000 0.760003 0.233931
O O13 0.730817 0.853027 0.209060
O O14 0.750588 0.708793 0.172548
O O15 0.500000 0.091544 0.118818
O O16 0.308827 0.000000 0.199367
O O17 0.000000 0.178494 0.592585
#
# Coordination Sequence:
#
# PCOD8179730 Si02
#       7
#     8   8   4   4   8   8   8
#     4  11  23  40  62  91 124 162 208 256 309 371
#     4  12  23  36  58  89 123 159 202 250 306 371
#     4  12  24  38  60  91 124 161 202 255 317 373
#     4  10  24  44  62  87 124 163 208 259 313 371
#     4  10  22  40  63  91 122 159 205 256 306 366
#     4  10  20  37  61  87 121 159 196 248 309 364
#     4  11  23  41  65  90 123 164 205 258 315 369
#
# _framework density 20.065207999999998
#
# number of rings (size 3 to 8) (size 9 to 14) (size 15 to 20)
#    0.000    1.167    2.500    4.250    0.000    5.333 
#    1.500    0.000    0.000    0.000    0.000    0.000 
#    0.000    0.000    0.000    0.000    0.000    0.000 
#
# Total GULP energy -297611.246563 kJ/mol
# GULP energy per Si atom -12400.468607 kJ/mol
# Density = 2.001954 g / cm^3
# Si number density = 20.065208 Si / 1000 Ang^3
#
#
#
# Elastic Constant Matrix: (Units=GPa)
#
#
# Indices 1 2 3 4 5 6 
#
# 1 64.8681 35.7821 42.5910 0.0000 0.0000 0.0000
# 2 35.7821 146.4589 47.8880 0.0000 0.0000 0.0000
# 3 42.5910 47.8880 112.5851 0.0000 0.0000 0.0000
# 4 0.0000 0.0000 0.0000 29.6708 0.0000 0.0000
# 5 0.0000 0.0000 0.0000 0.0000 25.1599 0.0000
# 6 0.0000 0.0000 0.0000 0.0000 0.0000 23.3138
#
#
#
# Elastic Compliance Matrix: (Units=1/GPa)
#
#
# Indices 1 2 3 4 5 6 
#
# 1 0.021607 -0.003027 -0.006886 0.000000 0.000000 0.000000
# 2 -0.003027 0.008355 -0.002409 0.000000 0.000000 0.000000
# 3 -0.006886 -0.002409 0.012512 0.000000 0.000000 0.000000
# 4 0.000000 0.000000 0.000000 0.033703 0.000000 0.000000
# 5 0.000000 0.000000 0.000000 0.000000 0.039746 0.000000
# 6 0.000000 0.000000 0.000000 0.000000 0.000000 0.042893
#
#
# Mechanical properties :
#
#
# Convention : Reuss Voigt Hill
#
# Bulk Modulus (GPa) = 56.08674 64.04824 60.06749
# Shear Modulus (GPa) = 26.39867 28.80566 27.60217
#
# Velocity S-wave (km/s) = 3.63112 3.79304 3.71296
# Velocity P-wave (km/s) = 6.75225 7.15348 6.95576
#
# Compressibility (1/GPa) = 0.01782953
#
# Stress axis : x y z
#
# Youngs Moduli (GPa) = 46.28083 119.68873 79.92480
#
# Poissons Ratio (x) = 0.36234 0.55039
# Poissons Ratio (y) = 0.14011 0.19250
# Poissons Ratio (z) = 0.31871 0.28828
#
# Static dielectric constant tensor:
#      x y z
#    x 3.593260 0.000000 0.000000 
#    y 0.000000 3.743080 0.000000 
#    z 0.000000 0.000000 3.676440 
# 
# 
# High freq. dielectric constant tensor:
#      x y z
#    x 1.781830 0.000000 0.000000 
#    y 0.000000 1.796230 0.000000 
#    z 0.000000 0.000000 1.773640 
# 
# From -- ./inp_files/12118.got.cif
#   From: 2010.03.12/outbox.cif.g09.slc.cpg/sg38_7_cif.got.tgz:12118.got - 2010.04.14 02:38:36.
