data_PCOD8179128
_publ_section_title
;
Structure prediction by ZEFSAII (Michael W. Deem and Ramdas Pophale) SiO2 
 PCOD8179128
Probable space group: A M M 2
;
_chemical_formula_sum "Si O2"
_cell_formula_units_Z 64
_cell_length_a 14.005148
_cell_length_b 8.929143
_cell_length_c 31.280170
_cell_angle_alpha 90.000000
_cell_angle_beta 90.000000
_cell_angle_gamma 90.000000
_cell_volume 3911.709417
_symmetry_space_group_name_H-M "A M M 2"
_symmetry_group_IT_number 38
_symmetry_cell_setting 'orthorhombic'
loop_
_space_group_symop_operation_xyz
x,y,z
-x,-y,z
-x,y,z
x,-y,z
x,1/2+y,1/2+z
-x,1/2-y,1/2+z
-x,1/2+y,1/2+z
x,1/2-y,1/2+z
loop_
_atom_site_type_symbol
_atom_site_label
_atom_site_fract_x
_atom_site_fract_y
_atom_site_fract_z
Si Si1 0.778291 0.174767 0.375000
Si Si2 0.608093 0.676009 0.003617
Si Si3 0.886169 0.328171 0.114871
Si Si4 0.896153 0.823427 0.707308
Si Si5 0.886375 0.827785 0.799849
Si Si6 0.110972 0.673346 0.960457
Si Si7 0.391252 0.825964 0.913730
Si Si8 0.215799 0.824146 0.038110
O O1 0.835005 0.219852 0.332856
O O2 0.841758 0.219027 0.415779
O O3 0.677966 0.263481 0.376863
O O4 0.756113 0.000000 0.373320
O O5 0.500000 0.717667 0.016767
O O6 0.624611 0.500000 0.002279
O O7 0.633376 0.738360 0.956996
O O8 0.679381 0.749010 0.037809
O O9 0.859687 0.500000 0.104030
O O10 0.845364 0.280951 0.162242
O O11 0.836827 0.219170 0.081525
O O12 0.000000 0.307187 0.113140
O O13 0.845563 0.781316 0.752390
O O14 0.000000 0.745666 0.707286
O O15 0.911442 0.000000 0.707131
O O16 0.000000 0.803231 0.801694
O O17 0.861225 0.000000 0.810419
O O18 0.129435 0.500000 0.971574
O O19 0.000000 0.709807 0.956430
O O20 0.153881 0.772282 0.997964
O O21 0.500000 0.796583 0.899240
O O22 0.372053 0.000000 0.921962
O O23 0.228921 0.000000 0.036189
#
# Coordination Sequence:
#
# PCOD8179128 Si02
#       8
#     8   8   8   8   8   8   8   8
#     4  11  21  32  48  70  97 131 167 197 234 286
#     4  10  20  35  54  72  91 120 159 200 241 286
#     4   9  17  31  51  71  95 129 167 203 238 281
#     4   7  12  26  48  71  92 121 162 203 241 281
#     4   9  17  30  49  72  99 129 163 203 243 283
#     4  10  21  35  47  61  90 133 173 201 227 269
#     4  10  20  34  52  73  95 120 155 201 248 287
#     4  12  23  32  46  70  99 129 161 197 241 288
#
# _framework density 16.361134
#
# number of rings (size 3 to 8) (size 9 to 14) (size 15 to 20)
#    0.000    2.250    1.250    4.500    0.000    4.750 
#    0.000    0.625    0.000    2.250    0.000    0.875 
#    0.000    7.000    0.000    0.000    0.000    0.000 
#
# Total GULP energy -396655.639503 kJ/mol
# GULP energy per Si atom -12395.488734 kJ/mol
# Density = 1.632390 g / cm^3
# Si number density = 16.361134 Si / 1000 Ang^3
#
#
#
# Elastic Constant Matrix: (Units=GPa)
#
#
# Indices 1 2 3 4 5 6 
#
# 1 77.2235 36.2321 42.4671 0.0000 0.0000 0.0000
# 2 36.2321 72.3536 42.5528 0.0000 0.0000 0.0000
# 3 42.4671 42.5528 119.2884 0.0000 0.0000 0.0000
# 4 0.0000 0.0000 0.0000 24.1198 0.0000 0.0000
# 5 0.0000 0.0000 0.0000 0.0000 5.3443 0.0000
# 6 0.0000 0.0000 0.0000 0.0000 0.0000 23.1916
#
#
#
# Elastic Compliance Matrix: (Units=1/GPa)
#
#
# Indices 1 2 3 4 5 6 
#
# 1 0.018406 -0.006787 -0.004131 0.000000 0.000000 0.000000
# 2 -0.006787 0.019993 -0.004716 0.000000 0.000000 0.000000
# 3 -0.004131 -0.004716 0.011536 0.000000 0.000000 0.000000
# 4 0.000000 0.000000 0.000000 0.041460 0.000000 0.000000
# 5 0.000000 0.000000 0.000000 0.000000 0.187116 0.000000
# 6 0.000000 0.000000 0.000000 0.000000 0.000000 0.043119
#
#
# Mechanical properties :
#
#
# Convention : Reuss Voigt Hill
#
# Bulk Modulus (GPa) = 53.57221 56.81883 55.19552
# Shear Modulus (GPa) = 13.92290 20.37205 17.14747
#
# Velocity S-wave (km/s) = 2.92031 3.53249 3.24089
# Velocity P-wave (km/s) = 6.64723 7.17226 6.91473
#
# Compressibility (1/GPa) = 0.01866639
#
# Stress axis : x y z
#
# Youngs Moduli (GPa) = 54.33063 50.01691 86.68480
#
# Poissons Ratio (x) = 0.33948 0.35813
# Poissons Ratio (y) = 0.36875 0.40878
# Poissons Ratio (z) = 0.22446 0.23587
#
# Static dielectric constant tensor:
#      x y z
#    x 3.054030 0.000000 0.000000 
#    y 0.000000 2.988340 0.000000 
#    z 0.000000 0.000000 3.248170 
# 
# 
# High freq. dielectric constant tensor:
#      x y z
#    x 1.610680 0.000000 0.000000 
#    y 0.000000 1.625490 0.000000 
#    z 0.000000 0.000000 1.622430 
# 
# From -- ./inp_files/25086.got.cif
#   From: 2010.03.12/outbox.cif.g09.slc.cpg/sg38_13_cif.got.tgz:25086.got - 2010.04.14 02:38:36.
