data_PCOD8179075
_publ_section_title
;
Structure prediction by ZEFSAII (Michael W. Deem and Ramdas Pophale) SiO2 
 PCOD8179075
Probable space group: A M M 2
;
_chemical_formula_sum "Si O2"
_cell_formula_units_Z 64
_cell_length_a 13.254174
_cell_length_b 20.315075
_cell_length_c 13.418481
_cell_angle_alpha 90.000000
_cell_angle_beta 90.000000
_cell_angle_gamma 90.000000
_cell_volume 3613.054006
_symmetry_space_group_name_H-M "A M M 2"
_symmetry_group_IT_number 38
_symmetry_cell_setting 'orthorhombic'
loop_
_space_group_symop_operation_xyz
x,y,z
-x,-y,z
-x,y,z
x,-y,z
x,1/2+y,1/2+z
-x,1/2-y,1/2+z
-x,1/2+y,1/2+z
x,1/2-y,1/2+z
loop_
_atom_site_type_symbol
_atom_site_label
_atom_site_fract_x
_atom_site_fract_y
_atom_site_fract_z
Si Si1 0.113712 0.924596 0.534280
Si Si2 0.731805 0.763771 0.082911
Si Si3 0.728864 0.311463 0.368224
Si Si4 0.620900 0.188932 0.266513
Si Si5 0.117276 0.184825 0.696454
Si Si6 0.385884 0.867379 0.579741
Si Si7 0.297147 0.574688 0.898166
Si Si8 0.619405 0.073212 0.786925
O O1 0.137240 0.880236 0.630513
O O2 0.186458 0.906805 0.441698
O O3 0.000000 0.912108 0.496249
O O4 0.130470 0.000000 0.567610
O O5 0.656069 0.806305 0.151704
O O6 0.835756 0.748283 0.140683
O O7 0.678248 0.696166 0.052380
O O8 0.760583 0.800936 0.982046
O O9 0.658679 0.253244 0.325447
O O10 0.829615 0.322212 0.303612
O O11 0.664025 0.378394 0.369667
O O12 0.500000 0.184478 0.274055
O O13 0.672676 0.123345 0.309492
O O14 0.000000 0.197920 0.714801
O O15 0.500000 0.844765 0.594957
O O16 0.376631 0.918644 0.488985
O O17 0.343509 0.900811 0.679384
O O18 0.300186 0.500000 0.857417
O O19 0.500000 0.072930 0.793192
O O20 0.662199 0.000000 0.803990
#
# Coordination Sequence:
#
# PCOD8179075 Si02
#       8
#     8   8   8   8   8   8   8   8
#     4   9  17  32  56  85 116 146 176 219 280 343
#     4  11  22  37  54  78 109 144 186 227 268 324
#     4  11  21  36  56  79 109 147 184 227 270 330
#     4  11  22  36  54  77 108 148 189 225 269 326
#     4  10  20  35  55  82 111 140 177 228 285 332
#     4  11  19  31  53  81 109 140 175 226 283 331
#     4  11  21  34  53  82 115 146 183 230 278 327
#     4  10  20  33  52  81 114 146 181 225 276 325
#
# _framework density 17.713546000000001
#
# number of rings (size 3 to 8) (size 9 to 14) (size 15 to 20)
#    0.000    1.500    5.000    1.500    0.000    5.000 
#    0.000    4.375    0.000    0.000    0.000    0.000 
#    0.000    4.000    0.000    0.000    0.000    0.000 
#
# Total GULP energy -396787.264897 kJ/mol
# GULP energy per Si atom -12399.602028 kJ/mol
# Density = 1.767323 g / cm^3
# Si number density = 17.713546 Si / 1000 Ang^3
#
#
#
# Elastic Constant Matrix: (Units=GPa)
#
#
# Indices 1 2 3 4 5 6 
#
# 1 103.5464 43.2233 40.6678 0.0000 0.0000 0.0000
# 2 43.2233 107.6447 46.5325 0.0000 0.0000 0.0000
# 3 40.6678 46.5325 98.2014 0.0000 0.0000 0.0000
# 4 0.0000 0.0000 0.0000 29.1063 0.0000 0.0000
# 5 0.0000 0.0000 0.0000 0.0000 19.8247 0.0000
# 6 0.0000 0.0000 0.0000 0.0000 0.0000 23.7570
#
#
#
# Elastic Compliance Matrix: (Units=1/GPa)
#
#
# Indices 1 2 3 4 5 6 
#
# 1 0.012500 -0.003498 -0.003519 0.000000 0.000000 0.000000
# 2 -0.003498 0.012662 -0.004551 0.000000 0.000000 0.000000
# 3 -0.003519 -0.004551 0.013797 0.000000 0.000000 0.000000
# 4 0.000000 0.000000 0.000000 0.034357 0.000000 0.000000
# 5 0.000000 0.000000 0.000000 0.000000 0.050442 0.000000
# 6 0.000000 0.000000 0.000000 0.000000 0.000000 0.042093
#
#
# Mechanical properties :
#
#
# Convention : Reuss Voigt Hill
#
# Bulk Modulus (GPa) = 63.20172 63.35997 63.28085
# Shear Modulus (GPa) = 25.73862 26.46885 26.10373
#
# Velocity S-wave (km/s) = 3.81602 3.86977 3.84299
# Velocity P-wave (km/s) = 7.42788 7.47086 7.44940
#
# Compressibility (1/GPa) = 0.01582235
#
# Stress axis : x y z
#
# Youngs Moduli (GPa) = 80.00176 78.97820 72.47945
#
# Poissons Ratio (x) = 0.27626 0.25505
# Poissons Ratio (y) = 0.27984 0.32986
# Poissons Ratio (z) = 0.28153 0.35944
#
# Static dielectric constant tensor:
#      x y z
#    x 3.386120 0.000000 0.000000 
#    y 0.000000 3.357500 0.000000 
#    z 0.000000 0.000000 3.146710 
# 
# 
# High freq. dielectric constant tensor:
#      x y z
#    x 1.690880 0.000000 0.000000 
#    y 0.000000 1.678690 0.000000 
#    z 0.000000 0.000000 1.662500 
# 
# From -- ./inp_files/14775.got.cif
#   From: 2010.03.12/outbox.cif.g09.slc.cpg/sg38_8_cif.got.tgz:14775.got - 2010.04.14 02:38:36.
