data_PCOD8179859
_publ_section_title
;
Structure prediction by ZEFSAII (Michael W. Deem and Ramdas Pophale) SiO2 
 PCOD8179859
Probable space group: A M M 2
;
_chemical_formula_sum "Si O2"
_cell_formula_units_Z 64
_cell_length_a 8.835020
_cell_length_b 14.547207
_cell_length_c 28.233317
_cell_angle_alpha 90.000000
_cell_angle_beta 90.000000
_cell_angle_gamma 90.000000
_cell_volume 3628.683250
_symmetry_space_group_name_H-M "A M M 2"
_symmetry_group_IT_number 38
_symmetry_cell_setting 'orthorhombic'
loop_
_space_group_symop_operation_xyz
x,y,z
-x,-y,z
-x,y,z
x,-y,z
x,1/2+y,1/2+z
-x,1/2-y,1/2+z
-x,1/2+y,1/2+z
x,1/2-y,1/2+z
loop_
_atom_site_type_symbol
_atom_site_label
_atom_site_fract_x
_atom_site_fract_y
_atom_site_fract_z
Si Si1 0.820550 0.726290 0.059590
Si Si2 0.322591 0.394699 0.139683
Si Si3 0.179878 0.101007 0.369329
Si Si4 0.173080 0.393117 0.420407
Si Si5 0.820144 0.713042 0.329211
Si Si6 0.179569 0.602127 0.975091
Si Si7 0.175010 0.105788 0.738535
Si Si8 0.321902 0.895395 0.018628
O O1 0.765925 0.674693 0.106225
O O2 0.755035 0.829619 0.057691
O O3 0.000000 0.730582 0.060407
O O4 0.754968 0.672761 0.013600
O O5 0.500000 0.378876 0.133925
O O6 0.277233 0.500000 0.127556
O O7 0.274794 0.370985 0.193015
O O8 0.233502 0.180169 0.332847
O O9 0.236706 0.127365 0.422246
O O10 0.000000 0.096690 0.370320
O O11 0.243093 0.000000 0.354189
O O12 0.184726 0.500000 0.408621
O O13 0.241992 0.340275 0.375249
O O14 0.268826 0.365858 0.466338
O O15 0.000000 0.363122 0.430458
O O16 0.757973 0.668398 0.280984
O O17 0.000000 0.703487 0.329060
O O18 0.236984 0.500000 0.988433
O O19 0.000000 0.605090 0.976821
O O20 0.000000 0.128728 0.727451
O O21 0.192769 0.000000 0.753983
O O22 0.500000 0.884661 0.022001
O O23 0.270690 0.000000 0.029432
#
# Coordination Sequence:
#
# PCOD8179859 Si02
#       8
#     8   8   8   8   8   8   8   8
#     4  11  20  31  52  76  96 123 163 207 245 286
#     4  10  21  36  52  72 100 129 155 190 242 303
#     4   8  13  21  34  57  92 127 152 178 219 271
#     4   9  16  27  45  69  95 123 158 199 241 286
#     4   9  15  24  42  67  93 121 156 199 244 285
#     4   8  14  24  40  67 100 127 152 186 230 279
#     4   9  17  30  48  69  92 119 154 197 244 291
#     4  10  21  35  48  66  98 136 168 200 241 290
#
# _framework density 17.637253000000001
#
# number of rings (size 3 to 8) (size 9 to 14) (size 15 to 20)
#    0.000    2.750    0.000    3.375    0.000    5.500 
#    0.000    0.625    0.000    3.750    0.000    1.750 
#    0.000    1.000    0.000    0.000    0.000    0.000 
#
# Total GULP energy -396693.176955 kJ/mol
# GULP energy per Si atom -12396.661780 kJ/mol
# Density = 1.759711 g / cm^3
# Si number density = 17.637253 Si / 1000 Ang^3
#
#
#
# Elastic Constant Matrix: (Units=GPa)
#
#
# Indices 1 2 3 4 5 6 
#
# 1 40.7040 30.6414 26.5983 0.0000 0.0000 0.0000
# 2 30.6414 117.0488 74.8823 0.0000 0.0000 0.0000
# 3 26.5983 74.8823 96.8334 0.0000 0.0000 0.0000
# 4 0.0000 0.0000 0.0000 32.9635 0.0000 0.0000
# 5 0.0000 0.0000 0.0000 0.0000 9.7887 0.0000
# 6 0.0000 0.0000 0.0000 0.0000 0.0000 17.0197
#
#
#
# Elastic Compliance Matrix: (Units=1/GPa)
#
#
# Indices 1 2 3 4 5 6 
#
# 1 0.031563 -0.005376 -0.004513 0.000000 0.000000 0.000000
# 2 -0.005376 0.017824 -0.012307 0.000000 0.000000 0.000000
# 3 -0.004513 -0.012307 0.021084 0.000000 0.000000 0.000000
# 4 0.000000 0.000000 0.000000 0.030337 0.000000 0.000000
# 5 0.000000 0.000000 0.000000 0.000000 0.102158 0.000000
# 6 0.000000 0.000000 0.000000 0.000000 0.000000 0.058755
#
#
# Mechanical properties :
#
#
# Convention : Reuss Voigt Hill
#
# Bulk Modulus (GPa) = 38.34322 57.64783 47.99552
# Shear Modulus (GPa) = 15.88282 20.11867 18.00075
#
# Velocity S-wave (km/s) = 3.00413 3.38108 3.19816
# Velocity P-wave (km/s) = 5.81551 6.92809 6.39604
#
# Compressibility (1/GPa) = 0.02608023
#
# Stress axis : x y z
#
# Youngs Moduli (GPa) = 31.68241 56.10362 47.42994
#
# Poissons Ratio (x) = 0.30160 0.21404
# Poissons Ratio (y) = 0.17032 0.58372
# Poissons Ratio (z) = 0.14297 0.69047
#
# Static dielectric constant tensor:
#      x y z
#    x 2.897580 0.000000 0.000000 
#    y 0.000000 3.558490 0.000000 
#    z 0.000000 0.000000 3.210150 
# 
# 
# High freq. dielectric constant tensor:
#      x y z
#    x 1.644140 0.000000 0.000000 
#    y 0.000000 1.688650 0.000000 
#    z 0.000000 0.000000 1.664090 
# 
# From -- ./inp_files/24823.got.cif
#   From: 2010.03.12/outbox.cif.g09.slc.cpg/sg38_13_cif.got.tgz:24823.got - 2010.04.14 02:38:36.
