data_PCOD8179801
_publ_section_title
;
Structure prediction by ZEFSAII (Michael W. Deem and Ramdas Pophale) SiO2 
 PCOD8179801
Probable space group: A M M 2
;
_chemical_formula_sum "Si O2"
_cell_formula_units_Z 56
_cell_length_a 15.730600
_cell_length_b 18.811743
_cell_length_c 9.346428
_cell_angle_alpha 90.000000
_cell_angle_beta 90.000000
_cell_angle_gamma 90.000000
_cell_volume 2765.795015
_symmetry_space_group_name_H-M "A M M 2"
_symmetry_group_IT_number 38
_symmetry_cell_setting 'orthorhombic'
loop_
_space_group_symop_operation_xyz
x,y,z
-x,-y,z
-x,y,z
x,-y,z
x,1/2+y,1/2+z
-x,1/2-y,1/2+z
-x,1/2+y,1/2+z
x,1/2-y,1/2+z
loop_
_atom_site_type_symbol
_atom_site_label
_atom_site_fract_x
_atom_site_fract_y
_atom_site_fract_z
Si Si1 0.167608 0.415209 0.744840
Si Si2 0.156939 0.916573 0.574194
Si Si3 0.000000 0.085249 0.752034
Si Si4 0.597444 0.701670 0.012846
Si Si5 0.595334 0.078063 0.983459
Si Si6 0.000000 0.416145 0.574454
Si Si7 0.663172 0.916027 0.687493
Si Si8 0.333616 0.822828 0.198654
O O1 0.189144 0.500000 0.726285
O O2 0.085062 0.391472 0.655543
O O3 0.243576 0.364032 0.692385
O O4 0.147411 0.396370 0.908719
O O5 0.081211 0.883212 0.668003
O O6 0.245007 0.888568 0.637677
O O7 0.153438 0.000000 0.593503
O O8 0.000000 0.115157 0.913751
O O9 0.000000 0.000000 0.751841
O O10 0.500000 0.730667 0.006012
O O11 0.595516 0.624352 0.087340
O O12 0.661710 0.751379 0.103833
O O13 0.636166 0.695504 0.856084
O O14 0.500000 0.076565 0.923890
O O15 0.653021 0.107113 0.853050
O O16 0.627177 0.000000 0.026545
O O17 0.599087 0.124757 0.125110
O O18 0.000000 0.500000 0.568565
O O19 0.648516 0.000000 0.667181
#
# Coordination Sequence:
#
# PCOD8179801 Si02
#       8
#     8   8   4   8   8   4   8   8
#     4  10  20  38  64  96 132 166 205 256 312 372
#     4   9  17  32  55  87 125 161 196 239 301 365
#     4   9  17  29  53  90 129 164 198 244 301 371
#     4  12  25  42  63  87 120 164 212 264 318 380
#     4  10  21  37  58  86 120 157 200 259 321 372
#     4   9  19  33  59  98 133 166 203 250 307 369
#     4  10  21  38  62  92 123 157 202 256 318 382
#     4  12  25  42  63  87 121 164 216 261 316 377
#
# _framework density 20.247342
#
# number of rings (size 3 to 8) (size 9 to 14) (size 15 to 20)
#    0.000    1.714    1.429    3.429    2.000    3.143 
#    0.000    0.000    0.000    1.714    0.000    0.000 
#    0.000    0.000    0.000    0.000    0.000    0.000 
#
# Total GULP energy -347079.176468 kJ/mol
# GULP energy per Si atom -12395.684874 kJ/mol
# Density = 2.020126 g / cm^3
# Si number density = 20.247342 Si / 1000 Ang^3
#
#
#
# Elastic Constant Matrix: (Units=GPa)
#
#
# Indices 1 2 3 4 5 6 
#
# 1 127.8309 40.4034 59.8057 0.0000 0.0000 0.0000
# 2 40.4034 69.0975 59.9386 0.0000 0.0000 0.0000
# 3 59.8057 59.9386 158.3334 0.0000 0.0000 0.0000
# 4 0.0000 0.0000 0.0000 30.2999 0.0000 0.0000
# 5 0.0000 0.0000 0.0000 0.0000 38.9456 0.0000
# 6 0.0000 0.0000 0.0000 0.0000 0.0000 23.2839
#
#
#
# Elastic Compliance Matrix: (Units=1/GPa)
#
#
# Indices 1 2 3 4 5 6 
#
# 1 0.010158 -0.003888 -0.002365 0.000000 0.000000 0.000000
# 2 -0.003888 0.023037 -0.007252 0.000000 0.000000 0.000000
# 3 -0.002365 -0.007252 0.009954 0.000000 0.000000 0.000000
# 4 0.000000 0.000000 0.000000 0.033003 0.000000 0.000000
# 5 0.000000 0.000000 0.000000 0.000000 0.025677 0.000000
# 6 0.000000 0.000000 0.000000 0.000000 0.000000 0.042948
#
#
# Mechanical properties :
#
#
# Convention : Reuss Voigt Hill
#
# Bulk Modulus (GPa) = 61.96314 75.06191 68.51252
# Shear Modulus (GPa) = 28.22175 31.51347 29.86761
#
# Velocity S-wave (km/s) = 3.73748 3.94944 3.84492
# Velocity P-wave (km/s) = 7.02101 7.61251 7.32273
#
# Compressibility (1/GPa) = 0.01613863
#
# Stress axis : x y z
#
# Youngs Moduli (GPa) = 98.44174 43.40893 100.45756
#
# Poissons Ratio (x) = 0.16879 0.23759
# Poissons Ratio (y) = 0.38277 0.72853
# Poissons Ratio (z) = 0.23282 0.31480
#
# Static dielectric constant tensor:
#      x y z
#    x 3.832390 0.000000 0.000000 
#    y 0.000000 3.488630 0.000000 
#    z 0.000000 0.000000 3.808040 
# 
# 
# High freq. dielectric constant tensor:
#      x y z
#    x 1.792310 0.000000 0.000000 
#    y 0.000000 1.760230 0.000000 
#    z 0.000000 0.000000 1.805850 
# 
# From -- ./inp_files/5744.got.cif
#   From: 2010.03.12/outbox.cif.g09.slc.cpg/sg38_3_cif.got.tgz:5744.got - 2010.04.14 02:38:36.
