data_PCOD8179611
_publ_section_title
;
Structure prediction by ZEFSAII (Michael W. Deem and Ramdas Pophale) SiO2 
 PCOD8179611
Probable space group: A M M 2
;
_chemical_formula_sum "Si O2"
_cell_formula_units_Z 48
_cell_length_a 14.907830
_cell_length_b 8.879317
_cell_length_c 18.889403
_cell_angle_alpha 90.000000
_cell_angle_beta 90.000000
_cell_angle_gamma 90.000000
_cell_volume 2500.415745
_symmetry_space_group_name_H-M "A M M 2"
_symmetry_group_IT_number 38
_symmetry_cell_setting 'orthorhombic'
loop_
_space_group_symop_operation_xyz
x,y,z
-x,-y,z
-x,y,z
x,-y,z
x,1/2+y,1/2+z
-x,1/2-y,1/2+z
-x,1/2+y,1/2+z
x,1/2-y,1/2+z
loop_
_atom_site_type_symbol
_atom_site_label
_atom_site_fract_x
_atom_site_fract_y
_atom_site_fract_z
Si Si1 0.850694 0.173581 0.937600
Si Si2 0.500000 0.174713 0.339579
Si Si3 0.000000 0.176988 0.176581
Si Si4 0.646227 0.323140 0.080430
Si Si5 0.000000 0.174574 0.825925
Si Si6 0.853392 0.324650 0.082300
Si Si7 0.645031 0.676152 0.433063
Si Si8 0.500000 0.825042 0.173390
O O1 0.748773 0.210458 0.916438
O O2 0.911771 0.214410 0.870916
O O3 0.862450 0.000000 0.959648
O O4 0.882326 0.271626 0.004275
O O5 0.410959 0.251267 0.370019
O O6 0.500000 0.201778 0.256492
O O7 0.500000 0.000000 0.359714
O O8 0.000000 0.219795 0.258433
O O9 0.910374 0.240515 0.141271
O O10 0.000000 0.000000 0.168132
O O11 0.628353 0.500000 0.075760
O O12 0.749676 0.285766 0.096306
O O13 0.589065 0.252385 0.143332
O O14 0.615098 0.249908 0.006849
O O15 0.000000 0.000000 0.802803
O O16 0.873592 0.500000 0.088638
O O17 0.624525 0.500000 0.437375
O O18 0.500000 0.000000 0.153181
#
# Coordination Sequence:
#
# PCOD8179611 Si02
#       8
#     8   4   4   8   4   8   8   4
#     4   9  19  36  60  87 113 144 182 227 277 329
#     4  11  24  39  54  77 111 149 188 231 280 329
#     4  12  25  38  55  81 115 153 189 228 277 332
#     4  10  21  38  61  86 112 145 186 232 279 329
#     4  10  21  38  57  81 115 149 183 224 273 330
#     4  10  21  38  61  86 112 145 186 232 279 329
#     4  10  20  36  59  85 112 144 184 228 276 331
#     4  11  24  39  56  81 115 153 188 229 280 331
#
# _framework density 19.196808000000001
#
# number of rings (size 3 to 8) (size 9 to 14) (size 15 to 20)
#    0.000    1.833    0.000    3.750    0.000    6.667 
#    0.000    5.000    0.000    0.000    0.000    0.000 
#    0.000    0.000    0.000    0.000    0.000    0.000 
#
# Total GULP energy -297742.075175 kJ/mol
# GULP energy per Si atom -12405.919799 kJ/mol
# Density = 1.915312 g / cm^3
# Si number density = 19.196808 Si / 1000 Ang^3
#
#
#
# Elastic Constant Matrix: (Units=GPa)
#
#
# Indices 1 2 3 4 5 6 
#
# 1 111.1047 57.7628 70.0535 0.0000 0.0000 0.0000
# 2 57.7628 124.0313 71.4735 0.0000 0.0000 0.0000
# 3 70.0535 71.4735 123.3512 0.0000 0.0000 0.0000
# 4 0.0000 0.0000 0.0000 37.7248 0.0000 0.0000
# 5 0.0000 0.0000 0.0000 0.0000 19.5982 0.0000
# 6 0.0000 0.0000 0.0000 0.0000 0.0000 37.0380
#
#
#
# Elastic Compliance Matrix: (Units=1/GPa)
#
#
# Indices 1 2 3 4 5 6 
#
# 1 0.014760 -0.003068 -0.006605 0.000000 0.000000 0.000000
# 2 -0.003068 0.012742 -0.005641 0.000000 0.000000 0.000000
# 3 -0.006605 -0.005641 0.015126 0.000000 0.000000 0.000000
# 4 0.000000 0.000000 0.000000 0.026508 0.000000 0.000000
# 5 0.000000 0.000000 0.000000 0.000000 0.051025 0.000000
# 6 0.000000 0.000000 0.000000 0.000000 0.000000 0.026999
#
#
# Mechanical properties :
#
#
# Convention : Reuss Voigt Hill
#
# Bulk Modulus (GPa) = 83.32440 84.11854 83.72147
# Shear Modulus (GPa) = 27.50472 29.48538 28.49505
#
# Velocity S-wave (km/s) = 3.78931 3.92337 3.85692
# Velocity P-wave (km/s) = 7.91484 8.02733 7.97128
#
# Compressibility (1/GPa) = 0.01200129
#
# Stress axis : x y z
#
# Youngs Moduli (GPa) = 67.75100 78.48300 66.10990
#
# Poissons Ratio (x) = 0.24077 0.43665
# Poissons Ratio (y) = 0.20785 0.37290
# Poissons Ratio (z) = 0.44749 0.44269
#
# Static dielectric constant tensor:
#      x y z
#    x 3.733140 0.000000 0.000000 
#    y 0.000000 3.623980 0.000000 
#    z 0.000000 0.000000 3.386630 
# 
# 
# High freq. dielectric constant tensor:
#      x y z
#    x 1.761940 0.000000 0.000000 
#    y 0.000000 1.758050 0.000000 
#    z 0.000000 0.000000 1.741370 
# 
# From -- ./inp_files/18256.got.cif
#   From: 2010.03.12/outbox.cif.g09.slc.cpg/sg38_10_cif.got.tgz:18256.got - 2010.04.14 02:38:36.
