data_PCOD8179923
_publ_section_title
;
Structure prediction by ZEFSAII (Michael W. Deem and Ramdas Pophale) SiO2 
 PCOD8179923
Probable space group: A M M 2
;
_chemical_formula_sum "Si O2"
_cell_formula_units_Z 48
_cell_length_a 18.614124
_cell_length_b 9.115085
_cell_length_c 15.396303
_cell_angle_alpha 90.000000
_cell_angle_beta 90.000000
_cell_angle_gamma 90.000000
_cell_volume 2612.280298
_symmetry_space_group_name_H-M "A M M 2"
_symmetry_group_IT_number 38
_symmetry_cell_setting 'orthorhombic'
loop_
_space_group_symop_operation_xyz
x,y,z
-x,-y,z
-x,y,z
x,-y,z
x,1/2+y,1/2+z
-x,1/2-y,1/2+z
-x,1/2+y,1/2+z
x,1/2-y,1/2+z
loop_
_atom_site_type_symbol
_atom_site_label
_atom_site_fract_x
_atom_site_fract_y
_atom_site_fract_z
Si Si1 0.415417 0.331657 0.390800
Si Si2 0.420569 0.673670 0.585608
Si Si3 0.175312 0.826701 0.747988
Si Si4 0.672550 0.674305 0.745373
Si Si5 0.081866 0.672221 0.084711
Si Si6 0.081987 0.671752 0.411777
O O1 0.500000 0.312894 0.375853
O O2 0.392268 0.500000 0.373758
O O3 0.394633 0.283218 0.488894
O O4 0.373527 0.224008 0.327578
O O5 0.500000 0.740169 0.603847
O O6 0.426059 0.500000 0.591765
O O7 0.365303 0.733785 0.657407
O O8 0.249486 0.742679 0.749783
O O9 0.130979 0.775554 0.664003
O O10 0.130359 0.777134 0.831738
O O11 0.189042 0.000000 0.747656
O O12 0.678436 0.500000 0.746060
O O13 0.087193 0.500000 0.070700
O O14 0.000000 0.720034 0.104573
O O15 0.110903 0.748927 0.997864
O O16 0.088470 0.500000 0.427726
O O17 0.000000 0.717461 0.391573
#
# Coordination Sequence:
#
# PCOD8179923 Si02
#       6
#     8   8   8   8   8   8
#     4   9  18  35  58  79 100 132 173 211 251 305
#     4   8  16  33  55  75  97 130 169 206 248 300
#     4  10  21  36  52  72 104 142 174 205 250 311
#     4  11  22  34  51  77 108 138 170 211 257 301
#     4   9  18  34  56  79 102 131 169 215 263 305
#     4   9  18  34  56  78  99 130 173 215 255 305
#
# _framework density 18.374751
#
# number of rings (size 3 to 8) (size 9 to 14) (size 15 to 20)
#    0.000    2.667    0.000    2.500    0.000    5.667 
#    0.000    6.667    0.000    7.000    0.000    0.000 
#    0.000    0.000    0.000    0.000    0.000    0.000 
#
# Total GULP energy -297603.264147 kJ/mol
# GULP energy per Si atom -12400.136006 kJ/mol
# Density = 1.833293 g / cm^3
# Si number density = 18.374751 Si / 1000 Ang^3
#
#
#
# Elastic Constant Matrix: (Units=GPa)
#
#
# Indices 1 2 3 4 5 6 
#
# 1 105.1537 37.6653 88.9414 0.0000 0.0000 0.0000
# 2 37.6653 34.6495 46.4319 0.0000 0.0000 0.0000
# 3 88.9414 46.4319 175.8784 0.0000 0.0000 0.0000
# 4 0.0000 0.0000 0.0000 32.1333 0.0000 0.0000
# 5 0.0000 0.0000 0.0000 0.0000 9.8696 0.0000
# 6 0.0000 0.0000 0.0000 0.0000 0.0000 24.2251
#
#
#
# Elastic Compliance Matrix: (Units=1/GPa)
#
#
# Indices 1 2 3 4 5 6 
#
# 1 0.019535 -0.012375 -0.006612 0.000000 0.000000 0.000000
# 2 -0.012375 0.052499 -0.007602 0.000000 0.000000 0.000000
# 3 -0.006612 -0.007602 0.011036 0.000000 0.000000 0.000000
# 4 0.000000 0.000000 0.000000 0.031120 0.000000 0.000000
# 5 0.000000 0.000000 0.000000 0.000000 0.101321 0.000000
# 6 0.000000 0.000000 0.000000 0.000000 0.000000 0.041279
#
#
# Mechanical properties :
#
#
# Convention : Reuss Voigt Hill
#
# Bulk Modulus (GPa) = 33.45246 73.52874 53.49060
# Shear Modulus (GPa) = 15.62827 22.75514 19.19170
#
# Velocity S-wave (km/s) = 2.91955 3.52290 3.23532
# Velocity P-wave (km/s) = 5.44153 7.52667 6.56738
#
# Compressibility (1/GPa) = 0.02989317
#
# Stress axis : x y z
#
# Youngs Moduli (GPa) = 51.19025 19.04785 90.61132
#
# Poissons Ratio (x) = 0.23572 0.59910
# Poissons Ratio (y) = 0.63349 0.68880
# Poissons Ratio (z) = 0.33846 0.14480
#
# Static dielectric constant tensor:
#      x y z
#    x 3.306250 0.000000 0.000000 
#    y 0.000000 3.140420 0.000000 
#    z 0.000000 0.000000 3.668130 
# 
# 
# High freq. dielectric constant tensor:
#      x y z
#    x 1.711110 0.000000 0.000000 
#    y 0.000000 1.689840 0.000000 
#    z 0.000000 0.000000 1.727720 
# 
# From -- ./inp_files/14956.got.cif
#   From: 2010.03.12/outbox.cif.g09.slc.cpg/sg38_8_cif.got.tgz:14956.got - 2010.04.14 02:38:36.
