data_PCOD8179983
_publ_section_title
;
Structure prediction by ZEFSAII (Michael W. Deem and Ramdas Pophale) SiO2 
 PCOD8179983
Probable space group: A M M 2
;
_chemical_formula_sum "Si O2"
_cell_formula_units_Z 48
_cell_length_a 9.114689
_cell_length_b 8.981556
_cell_length_c 30.674720
_cell_angle_alpha 90.000000
_cell_angle_beta 90.000000
_cell_angle_gamma 90.000000
_cell_volume 2511.158029
_symmetry_space_group_name_H-M "A M M 2"
_symmetry_group_IT_number 38
_symmetry_cell_setting 'orthorhombic'
loop_
_space_group_symop_operation_xyz
x,y,z
-x,-y,z
-x,y,z
x,-y,z
x,1/2+y,1/2+z
-x,1/2-y,1/2+z
-x,1/2+y,1/2+z
x,1/2-y,1/2+z
loop_
_atom_site_type_symbol
_atom_site_label
_atom_site_fract_x
_atom_site_fract_y
_atom_site_fract_z
Si Si1 0.169086 0.672067 0.320070
Si Si2 0.327731 0.328113 0.231996
Si Si3 0.826603 0.831006 0.407416
Si Si4 0.331570 0.824586 0.574565
Si Si5 0.829277 0.826771 0.153375
Si Si6 0.330127 0.172796 0.985683
O O1 0.192240 0.500000 0.332250
O O2 0.266322 0.719050 0.278943
O O3 0.224864 0.768914 0.360727
O O4 0.000000 0.705819 0.308763
O O5 0.500000 0.299792 0.231363
O O6 0.289622 0.500000 0.221760
O O7 0.253622 0.224220 0.196489
O O8 0.759375 0.730897 0.444889
O O9 0.000000 0.819602 0.411458
O O10 0.770957 0.000000 0.412101
O O11 0.500000 0.779053 0.584103
O O12 0.229531 0.762736 0.612247
O O13 0.277052 0.757084 0.528981
O O14 0.312862 0.000000 0.572169
O O15 0.000000 0.791586 0.159224
O O16 0.798964 0.000000 0.145644
O O17 0.500000 0.204828 0.976642
O O18 0.297013 0.000000 0.992427
#
# Coordination Sequence:
#
# PCOD8179983 Si02
#       6
#     8   8   8   8   8   8
#     4   9  18  34  55  78 108 147 187 227 272 322
#     4  10  21  37  58  84 112 143 181 225 274 328
#     4  10  21  36  55  81 113 148 185 226 273 324
#     4  10  21  38  60  84 110 142 181 225 274 327
#     4  11  24  39  56  81 112 146 184 225 270 322
#     4  10  21  37  58  83 111 145 184 226 273 324
#
# _framework density 19.114688000000001
#
# number of rings (size 3 to 8) (size 9 to 14) (size 15 to 20)
#    0.000    2.000    0.000    3.000    0.000    9.333 
#    0.000    3.333    0.000    0.000    0.000    0.000 
#    0.000    0.000    0.000    0.000    0.000    0.000 
#
# Total GULP energy -297728.442731 kJ/mol
# GULP energy per Si atom -12405.351780 kJ/mol
# Density = 1.907118 g / cm^3
# Si number density = 19.114688 Si / 1000 Ang^3
#
#
#
# Elastic Constant Matrix: (Units=GPa)
#
#
# Indices 1 2 3 4 5 6 
#
# 1 63.4897 37.9056 55.8535 0.0000 0.0000 0.0000
# 2 37.9056 77.8748 54.0748 0.0000 0.0000 0.0000
# 3 55.8535 54.0748 137.8323 0.0000 0.0000 0.0000
# 4 0.0000 0.0000 0.0000 43.0108 0.0000 0.0000
# 5 0.0000 0.0000 0.0000 0.0000 39.4858 0.0000
# 6 0.0000 0.0000 0.0000 0.0000 0.0000 29.2415
#
#
#
# Elastic Compliance Matrix: (Units=1/GPa)
#
#
# Indices 1 2 3 4 5 6 
#
# 1 0.027516 -0.007767 -0.008103 0.000000 0.000000 0.000000
# 2 -0.007767 0.019841 -0.004637 0.000000 0.000000 0.000000
# 3 -0.008103 -0.004637 0.012358 0.000000 0.000000 0.000000
# 4 0.000000 0.000000 0.000000 0.023250 0.000000 0.000000
# 5 0.000000 0.000000 0.000000 0.000000 0.025326 0.000000
# 6 0.000000 0.000000 0.000000 0.000000 0.000000 0.034198
#
#
# Mechanical properties :
#
#
# Convention : Reuss Voigt Hill
#
# Bulk Modulus (GPa) = 53.47095 63.87384 58.67239
# Shear Modulus (GPa) = 26.35225 31.10515 28.72870
#
# Velocity S-wave (km/s) = 3.71703 4.03834 3.88101
# Velocity P-wave (km/s) = 6.81588 7.43189 7.13054
#
# Compressibility (1/GPa) = 0.01870174
#
# Stress axis : x y z
#
# Youngs Moduli (GPa) = 36.34215 50.39969 80.91899
#
# Poissons Ratio (x) = 0.39144 0.65571
# Poissons Ratio (y) = 0.28226 0.37522
# Poissons Ratio (z) = 0.29449 0.23370
#
# Static dielectric constant tensor:
#      x y z
#    x 3.457950 0.000000 0.000000 
#    y 0.000000 3.609210 0.000000 
#    z 0.000000 0.000000 3.653350 
# 
# 
# High freq. dielectric constant tensor:
#      x y z
#    x 1.739830 0.000000 0.000000 
#    y 0.000000 1.751400 0.000000 
#    z 0.000000 0.000000 1.757080 
# 
# From -- ./inp_files/24264.got.cif
#   From: 2010.03.12/outbox.cif.g09.slc.cpg/sg38_13_cif.got.tgz:24264.got - 2010.04.14 02:38:36.
