data_PCOD8179654
_publ_section_title
;
Structure prediction by ZEFSAII (Michael W. Deem and Ramdas Pophale) SiO2 
 PCOD8179654
Probable space group: A M M 2
;
_chemical_formula_sum "Si O2"
_cell_formula_units_Z 56
_cell_length_a 13.570099
_cell_length_b 9.593276
_cell_length_c 20.249264
_cell_angle_alpha 90.000000
_cell_angle_beta 90.000000
_cell_angle_gamma 90.000000
_cell_volume 2636.083714
_symmetry_space_group_name_H-M "A M M 2"
_symmetry_group_IT_number 38
_symmetry_cell_setting 'orthorhombic'
loop_
_space_group_symop_operation_xyz
x,y,z
-x,-y,z
-x,y,z
x,-y,z
x,1/2+y,1/2+z
-x,1/2-y,1/2+z
-x,1/2+y,1/2+z
x,1/2-y,1/2+z
loop_
_atom_site_type_symbol
_atom_site_label
_atom_site_fract_x
_atom_site_fract_y
_atom_site_fract_z
Si Si1 0.312186 0.150301 0.656720
Si Si2 0.109783 0.230935 0.707050
Si Si3 0.609871 0.158323 0.795260
Si Si4 0.110358 0.150790 0.069746
Si Si5 0.766006 0.162041 0.477811
Si Si6 0.385322 0.834614 0.041138
Si Si7 0.211634 0.159127 0.332004
O O1 0.201675 0.133672 0.687563
O O2 0.387082 0.177444 0.716320
O O3 0.327661 0.277014 0.605884
O O4 0.335586 0.000000 0.623114
O O5 0.110264 0.346962 0.649596
O O6 0.128566 0.290683 0.780700
O O7 0.000000 0.159124 0.708354
O O8 0.500000 0.195749 0.819524
O O9 0.685623 0.261157 0.829091
O O10 0.636871 0.000000 0.815061
O O11 0.000000 0.161437 0.042775
O O12 0.155789 0.000000 0.048648
O O13 0.167160 0.280128 0.037382
O O14 0.664408 0.253437 0.479181
O O15 0.823106 0.179378 0.408023
O O16 0.743032 0.000000 0.491898
O O17 0.500000 0.796044 0.044462
O O18 0.369561 0.000000 0.035633
O O19 0.235390 0.000000 0.316094
#
# Coordination Sequence:
#
# PCOD8179654 Si02
#       7
#     8   8   8   8   8   8   8
#     4  10  20  36  60  92 128 162 198 250 311 367
#     4  10  21  38  64  95 126 161 204 251 303 362
#     4   9  19  36  58  85 119 159 199 244 305 370
#     4  10  21  38  63  92 121 157 202 253 307 364
#     4  11  24  41  61  88 125 167 206 255 314 369
#     4  11  24  40  61  89 121 162 211 260 311 370
#     4  10  23  40  59  88 124 162 207 255 306 363
#
# _framework density 21.243634
#
# number of rings (size 3 to 8) (size 9 to 14) (size 15 to 20)
#    0.000    1.857    1.429    1.714    0.000    8.000 
#    0.000    5.714    0.000    0.000    0.000    0.000 
#    0.000    0.000    0.000    0.000    0.000    0.000 
#
# Total GULP energy -346868.473813 kJ/mol
# GULP energy per Si atom -12388.159779 kJ/mol
# Density = 2.119528 g / cm^3
# Si number density = 21.243634 Si / 1000 Ang^3
#
#
#
# Elastic Constant Matrix: (Units=GPa)
#
#
# Indices 1 2 3 4 5 6 
#
# 1 109.1308 26.0877 28.5247 0.0000 0.0000 0.0000
# 2 26.0877 119.8384 37.8887 0.0000 0.0000 0.0000
# 3 28.5247 37.8887 110.9567 0.0000 0.0000 0.0000
# 4 0.0000 0.0000 0.0000 26.0598 0.0000 0.0000
# 5 0.0000 0.0000 0.0000 0.0000 21.9098 0.0000
# 6 0.0000 0.0000 0.0000 0.0000 0.0000 20.1633
#
#
#
# Elastic Compliance Matrix: (Units=1/GPa)
#
#
# Indices 1 2 3 4 5 6 
#
# 1 0.010071 -0.001540 -0.002063 0.000000 0.000000 0.000000
# 2 -0.001540 0.009590 -0.002879 0.000000 0.000000 0.000000
# 3 -0.002063 -0.002879 0.010526 0.000000 0.000000 0.000000
# 4 0.000000 0.000000 0.000000 0.038373 0.000000 0.000000
# 5 0.000000 0.000000 0.000000 0.000000 0.045642 0.000000
# 6 0.000000 0.000000 0.000000 0.000000 0.000000 0.049595
#
#
# Mechanical properties :
#
#
# Convention : Reuss Voigt Hill
#
# Bulk Modulus (GPa) = 58.06260 58.32531 58.19395
# Shear Modulus (GPa) = 27.39701 30.12155 28.75928
#
# Velocity S-wave (km/s) = 3.59508 3.76960 3.68337
# Velocity P-wave (km/s) = 6.68011 6.81627 6.74853
#
# Compressibility (1/GPa) = 0.01722279
#
# Stress axis : x y z
#
# Youngs Moduli (GPa) = 99.29785 104.27528 95.00334
#
# Poissons Ratio (x) = 0.16059 0.19600
# Poissons Ratio (y) = 0.15292 0.27350
# Poissons Ratio (z) = 0.20486 0.30019
#
# Static dielectric constant tensor:
#      x y z
#    x 4.129730 0.000000 0.000000 
#    y 0.000000 3.711570 0.000000 
#    z 0.000000 0.000000 3.841300 
# 
# 
# High freq. dielectric constant tensor:
#      x y z
#    x 1.835880 0.000000 0.000000 
#    y 0.000000 1.827730 0.000000 
#    z 0.000000 0.000000 1.826670 
# 
# From -- ./inp_files/21096.got.cif
#   From: 2010.03.12/outbox.cif.g09.slc.cpg/sg38_11_cif.got.tgz:21096.got - 2010.04.14 02:38:36.
