data_PCOD8179590
_publ_section_title
;
Structure prediction by ZEFSAII (Michael W. Deem and Ramdas Pophale) SiO2 
 PCOD8179590
Probable space group: A M M 2
;
_chemical_formula_sum "Si O2"
_cell_formula_units_Z 48
_cell_length_a 7.824125
_cell_length_b 33.972732
_cell_length_c 9.076283
_cell_angle_alpha 90.000000
_cell_angle_beta 90.000000
_cell_angle_gamma 90.000000
_cell_volume 2412.538664
_symmetry_space_group_name_H-M "A M M 2"
_symmetry_group_IT_number 38
_symmetry_cell_setting 'orthorhombic'
loop_
_space_group_symop_operation_xyz
x,y,z
-x,-y,z
-x,y,z
x,-y,z
x,1/2+y,1/2+z
-x,1/2-y,1/2+z
-x,1/2+y,1/2+z
x,1/2-y,1/2+z
loop_
_atom_site_type_symbol
_atom_site_label
_atom_site_fract_x
_atom_site_fract_y
_atom_site_fract_z
Si Si1 0.308693 0.078819 0.434920
Si Si2 0.500000 0.209398 0.925510
Si Si3 0.199453 0.425310 0.606838
Si Si4 0.500000 0.707418 0.079148
Si Si5 0.203319 0.500000 0.425177
Si Si6 0.798717 0.000000 0.594575
Si Si7 0.189010 0.653356 0.088623
Si Si8 0.804691 0.153164 0.928692
O O1 0.500000 0.090470 0.479283
O O2 0.297211 0.074986 0.260073
O O3 0.188279 0.113353 0.494893
O O4 0.262482 0.037802 0.507516
O O5 0.500000 0.215340 0.751685
O O6 0.671752 0.186877 0.977474
O O7 0.500000 0.251637 0.997461
O O8 0.270453 0.461355 0.509515
O O9 0.239069 0.385340 0.521148
O O10 0.000000 0.430692 0.638982
O O11 0.330387 0.683809 0.029813
O O12 0.278542 0.500000 0.259645
O O13 0.000000 0.500000 0.418520
O O14 0.000000 0.000000 0.602100
O O15 0.224090 0.642264 0.258206
O O16 0.000000 0.672399 0.070590
O O17 0.000000 0.167430 0.957711
#
# Coordination Sequence:
#
# PCOD8179590 Si02
#       8
#     8   4   8   4   4   4   8   8
#     4  12  24  37  55  87 122 154 197 245 294 348
#     4  10  22  38  62  85 126 151 190 238 299 340
#     4  10  20  36  58  86 116 153 198 244 295 346
#     4  10  22  40  58  93 116 155 192 240 285 362
#     4   9  19  37  60  82 110 151 204 249 286 345
#     4  11  22  39  60  82 112 159 204 244 295 343
#     4  10  20  40  64  86 117 157 197 242 292 347
#     4   9  20  38  62  88 115 155 202 240 289 355
#
# _framework density 19.896053999999999
#
# number of rings (size 3 to 8) (size 9 to 14) (size 15 to 20)
#    0.000    1.833    0.833    3.250    1.167    5.333 
#    0.000    1.667    0.000    0.000    0.000    0.000 
#    0.000    0.000    0.000    0.000    0.000    0.000 
#
# Total GULP energy -297669.819879 kJ/mol
# GULP energy per Si atom -12402.909162 kJ/mol
# Density = 1.985077 g / cm^3
# Si number density = 19.896054 Si / 1000 Ang^3
#
#
#
# Elastic Constant Matrix: (Units=GPa)
#
#
# Indices 1 2 3 4 5 6 
#
# 1 114.0655 64.3486 39.2601 0.0000 0.0000 0.0000
# 2 64.3486 161.2523 66.4175 0.0000 0.0000 0.0000
# 3 39.2601 66.4175 100.0717 0.0000 0.0000 0.0000
# 4 0.0000 0.0000 0.0000 43.0841 0.0000 0.0000
# 5 0.0000 0.0000 0.0000 0.0000 21.3996 0.0000
# 6 0.0000 0.0000 0.0000 0.0000 0.0000 9.4120
#
#
#
# Elastic Compliance Matrix: (Units=1/GPa)
#
#
# Indices 1 2 3 4 5 6 
#
# 1 0.011608 -0.003793 -0.002036 0.000000 0.000000 0.000000
# 2 -0.003793 0.009774 -0.004999 0.000000 0.000000 0.000000
# 3 -0.002036 -0.004999 0.014109 0.000000 0.000000 0.000000
# 4 0.000000 0.000000 0.000000 0.023210 0.000000 0.000000
# 5 0.000000 0.000000 0.000000 0.000000 0.046730 0.000000
# 6 0.000000 0.000000 0.000000 0.000000 0.000000 0.106247
#
#
# Mechanical properties :
#
#
# Convention : Reuss Voigt Hill
#
# Bulk Modulus (GPa) = 72.28425 79.49354 75.88890
# Shear Modulus (GPa) = 21.01304 28.47003 24.74154
#
# Velocity S-wave (km/s) = 3.25336 3.78688 3.53021
# Velocity P-wave (km/s) = 7.10790 7.69167 7.40554
#
# Compressibility (1/GPa) = 0.01383427
#
# Stress axis : x y z
#
# Youngs Moduli (GPa) = 86.14919 102.30980 70.87435
#
# Poissons Ratio (x) = 0.38811 0.14432
# Poissons Ratio (y) = 0.32680 0.35429
# Poissons Ratio (z) = 0.17542 0.51144
#
# Static dielectric constant tensor:
#      x y z
#    x 3.744100 0.000000 0.000000 
#    y 0.000000 3.505930 0.000000 
#    z 0.000000 0.000000 3.626320 
# 
# 
# High freq. dielectric constant tensor:
#      x y z
#    x 1.783810 0.000000 0.000000 
#    y 0.000000 1.769930 0.000000 
#    z 0.000000 0.000000 1.777780 
# 
# From -- ./inp_files/3861.got.cif
#   From: 2010.03.12/outbox.cif.g09.slc.cpg/sg38_2_cif.got.tgz:3861.got - 2010.04.14 02:38:36.
