data_PCOD8179127
_publ_section_title
;
Structure prediction by ZEFSAII (Michael W. Deem and Ramdas Pophale) SiO2 
 PCOD8179127
Probable space group: A M M 2
;
_chemical_formula_sum "Si O2"
_cell_formula_units_Z 64
_cell_length_a 14.046003
_cell_length_b 8.939182
_cell_length_c 30.941229
_cell_angle_alpha 90.000000
_cell_angle_beta 90.000000
_cell_angle_gamma 90.000000
_cell_volume 3884.973819
_symmetry_space_group_name_H-M "A M M 2"
_symmetry_group_IT_number 38
_symmetry_cell_setting 'orthorhombic'
loop_
_space_group_symop_operation_xyz
x,y,z
-x,-y,z
-x,y,z
x,-y,z
x,1/2+y,1/2+z
-x,1/2-y,1/2+z
-x,1/2+y,1/2+z
x,1/2-y,1/2+z
loop_
_atom_site_type_symbol
_atom_site_label
_atom_site_fract_x
_atom_site_fract_y
_atom_site_fract_z
Si Si1 0.712128 0.324721 0.853570
Si Si2 0.711542 0.676616 0.013727
Si Si3 0.892213 0.827382 0.983302
Si Si4 0.612186 0.172430 0.933204
Si Si5 0.107967 0.827591 0.882749
Si Si6 0.613078 0.168160 0.680170
Si Si7 0.388043 0.173676 0.093693
Si Si8 0.609269 0.825918 0.265906
O O1 0.701734 0.500000 0.862680
O O2 0.652650 0.235764 0.888898
O O3 0.822552 0.276550 0.854795
O O4 0.671583 0.280071 0.807018
O O5 0.705444 0.500000 0.012543
O O6 0.666988 0.734411 0.057773
O O7 0.821542 0.727011 0.011570
O O8 0.653209 0.740510 0.973751
O O9 0.868240 0.803534 0.933021
O O10 0.000000 0.776151 0.993201
O O11 0.878420 0.000000 0.995902
O O12 0.500000 0.193160 0.932866
O O13 0.642563 0.000000 0.937493
O O14 0.000000 0.778417 0.872714
O O15 0.123391 0.000000 0.870067
O O16 0.500000 0.170237 0.681473
O O17 0.648441 0.267591 0.640024
O O18 0.651525 0.237470 0.724856
O O19 0.652462 0.000000 0.675088
O O20 0.500000 0.202011 0.087696
O O21 0.362626 0.000000 0.089509
O O22 0.500000 0.781825 0.275515
O O23 0.617791 0.000000 0.255155
#
# Coordination Sequence:
#
# PCOD8179127 Si02
#       8
#     8   8   8   8   8   8   8   8
#     4  11  21  32  49  74 100 129 165 207 249 290
#     4  12  23  33  49  74 101 129 163 206 249 290
#     4   9  18  34  54  72  94 127 165 205 248 295
#     4  11  23  36  48  64  94 136 174 203 237 288
#     4   9  18  33  52  71  94 127 165 206 250 296
#     4   9  17  30  49  73  98 124 161 208 249 284
#     4  10  20  34  52  72  98 134 170 202 242 294
#     4   9  18  32  48  68  99 135 166 197 239 293
#
# _framework density 16.473728000000001
#
# number of rings (size 3 to 8) (size 9 to 14) (size 15 to 20)
#    0.000    2.000    1.250    4.125    0.000    6.750 
#    0.000    2.500    0.000    0.000    0.000    0.875 
#    0.000    3.000    0.000    0.000    0.000    0.000 
#
# Total GULP energy -396874.541171 kJ/mol
# GULP energy per Si atom -12402.329412 kJ/mol
# Density = 1.643623 g / cm^3
# Si number density = 16.473728 Si / 1000 Ang^3
#
#
#
# Elastic Constant Matrix: (Units=GPa)
#
#
# Indices 1 2 3 4 5 6 
#
# 1 76.9660 56.2266 53.1090 0.0000 0.0000 0.0000
# 2 56.2266 110.0490 65.0252 0.0000 0.0000 0.0000
# 3 53.1090 65.0252 116.8555 0.0000 0.0000 0.0000
# 4 0.0000 0.0000 0.0000 31.5695 0.0000 0.0000
# 5 0.0000 0.0000 0.0000 0.0000 3.6902 0.0000
# 6 0.0000 0.0000 0.0000 0.0000 0.0000 23.3741
#
#
#
# Elastic Compliance Matrix: (Units=1/GPa)
#
#
# Indices 1 2 3 4 5 6 
#
# 1 0.023150 -0.008360 -0.005869 0.000000 0.000000 0.000000
# 2 -0.008360 0.016557 -0.005414 0.000000 0.000000 0.000000
# 3 -0.005869 -0.005414 0.014238 0.000000 0.000000 0.000000
# 4 0.000000 0.000000 0.000000 0.031676 0.000000 0.000000
# 5 0.000000 0.000000 0.000000 0.000000 0.270988 0.000000
# 6 0.000000 0.000000 0.000000 0.000000 0.000000 0.042782
#
#
# Mechanical properties :
#
#
# Convention : Reuss Voigt Hill
#
# Bulk Modulus (GPa) = 68.21966 72.51022 70.36494
# Shear Modulus (GPa) = 11.27233 20.36073 15.81653
#
# Velocity S-wave (km/s) = 2.61868 3.51942 3.10192
# Velocity P-wave (km/s) = 7.11649 7.78629 7.45891
#
# Compressibility (1/GPa) = 0.01465853
#
# Stress axis : x y z
#
# Youngs Moduli (GPa) = 43.19656 60.39744 70.23581
#
# Poissons Ratio (x) = 0.50491 0.41225
# Poissons Ratio (y) = 0.36111 0.38025
# Poissons Ratio (z) = 0.25354 0.32699
#
# Static dielectric constant tensor:
#      x y z
#    x 3.065110 0.000000 0.000000 
#    y 0.000000 3.198690 0.000000 
#    z 0.000000 0.000000 3.132050 
# 
# 
# High freq. dielectric constant tensor:
#      x y z
#    x 1.616770 0.000000 0.000000 
#    y 0.000000 1.644790 0.000000 
#    z 0.000000 0.000000 1.624190 
# 
# From -- ./inp_files/25046.got.cif
#   From: 2010.03.12/outbox.cif.g09.slc.cpg/sg38_13_cif.got.tgz:25046.got - 2010.04.14 02:38:36.
