data_PCOD8179754
_publ_section_title
;
Structure prediction by ZEFSAII (Michael W. Deem and Ramdas Pophale) SiO2 
 PCOD8179754
Probable space group: A M M 2
;
_chemical_formula_sum "Si O2"
_cell_formula_units_Z 40
_cell_length_a 8.643935
_cell_length_b 23.457783
_cell_length_c 10.128656
_cell_angle_alpha 90.000000
_cell_angle_beta 90.000000
_cell_angle_gamma 90.000000
_cell_volume 2053.762777
_symmetry_space_group_name_H-M "A M M 2"
_symmetry_group_IT_number 38
_symmetry_cell_setting 'orthorhombic'
loop_
_space_group_symop_operation_xyz
x,y,z
-x,-y,z
-x,y,z
x,-y,z
x,1/2+y,1/2+z
-x,1/2-y,1/2+z
-x,1/2+y,1/2+z
x,1/2-y,1/2+z
loop_
_atom_site_type_symbol
_atom_site_label
_atom_site_fract_x
_atom_site_fract_y
_atom_site_fract_z
Si Si1 0.180000 0.642959 0.061390
Si Si2 0.674821 0.860393 0.839971
Si Si3 0.674704 0.762866 0.026122
Si Si4 0.321637 0.565816 0.842722
Si Si5 0.181604 0.372049 0.601528
O O1 0.220636 0.630290 0.212589
O O2 0.000000 0.632583 0.036765
O O3 0.220758 0.707196 0.021135
O O4 0.276811 0.599687 0.973323
O O5 0.500000 0.881305 0.812583
O O6 0.675787 0.793059 0.881156
O O7 0.747260 0.896043 0.963082
O O8 0.500000 0.746559 0.069270
O O9 0.745133 0.809128 0.129957
O O10 0.500000 0.577168 0.809041
O O11 0.287169 0.500000 0.870338
O O12 0.220317 0.585313 0.718875
O O13 0.000000 0.365659 0.586375
#
# Coordination Sequence:
#
# PCOD8179754 Si02
#       5
#     8   8   8   8   8
#     4  12  24  37  61  93 128 163 204 262 319 370
#     4   9  20  38  60  87 122 161 201 245 301 372
#     4   9  20  36  59  88 124 164 203 246 304 375
#     4  11  25  45  66  88 121 170 219 258 308 377
#     4  10  20  37  62  91 123 155 201 259 312 365
#
# _framework density 19.476445999999999
#
# number of rings (size 3 to 8) (size 9 to 14) (size 15 to 20)
#    1.200    0.600    0.000    4.800    2.800    1.600 
#    0.000    1.000    0.000    6.000    0.000    0.000 
#    0.000    0.000    0.000    0.000    0.000    0.000 
#
# Total GULP energy -247929.552546 kJ/mol
# GULP energy per Si atom -12396.477627 kJ/mol
# Density = 1.943212 g / cm^3
# Si number density = 19.476446 Si / 1000 Ang^3
#
#
#
# Elastic Constant Matrix: (Units=GPa)
#
#
# Indices 1 2 3 4 5 6 
#
# 1 89.9077 19.6461 11.5341 0.0000 0.0000 0.0000
# 2 19.6461 69.4153 26.4864 0.0000 0.0000 0.0000
# 3 11.5341 26.4864 100.3539 0.0000 0.0000 0.0000
# 4 0.0000 0.0000 0.0000 26.0193 0.0000 0.0000
# 5 0.0000 0.0000 0.0000 0.0000 35.4748 0.0000
# 6 0.0000 0.0000 0.0000 0.0000 0.0000 15.8327
#
#
#
# Elastic Compliance Matrix: (Units=1/GPa)
#
#
# Indices 1 2 3 4 5 6 
#
# 1 0.011881 -0.003160 -0.000532 0.000000 0.000000 0.000000
# 2 -0.003160 0.016860 -0.004087 0.000000 0.000000 0.000000
# 3 -0.000532 -0.004087 0.011104 0.000000 0.000000 0.000000
# 4 0.000000 0.000000 0.000000 0.038433 0.000000 0.000000
# 5 0.000000 0.000000 0.000000 0.000000 0.028189 0.000000
# 6 0.000000 0.000000 0.000000 0.000000 0.000000 0.063161
#
#
# Mechanical properties :
#
#
# Convention : Reuss Voigt Hill
#
# Bulk Modulus (GPa) = 41.17045 41.66776 41.41911
# Shear Modulus (GPa) = 25.86918 28.93270 27.40094
#
# Velocity S-wave (km/s) = 3.64844 3.85843 3.75490
# Velocity P-wave (km/s) = 6.23960 6.42576 6.33336
#
# Compressibility (1/GPa) = 0.02428927
#
# Stress axis : x y z
#
# Youngs Moduli (GPa) = 84.16672 59.31324 90.05436
#
# Poissons Ratio (x) = 0.18742 0.04787
# Poissons Ratio (y) = 0.26595 0.36802
# Poissons Ratio (z) = 0.04474 0.24239
#
# Static dielectric constant tensor:
#      x y z
#    x 3.601700 0.000000 0.000000 
#    y 0.000000 3.292740 0.000000 
#    z 0.000000 0.000000 3.411660 
# 
# 
# High freq. dielectric constant tensor:
#      x y z
#    x 1.775590 0.000000 0.000000 
#    y 0.000000 1.727150 0.000000 
#    z 0.000000 0.000000 1.757030 
# 
# From -- ./inp_files/3463.got.cif
#   From: 2010.03.12/outbox.cif.g09.slc.cpg/sg38_2_cif.got.tgz:3463.got - 2010.04.14 02:38:36.
