data_PCOD8179835
_publ_section_title
;
Structure prediction by ZEFSAII (Michael W. Deem and Ramdas Pophale) SiO2 
 PCOD8179835
Probable space group: A M M 2
;
_chemical_formula_sum "Si O2"
_cell_formula_units_Z 48
_cell_length_a 17.257372
_cell_length_b 9.433112
_cell_length_c 15.264969
_cell_angle_alpha 90.000000
_cell_angle_beta 90.000000
_cell_angle_gamma 90.000000
_cell_volume 2484.995339
_symmetry_space_group_name_H-M "A M M 2"
_symmetry_group_IT_number 38
_symmetry_cell_setting 'orthorhombic'
loop_
_space_group_symop_operation_xyz
x,y,z
-x,-y,z
-x,y,z
x,-y,z
x,1/2+y,1/2+z
-x,1/2-y,1/2+z
-x,1/2+y,1/2+z
x,1/2-y,1/2+z
loop_
_atom_site_type_symbol
_atom_site_label
_atom_site_fract_x
_atom_site_fract_y
_atom_site_fract_z
Si Si1 0.833860 0.654642 0.626680
Si Si2 0.305019 0.163310 0.828057
Si Si3 0.000000 0.668238 0.886992
Si Si4 0.690012 0.167321 0.625131
Si Si5 0.000000 0.663967 0.559880
Si Si6 0.836557 0.844248 0.328953
Si Si7 0.409925 0.336224 0.489580
O O1 0.818251 0.500000 0.582161
O O2 0.773078 0.771091 0.591546
O O3 0.923058 0.699824 0.614672
O O4 0.818854 0.639213 0.728135
O O5 0.326585 0.204412 0.727615
O O6 0.230341 0.244633 0.867680
O O7 0.375371 0.199461 0.893444
O O8 0.281921 0.000000 0.830608
O O9 0.078443 0.725597 0.841574
O O10 0.000000 0.500000 0.882782
O O11 0.000000 0.724034 0.983827
O O12 0.623892 0.238996 0.566675
O O13 0.690022 0.000000 0.608731
O O14 0.000000 0.500000 0.528644
O O15 0.832423 0.000000 0.374198
O O16 0.500000 0.301821 0.482769
O O17 0.394118 0.500000 0.513915
#
# Coordination Sequence:
#
# PCOD8179835 Si02
#       7
#     8   8   4   8   4   8   8
#     4   9  18  35  56  76 103 144 190 228 268 323
#     4   9  20  38  59  83 112 147 186 227 275 331
#     4  10  21  33  47  75 111 144 178 225 277 319
#     4  10  21  37  59  87 116 146 183 231 284 330
#     4  10  21  33  49  75 105 144 188 227 265 317
#     4   9  18  34  55  76 103 142 184 226 272 320
#     4  10  22  40  61  84 112 148 185 223 274 338
#
# _framework density 19.315932
#
# number of rings (size 3 to 8) (size 9 to 14) (size 15 to 20)
#    0.000    2.500    0.000    1.000    2.333    5.667 
#    0.000    1.667    0.000    5.000    0.000    0.000 
#    0.000    0.000    0.000    0.000    0.000    0.000 
#
# Total GULP energy -297449.945425 kJ/mol
# GULP energy per Si atom -12393.747726 kJ/mol
# Density = 1.927197 g / cm^3
# Si number density = 19.315932 Si / 1000 Ang^3
#
#
#
# Elastic Constant Matrix: (Units=GPa)
#
#
# Indices 1 2 3 4 5 6 
#
# 1 176.6312 75.1963 57.5750 0.0000 0.0000 0.0000
# 2 75.1963 74.6463 47.3861 0.0000 0.0000 0.0000
# 3 57.5750 47.3861 72.4574 0.0000 0.0000 0.0000
# 4 0.0000 0.0000 0.0000-2075.4795 0.0000 0.0000
# 5 0.0000 0.0000 0.0000 0.0000 32.7537 0.0000
# 6 0.0000 0.0000 0.0000 0.0000 0.0000 30.1958
#
#
#
# Elastic Compliance Matrix: (Units=1/GPa)
#
#
# Indices 1 2 3 4 5 6 
#
# 1 0.010142 -0.008722 -0.002355 0.000000 0.000000 0.000000
# 2 -0.008722 0.030407 -0.012955 0.000000 0.000000 0.000000
# 3 -0.002355 -0.012955 0.024145 0.000000 0.000000 0.000000
# 4 0.000000 0.000000 0.000000 -0.000482 0.000000 0.000000
# 5 0.000000 0.000000 0.000000 0.000000 0.030531 0.000000
# 6 0.000000 0.000000 0.000000 0.000000 0.000000 0.033117
#
#
# Mechanical properties :
#
#
# Convention : Reuss Voigt Hill
#
# Bulk Modulus (GPa) = 60.13291 76.00551 68.06921
# Shear Modulus (GPa) = 27.55304 -392.93417 -182.69056
#
# Velocity S-wave (km/s) = 3.78092 -14.27818 -9.73579
# Velocity P-wave (km/s) = 7.08938 15.24428 9.54276
#
# Compressibility (1/GPa) = 0.01662983
#
# Stress axis : x y z
#
# Youngs Moduli (GPa) = 98.59603 32.88731 41.41651
#
# Poissons Ratio (x) = 0.28685 0.09754
# Poissons Ratio (y) = 0.85997 0.53655
# Poissons Ratio (z) = 0.23220 0.42606
#
# Static dielectric constant tensor:
#      x y z
#    x 7.376130 0.000000 0.000000 
#    y 0.000000 44.784790 0.000000 
#    z 0.000000 0.000000 3.438040 
# 
# 
# High freq. dielectric constant tensor:
#      x y z
#    x 1.755840 0.000000 0.000000 
#    y 0.000000 1.745940 0.000000 
#    z 0.000000 0.000000 1.742590 
# 
# From -- ./inp_files/15004.got.cif
#   From: 2010.03.12/outbox.cif.g09.slc.cpg/sg38_8_cif.got.tgz:15004.got - 2010.04.14 02:38:36.
