data_PCOD8179170
_publ_section_title
;
Structure prediction by ZEFSAII (Michael W. Deem and Ramdas Pophale) SiO2 
 PCOD8179170
Probable space group: A M M 2
;
_chemical_formula_sum "Si O2"
_cell_formula_units_Z 64
_cell_length_a 28.373789
_cell_length_b 8.750671
_cell_length_c 14.180178
_cell_angle_alpha 90.000000
_cell_angle_beta 90.000000
_cell_angle_gamma 90.000000
_cell_volume 3520.792036
_symmetry_space_group_name_H-M "A M M 2"
_symmetry_group_IT_number 38
_symmetry_cell_setting 'orthorhombic'
loop_
_space_group_symop_operation_xyz
x,y,z
-x,-y,z
-x,y,z
x,-y,z
x,1/2+y,1/2+z
-x,1/2-y,1/2+z
-x,1/2+y,1/2+z
x,1/2-y,1/2+z
loop_
_atom_site_type_symbol
_atom_site_label
_atom_site_fract_x
_atom_site_fract_y
_atom_site_fract_z
Si Si1 0.630003 0.319236 0.854380
Si Si2 0.872915 0.319609 0.546793
Si Si3 0.446939 0.180831 0.207196
Si Si4 0.620061 0.319550 0.065110
Si Si5 0.947964 0.180050 0.197963
Si Si6 0.195217 0.819426 0.694604
Si Si7 0.129304 0.680771 0.842499
Si Si8 0.302798 0.821079 0.713895
O O1 0.632429 0.500000 0.856357
O O2 0.584893 0.261233 0.794583
O O3 0.678204 0.259166 0.808267
O O4 0.625723 0.253432 0.959855
O O5 0.870375 0.500000 0.527889
O O6 0.920075 0.272004 0.603532
O O7 0.827801 0.269194 0.607097
O O8 0.873990 0.228070 0.450212
O O9 0.500000 0.240879 0.222734
O O10 0.426916 0.248524 0.110047
O O11 0.445610 0.000000 0.199717
O O12 0.613856 0.500000 0.063799
O O13 0.666078 0.269511 0.124261
O O14 0.918785 0.233020 0.289985
O O15 0.000000 0.256937 0.198527
O O16 0.953379 0.000000 0.200127
O O17 0.172892 0.766509 0.793554
O O18 0.249556 0.770052 0.695271
O O19 0.188472 0.000000 0.681274
O O20 0.137192 0.500000 0.832761
O O21 0.306387 0.000000 0.731031
#
# Coordination Sequence:
#
# PCOD8179170 Si02
#       8
#     8   8   8   8   8   8   8   8
#     4   9  18  32  51  73  98 130 163 198 240 290
#     4  10  20  34  53  77 105 136 170 209 255 305
#     4   9  18  32  48  69  98 129 162 200 241 285
#     4   9  18  33  51  72  97 125 161 200 241 290
#     4   8  16  32  52  74 102 135 170 208 250 299
#     4  10  20  35  53  74 103 136 171 212 256 301
#     4  10  20  34  53  76 103 135 171 212 255 301
#     4   9  19  34  51  73 100 128 160 203 248 292
#
# _framework density 18.177727000000001
#
# number of rings (size 3 to 8) (size 9 to 14) (size 15 to 20)
#    0.000    2.750    0.000    1.875    0.000    3.750 
#    0.000    2.500    0.000   12.750    0.000    0.000 
#    0.000    0.000    0.000    0.000    0.000    0.000 
#
# Total GULP energy -396794.164661 kJ/mol
# GULP energy per Si atom -12399.817646 kJ/mol
# Density = 1.813635 g / cm^3
# Si number density = 18.177727 Si / 1000 Ang^3
#
#
#
# Elastic Constant Matrix: (Units=GPa)
#
#
# Indices 1 2 3 4 5 6 
#
# 1 145.9552 23.0436 55.5956 0.0000 0.0000 0.0000
# 2 23.0436 22.3571 11.4070 0.0000 0.0000 0.0000
# 3 55.5956 11.4070 133.3625 0.0000 0.0000 0.0000
# 4 0.0000 0.0000 0.0000 25.2674 0.0000 0.0000
# 5 0.0000 0.0000 0.0000 0.0000 14.4208 0.0000
# 6 0.0000 0.0000 0.0000 0.0000 0.0000 24.3128
#
#
#
# Elastic Compliance Matrix: (Units=1/GPa)
#
#
# Indices 1 2 3 4 5 6 
#
# 1 0.009334 -0.007984 -0.003208 0.000000 0.000000 0.000000
# 2 -0.007984 0.053598 -0.001256 0.000000 0.000000 0.000000
# 3 -0.003208 -0.001256 0.008943 0.000000 0.000000 0.000000
# 4 0.000000 0.000000 0.000000 0.039577 0.000000 0.000000
# 5 0.000000 0.000000 0.000000 0.000000 0.069344 0.000000
# 6 0.000000 0.000000 0.000000 0.000000 0.000000 0.041131
#
#
# Mechanical properties :
#
#
# Convention : Reuss Voigt Hill
#
# Bulk Modulus (GPa) = 21.28606 53.52969 37.40787
# Shear Modulus (GPa) = 19.04886 26.90878 22.97882
#
# Velocity S-wave (km/s) = 3.24068 3.85166 3.55930
# Velocity P-wave (km/s) = 5.07327 7.02085 6.12496
#
# Compressibility (1/GPa) = 0.04697911
#
# Stress axis : x y z
#
# Youngs Moduli (GPa) = 107.13615 18.65736 111.81621
#
# Poissons Ratio (x) = 0.14895 0.35873
# Poissons Ratio (y) = 0.85533 0.14047
# Poissons Ratio (z) = 0.34372 0.02344
#
# Static dielectric constant tensor:
#      x y z
#    x 3.629420 0.000000 0.000000 
#    y 0.000000 3.188060 0.000000 
#    z 0.000000 0.000000 3.452080 
# 
# 
# High freq. dielectric constant tensor:
#      x y z
#    x 1.707490 0.000000 0.000000 
#    y 0.000000 1.692400 0.000000 
#    z 0.000000 0.000000 1.707310 
# 
# From -- ./inp_files/10924.got.cif
#   From: 2010.03.12/outbox.cif.g09.slc.cpg/sg38_6_cif.got.tgz:10924.got - 2010.04.14 02:38:36.
