data_PCOD8179446
_publ_section_title
;
Structure prediction by ZEFSAII (Michael W. Deem and Ramdas Pophale) SiO2 
 PCOD8179446
Probable space group: A M M 2
;
_chemical_formula_sum "Si O2"
_cell_formula_units_Z 64
_cell_length_a 8.987043
_cell_length_b 24.605924
_cell_length_c 14.890707
_cell_angle_alpha 90.000000
_cell_angle_beta 90.000000
_cell_angle_gamma 90.000000
_cell_volume 3292.849003
_symmetry_space_group_name_H-M "A M M 2"
_symmetry_group_IT_number 38
_symmetry_cell_setting 'orthorhombic'
loop_
_space_group_symop_operation_xyz
x,y,z
-x,-y,z
-x,y,z
x,-y,z
x,1/2+y,1/2+z
-x,1/2-y,1/2+z
-x,1/2+y,1/2+z
x,1/2-y,1/2+z
loop_
_atom_site_type_symbol
_atom_site_label
_atom_site_fract_x
_atom_site_fract_y
_atom_site_fract_z
Si Si1 0.670855 0.760988 0.965280
Si Si2 0.174216 0.347722 0.952422
Si Si3 0.173325 0.214322 0.783352
Si Si4 0.670026 0.365782 0.576089
Si Si5 0.330419 0.437837 0.061750
Si Si6 0.826925 0.063194 0.928376
Si Si7 0.828704 0.164011 0.247596
Si Si8 0.327619 0.891317 0.752358
O O1 0.500000 0.752707 0.936282
O O2 0.739170 0.703321 0.995646
O O3 0.762533 0.786181 0.883521
O O4 0.685640 0.803112 0.046613
O O5 0.216667 0.354007 0.847799
O O6 0.000000 0.336384 0.963609
O O7 0.218783 0.402324 0.002972
O O8 0.202232 0.271766 0.735680
O O9 0.255248 0.166968 0.728087
O O10 0.000000 0.200987 0.789725
O O11 0.500000 0.385342 0.573424
O O12 0.764494 0.405271 0.513830
O O13 0.729674 0.369756 0.677813
O O14 0.500000 0.421793 0.038218
O O15 0.297376 0.500000 0.037596
O O16 0.301574 0.429954 0.167379
O O17 0.747318 0.081508 0.837832
O O18 0.000000 0.076474 0.918262
O O19 0.796617 0.000000 0.944557
O O20 0.000000 0.150500 0.228298
O O21 0.500000 0.882667 0.774644
#
# Coordination Sequence:
#
# PCOD8179446 Si02
#       8
#     8   8   8   8   8   8   8   8
#     4  10  20  35  56  86 120 156 194 236 293 353
#     4  10  22  40  62  88 117 155 201 249 303 354
#     4  10  20  35  56  86 121 159 197 236 290 351
#     4  11  23  37  59  90 120 157 201 245 295 352
#     4  10  23  42  62  86 118 157 201 250 303 356
#     4  11  24  41  62  87 119 160 202 247 298 352
#     4   9  21  39  58  84 121 159 195 243 299 352
#     4  11  22  37  59  88 122 159 197 242 294 354
#
# _framework density 19.436057000000002
#
# number of rings (size 3 to 8) (size 9 to 14) (size 15 to 20)
#    0.000    1.750    1.250    3.375    1.750    7.250 
#    0.000    0.625    0.000    0.750    0.000    0.000 
#    0.000    0.000    0.000    0.000    0.000    0.000 
#
# Total GULP energy -396934.004656 kJ/mol
# GULP energy per Si atom -12404.187645 kJ/mol
# Density = 1.939182 g / cm^3
# Si number density = 19.436057 Si / 1000 Ang^3
#
#
#
# Elastic Constant Matrix: (Units=GPa)
#
#
# Indices 1 2 3 4 5 6 
#
# 1 123.4619 56.4582 56.2842 0.0000 0.0000 0.0000
# 2 56.4582 96.6047 44.4108 0.0000 0.0000 0.0000
# 3 56.2842 44.4108 85.9255 0.0000 0.0000 0.0000
# 4 0.0000 0.0000 0.0000 28.4747 0.0000 0.0000
# 5 0.0000 0.0000 0.0000 0.0000 32.5871 0.0000
# 6 0.0000 0.0000 0.0000 0.0000 0.0000 30.5183
#
#
#
# Elastic Compliance Matrix: (Units=1/GPa)
#
#
# Indices 1 2 3 4 5 6 
#
# 1 0.013085 -0.004862 -0.006058 0.000000 0.000000 0.000000
# 2 -0.004862 0.015384 -0.004767 0.000000 0.000000 0.000000
# 3 -0.006058 -0.004767 0.018070 0.000000 0.000000 0.000000
# 4 0.000000 0.000000 0.000000 0.035119 0.000000 0.000000
# 5 0.000000 0.000000 0.000000 0.000000 0.030687 0.000000
# 6 0.000000 0.000000 0.000000 0.000000 0.000000 0.032767
#
#
# Mechanical properties :
#
#
# Convention : Reuss Voigt Hill
#
# Bulk Modulus (GPa) = 65.93900 68.92206 67.43053
# Shear Modulus (GPa) = 27.54206 28.23861 27.89034
#
# Velocity S-wave (km/s) = 3.76847 3.81583 3.79222
# Velocity P-wave (km/s) = 7.27564 7.41296 7.34462
#
# Compressibility (1/GPa) = 0.01516553
#
# Stress axis : x y z
#
# Youngs Moduli (GPa) = 76.42449 65.00148 55.34099
#
# Poissons Ratio (x) = 0.31604 0.33526
# Poissons Ratio (y) = 0.37158 0.26379
# Poissons Ratio (z) = 0.46298 0.30983
#
# Static dielectric constant tensor:
#      x y z
#    x 3.665940 0.000000 0.000000 
#    y 0.000000 3.593490 0.000000 
#    z 0.000000 0.000000 3.368360 
# 
# 
# High freq. dielectric constant tensor:
#      x y z
#    x 1.769330 0.000000 0.000000 
#    y 0.000000 1.751150 0.000000 
#    z 0.000000 0.000000 1.750850 
# 
# From -- ./inp_files/12778.got.cif
#   From: 2010.03.12/outbox.cif.g09.slc.cpg/sg38_7_cif.got.tgz:12778.got - 2010.04.14 02:38:36.
