data_PCOD8179623
_publ_section_title
;
Structure prediction by ZEFSAII (Michael W. Deem and Ramdas Pophale) SiO2 
 PCOD8179623
Probable space group: A M M 2
;
_chemical_formula_sum "Si O2"
_cell_formula_units_Z 48
_cell_length_a 17.345422
_cell_length_b 8.282540
_cell_length_c 16.020072
_cell_angle_alpha 90.000000
_cell_angle_beta 90.000000
_cell_angle_gamma 90.000000
_cell_volume 2301.510051
_symmetry_space_group_name_H-M "A M M 2"
_symmetry_group_IT_number 38
_symmetry_cell_setting 'orthorhombic'
loop_
_space_group_symop_operation_xyz
x,y,z
-x,-y,z
-x,y,z
x,-y,z
x,1/2+y,1/2+z
-x,1/2-y,1/2+z
-x,1/2+y,1/2+z
x,1/2-y,1/2+z
loop_
_atom_site_type_symbol
_atom_site_label
_atom_site_fract_x
_atom_site_fract_y
_atom_site_fract_z
Si Si1 0.189783 0.810053 0.518930
Si Si2 0.913107 0.308002 0.864767
Si Si3 0.500000 0.817095 0.464428
Si Si4 0.348429 0.315309 0.538782
Si Si5 0.819510 0.686575 0.705264
Si Si6 0.500000 0.308705 0.292465
Si Si7 0.341037 0.681360 0.211790
O O1 0.127345 0.748992 0.450814
O O2 0.268696 0.720279 0.490244
O O3 0.165527 0.770825 0.615169
O O4 0.201780 0.000000 0.511349
O O5 0.911227 0.500000 0.861937
O O6 0.873130 0.241900 0.779431
O O7 0.000000 0.240835 0.866395
O O8 0.575878 0.716170 0.485788
O O9 0.500000 0.818541 0.366079
O O10 0.500000 0.000000 0.500305
O O11 0.348307 0.500000 0.570444
O O12 0.349076 0.186879 0.612782
O O13 0.836915 0.500000 0.691115
O O14 0.731502 0.708693 0.738016
O O15 0.500000 0.500000 0.315491
O O16 0.576748 0.258156 0.243731
O O17 0.323694 0.500000 0.241576
#
# Coordination Sequence:
#
# PCOD8179623 Si02
#       7
#     8   8   4   8   8   4   8
#     4  10  20  37  61  88 117 155 199 243 295 353
#     4   9  20  38  60  86 118 155 194 240 297 361
#     4  12  25  38  55  81 115 153 195 238 285 340
#     4  11  22  38  59  83 114 151 193 239 290 342
#     4  10  20  36  59  87 117 153 197 242 295 353
#     4  10  23  38  53  81 115 151 189 238 287 332
#     4  10  20  37  59  82 113 151 193 238 288 340
#
# _framework density 20.855871
#
# number of rings (size 3 to 8) (size 9 to 14) (size 15 to 20)
#    0.000    1.833    0.000    6.250    2.333    2.667 
#    0.000    2.500    0.000    7.000    0.000    0.000 
#    0.000    0.000    0.000    0.000    0.000    0.000 
#
# Total GULP energy -297412.271429 kJ/mol
# GULP energy per Si atom -12392.177976 kJ/mol
# Density = 2.080840 g / cm^3
# Si number density = 20.855871 Si / 1000 Ang^3
#
#
#
# Elastic Constant Matrix: (Units=GPa)
#
#
# Indices 1 2 3 4 5 6 
#
# 1 184.9673 20.1506 90.2728 0.0000 0.0000 0.0000
# 2 20.1506 55.3679 13.8389 0.0000 0.0000 0.0000
# 3 90.2728 13.8389 111.3364 0.0000 0.0000 0.0000
# 4 0.0000 0.0000 0.0000 27.9961 0.0000 0.0000
# 5 0.0000 0.0000 0.0000 0.0000 42.2352 0.0000
# 6 0.0000 0.0000 0.0000 0.0000 0.0000 42.0005
#
#
#
# Elastic Compliance Matrix: (Units=1/GPa)
#
#
# Indices 1 2 3 4 5 6 
#
# 1 0.009067 -0.001509 -0.007164 0.000000 0.000000 0.000000
# 2 -0.001509 0.018891 -0.001124 0.000000 0.000000 0.000000
# 3 -0.007164 -0.001124 0.014930 0.000000 0.000000 0.000000
# 4 0.000000 0.000000 0.000000 0.035719 0.000000 0.000000
# 5 0.000000 0.000000 0.000000 0.000000 0.023677 0.000000
# 6 0.000000 0.000000 0.000000 0.000000 0.000000 0.023809
#
#
# Mechanical properties :
#
#
# Convention : Reuss Voigt Hill
#
# Bulk Modulus (GPa) = 42.93111 66.68847 54.80979
# Shear Modulus (GPa) = 32.58291 37.60699 35.09495
#
# Velocity S-wave (km/s) = 3.95687 4.25100 4.10657
# Velocity P-wave (km/s) = 6.44245 7.49266 6.98731
#
# Compressibility (1/GPa) = 0.02329313
#
# Stress axis : x y z
#
# Youngs Moduli (GPa) = 110.28665 52.93431 66.97742
#
# Poissons Ratio (x) = 0.07989 0.47984
# Poissons Ratio (y) = 0.16645 0.07531
# Poissons Ratio (z) = 0.79012 0.05952
#
# Static dielectric constant tensor:
#      x y z
#    x 2.588290 0.000000 0.000000 
#    y 0.000000 3.497120 0.000000 
#    z 0.000000 0.000000 3.795320 
# 
# 
# High freq. dielectric constant tensor:
#      x y z
#    x 1.823700 0.000000 0.000000 
#    y 0.000000 1.802750 0.000000 
#    z 0.000000 0.000000 1.811820 
# 
# From -- ./inp_files/18188.got.cif
#   From: 2010.03.12/outbox.cif.g09.slc.cpg/sg38_10_cif.got.tgz:18188.got - 2010.04.14 02:38:36.
