data_PCOD8179325
_publ_section_title
;
Structure prediction by ZEFSAII (Michael W. Deem and Ramdas Pophale) SiO2 
 PCOD8179325
Probable space group: A M M 2
;
_chemical_formula_sum "Si O2"
_cell_formula_units_Z 64
_cell_length_a 23.669519
_cell_length_b 9.001815
_cell_length_c 15.577638
_cell_angle_alpha 90.000000
_cell_angle_beta 90.000000
_cell_angle_gamma 90.000000
_cell_volume 3319.106006
_symmetry_space_group_name_H-M "A M M 2"
_symmetry_group_IT_number 38
_symmetry_cell_setting 'orthorhombic'
loop_
_space_group_symop_operation_xyz
x,y,z
-x,-y,z
-x,y,z
x,-y,z
x,1/2+y,1/2+z
-x,1/2-y,1/2+z
-x,1/2+y,1/2+z
x,1/2-y,1/2+z
loop_
_atom_site_type_symbol
_atom_site_label
_atom_site_fract_x
_atom_site_fract_y
_atom_site_fract_z
Si Si1 0.064920 0.325296 0.629460
Si Si2 0.738761 0.675698 0.460626
Si Si3 0.436545 0.329018 0.049668
Si Si4 0.866540 0.176798 0.966526
Si Si5 0.670163 0.829066 0.311585
Si Si6 0.935131 0.174696 0.803351
Si Si7 0.336063 0.670911 0.620866
Si Si8 0.563916 0.173489 0.870319
O O1 0.072659 0.500000 0.639831
O O2 0.101877 0.261897 0.550907
O O3 0.087074 0.250245 0.716498
O O4 0.000000 0.282651 0.611340
O O5 0.737712 0.500000 0.450419
O O6 0.802540 0.735951 0.466599
O O7 0.710266 0.742813 0.376474
O O8 0.706950 0.726035 0.547321
O O9 0.500000 0.310506 0.086317
O O10 0.424645 0.500000 0.025690
O O11 0.427121 0.227286 0.967044
O O12 0.392318 0.272048 0.120155
O O13 0.898104 0.237355 0.881972
O O14 0.869050 0.000000 0.967360
O O15 0.693156 0.810386 0.214191
O O16 0.606760 0.763611 0.310765
O O17 0.668210 0.000000 0.339646
O O18 0.000000 0.217769 0.821564
O O19 0.927644 0.000000 0.792798
O O20 0.353363 0.500000 0.605792
O O21 0.500000 0.205199 0.839113
O O22 0.578489 0.000000 0.866356
#
# Coordination Sequence:
#
# PCOD8179325 Si02
#       8
#     8   8   8   8   8   8   8   8
#     4   9  17  31  53  81 111 143 180 221 266 321
#     4  10  21  39  58  76 103 143 188 230 273 325
#     4  10  20  34  56  85 113 140 174 220 272 326
#     4   9  18  33  55  78 103 142 188 225 265 322
#     4  11  23  38  57  82 110 142 182 229 278 326
#     4   9  17  31  52  79 111 143 176 220 272 323
#     4  10  22  38  56  78 107 143 181 223 275 329
#     4  10  20  35  57  83 111 143 177 217 271 331
#
# _framework density 19.282299999999999
#
# number of rings (size 3 to 8) (size 9 to 14) (size 15 to 20)
#    0.000    2.250    1.250    1.500    0.000    5.500 
#    0.000    5.625    0.000    3.000    0.000    0.000 
#    0.000    0.000    0.000    0.000    0.000    0.000 
#
# Total GULP energy -396826.099363 kJ/mol
# GULP energy per Si atom -12400.815605 kJ/mol
# Density = 1.923841 g / cm^3
# Si number density = 19.282300 Si / 1000 Ang^3
#
#
#
# Elastic Constant Matrix: (Units=GPa)
#
#
# Indices 1 2 3 4 5 6 
#
# 1 126.6937 32.7740 79.8057 0.0000 0.0000 0.0000
# 2 32.7740 37.4936 31.2169 0.0000 0.0000 0.0000
# 3 79.8057 31.2169 149.7626 0.0000 0.0000 0.0000
# 4 0.0000 0.0000 0.0000 29.6016 0.0000 0.0000
# 5 0.0000 0.0000 0.0000 0.0000 15.3389 0.0000
# 6 0.0000 0.0000 0.0000 0.0000 0.0000 19.2418
#
#
#
# Elastic Compliance Matrix: (Units=1/GPa)
#
#
# Indices 1 2 3 4 5 6 
#
# 1 0.013199 -0.006875 -0.005601 0.000000 0.000000 0.000000
# 2 -0.006875 0.035853 -0.003810 0.000000 0.000000 0.000000
# 3 -0.005601 -0.003810 0.010456 0.000000 0.000000 0.000000
# 4 0.000000 0.000000 0.000000 0.033782 0.000000 0.000000
# 5 0.000000 0.000000 0.000000 0.000000 0.065194 0.000000
# 6 0.000000 0.000000 0.000000 0.000000 0.000000 0.051970
#
#
# Mechanical properties :
#
#
# Convention : Reuss Voigt Hill
#
# Bulk Modulus (GPa) = 37.12317 66.83812 51.98064
# Shear Modulus (GPa) = 19.84099 24.18002 22.01051
#
# Velocity S-wave (km/s) = 3.21124 3.54503 3.38226
# Velocity P-wave (km/s) = 5.74836 7.17597 6.50147
#
# Compressibility (1/GPa) = 0.02693735
#
# Stress axis : x y z
#
# Youngs Moduli (GPa) = 75.76077 27.89196 95.63999
#
# Poissons Ratio (x) = 0.19175 0.53565
# Poissons Ratio (y) = 0.52084 0.36436
# Poissons Ratio (z) = 0.42432 0.10626
#
# Static dielectric constant tensor:
#      x y z
#    x 3.635290 0.000000 0.000000 
#    y 0.000000 3.345000 0.000000 
#    z 0.000000 0.000000 3.557110 
# 
# 
# High freq. dielectric constant tensor:
#      x y z
#    x 1.745690 0.000000 0.000000 
#    y 0.000000 1.734120 0.000000 
#    z 0.000000 0.000000 1.754550 
# 
# From -- ./inp_files/15760.got.cif
#   From: 2010.03.12/outbox.cif.g09.slc.cpg/sg38_8_cif.got.tgz:15760.got - 2010.04.14 02:38:36.
