data_PCOD8179909
_publ_section_title
;
Structure prediction by ZEFSAII (Michael W. Deem and Ramdas Pophale) SiO2 
 PCOD8179909
Probable space group: A M M 2
;
_chemical_formula_sum "Si O2"
_cell_formula_units_Z 64
_cell_length_a 9.070950
_cell_length_b 24.419478
_cell_length_c 15.147414
_cell_angle_alpha 90.000000
_cell_angle_beta 90.000000
_cell_angle_gamma 90.000000
_cell_volume 3355.271320
_symmetry_space_group_name_H-M "A M M 2"
_symmetry_group_IT_number 38
_symmetry_cell_setting 'orthorhombic'
loop_
_space_group_symop_operation_xyz
x,y,z
-x,-y,z
-x,y,z
x,-y,z
x,1/2+y,1/2+z
-x,1/2-y,1/2+z
-x,1/2+y,1/2+z
x,1/2-y,1/2+z
loop_
_atom_site_type_symbol
_atom_site_label
_atom_site_fract_x
_atom_site_fract_y
_atom_site_fract_z
Si Si1 0.667041 0.774375 0.351590
Si Si2 0.172496 0.563206 0.992685
Si Si3 0.829167 0.335049 0.334787
Si Si4 0.832795 0.563511 0.646466
Si Si5 0.169671 0.146209 0.640513
Si Si6 0.675165 0.139147 0.009725
Si Si7 0.666893 0.739925 0.051818
Si Si8 0.326960 0.396147 0.817162
O O1 0.500000 0.754517 0.332228
O O2 0.778514 0.727711 0.319987
O O3 0.685129 0.786326 0.455370
O O4 0.702115 0.831369 0.302872
O O5 0.205779 0.500000 0.012792
O O6 0.264619 0.582789 0.909261
O O7 0.000000 0.572829 0.973265
O O8 0.228015 0.597032 0.078613
O O9 0.803133 0.368037 0.243430
O O10 0.735717 0.365393 0.410066
O O11 0.000000 0.334841 0.362130
O O12 0.831984 0.500000 0.623509
O O13 0.744001 0.592022 0.568355
O O14 0.754412 0.572153 0.739669
O O15 0.000000 0.585907 0.651082
O O16 0.243407 0.204435 0.620972
O O17 0.000000 0.155546 0.620817
O O18 0.500000 0.133057 0.006491
O O19 0.723414 0.197489 0.050647
O O20 0.500000 0.738738 0.084722
O O21 0.500000 0.409201 0.813807
#
# Coordination Sequence:
#
# PCOD8179909 Si02
#       8
#     8   8   8   8   8   8   8   8
#     4   9  19  35  53  80 116 154 191 230 285 347
#     4  10  21  38  58  81 115 157 198 242 290 344
#     4  10  21  36  56  85 119 154 194 242 292 348
#     4  11  25  43  62  86 116 152 197 246 295 350
#     4  10  21  35  54  84 117 152 196 239 288 343
#     4  10  22  41  62  86 115 152 195 243 297 351
#     4   9  18  34  55  81 113 148 186 231 286 343
#     4  11  22  37  58  86 119 155 194 239 292 351
#
# _framework density 19.074463999999999
#
# number of rings (size 3 to 8) (size 9 to 14) (size 15 to 20)
#    0.000    2.000    1.250    2.625    1.750    7.250 
#    0.000    0.625    0.000    2.250    0.000    0.000 
#    0.000    0.000    0.000    0.000    0.000    0.000 
#
# Total GULP energy -396842.277457 kJ/mol
# GULP energy per Si atom -12401.321171 kJ/mol
# Density = 1.903105 g / cm^3
# Si number density = 19.074464 Si / 1000 Ang^3
#
#
#
# Elastic Constant Matrix: (Units=GPa)
#
#
# Indices 1 2 3 4 5 6 
#
# 1 97.9623 47.9189 60.7585 0.0000 0.0000 0.0000
# 2 47.9189 81.4228 55.9579 0.0000 0.0000 0.0000
# 3 60.7585 55.9579 119.6241 0.0000 0.0000 0.0000
# 4 0.0000 0.0000 0.0000 30.1939 0.0000 0.0000
# 5 0.0000 0.0000 0.0000 0.0000 17.1723 0.0000
# 6 0.0000 0.0000 0.0000 0.0000 0.0000 26.3647
#
#
#
# Elastic Compliance Matrix: (Units=1/GPa)
#
#
# Indices 1 2 3 4 5 6 
#
# 1 0.016605 -0.005860 -0.005693 0.000000 0.000000 0.000000
# 2 -0.005860 0.020169 -0.006458 0.000000 0.000000 0.000000
# 3 -0.005693 -0.006458 0.014272 0.000000 0.000000 0.000000
# 4 0.000000 0.000000 0.000000 0.033119 0.000000 0.000000
# 5 0.000000 0.000000 0.000000 0.000000 0.058233 0.000000
# 6 0.000000 0.000000 0.000000 0.000000 0.000000 0.037929
#
#
# Mechanical properties :
#
#
# Convention : Reuss Voigt Hill
#
# Bulk Modulus (GPa) = 66.56066 69.80885 68.18475
# Shear Modulus (GPa) = 22.58785 23.70446 23.14616
#
# Velocity S-wave (km/s) = 3.44494 3.52907 3.48726
# Velocity P-wave (km/s) = 7.12702 7.29954 7.21380
#
# Compressibility (1/GPa) = 0.01502389
#
# Stress axis : x y z
#
# Youngs Moduli (GPa) = 60.22157 49.58168 70.06779
#
# Poissons Ratio (x) = 0.29056 0.39888
# Poissons Ratio (y) = 0.35291 0.45250
# Poissons Ratio (z) = 0.34283 0.32020
#
# Static dielectric constant tensor:
#      x y z
#    x 3.564940 0.000000 0.000000 
#    y 0.000000 3.480100 0.000000 
#    z 0.000000 0.000000 3.536610 
# 
# 
# High freq. dielectric constant tensor:
#      x y z
#    x 1.746180 0.000000 0.000000 
#    y 0.000000 1.730610 0.000000 
#    z 0.000000 0.000000 1.745070 
# 
# From -- ./inp_files/12731.got.cif
#   From: 2010.03.12/outbox.cif.g09.slc.cpg/sg38_7_cif.got.tgz:12731.got - 2010.04.14 02:38:36.
