data_PCOD8179480
_publ_section_title
;
Structure prediction by ZEFSAII (Michael W. Deem and Ramdas Pophale) SiO2 
 PCOD8179480
Probable space group: A M M 2
;
_chemical_formula_sum "Si O2"
_cell_formula_units_Z 64
_cell_length_a 19.052407
_cell_length_b 8.688490
_cell_length_c 20.355391
_cell_angle_alpha 90.000000
_cell_angle_beta 90.000000
_cell_angle_gamma 90.000000
_cell_volume 3369.563189
_symmetry_space_group_name_H-M "A M M 2"
_symmetry_group_IT_number 38
_symmetry_cell_setting 'orthorhombic'
loop_
_space_group_symop_operation_xyz
x,y,z
-x,-y,z
-x,y,z
x,-y,z
x,1/2+y,1/2+z
-x,1/2-y,1/2+z
-x,1/2+y,1/2+z
x,1/2-y,1/2+z
loop_
_atom_site_type_symbol
_atom_site_label
_atom_site_fract_x
_atom_site_fract_y
_atom_site_fract_z
Si Si1 0.579175 0.676797 0.524870
Si Si2 0.704626 0.679181 0.087261
Si Si3 0.920895 0.821483 0.511505
Si Si4 0.286210 0.321300 0.332465
Si Si5 0.920799 0.320693 0.164174
Si Si6 0.216129 0.320899 0.708237
Si Si7 0.213200 0.177374 0.969617
Si Si8 0.579851 0.180069 0.385269
O O1 0.500000 0.700928 0.550126
O O2 0.593898 0.500000 0.506377
O O3 0.630577 0.731166 0.582731
O O4 0.595158 0.776454 0.460500
O O5 0.688637 0.500000 0.089249
O O6 0.743152 0.725257 0.153500
O O7 0.752185 0.716810 0.024719
O O8 0.908922 0.782520 0.587837
O O9 0.869344 0.718124 0.467287
O O10 0.000000 0.779415 0.490674
O O11 0.905550 0.000000 0.498374
O O12 0.281595 0.500000 0.313478
O O13 0.247835 0.219474 0.278470
O O14 0.247308 0.283899 0.400199
O O15 0.367785 0.272264 0.337615
O O16 0.907484 0.500000 0.177389
O O17 0.866276 0.222732 0.207242
O O18 0.000000 0.275350 0.185071
O O19 0.225324 0.500000 0.693868
O O20 0.224481 0.000000 0.988496
O O21 0.500000 0.225441 0.366434
O O22 0.593096 0.000000 0.376458
#
# Coordination Sequence:
#
# PCOD8179480 Si02
#       8
#     8   8   8   8   8   8   8   8
#     4  10  20  35  57  87 121 154 193 243 294 344
#     4  12  23  37  60  86 118 154 193 239 292 350
#     4   9  18  33  56  86 118 153 192 238 292 347
#     4  11  24  41  60  84 120 160 200 244 294 350
#     4   9  18  35  59  86 117 153 193 237 290 351
#     4  12  25  40  60  87 120 154 199 248 295 353
#     4  11  22  36  58  88 117 149 193 242 290 343
#     4  10  20  35  58  88 119 153 195 241 291 348
#
# _framework density 18.993559999999999
#
# number of rings (size 3 to 8) (size 9 to 14) (size 15 to 20)
#    0.000    1.500    2.500    4.500    0.000    3.500 
#    0.000    2.500    0.000    4.500    0.000    0.000 
#    0.000    0.000    0.000    0.000    0.000    0.000 
#
# Total GULP energy -396928.821766 kJ/mol
# GULP energy per Si atom -12404.025680 kJ/mol
# Density = 1.895033 g / cm^3
# Si number density = 18.993560 Si / 1000 Ang^3
#
#
#
# Elastic Constant Matrix: (Units=GPa)
#
#
# Indices 1 2 3 4 5 6 
#
# 1 137.5962 34.9822 41.4838 0.0000 0.0000 0.0000
# 2 34.9822 60.4062 22.6978 0.0000 0.0000 0.0000
# 3 41.4838 22.6978 60.4255 0.0000 0.0000 0.0000
# 4 0.0000 0.0000 0.0000 28.1012 0.0000 0.0000
# 5 0.0000 0.0000 0.0000 0.0000 30.0185 0.0000
# 6 0.0000 0.0000 0.0000 0.0000 0.0000 37.1713
#
#
#
# Elastic Compliance Matrix: (Units=1/GPa)
#
#
# Indices 1 2 3 4 5 6 
#
# 1 0.009817 -0.003671 -0.005361 0.000000 0.000000 0.000000
# 2 -0.003671 0.020648 -0.005236 0.000000 0.000000 0.000000
# 3 -0.005361 -0.005236 0.022196 0.000000 0.000000 0.000000
# 4 0.000000 0.000000 0.000000 0.035586 0.000000 0.000000
# 5 0.000000 0.000000 0.000000 0.000000 0.033313 0.000000
# 6 0.000000 0.000000 0.000000 0.000000 0.000000 0.026902
#
#
# Mechanical properties :
#
#
# Convention : Reuss Voigt Hill
#
# Bulk Modulus (GPa) = 41.44859 50.75062 46.09960
# Shear Modulus (GPa) = 27.02124 29.67581 28.34853
#
# Velocity S-wave (km/s) = 3.77590 3.95703 3.86752
# Velocity P-wave (km/s) = 6.39372 6.90328 6.65338
#
# Compressibility (1/GPa) = 0.02412627
#
# Stress axis : x y z
#
# Youngs Moduli (GPa) = 101.86240 48.43121 45.05234
#
# Poissons Ratio (x) = 0.17779 0.24152
# Poissons Ratio (y) = 0.37393 0.23589
# Poissons Ratio (z) = 0.54607 0.25358
#
# Static dielectric constant tensor:
#      x y z
#    x 3.805710 0.000000 0.000000 
#    y 0.000000 3.463970 0.000000 
#    z 0.000000 0.000000 3.227290 
# 
# 
# High freq. dielectric constant tensor:
#      x y z
#    x 1.758100 0.000000 0.000000 
#    y 0.000000 1.746160 0.000000 
#    z 0.000000 0.000000 1.702580 
# 
# From -- ./inp_files/18884.got.cif
#   From: 2010.03.12/outbox.cif.g09.slc.cpg/sg38_10_cif.got.tgz:18884.got - 2010.04.14 02:38:36.
