data_PCOD8179254
_publ_section_title
;
Structure prediction by ZEFSAII (Michael W. Deem and Ramdas Pophale) SiO2 
 PCOD8179254
Probable space group: A M M 2
;
_chemical_formula_sum "Si O2"
_cell_formula_units_Z 48
_cell_length_a 7.706988
_cell_length_b 8.927473
_cell_length_c 34.280391
_cell_angle_alpha 90.000000
_cell_angle_beta 90.000000
_cell_angle_gamma 90.000000
_cell_volume 2358.625530
_symmetry_space_group_name_H-M "A M M 2"
_symmetry_group_IT_number 38
_symmetry_cell_setting 'orthorhombic'
loop_
_space_group_symop_operation_xyz
x,y,z
-x,-y,z
-x,y,z
x,-y,z
x,1/2+y,1/2+z
-x,1/2-y,1/2+z
-x,1/2+y,1/2+z
x,1/2-y,1/2+z
loop_
_atom_site_type_symbol
_atom_site_label
_atom_site_fract_x
_atom_site_fract_y
_atom_site_fract_z
Si Si1 0.500000 0.322234 0.723011
Si Si2 0.500000 0.321210 0.811387
Si Si3 0.798162 0.823367 0.861001
Si Si4 0.192052 0.328373 0.669716
Si Si5 0.697108 0.331822 0.094988
Si Si6 0.205389 0.167721 0.440311
Si Si7 0.795005 0.828372 0.017357
O O1 0.500000 0.500000 0.723997
O O2 0.500000 0.262382 0.766969
O O3 0.328993 0.261570 0.700680
O O4 0.500000 0.500000 0.814932
O O5 0.323498 0.257866 0.829830
O O6 0.738022 0.766633 0.903439
O O7 0.000000 0.782244 0.852675
O O8 0.768126 0.000000 0.859035
O O9 0.239242 0.500000 0.660114
O O10 0.189879 0.240376 0.629092
O O11 0.000000 0.314448 0.688235
O O12 0.500000 0.331043 0.109582
O O13 0.764455 0.500000 0.087172
O O14 0.708780 0.238972 0.055513
O O15 0.279829 0.242374 0.479570
O O16 0.000000 0.162809 0.443051
O O17 0.281570 0.000000 0.435974
O O18 0.000000 0.810087 0.020729
O O19 0.739270 0.000000 0.013435
#
# Coordination Sequence:
#
# PCOD8179254 Si02
#       7
#     4   4   8   8   8   8   8
#     4   9  20  39  61  88 121 150 185 239 293 346
#     4  11  23  39  63  94 123 156 197 247 303 360
#     4  10  21  39  62  88 122 163 204 247 298 359
#     4  10  20  37  63  89 113 149 193 235 288 351
#     4  11  23  37  53  78 114 154 195 242 292 342
#     4   9  17  32  56  84 115 152 195 246 297 345
#     4  10  20  34  54  81 112 150 196 242 291 347
#
# _framework density 20.350835
#
# number of rings (size 3 to 8) (size 9 to 14) (size 15 to 20)
#    0.000    2.000    0.833    2.750    0.000    8.000 
#    1.500    3.333    0.000    0.000    0.000    0.000 
#    0.000    0.000    0.000    0.000    0.000    0.000 
#
# Total GULP energy -297637.268016 kJ/mol
# GULP energy per Si atom -12401.552834 kJ/mol
# Density = 2.030452 g / cm^3
# Si number density = 20.350835 Si / 1000 Ang^3
#
#
#
# Elastic Constant Matrix: (Units=GPa)
#
#
# Indices 1 2 3 4 5 6 
#
# 1 93.7527 38.6188 57.0649 0.0000 0.0000 0.0000
# 2 38.6188 110.7256 49.0724 0.0000 0.0000 0.0000
# 3 57.0649 49.0724 161.1420 0.0000 0.0000 0.0000
# 4 0.0000 0.0000 0.0000 30.7954 0.0000 0.0000
# 5 0.0000 0.0000 0.0000 0.0000 29.7937 0.0000
# 6 0.0000 0.0000 0.0000 0.0000 0.0000 23.1961
#
#
#
# Elastic Compliance Matrix: (Units=1/GPa)
#
#
# Indices 1 2 3 4 5 6 
#
# 1 0.014528 -0.003222 -0.004164 0.000000 0.000000 0.000000
# 2 -0.003222 0.011155 -0.002256 0.000000 0.000000 0.000000
# 3 -0.004164 -0.002256 0.008367 0.000000 0.000000 0.000000
# 4 0.000000 0.000000 0.000000 0.032472 0.000000 0.000000
# 5 0.000000 0.000000 0.000000 0.000000 0.033564 0.000000
# 6 0.000000 0.000000 0.000000 0.000000 0.000000 0.043111
#
#
# Mechanical properties :
#
#
# Convention : Reuss Voigt Hill
#
# Bulk Modulus (GPa) = 67.71836 72.79250 70.25543
# Shear Modulus (GPa) = 29.86820 31.48132 30.67476
#
# Velocity S-wave (km/s) = 3.83517 3.93737 3.88660
# Velocity P-wave (km/s) = 7.27730 7.51778 7.39851
#
# Compressibility (1/GPa) = 0.01476704
#
# Stress axis : x y z
#
# Youngs Moduli (GPa) = 68.83399 89.64685 119.51457
#
# Poissons Ratio (x) = 0.28882 0.49761
# Poissons Ratio (y) = 0.22176 0.26964
# Poissons Ratio (z) = 0.28659 0.20225
#
# Static dielectric constant tensor:
#      x y z
#    x 3.612150 0.000000 0.000000 
#    y 0.000000 3.739980 0.000000 
#    z 0.000000 0.000000 3.710820 
# 
# 
# High freq. dielectric constant tensor:
#      x y z
#    x 1.792810 0.000000 0.000000 
#    y 0.000000 1.794780 0.000000 
#    z 0.000000 0.000000 1.792090 
# 
# From -- ./inp_files/24372.got.cif
#   From: 2010.03.12/outbox.cif.g09.slc.cpg/sg38_13_cif.got.tgz:24372.got - 2010.04.14 02:38:36.
