data_PCOD8179517
_publ_section_title
;
Structure prediction by ZEFSAII (Michael W. Deem and Ramdas Pophale) SiO2 
 PCOD8179517
Probable space group: A M M 2
;
_chemical_formula_sum "Si O2"
_cell_formula_units_Z 64
_cell_length_a 13.954728
_cell_length_b 8.852858
_cell_length_c 25.837542
_cell_angle_alpha 90.000000
_cell_angle_beta 90.000000
_cell_angle_gamma 90.000000
_cell_volume 3191.949925
_symmetry_space_group_name_H-M "A M M 2"
_symmetry_group_IT_number 38
_symmetry_cell_setting 'orthorhombic'
loop_
_space_group_symop_operation_xyz
x,y,z
-x,-y,z
-x,y,z
x,-y,z
x,1/2+y,1/2+z
-x,1/2-y,1/2+z
-x,1/2+y,1/2+z
x,1/2-y,1/2+z
loop_
_atom_site_type_symbol
_atom_site_label
_atom_site_fract_x
_atom_site_fract_y
_atom_site_fract_z
Si Si1 0.892907 0.325510 0.216460
Si Si2 0.285365 0.177046 0.467899
Si Si3 0.385846 0.171849 0.874499
Si Si4 0.389422 0.822935 0.063956
Si Si5 0.605555 0.320913 0.261074
Si Si6 0.886137 0.669923 0.819766
Si Si7 0.109034 0.678310 0.424857
Si Si8 0.711625 0.324896 0.159146
O O1 0.892880 0.500000 0.232872
O O2 0.848545 0.238194 0.265754
O O3 0.826190 0.301143 0.165850
O O4 0.000000 0.269987 0.201966
O O5 0.340168 0.214783 0.415204
O O6 0.347849 0.237898 0.514885
O O7 0.178962 0.250456 0.468088
O O8 0.273175 0.000000 0.474305
O O9 0.500000 0.179965 0.877853
O O10 0.351968 0.227275 0.817206
O O11 0.351686 0.000000 0.886201
O O12 0.500000 0.775428 0.072123
O O13 0.328147 0.778070 0.113840
O O14 0.379843 0.000000 0.054283
O O15 0.500000 0.250313 0.253529
O O16 0.598097 0.500000 0.261477
O O17 0.669029 0.265572 0.213383
O O18 0.847278 0.500000 0.826508
O O19 0.851941 0.768617 0.868735
O O20 0.000000 0.674274 0.817615
O O21 0.114932 0.500000 0.427804
O O22 0.000000 0.734463 0.434838
O O23 0.685760 0.500000 0.148067
#
# Coordination Sequence:
#
# PCOD8179517 Si02
#       8
#     8   8   8   8   8   8   8   8
#     4   9  18  32  51  81 121 162 203 241 284 345
#     4  12  25  39  60  89 118 152 196 247 300 353
#     4   9  18  34  56  83 118 158 196 238 291 356
#     4  11  25  45  66  87 113 149 195 250 307 363
#     4   8  15  29  51  80 112 146 186 234 291 353
#     4   9  17  30  50  79 117 158 198 242 289 336
#     4  10  21  38  60  85 117 158 201 243 290 350
#     4  10  20  35  59  87 114 152 200 247 297 353
#
# _framework density 20.050439000000001
#
# number of rings (size 3 to 8) (size 9 to 14) (size 15 to 20)
#    0.000    2.250    0.000    3.750    1.750    6.000 
#    0.000    1.250    0.000    3.000    0.000    0.000 
#    0.000    0.000    0.000    0.000    0.000    0.000 
#
# Total GULP energy -396758.347993 kJ/mol
# GULP energy per Si atom -12398.698375 kJ/mol
# Density = 2.000480 g / cm^3
# Si number density = 20.050439 Si / 1000 Ang^3
#
#
#
# Elastic Constant Matrix: (Units=GPa)
#
#
# Indices 1 2 3 4 5 6 
#
# 1 82.1581 31.2118 49.7342 0.0000 0.0000 0.0000
# 2 31.2118 87.1639 36.1453 0.0000 0.0000 0.0000
# 3 49.7342 36.1453 104.0098 0.0000 0.0000 0.0000
# 4 0.0000 0.0000 0.0000 34.3415 0.0000 0.0000
# 5 0.0000 0.0000 0.0000 0.0000 33.9971 0.0000
# 6 0.0000 0.0000 0.0000 0.0000 0.0000 24.2214
#
#
#
# Elastic Compliance Matrix: (Units=1/GPa)
#
#
# Indices 1 2 3 4 5 6 
#
# 1 0.017929 -0.003347 -0.007410 0.000000 0.000000 0.000000
# 2 -0.003347 0.014029 -0.003275 0.000000 0.000000 0.000000
# 3 -0.007410 -0.003275 0.014296 0.000000 0.000000 0.000000
# 4 0.000000 0.000000 0.000000 0.029119 0.000000 0.000000
# 5 0.000000 0.000000 0.000000 0.000000 0.029414 0.000000
# 6 0.000000 0.000000 0.000000 0.000000 0.000000 0.041286
#
#
# Mechanical properties :
#
#
# Convention : Reuss Voigt Hill
#
# Bulk Modulus (GPa) = 54.97546 56.39049 55.68298
# Shear Modulus (GPa) = 27.74693 28.92803 28.33748
#
# Velocity S-wave (km/s) = 3.72406 3.80249 3.76348
# Velocity P-wave (km/s) = 6.78009 6.88941 6.83497
#
# Compressibility (1/GPa) = 0.01818993
#
# Stress axis : x y z
#
# Youngs Moduli (GPa) = 55.77632 71.27958 69.95135
#
# Poissons Ratio (x) = 0.23859 0.51832
# Poissons Ratio (y) = 0.18670 0.22908
# Poissons Ratio (z) = 0.41329 0.23343
#
# Static dielectric constant tensor:
#      x y z
#    x 3.925380 0.000000 0.000000 
#    y 0.000000 3.465010 0.000000 
#    z 0.000000 0.000000 3.714420 
# 
# 
# High freq. dielectric constant tensor:
#      x y z
#    x 1.795040 0.000000 0.000000 
#    y 0.000000 1.764640 0.000000 
#    z 0.000000 0.000000 1.767220 
# 
# From -- ./inp_files/22967.got.cif
#   From: 2010.03.12/outbox.cif.g09.slc.cpg/sg38_12_cif.got.tgz:22967.got - 2010.04.14 02:38:36.
