data_PCOD8179879
_publ_section_title
;
Structure prediction by ZEFSAII (Michael W. Deem and Ramdas Pophale) SiO2 
 PCOD8179879
Probable space group: A M M 2
;
_chemical_formula_sum "Si O2"
_cell_formula_units_Z 64
_cell_length_a 9.430813
_cell_length_b 29.036493
_cell_length_c 12.552592
_cell_angle_alpha 90.000000
_cell_angle_beta 90.000000
_cell_angle_gamma 90.000000
_cell_volume 3437.373370
_symmetry_space_group_name_H-M "A M M 2"
_symmetry_group_IT_number 38
_symmetry_cell_setting 'orthorhombic'
loop_
_space_group_symop_operation_xyz
x,y,z
-x,-y,z
-x,y,z
x,-y,z
x,1/2+y,1/2+z
-x,1/2-y,1/2+z
-x,1/2+y,1/2+z
x,1/2-y,1/2+z
loop_
_atom_site_type_symbol
_atom_site_label
_atom_site_fract_x
_atom_site_fract_y
_atom_site_fract_z
Si Si1 0.342169 0.712599 0.209240
Si Si2 0.164210 0.626092 0.147268
Si Si3 0.657030 0.708451 0.556294
Si Si4 0.836609 0.251146 0.887236
Si Si5 0.334194 0.625234 0.704110
Si Si6 0.836414 0.447488 0.322042
Si Si7 0.665428 0.552956 0.527189
Si Si8 0.161391 0.642907 0.911118
O O1 0.500000 0.703751 0.256354
O O2 0.262458 0.664820 0.197623
O O3 0.355153 0.739544 0.098768
O O4 0.251893 0.747859 0.279811
O O5 0.197006 0.580115 0.213853
O O6 0.000000 0.641369 0.157741
O O7 0.201281 0.617908 0.022687
O O8 0.500000 0.693148 0.514665
O O9 0.772960 0.711237 0.463367
O O10 0.710167 0.672098 0.644151
O O11 0.816766 0.302665 0.931251
O O12 0.000000 0.239028 0.867201
O O13 0.500000 0.624444 0.729388
O O14 0.288317 0.582275 0.630286
O O15 0.256528 0.622128 0.817343
O O16 0.794203 0.500000 0.297406
O O17 0.746831 0.428681 0.422428
O O18 0.000000 0.442590 0.354247
O O19 0.500000 0.559513 0.503852
O O20 0.705018 0.500000 0.550954
O O21 0.000000 0.632653 0.878679
#
# Coordination Sequence:
#
# PCOD8179879 Si02
#       8
#     8   8   8   8   8   8   8   8
#     4  11  22  35  53  77 108 144 185 225 266 318
#     4  10  21  38  56  80 112 144 184 227 273 325
#     4  10  21  35  51  75 106 142 183 226 266 314
#     4  11  22  35  52  74 107 147 183 224 272 321
#     4  10  21  37  56  79 109 144 184 225 270 323
#     4   9  19  37  61  85 109 139 175 221 275 328
#     4   9  19  37  60  84 111 141 174 221 277 328
#     4  10  21  36  54  77 110 147 184 224 267 321
#
# _framework density 18.618867000000002
#
# number of rings (size 3 to 8) (size 9 to 14) (size 15 to 20)
#    0.000    2.000    2.500    0.750    1.750    3.000 
#    0.000    0.625    0.000    0.750    0.000    0.000 
#    0.000    0.000    0.000    0.000    0.000    0.000 
#
# Total GULP energy -396754.259344 kJ/mol
# GULP energy per Si atom -12398.570604 kJ/mol
# Density = 1.857649 g / cm^3
# Si number density = 18.618867 Si / 1000 Ang^3
#
#
#
# Elastic Constant Matrix: (Units=GPa)
#
#
# Indices 1 2 3 4 5 6 
#
# 1 93.9604 37.6921 60.7709 0.0000 0.0000 0.0000
# 2 37.6921 78.1614 48.8669 0.0000 0.0000 0.0000
# 3 60.7709 48.8669 120.8320 0.0000 0.0000 0.0000
# 4 0.0000 0.0000 0.0000 34.0822 0.0000 0.0000
# 5 0.0000 0.0000 0.0000 0.0000 36.2102 0.0000
# 6 0.0000 0.0000 0.0000 0.0000 0.0000 21.2865
#
#
#
# Elastic Compliance Matrix: (Units=1/GPa)
#
#
# Indices 1 2 3 4 5 6 
#
# 1 0.016542 -0.003715 -0.006817 0.000000 0.000000 0.000000
# 2 -0.003715 0.017958 -0.005394 0.000000 0.000000 0.000000
# 3 -0.006817 -0.005394 0.013886 0.000000 0.000000 0.000000
# 4 0.000000 0.000000 0.000000 0.029341 0.000000 0.000000
# 5 0.000000 0.000000 0.000000 0.000000 0.027617 0.000000
# 6 0.000000 0.000000 0.000000 0.000000 0.000000 0.046978
#
#
# Mechanical properties :
#
#
# Convention : Reuss Voigt Hill
#
# Bulk Modulus (GPa) = 60.48347 65.29041 62.88694
# Shear Modulus (GPa) = 26.35935 28.02404 27.19169
#
# Velocity S-wave (km/s) = 3.76670 3.88383 3.82571
# Velocity P-wave (km/s) = 7.17447 7.43337 7.30507
#
# Compressibility (1/GPa) = 0.01653344
#
# Stress axis : x y z
#
# Youngs Moduli (GPa) = 60.45112 55.68548 72.01442
#
# Poissons Ratio (x) = 0.20688 0.49094
# Poissons Ratio (y) = 0.22458 0.38846
# Poissons Ratio (z) = 0.41211 0.30037
#
# Static dielectric constant tensor:
#      x y z
#    x 3.466460 0.000000 0.000000 
#    y 0.000000 3.313950 0.000000 
#    z 0.000000 0.000000 3.393820 
# 
# 
# High freq. dielectric constant tensor:
#      x y z
#    x 1.724950 0.000000 0.000000 
#    y 0.000000 1.705630 0.000000 
#    z 0.000000 0.000000 1.722030 
# 
# From -- ./inp_files/8535.got.cif
#   From: 2010.03.12/outbox.cif.g09.slc.cpg/sg38_5_cif.got.tgz:8535.got - 2010.04.14 02:38:36.
