data_PCOD8179717
_publ_section_title
;
Structure prediction by ZEFSAII (Michael W. Deem and Ramdas Pophale) SiO2 
 PCOD8179717
Probable space group: A M M 2
;
_chemical_formula_sum "Si O2"
_cell_formula_units_Z 48
_cell_length_a 8.480736
_cell_length_b 20.378949
_cell_length_c 14.413802
_cell_angle_alpha 90.000000
_cell_angle_beta 90.000000
_cell_angle_gamma 90.000000
_cell_volume 2491.115583
_symmetry_space_group_name_H-M "A M M 2"
_symmetry_group_IT_number 38
_symmetry_cell_setting 'orthorhombic'
loop_
_space_group_symop_operation_xyz
x,y,z
-x,-y,z
-x,y,z
x,-y,z
x,1/2+y,1/2+z
-x,1/2-y,1/2+z
-x,1/2+y,1/2+z
x,1/2-y,1/2+z
loop_
_atom_site_type_symbol
_atom_site_label
_atom_site_fract_x
_atom_site_fract_y
_atom_site_fract_z
Si Si1 0.682324 0.774342 0.642610
Si Si2 0.187244 0.572608 0.821094
Si Si3 0.183750 0.133238 0.129599
Si Si4 0.812965 0.186700 0.454256
Si Si5 0.183580 0.687157 0.336145
Si Si6 0.681137 0.574279 0.450870
O O1 0.500000 0.784070 0.666273
O O2 0.717788 0.699302 0.618374
O O3 0.728937 0.817276 0.553384
O O4 0.784715 0.798305 0.729030
O O5 0.254842 0.500000 0.842568
O O6 0.245667 0.594748 0.719701
O O7 0.248968 0.623431 0.897880
O O8 0.000000 0.571549 0.821426
O O9 0.000000 0.151577 0.138299
O O10 0.210756 0.088645 0.039877
O O11 0.760006 0.251416 0.398185
O O12 0.000000 0.185771 0.467591
O O13 0.276826 0.622218 0.366170
O O14 0.000000 0.674365 0.351199
O O15 0.500000 0.584268 0.479329
O O16 0.713764 0.500000 0.417655
#
# Coordination Sequence:
#
# PCOD8179717 Si02
#       6
#     8   8   8   8   8   8
#     4  12  24  37  58  88 121 155 197 245 301 352
#     4   9  18  34  58  87 117 149 188 237 290 341
#     4  11  20  35  59  89 122 155 197 242 292 354
#     4  10  20  37  60  86 116 151 197 245 288 346
#     4  11  22  39  63  87 115 155 203 248 292 349
#     4  11  24  40  58  87 125 159 194 243 305 365
#
# _framework density 19.268474999999999
#
# number of rings (size 3 to 8) (size 9 to 14) (size 15 to 20)
#    0.000    1.333    3.333    3.500    0.000    2.667 
#    0.000    0.833    0.000    5.500    0.000    0.000 
#    0.000    0.000    0.000    0.000    0.000    0.000 
#
# Total GULP energy -297716.804347 kJ/mol
# GULP energy per Si atom -12404.866848 kJ/mol
# Density = 1.922462 g / cm^3
# Si number density = 19.268475 Si / 1000 Ang^3
#
#
#
# Elastic Constant Matrix: (Units=GPa)
#
#
# Indices 1 2 3 4 5 6 
#
# 1 43.3727 20.8415 13.2263 0.0000 0.0000 0.0000
# 2 20.8415 129.1306 46.2431 0.0000 0.0000 0.0000
# 3 13.2263 46.2431 113.7866 0.0000 0.0000 0.0000
# 4 0.0000 0.0000 0.0000 33.1149 0.0000 0.0000
# 5 0.0000 0.0000 0.0000 0.0000 19.9129 0.0000
# 6 0.0000 0.0000 0.0000 0.0000 0.0000 19.5092
#
#
#
# Elastic Compliance Matrix: (Units=1/GPa)
#
#
# Indices 1 2 3 4 5 6 
#
# 1 0.025210 -0.003534 -0.001494 0.000000 0.000000 0.000000
# 2 -0.003534 0.009558 -0.003474 0.000000 0.000000 0.000000
# 3 -0.001494 -0.003474 0.010374 0.000000 0.000000 0.000000
# 4 0.000000 0.000000 0.000000 0.030198 0.000000 0.000000
# 5 0.000000 0.000000 0.000000 0.000000 0.050219 0.000000
# 6 0.000000 0.000000 0.000000 0.000000 0.000000 0.051258
#
#
# Mechanical properties :
#
#
# Convention : Reuss Voigt Hill
#
# Bulk Modulus (GPa) = 35.53855 49.65686 42.59771
# Shear Modulus (GPa) = 24.60640 28.23935 26.42288
#
# Velocity S-wave (km/s) = 3.57743 3.83243 3.70713
# Velocity P-wave (km/s) = 5.96221 6.73872 6.36232
#
# Compressibility (1/GPa) = 0.02813846
#
# Stress axis : x y z
#
# Youngs Moduli (GPa) = 39.66733 104.61948 96.39647
#
# Poissons Ratio (x) = 0.36970 0.14404
# Poissons Ratio (y) = 0.14017 0.33486
# Poissons Ratio (z) = 0.05927 0.36343
#
# Static dielectric constant tensor:
#      x y z
#    x 3.339790 0.000000 0.000000 
#    y 0.000000 3.673250 0.000000 
#    z 0.000000 0.000000 3.522060 
# 
# 
# High freq. dielectric constant tensor:
#      x y z
#    x 1.737400 0.000000 0.000000 
#    y 0.000000 1.747410 0.000000 
#    z 0.000000 0.000000 1.752350 
# 
# From -- ./inp_files/12027.got.cif
#   From: 2010.03.12/outbox.cif.g09.slc.cpg/sg38_7_cif.got.tgz:12027.got - 2010.04.14 02:38:36.
