data_PCOD8179145
_publ_section_title
;
Structure prediction by ZEFSAII (Michael W. Deem and Ramdas Pophale) SiO2 
 PCOD8179145
Probable space group: A M M 2
;
_chemical_formula_sum "Si O2"
_cell_formula_units_Z 48
_cell_length_a 8.981364
_cell_length_b 16.458144
_cell_length_c 18.515367
_cell_angle_alpha 90.000000
_cell_angle_beta 90.000000
_cell_angle_gamma 90.000000
_cell_volume 2736.878265
_symmetry_space_group_name_H-M "A M M 2"
_symmetry_group_IT_number 38
_symmetry_cell_setting 'orthorhombic'
loop_
_space_group_symop_operation_xyz
x,y,z
-x,-y,z
-x,y,z
x,-y,z
x,1/2+y,1/2+z
-x,1/2-y,1/2+z
-x,1/2+y,1/2+z
x,1/2-y,1/2+z
loop_
_atom_site_type_symbol
_atom_site_label
_atom_site_fract_x
_atom_site_fract_y
_atom_site_fract_z
Si Si1 0.176573 0.500000 0.274511
Si Si2 0.175070 0.164578 0.540558
Si Si3 0.823144 0.000000 0.609579
Si Si4 0.671369 0.738422 0.657905
Si Si5 0.824124 0.809338 0.376043
Si Si6 0.325796 0.336575 0.299971
Si Si7 0.326511 0.407019 0.755797
O O1 0.230652 0.500000 0.191864
O O2 0.243578 0.421382 0.313468
O O3 0.000000 0.500000 0.282264
O O4 0.237668 0.240563 0.586033
O O5 0.221686 0.170921 0.457642
O O6 0.000000 0.166459 0.550469
O O7 0.242017 0.079913 0.570498
O O8 0.000000 0.000000 0.604416
O O9 0.500000 0.738057 0.636124
O O10 0.705651 0.805438 0.719031
O O11 0.720003 0.649809 0.688161
O O12 0.742242 0.726253 0.356560
O O13 0.767968 0.883377 0.326265
O O14 0.000000 0.799089 0.366124
O O15 0.500000 0.346224 0.315158
O O16 0.500000 0.392001 0.774032
O O17 0.293387 0.500000 0.734878
#
# Coordination Sequence:
#
# PCOD8179145 Si02
#       7
#     4   8   4   8   8   8   8
#     4  11  19  31  57  83 107 136 175 218 261 309
#     4  10  20  34  52  75 107 140 171 210 257 312
#     4   9  18  31  49  77 109 138 163 202 259 309
#     4   9  18  32  52  75 100 135 175 215 256 308
#     4  10  21  34  53  78 106 139 176 214 262 314
#     4  10  20  35  53  76 108 141 178 217 259 310
#     4   9  19  36  55  76 104 136 172 216 266 314
#
# _framework density 17.538231
#
# number of rings (size 3 to 8) (size 9 to 14) (size 15 to 20)
#    0.000    2.333    1.667    2.250    1.167    4.333 
#    0.000    0.417    1.833    0.000    0.000    0.000 
#    0.000    0.000    0.000    0.000    0.000    0.000 
#
# Total GULP energy -297635.940487 kJ/mol
# GULP energy per Si atom -12401.497520 kJ/mol
# Density = 1.749831 g / cm^3
# Si number density = 17.538231 Si / 1000 Ang^3
#
#
#
# Elastic Constant Matrix: (Units=GPa)
#
#
# Indices 1 2 3 4 5 6 
#
# 1 55.9817 38.5916 33.7340 0.0000 0.0000 0.0000
# 2 38.5916 138.1005 47.6167 0.0000 0.0000 0.0000
# 3 33.7340 47.6167 87.4092 0.0000 0.0000 0.0000
# 4 0.0000 0.0000 0.0000 20.6558 0.0000 0.0000
# 5 0.0000 0.0000 0.0000 0.0000 25.9777 0.0000
# 6 0.0000 0.0000 0.0000 0.0000 0.0000 28.6078
#
#
#
# Elastic Compliance Matrix: (Units=1/GPa)
#
#
# Indices 1 2 3 4 5 6 
#
# 1 0.025433 -0.004584 -0.007318 0.000000 0.000000 0.000000
# 2 -0.004584 0.009742 -0.003538 0.000000 0.000000 0.000000
# 3 -0.007318 -0.003538 0.016192 0.000000 0.000000 0.000000
# 4 0.000000 0.000000 0.000000 0.048413 0.000000 0.000000
# 5 0.000000 0.000000 0.000000 0.000000 0.038495 0.000000
# 6 0.000000 0.000000 0.000000 0.000000 0.000000 0.034955
#
#
# Mechanical properties :
#
#
# Convention : Reuss Voigt Hill
#
# Bulk Modulus (GPa) = 48.81188 57.93067 53.37128
# Shear Modulus (GPa) = 23.70362 25.81820 24.76091
#
# Velocity S-wave (km/s) = 3.68032 3.84097 3.76150
# Velocity P-wave (km/s) = 6.77877 7.26454 7.02586
#
# Compressibility (1/GPa) = 0.02048681
#
# Stress axis : x y z
#
# Youngs Moduli (GPa) = 39.31935 102.64951 61.75849
#
# Poissons Ratio (x) = 0.47052 0.45197
# Poissons Ratio (y) = 0.18023 0.21850
# Poissons Ratio (z) = 0.28775 0.36317
#
# Static dielectric constant tensor:
#      x y z
#    x 3.161710 0.000000 0.000000 
#    y 0.000000 3.377570 0.000000 
#    z 0.000000 0.000000 3.113180 
# 
# 
# High freq. dielectric constant tensor:
#      x y z
#    x 1.675030 0.000000 0.000000 
#    y 0.000000 1.683510 0.000000 
#    z 0.000000 0.000000 1.658660 
# 
# From -- ./inp_files/16689.got.cif
#   From: 2010.03.12/outbox.cif.g09.slc.cpg/sg38_9_cif.got.tgz:16689.got - 2010.04.14 02:38:36.
