data_PCOD8179125
_publ_section_title
;
Structure prediction by ZEFSAII (Michael W. Deem and Ramdas Pophale) SiO2 
 PCOD8179125
Probable space group: A M M 2
;
_chemical_formula_sum "Si O2"
_cell_formula_units_Z 48
_cell_length_a 19.384219
_cell_length_b 9.183737
_cell_length_c 14.369448
_cell_angle_alpha 90.000000
_cell_angle_beta 90.000000
_cell_angle_gamma 90.000000
_cell_volume 2558.042943
_symmetry_space_group_name_H-M "A M M 2"
_symmetry_group_IT_number 38
_symmetry_cell_setting 'orthorhombic'
loop_
_space_group_symop_operation_xyz
x,y,z
-x,-y,z
-x,y,z
x,-y,z
x,1/2+y,1/2+z
-x,1/2-y,1/2+z
-x,1/2+y,1/2+z
x,1/2-y,1/2+z
loop_
_atom_site_type_symbol
_atom_site_label
_atom_site_fract_x
_atom_site_fract_y
_atom_site_fract_z
Si Si1 0.000000 0.663019 0.333280
Si Si2 0.393172 0.172195 0.471497
Si Si3 0.500000 0.827120 0.320588
Si Si4 0.864018 0.328714 0.613168
Si Si5 0.238003 0.330053 0.983071
Si Si6 0.500000 0.672086 0.123819
Si Si7 0.868859 0.165907 0.327223
Si Si8 0.000000 0.334227 0.111781
O O1 0.931178 0.740492 0.370843
O O2 0.000000 0.500000 0.371643
O O3 0.000000 0.670835 0.222460
O O4 0.432834 0.225977 0.378758
O O5 0.315328 0.232004 0.472249
O O6 0.432727 0.221890 0.565121
O O7 0.392859 0.000000 0.468335
O O8 0.500000 0.752334 0.221322
O O9 0.500000 0.000000 0.306571
O O10 0.870916 0.500000 0.594463
O O11 0.797506 0.264211 0.562868
O O12 0.852968 0.291728 0.721334
O O13 0.932474 0.249009 0.574095
O O14 0.236665 0.500000 0.011565
O O15 0.200217 0.304205 0.885012
O O16 0.500000 0.500000 0.141240
O O17 0.893333 0.000000 0.333947
O O18 0.000000 0.500000 0.074609
#
# Coordination Sequence:
#
# PCOD8179125 Si02
#       8
#     4   8   4   8   8   4   8   4
#     4   9  17  30  51  74  96 124 166 216 257 295
#     4   8  17  34  53  74 105 139 170 203 246 304
#     4   9  17  33  58  82 102 133 173 209 246 298
#     4  10  20  34  51  75 104 132 166 218 271 303
#     4  10  20  35  53  73 100 139 177 205 243 309
#     4   9  17  33  56  80 104 133 167 207 254 300
#     4   9  19  34  51  70  97 132 169 208 254 303
#     4   9  17  32  53  74  96 132 178 216 251 307
#
# _framework density 18.764346
#
# number of rings (size 3 to 8) (size 9 to 14) (size 15 to 20)
#    0.000    2.833    0.000    2.000    0.000    5.333 
#    0.000    5.833    0.000    0.000    0.000    0.000 
#    0.000    0.000    0.000    0.000    0.000    0.000 
#
# Total GULP energy -297583.286690 kJ/mol
# GULP energy per Si atom -12399.303612 kJ/mol
# Density = 1.872164 g / cm^3
# Si number density = 18.764346 Si / 1000 Ang^3
#
#
#
# Elastic Constant Matrix: (Units=GPa)
#
#
# Indices 1 2 3 4 5 6 
#
# 1 188.2181 61.5289 71.2958 0.0000 0.0000 0.0000
# 2 61.5289 80.9339 47.9129 0.0000 0.0000 0.0000
# 3 71.2958 47.9129 111.8057 0.0000 0.0000 0.0000
# 4 0.0000 0.0000 0.0000 29.9332 0.0000 0.0000
# 5 0.0000 0.0000 0.0000 0.0000 37.9088 0.0000
# 6 0.0000 0.0000 0.0000 0.0000 0.0000 22.8380
#
#
#
# Elastic Compliance Matrix: (Units=1/GPa)
#
#
# Indices 1 2 3 4 5 6 
#
# 1 0.007882 -0.004042 -0.003294 0.000000 0.000000 0.000000
# 2 -0.004042 0.018629 -0.005406 0.000000 0.000000 0.000000
# 3 -0.003294 -0.005406 0.013361 0.000000 0.000000 0.000000
# 4 0.000000 0.000000 0.000000 0.033408 0.000000 0.000000
# 5 0.000000 0.000000 0.000000 0.000000 0.026379 0.000000
# 6 0.000000 0.000000 0.000000 0.000000 0.000000 0.043787
#
#
# Mechanical properties :
#
#
# Convention : Reuss Voigt Hill
#
# Bulk Modulus (GPa) = 69.49973 82.49255 75.99614
# Shear Modulus (GPa) = 28.78106 31.48401 30.13253
#
# Velocity S-wave (km/s) = 3.92065 4.10062 4.01164
# Velocity P-wave (km/s) = 7.59038 8.15340 7.87692
#
# Compressibility (1/GPa) = 0.01438855
#
# Stress axis : x y z
#
# Youngs Moduli (GPa) = 126.86892 53.68002 74.84429
#
# Poissons Ratio (x) = 0.21699 0.24654
# Poissons Ratio (y) = 0.51284 0.40457
# Poissons Ratio (z) = 0.41791 0.29017
#
# Static dielectric constant tensor:
#      x y z
#    x 3.676280 0.000000 0.000000 
#    y 0.000000 3.282780 0.000000 
#    z 0.000000 0.000000 3.369780 
# 
# 
# High freq. dielectric constant tensor:
#      x y z
#    x 1.729340 0.000000 0.000000 
#    y 0.000000 1.710580 0.000000 
#    z 0.000000 0.000000 1.729340 
# 
# From -- ./inp_files/15117.got.cif
#   From: 2010.03.12/outbox.cif.g09.slc.cpg/sg38_8_cif.got.tgz:15117.got - 2010.04.14 02:38:36.
