data_PCOD8179428
_publ_section_title
;
Structure prediction by ZEFSAII (Michael W. Deem and Ramdas Pophale) SiO2 
 PCOD8179428
Probable space group: A M M 2
;
_chemical_formula_sum "Si O2"
_cell_formula_units_Z 64
_cell_length_a 19.445542
_cell_length_b 8.946445
_cell_length_c 20.019603
_cell_angle_alpha 90.000000
_cell_angle_beta 90.000000
_cell_angle_gamma 90.000000
_cell_volume 3482.779744
_symmetry_space_group_name_H-M "A M M 2"
_symmetry_group_IT_number 38
_symmetry_cell_setting 'orthorhombic'
loop_
_space_group_symop_operation_xyz
x,y,z
-x,-y,z
-x,y,z
x,-y,z
x,1/2+y,1/2+z
-x,1/2-y,1/2+z
-x,1/2+y,1/2+z
x,1/2-y,1/2+z
loop_
_atom_site_type_symbol
_atom_site_label
_atom_site_fract_x
_atom_site_fract_y
_atom_site_fract_z
Si Si1 0.327631 0.174259 0.416180
Si Si2 0.318392 0.675804 0.277543
Si Si3 0.580455 0.172181 0.025057
Si Si4 0.175906 0.825888 0.270835
Si Si5 0.170566 0.670669 0.924673
Si Si6 0.080855 0.672083 0.166254
Si Si7 0.079074 0.326108 0.530740
Si Si8 0.578877 0.327915 0.160842
O O1 0.343599 0.259202 0.347726
O O2 0.379631 0.229448 0.471809
O O3 0.250049 0.205861 0.440470
O O4 0.338469 0.000000 0.402482
O O5 0.309164 0.500000 0.284998
O O6 0.246822 0.744761 0.252955
O O7 0.375763 0.719480 0.223737
O O8 0.500000 0.197281 0.012476
O O9 0.601323 0.226520 0.098625
O O10 0.601612 0.000000 0.017312
O O11 0.155005 0.796708 0.347303
O O12 0.115435 0.762433 0.225721
O O13 0.186331 0.000000 0.256804
O O14 0.152402 0.500000 0.943011
O O15 0.123652 0.780979 0.967087
O O16 0.102898 0.500000 0.170191
O O17 0.105643 0.736103 0.095206
O O18 0.000000 0.694666 0.174661
O O19 0.088992 0.500000 0.545635
O O20 0.000000 0.286771 0.515027
O O21 0.500000 0.298791 0.180682
O O22 0.591152 0.500000 0.140826
#
# Coordination Sequence:
#
# PCOD8179428 Si02
#       8
#     8   8   8   8   8   8   8   8
#     4  10  21  37  56  79 108 142 180 220 265 319
#     4  10  20  35  56  81 110 142 177 221 268 316
#     4  10  21  36  55  80 108 139 178 222 266 315
#     4  10  21  37  56  79 109 143 179 220 265 317
#     4   9  20  37  55  77 106 140 177 216 260 313
#     4  10  21  37  57  80 107 140 178 220 266 317
#     4  10  21  36  55  80 108 138 175 219 265 315
#     4   9  19  36  56  78 106 140 176 216 265 318
#
# _framework density 18.376127
#
# number of rings (size 3 to 8) (size 9 to 14) (size 15 to 20)
#    0.000    2.250    0.000    3.000    0.000    8.250 
#    0.000    5.000    0.000    0.000    0.000    0.000 
#    0.000    0.000    0.000    0.000    0.000    0.000 
#
# Total GULP energy -396946.075060 kJ/mol
# GULP energy per Si atom -12404.564846 kJ/mol
# Density = 1.833430 g / cm^3
# Si number density = 18.376127 Si / 1000 Ang^3
#
#
#
# Elastic Constant Matrix: (Units=GPa)
#
#
# Indices 1 2 3 4 5 6 
#
# 1 71.7286 50.0603 66.0532 0.0000 0.0000 0.0000
# 2 50.0603 102.2732 62.5229 0.0000 0.0000 0.0000
# 3 66.0532 62.5229 110.1198 0.0000 0.0000 0.0000
# 4 0.0000 0.0000 0.0000 39.0637 0.0000 0.0000
# 5 0.0000 0.0000 0.0000 0.0000 56.2973 0.0000
# 6 0.0000 0.0000 0.0000 0.0000 0.0000 31.7520
#
#
#
# Elastic Compliance Matrix: (Units=1/GPa)
#
#
# Indices 1 2 3 4 5 6 
#
# 1 0.033617 -0.006322 -0.016575 0.000000 0.000000 0.000000
# 2 -0.006322 0.016165 -0.005386 0.000000 0.000000 0.000000
# 3 -0.016575 -0.005386 0.022081 0.000000 0.000000 0.000000
# 4 0.000000 0.000000 0.000000 0.025599 0.000000 0.000000
# 5 0.000000 0.000000 0.000000 0.000000 0.017763 0.000000
# 6 0.000000 0.000000 0.000000 0.000000 0.000000 0.031494
#
#
# Mechanical properties :
#
#
# Convention : Reuss Voigt Hill
#
# Bulk Modulus (GPa) = 65.37079 71.26604 68.31841
# Shear Modulus (GPa) = 23.99408 32.45496 28.22452
#
# Velocity S-wave (km/s) = 3.61740 4.20712 3.92335
# Velocity P-wave (km/s) = 7.28686 7.90353 7.60145
#
# Compressibility (1/GPa) = 0.01529735
#
# Stress axis : x y z
#
# Youngs Moduli (GPa) = 29.74642 61.86347 45.28719
#
# Poissons Ratio (x) = 0.39110 0.75065
# Poissons Ratio (y) = 0.18805 0.24390
# Poissons Ratio (z) = 0.49306 0.33318
#
# Static dielectric constant tensor:
#      x y z
#    x 3.323970 0.000000 0.000000 
#    y 0.000000 3.485310 0.000000 
#    z 0.000000 0.000000 3.364790 
# 
# 
# High freq. dielectric constant tensor:
#      x y z
#    x 1.710030 0.000000 0.000000 
#    y 0.000000 1.726390 0.000000 
#    z 0.000000 0.000000 1.716720 
# 
# From -- ./inp_files/18923.got.cif
#   From: 2010.03.12/outbox.cif.g09.slc.cpg/sg38_10_cif.got.tgz:18923.got - 2010.04.14 02:38:36.
