data_PCOD8179637
_publ_section_title
;
Structure prediction by ZEFSAII (Michael W. Deem and Ramdas Pophale) SiO2 
 PCOD8179637
Probable space group: A M M 2
;
_chemical_formula_sum "Si O2"
_cell_formula_units_Z 64
_cell_length_a 13.905653
_cell_length_b 21.451831
_cell_length_c 10.477885
_cell_angle_alpha 90.000000
_cell_angle_beta 90.000000
_cell_angle_gamma 90.000000
_cell_volume 3125.571098
_symmetry_space_group_name_H-M "A M M 2"
_symmetry_group_IT_number 38
_symmetry_cell_setting 'orthorhombic'
loop_
_space_group_symop_operation_xyz
x,y,z
-x,-y,z
-x,y,z
x,-y,z
x,1/2+y,1/2+z
-x,1/2-y,1/2+z
-x,1/2+y,1/2+z
x,1/2-y,1/2+z
loop_
_atom_site_type_symbol
_atom_site_label
_atom_site_fract_x
_atom_site_fract_y
_atom_site_fract_z
Si Si1 0.608360 0.570525 0.353210
Si Si2 0.218376 0.109530 0.999989
Si Si3 0.110885 0.073791 0.750546
Si Si4 0.606820 0.929595 0.396676
Si Si5 0.109467 0.309242 0.845046
Si Si6 0.288116 0.366864 0.127584
Si Si7 0.205899 0.931036 0.269652
Si Si8 0.807531 0.743937 0.586704
O O1 0.500000 0.587300 0.394775
O O2 0.613992 0.500000 0.299654
O O3 0.679404 0.577087 0.472840
O O4 0.644550 0.618528 0.247297
O O5 0.172385 0.076777 0.123784
O O6 0.238890 0.181686 0.029695
O O7 0.141369 0.102057 0.886904
O O8 0.181794 0.101833 0.642734
O O9 0.000000 0.092447 0.721487
O O10 0.124368 0.000000 0.754087
O O11 0.500000 0.904273 0.362085
O O12 0.656179 0.889041 0.504542
O O13 0.677272 0.925983 0.274490
O O14 0.598926 0.000000 0.447967
O O15 0.163499 0.375780 0.856629
O O16 0.139087 0.269202 0.720553
O O17 0.000000 0.326553 0.827789
O O18 0.123586 0.271689 0.976481
O O19 0.277330 0.292491 0.117376
O O20 0.172679 0.000000 0.318743
#
# Coordination Sequence:
#
# PCOD8179637 Si02
#       8
#     8   8   8   8   8   8   8   8
#     4  10  20  36  63  94 119 150 197 254 313 367
#     4  10  21  38  60  83 121 159 203 247 296 361
#     4  10  21  37  61  92 120 151 195 253 317 369
#     4  10  20  36  60  86 115 155 199 244 300 362
#     4  11  23  41  63  89 120 162 211 256 301 365
#     4  11  20  37  59  85 122 153 196 247 299 361
#     4  10  21  38  59  88 122 158 198 250 310 364
#     4  11  24  40  62  85 122 166 210 250 299 359
#
# _framework density 20.476257
#
# number of rings (size 3 to 8) (size 9 to 14) (size 15 to 20)
#    0.000    1.625    1.250    5.250    0.000    6.250 
#    0.000    2.500    0.000    0.750    0.000    0.000 
#    0.000    0.000    0.000    0.000    0.000    0.000 
#
# Total GULP energy -396680.875662 kJ/mol
# GULP energy per Si atom -12396.277364 kJ/mol
# Density = 2.042965 g / cm^3
# Si number density = 20.476257 Si / 1000 Ang^3
#
#
#
# Elastic Constant Matrix: (Units=GPa)
#
#
# Indices 1 2 3 4 5 6 
#
# 1 107.5006 40.9734 4.1703 0.0000 0.0000 0.0000
# 2 40.9734 126.1875 28.2173 0.0000 0.0000 0.0000
# 3 4.1703 28.2173 62.5899 0.0000 0.0000 0.0000
# 4 0.0000 0.0000 0.0000 28.1163 0.0000 0.0000
# 5 0.0000 0.0000 0.0000 0.0000 21.4595 0.0000
# 6 0.0000 0.0000 0.0000 0.0000 0.0000 20.2438
#
#
#
# Elastic Compliance Matrix: (Units=1/GPa)
#
#
# Indices 1 2 3 4 5 6 
#
# 1 0.010666 -0.003675 0.000946 0.000000 0.000000 0.000000
# 2 -0.003675 0.010079 -0.004299 0.000000 0.000000 0.000000
# 3 0.000946 -0.004299 0.017852 0.000000 0.000000 0.000000
# 4 0.000000 0.000000 0.000000 0.035567 0.000000 0.000000
# 5 0.000000 0.000000 0.000000 0.000000 0.046599 0.000000
# 6 0.000000 0.000000 0.000000 0.000000 0.000000 0.049398
#
#
# Mechanical properties :
#
#
# Convention : Reuss Voigt Hill
#
# Bulk Modulus (GPa) = 40.74695 49.22219 44.98457
# Shear Modulus (GPa) = 25.98775 28.82504 27.40639
#
# Velocity S-wave (km/s) = 3.56640 3.75604 3.66245
# Velocity P-wave (km/s) = 6.07468 6.54991 6.31677
#
# Compressibility (1/GPa) = 0.02454171
#
# Stress axis : x y z
#
# Youngs Moduli (GPa) = 93.75365 99.21295 56.01555
#
# Poissons Ratio (x) = 0.36460 -0.05299
# Poissons Ratio (y) = 0.34454 0.24082
# Poissons Ratio (z) = -0.08870 0.42654
#
# Static dielectric constant tensor:
#      x y z
#    x 3.765210 0.000000 0.000000 
#    y 0.000000 3.892210 0.000000 
#    z 0.000000 0.000000 3.768220 
# 
# 
# High freq. dielectric constant tensor:
#      x y z
#    x 1.789850 0.000000 0.000000 
#    y 0.000000 1.804790 0.000000 
#    z 0.000000 0.000000 1.802290 
# 
# From -- ./inp_files/10260.got.cif
#   From: 2010.03.12/outbox.cif.g09.slc.cpg/sg38_6_cif.got.tgz:10260.got - 2010.04.14 02:38:36.
