data_PCOD8179430
_publ_section_title
;
Structure prediction by ZEFSAII (Michael W. Deem and Ramdas Pophale) SiO2 
 PCOD8179430
Probable space group: A M M 2
;
_chemical_formula_sum "Si O2"
_cell_formula_units_Z 64
_cell_length_a 24.486160
_cell_length_b 9.028151
_cell_length_c 14.955082
_cell_angle_alpha 90.000000
_cell_angle_beta 90.000000
_cell_angle_gamma 90.000000
_cell_volume 3306.041462
_symmetry_space_group_name_H-M "A M M 2"
_symmetry_group_IT_number 38
_symmetry_cell_setting 'orthorhombic'
loop_
_space_group_symop_operation_xyz
x,y,z
-x,-y,z
-x,y,z
x,-y,z
x,1/2+y,1/2+z
-x,1/2-y,1/2+z
-x,1/2+y,1/2+z
x,1/2-y,1/2+z
loop_
_atom_site_type_symbol
_atom_site_label
_atom_site_fract_x
_atom_site_fract_y
_atom_site_fract_z
Si Si1 0.936809 0.325900 0.597650
Si Si2 0.255586 0.170708 0.275125
Si Si3 0.241892 0.827776 0.959321
Si Si4 0.637160 0.671489 0.469282
Si Si5 0.640897 0.172846 0.763124
Si Si6 0.136421 0.830684 0.255130
Si Si7 0.561096 0.173974 0.608991
Si Si8 0.134545 0.323980 0.957267
O O1 0.925411 0.500000 0.585039
O O2 0.904155 0.257509 0.682855
O O3 0.917073 0.240703 0.509524
O O4 0.000000 0.291459 0.612769
O O5 0.249547 0.280168 0.357756
O O6 0.308453 0.230937 0.222195
O O7 0.199070 0.184271 0.219332
O O8 0.263782 0.000000 0.305423
O O9 0.300911 0.797072 0.005138
O O10 0.191380 0.735647 0.001214
O O11 0.226795 0.000000 0.965214
O O12 0.622846 0.500000 0.479969
O O13 0.629771 0.719176 0.365615
O O14 0.594602 0.763236 0.526270
O O15 0.588522 0.214953 0.703831
O O16 0.655722 0.000000 0.755773
O O17 0.130010 0.763876 0.355004
O O18 0.118701 0.000000 0.262983
O O19 0.500000 0.240844 0.609269
O O20 0.559207 0.000000 0.595849
O O21 0.135217 0.500000 0.962124
#
# Coordination Sequence:
#
# PCOD8179430 Si02
#       8
#     8   8   8   8   8   8   8   8
#     4  10  21  37  55  75 102 141 186 222 257 311
#     4   9  16  29  52  81 109 135 170 217 266 314
#     4   9  17  32  54  80 110 141 173 209 259 324
#     4   9  19  35  56  80 105 137 174 214 261 314
#     4   9  19  36  55  76 105 140 174 210 262 324
#     4   8  17  34  54  76 104 139 174 210 259 318
#     4  10  22  38  54  75 105 141 182 225 266 311
#     4  10  20  35  56  82 110 139 173 218 270 315
#
# _framework density 19.358497
#
# number of rings (size 3 to 8) (size 9 to 14) (size 15 to 20)
#    0.000    2.750    0.000    2.625    0.000    5.500 
#    0.000   10.000    0.000    0.000    0.000    0.000 
#    0.000    0.000    0.000    0.000    0.000    0.000 
#
# Total GULP energy -396585.364227 kJ/mol
# GULP energy per Si atom -12393.292632 kJ/mol
# Density = 1.931444 g / cm^3
# Si number density = 19.358497 Si / 1000 Ang^3
#
#
#
# Elastic Constant Matrix: (Units=GPa)
#
#
# Indices 1 2 3 4 5 6 
#
# 1 149.7310 53.5570 55.1157 0.0000 0.0000 0.0000
# 2 53.5570 50.3009 31.7921 0.0000 0.0000 0.0000
# 3 55.1157 31.7921 78.0311 0.0000 0.0000 0.0000
# 4 0.0000 0.0000 0.0000 22.3925 0.0000 0.0000
# 5 0.0000 0.0000 0.0000 0.0000 30.9411 0.0000
# 6 0.0000 0.0000 0.0000 0.0000 0.0000 29.9651
#
#
#
# Elastic Compliance Matrix: (Units=1/GPa)
#
#
# Indices 1 2 3 4 5 6 
#
# 1 0.011778 -0.009808 -0.004323 0.000000 0.000000 0.000000
# 2 -0.009808 0.034943 -0.007309 0.000000 0.000000 0.000000
# 3 -0.004323 -0.007309 0.018847 0.000000 0.000000 0.000000
# 4 0.000000 0.000000 0.000000 0.044658 0.000000 0.000000
# 5 0.000000 0.000000 0.000000 0.000000 0.032320 0.000000
# 6 0.000000 0.000000 0.000000 0.000000 0.000000 0.033372
#
#
# Mechanical properties :
#
#
# Convention : Reuss Voigt Hill
#
# Bulk Modulus (GPa) = 44.07723 62.11029 53.09376
# Shear Modulus (GPa) = 22.08858 25.83294 23.96076
#
# Velocity S-wave (km/s) = 3.38157 3.65697 3.52197
# Velocity P-wave (km/s) = 6.16969 7.07002 6.63514
#
# Compressibility (1/GPa) = 0.02268745
#
# Stress axis : x y z
#
# Youngs Moduli (GPa) = 84.90169 28.61787 53.05923
#
# Poissons Ratio (x) = 0.28069 0.22938
# Poissons Ratio (y) = 0.83275 0.38781
# Poissons Ratio (z) = 0.36704 0.20917
#
# Static dielectric constant tensor:
#      x y z
#    x 3.912480 0.000000 0.000000 
#    y 0.000000 3.399750 0.000000 
#    z 0.000000 0.000000 3.449820 
# 
# 
# High freq. dielectric constant tensor:
#      x y z
#    x 1.760180 0.000000 0.000000 
#    y 0.000000 1.737880 0.000000 
#    z 0.000000 0.000000 1.737450 
# 
# From -- ./inp_files/15835.got.cif
#   From: 2010.03.12/outbox.cif.g09.slc.cpg/sg38_8_cif.got.tgz:15835.got - 2010.04.14 02:38:36.
