data_PCOD8179736
_publ_section_title
;
Structure prediction by ZEFSAII (Michael W. Deem and Ramdas Pophale) SiO2 
 PCOD8179736
Probable space group: A M M 2
;
_chemical_formula_sum "Si O2"
_cell_formula_units_Z 64
_cell_length_a 23.573000
_cell_length_b 8.803804
_cell_length_c 15.434634
_cell_angle_alpha 90.000000
_cell_angle_beta 90.000000
_cell_angle_gamma 90.000000
_cell_volume 3203.181570
_symmetry_space_group_name_H-M "A M M 2"
_symmetry_group_IT_number 38
_symmetry_cell_setting 'orthorhombic'
loop_
_space_group_symop_operation_xyz
x,y,z
-x,-y,z
-x,y,z
x,-y,z
x,1/2+y,1/2+z
-x,1/2-y,1/2+z
-x,1/2+y,1/2+z
x,1/2-y,1/2+z
loop_
_atom_site_type_symbol
_atom_site_label
_atom_site_fract_x
_atom_site_fract_y
_atom_site_fract_z
Si Si1 0.250128 0.176859 0.366490
Si Si2 0.433715 0.324971 0.271527
Si Si3 0.862823 0.320811 0.426423
Si Si4 0.628306 0.823314 0.111237
Si Si5 0.626169 0.178672 0.431203
Si Si6 0.134465 0.821421 0.603411
Si Si7 0.063848 0.819077 0.766450
Si Si8 0.245840 0.174660 0.166076
O O1 0.202095 0.272315 0.414438
O O2 0.309698 0.224200 0.407775
O O3 0.252141 0.220969 0.265928
O O4 0.237130 0.000000 0.379775
O O5 0.500000 0.301361 0.257445
O O6 0.417870 0.500000 0.287829
O O7 0.403048 0.268940 0.185416
O O8 0.414896 0.227675 0.354009
O O9 0.865991 0.500000 0.430238
O O10 0.887517 0.254352 0.515309
O O11 0.901557 0.255853 0.348778
O O12 0.695322 0.794125 0.118042
O O13 0.613446 0.000000 0.122310
O O14 0.607186 0.764743 0.018194
O O15 0.619999 0.000000 0.445745
O O16 0.094811 0.758426 0.680365
O O17 0.199622 0.780444 0.621117
O O18 0.128964 0.000000 0.593904
O O19 0.000000 0.754518 0.769210
O O20 0.063735 0.000000 0.767341
O O21 0.226952 0.000000 0.156532
#
# Coordination Sequence:
#
# PCOD8179736 Si02
#       8
#     8   8   8   8   8   8   8   8
#     4  10  20  37  61  90 123 155 191 239 294 352
#     4  11  25  44  65  90 120 159 206 253 300 351
#     4  11  22  37  59  88 117 154 196 238 294 351
#     4  11  23  41  64  93 124 160 200 244 300 357
#     4  11  23  41  64  93 124 160 200 244 300 357
#     4  11  22  37  59  88 117 154 196 238 294 351
#     4   9  20  39  59  80 112 153 198 245 292 347
#     4  10  20  37  61  90 123 155 191 239 294 352
#
# _framework density 19.980135000000001
#
# number of rings (size 3 to 8) (size 9 to 14) (size 15 to 20)
#    0.000    1.500    2.500    2.625    0.000    6.000 
#    0.000    0.000    0.000    5.250    0.000    0.000 
#    0.000    0.000    0.000    0.000    0.000    0.000 
#
# Total GULP energy -396985.825564 kJ/mol
# GULP energy per Si atom -12405.807049 kJ/mol
# Density = 1.993466 g / cm^3
# Si number density = 19.980135 Si / 1000 Ang^3
#
#
#
# Elastic Constant Matrix: (Units=GPa)
#
#
# Indices 1 2 3 4 5 6 
#
# 1 62.4557 29.6821 16.0428 0.0000 0.0000 0.0000
# 2 29.6821 52.4808 24.9029 0.0000 0.0000 0.0000
# 3 16.0428 24.9029 130.2207 0.0000 0.0000 0.0000
# 4 0.0000 0.0000 0.0000 33.8855 0.0000 0.0000
# 5 0.0000 0.0000 0.0000 0.0000 0.9720 0.0000
# 6 0.0000 0.0000 0.0000 0.0000 0.0000 11.1247
#
#
#
# Elastic Compliance Matrix: (Units=1/GPa)
#
#
# Indices 1 2 3 4 5 6 
#
# 1 0.021913 -0.012221 -0.000362 0.000000 0.000000 0.000000
# 2 -0.012221 0.027773 -0.003805 0.000000 0.000000 0.000000
# 3 -0.000362 -0.003805 0.008452 0.000000 0.000000 0.000000
# 4 0.000000 0.000000 0.000000 0.029511 0.000000 0.000000
# 5 0.000000 0.000000 0.000000 0.000000 1.028812 0.000000
# 6 0.000000 0.000000 0.000000 0.000000 0.000000 0.089890
#
#
# Mechanical properties :
#
#
# Convention : Reuss Voigt Hill
#
# Bulk Modulus (GPa) = 39.43483 42.93476 41.18479
# Shear Modulus (GPa) = 4.00775 20.83173 12.41974
#
# Velocity S-wave (km/s) = 1.41782 3.23247 2.49590
# Velocity P-wave (km/s) = 4.73922 5.95543 5.38179
#
# Compressibility (1/GPa) = 0.02535830
#
# Stress axis : x y z
#
# Youngs Moduli (GPa) = 45.63562 36.00675 118.31994
#
# Poissons Ratio (x) = 0.44005 0.04288
# Poissons Ratio (y) = 0.55773 0.45026
# Poissons Ratio (z) = 0.01654 0.13702
#
# Static dielectric constant tensor:
#      x y z
#    x 3.627780 0.000000 0.000000 
#    y 0.000000 3.521590 0.000000 
#    z 0.000000 0.000000 3.898180 
# 
# 
# High freq. dielectric constant tensor:
#      x y z
#    x 1.774350 0.000000 0.000000 
#    y 0.000000 1.772100 0.000000 
#    z 0.000000 0.000000 1.798840 
# 
# From -- ./inp_files/15850.got.cif
#   From: 2010.03.12/outbox.cif.g09.slc.cpg/sg38_8_cif.got.tgz:15850.got - 2010.04.14 02:38:36.
