data_PCOD8179040
_publ_section_title
;
Structure prediction by ZEFSAII (Michael W. Deem and Ramdas Pophale) SiO2 
 PCOD8179040
Probable space group: A M M 2
;
_chemical_formula_sum "Si O2"
_cell_formula_units_Z 64
_cell_length_a 14.789430
_cell_length_b 13.513749
_cell_length_c 17.456830
_cell_angle_alpha 90.000000
_cell_angle_beta 90.000000
_cell_angle_gamma 90.000000
_cell_volume 3488.933301
_symmetry_space_group_name_H-M "A M M 2"
_symmetry_group_IT_number 38
_symmetry_cell_setting 'orthorhombic'
loop_
_space_group_symop_operation_xyz
x,y,z
-x,-y,z
-x,y,z
x,-y,z
x,1/2+y,1/2+z
-x,1/2-y,1/2+z
-x,1/2+y,1/2+z
x,1/2-y,1/2+z
loop_
_atom_site_type_symbol
_atom_site_label
_atom_site_fract_x
_atom_site_fract_y
_atom_site_fract_z
Si Si1 0.095018 0.385666 0.708120
Si Si2 0.606433 0.779803 0.072123
Si Si3 0.271098 0.299341 0.291776
Si Si4 0.897767 0.113990 0.518048
Si Si5 0.735661 0.385612 0.125938
Si Si6 0.394549 0.612157 0.417887
Si Si7 0.100911 0.720530 0.861813
Si Si8 0.709052 0.115583 0.199511
O O1 0.084843 0.500000 0.694104
O O2 0.103027 0.366412 0.798886
O O3 0.189477 0.352715 0.668373
O O4 0.000000 0.335901 0.676791
O O5 0.500000 0.764367 0.081213
O O6 0.655070 0.675852 0.086783
O O7 0.637587 0.862842 0.133124
O O8 0.633341 0.818400 0.988462
O O9 0.255975 0.361620 0.215070
O O10 0.346506 0.352546 0.341268
O O11 0.176191 0.301112 0.338004
O O12 0.307400 0.187666 0.272520
O O13 0.831062 0.142530 0.587053
O O14 0.871716 0.177091 0.443714
O O15 0.000000 0.136830 0.545238
O O16 0.886965 0.000000 0.494969
O O17 0.711362 0.500000 0.114068
O O18 0.500000 0.619443 0.401104
O O19 0.366162 0.500000 0.437631
O O20 0.000000 0.768559 0.865075
O O21 0.703784 0.000000 0.224097
#
# Coordination Sequence:
#
# PCOD8179040 Si02
#       8
#     8   8   8   8   8   8   8   8
#     4   8  13  23  42  70 103 135 166 202 247 300
#     4  10  21  37  56  77 100 130 174 221 263 313
#     4  10  20  33  51  77 107 138 175 214 255 309
#     4   9  17  30  50  76 104 135 173 215 259 311
#     4  10  21  36  54  78 108 141 174 213 264 316
#     4  10  21  38  59  78  97 128 171 217 263 313
#     4   9  16  27  46  72 103 139 175 210 249 293
#     4   9  18  32  51  77 106 135 168 209 260 309
#
# _framework density 18.343715
#
# number of rings (size 3 to 8) (size 9 to 14) (size 15 to 20)
#    0.000    2.625    0.000    1.875    0.000    5.500 
#    0.000    2.500    0.000    2.625    0.000    0.000 
#    0.000    0.000    0.000    0.000    0.000    0.000 
#
# Total GULP energy -396539.734723 kJ/mol
# GULP energy per Si atom -12391.866710 kJ/mol
# Density = 1.830196 g / cm^3
# Si number density = 18.343715 Si / 1000 Ang^3
#
#
#
# Elastic Constant Matrix: (Units=GPa)
#
#
# Indices 1 2 3 4 5 6 
#
# 1 103.4283 51.0000 65.3688 0.0000 0.0000 0.0000
# 2 51.0000 88.0950 42.4857 0.0000 0.0000 0.0000
# 3 65.3688 42.4857 106.4648 0.0000 0.0000 0.0000
# 4 0.0000 0.0000 0.0000 19.9921 0.0000 0.0000
# 5 0.0000 0.0000 0.0000 0.0000 32.8976 0.0000
# 6 0.0000 0.0000 0.0000 0.0000 0.0000 26.1868
#
#
#
# Elastic Compliance Matrix: (Units=1/GPa)
#
#
# Indices 1 2 3 4 5 6 
#
# 1 0.018326 -0.006418 -0.008691 0.000000 0.000000 0.000000
# 2 -0.006418 0.016304 -0.002566 0.000000 0.000000 0.000000
# 3 -0.008691 -0.002566 0.015753 0.000000 0.000000 0.000000
# 4 0.000000 0.000000 0.000000 0.050020 0.000000 0.000000
# 5 0.000000 0.000000 0.000000 0.000000 0.030397 0.000000
# 6 0.000000 0.000000 0.000000 0.000000 0.000000 0.038187
#
#
# Mechanical properties :
#
#
# Convention : Reuss Voigt Hill
#
# Bulk Modulus (GPa) = 66.51665 68.41081 67.46373
# Shear Modulus (GPa) = 23.88366 25.09086 24.48726
#
# Velocity S-wave (km/s) = 3.61225 3.70241 3.65761
# Velocity P-wave (km/s) = 7.33061 7.46003 7.39560
#
# Compressibility (1/GPa) = 0.01503383
#
# Stress axis : x y z
#
# Youngs Moduli (GPa) = 54.56715 61.33371 63.48042
#
# Poissons Ratio (x) = 0.39363 0.55171
# Poissons Ratio (y) = 0.35021 0.16288
# Poissons Ratio (z) = 0.47424 0.15737
#
# Static dielectric constant tensor:
#      x y z
#    x 3.867650 0.000000 0.000000 
#    y 0.000000 3.277200 0.000000 
#    z 0.000000 0.000000 3.216730 
# 
# 
# High freq. dielectric constant tensor:
#      x y z
#    x 1.722790 0.000000 0.000000 
#    y 0.000000 1.697780 0.000000 
#    z 0.000000 0.000000 1.697600 
# 
# From -- ./inp_files/18530.got.cif
#   From: 2010.03.12/outbox.cif.g09.slc.cpg/sg38_10_cif.got.tgz:18530.got - 2010.04.14 02:38:36.
