data_PCOD8179367
_publ_section_title
;
Structure prediction by ZEFSAII (Michael W. Deem and Ramdas Pophale) SiO2 
 PCOD8179367
Probable space group: A M M 2
;
_chemical_formula_sum "Si O2"
_cell_formula_units_Z 48
_cell_length_a 8.991917
_cell_length_b 31.408263
_cell_length_c 9.616416
_cell_angle_alpha 90.000000
_cell_angle_beta 90.000000
_cell_angle_gamma 90.000000
_cell_volume 2715.872957
_symmetry_space_group_name_H-M "A M M 2"
_symmetry_group_IT_number 38
_symmetry_cell_setting 'orthorhombic'
loop_
_space_group_symop_operation_xyz
x,y,z
-x,-y,z
-x,y,z
x,-y,z
x,1/2+y,1/2+z
-x,1/2-y,1/2+z
-x,1/2+y,1/2+z
x,1/2-y,1/2+z
loop_
_atom_site_type_symbol
_atom_site_label
_atom_site_fract_x
_atom_site_fract_y
_atom_site_fract_z
Si Si1 0.162898 0.873687 0.885410
Si Si2 0.178816 0.279907 0.405533
Si Si3 0.677470 0.286723 0.702159
Si Si4 0.667314 0.453161 0.718101
Si Si5 0.834215 0.127990 0.215479
Si Si6 0.333858 0.954006 0.887519
O O1 0.223984 0.826761 0.846445
O O2 0.254792 0.912879 0.820078
O O3 0.000000 0.878905 0.821638
O O4 0.158221 0.876740 0.050835
O O5 0.234878 0.275025 0.562595
O O6 0.269585 0.246367 0.316883
O O7 0.000000 0.273128 0.401285
O O8 0.500000 0.284940 0.680648
O O9 0.724931 0.333459 0.756251
O O10 0.500000 0.446639 0.773793
O O11 0.726729 0.500000 0.763753
O O12 0.771000 0.415978 0.781011
O O13 0.666699 0.449909 0.552549
O O14 0.000000 0.136279 0.275173
O O15 0.500000 0.953220 0.829369
O O16 0.260577 0.000000 0.845876
#
# Coordination Sequence:
#
# PCOD8179367 Si02
#       6
#     8   8   8   8   8   8
#     4   8  15  25  38  56  79 110 146 181 220 267
#     4  10  20  35  51  69  95 126 158 195 240 285
#     4  11  21  33  50  72  95 123 160 199 238 282
#     4   8  13  21  33  51  77 109 144 182 223 268
#     4   9  16  26  39  57  83 116 150 185 228 276
#     4   8  13  20  31  49  75 107 140 174 215 262
#
# _framework density 17.673876
#
# number of rings (size 3 to 8) (size 9 to 14) (size 15 to 20)
#    0.000    3.000    0.000    4.500    0.000    5.333 
#    0.000    3.333    0.000    0.000    0.000    0.000 
#    0.000    1.333    0.000    9.667    0.000   20.333 
#
# Total GULP energy -297325.894695 kJ/mol
# GULP energy per Si atom -12388.578946 kJ/mol
# Density = 1.763365 g / cm^3
# Si number density = 17.673876 Si / 1000 Ang^3
#
#
#
# Elastic Constant Matrix: (Units=GPa)
#
#
# Indices 1 2 3 4 5 6 
#
# 1 89.4955 53.4720 8.9824 0.0000 0.0000 0.0000
# 2 53.4720 153.8842 22.0495 0.0000 0.0000 0.0000
# 3 8.9824 22.0495 15.1588 0.0000 0.0000 0.0000
# 4 0.0000 0.0000 0.0000 14.1451 0.0000 0.0000
# 5 0.0000 0.0000 0.0000 0.0000 13.9736 0.0000
# 6 0.0000 0.0000 0.0000 0.0000 0.0000 37.8505
#
#
#
# Elastic Compliance Matrix: (Units=1/GPa)
#
#
# Indices 1 2 3 4 5 6 
#
# 1 0.014130 -0.004687 -0.001555 0.000000 0.000000 0.000000
# 2 -0.004687 0.009764 -0.011425 0.000000 0.000000 0.000000
# 3 -0.001555 -0.011425 0.083508 0.000000 0.000000 0.000000
# 4 0.000000 0.000000 0.000000 0.070696 0.000000 0.000000
# 5 0.000000 0.000000 0.000000 0.000000 0.071564 0.000000
# 6 0.000000 0.000000 0.000000 0.000000 0.000000 0.026420
#
#
# Mechanical properties :
#
#
# Convention : Reuss Voigt Hill
#
# Bulk Modulus (GPa) = 13.87582 47.50515 30.69049
# Shear Modulus (GPa) = 14.90580 24.79615 19.85098
#
# Velocity S-wave (km/s) = 2.90725 3.74971 3.35503
# Velocity P-wave (km/s) = 4.37465 6.75900 5.69305
#
# Compressibility (1/GPa) = 0.07206781
#
# Stress axis : x y z
#
# Youngs Moduli (GPa) = 70.76965 102.41504 11.97484
#
# Poissons Ratio (x) = 0.48004 0.01862
# Poissons Ratio (y) = 0.33171 0.13682
# Poissons Ratio (z) = 0.11006 1.17011
#
# Static dielectric constant tensor:
#      x y z
#    x 3.506400 0.000000 0.000000 
#    y 0.000000 3.816910 0.000000 
#    z 0.000000 0.000000 2.521920 
# 
# 
# High freq. dielectric constant tensor:
#      x y z
#    x 1.687120 0.000000 0.000000 
#    y 0.000000 1.710130 0.000000 
#    z 0.000000 0.000000 1.592950 
# 
# From -- ./inp_files/3800.got.cif
#   From: 2010.03.12/outbox.cif.g09.slc.cpg/sg38_2_cif.got.tgz:3800.got - 2010.04.14 02:38:36.
