data_PCOD8179121
_publ_section_title
;
Structure prediction by ZEFSAII (Michael W. Deem and Ramdas Pophale) SiO2 
 PCOD8179121
Probable space group: A M M 2
;
_chemical_formula_sum "Si O2"
_cell_formula_units_Z 64
_cell_length_a 9.661823
_cell_length_b 16.208110
_cell_length_c 22.662524
_cell_angle_alpha 90.000000
_cell_angle_beta 90.000000
_cell_angle_gamma 90.000000
_cell_volume 3548.948765
_symmetry_space_group_name_H-M "A M M 2"
_symmetry_group_IT_number 38
_symmetry_cell_setting 'orthorhombic'
loop_
_space_group_symop_operation_xyz
x,y,z
-x,-y,z
-x,y,z
x,-y,z
x,1/2+y,1/2+z
-x,1/2-y,1/2+z
-x,1/2+y,1/2+z
x,1/2-y,1/2+z
loop_
_atom_site_type_symbol
_atom_site_label
_atom_site_fract_x
_atom_site_fract_y
_atom_site_fract_z
Si Si1 0.844548 0.591909 0.696930
Si Si2 0.340711 0.594959 0.802282
Si Si3 0.659405 0.856502 0.651982
Si Si4 0.845854 0.279872 0.603813
Si Si5 0.655238 0.591840 0.023442
Si Si6 0.336268 0.091111 0.779441
Si Si7 0.162614 0.232762 0.476179
Si Si8 0.338196 0.237057 0.867096
O O1 0.796752 0.500000 0.685582
O O2 0.743862 0.628793 0.746322
O O3 0.833225 0.630763 0.632328
O O4 0.000000 0.599612 0.722100
O O5 0.500000 0.594762 0.784085
O O6 0.297394 0.500000 0.821875
O O7 0.313364 0.666276 0.850634
O O8 0.500000 0.832787 0.660460
O O9 0.741507 0.773113 0.642074
O O10 0.682333 0.912682 0.593974
O O11 0.715631 0.899160 0.711672
O O12 0.810520 0.287239 0.534709
O O13 0.000000 0.242151 0.610749
O O14 0.500000 0.627446 0.011288
O O15 0.666095 0.500000 0.997934
O O16 0.770094 0.643577 0.988845
O O17 0.500000 0.090810 0.780205
O O18 0.285832 0.168909 0.819162
O O19 0.283129 0.000000 0.801643
O O20 0.243034 0.279195 0.424015
O O21 0.000000 0.222698 0.461082
O O22 0.500000 0.222724 0.881493
#
# Coordination Sequence:
#
# PCOD8179121 Si02
#       8
#     8   8   8   8   8   8   8   8
#     4   9  17  30  49  72  96 122 154 192 236 290
#     4   9  18  32  50  74 102 127 153 191 240 292
#     4   9  16  28  50  77 100 123 153 189 234 292
#     4   9  18  32  48  68  96 127 156 192 242 290
#     4   9  17  30  50  76 103 128 155 191 237 291
#     4   9  17  30  50  75 100 126 160 203 247 291
#     4  10  21  35  49  67  94 129 168 206 242 282
#     4  10  20  34  51  70  95 131 170 205 244 287
#
# _framework density 18.033508999999999
#
# number of rings (size 3 to 8) (size 9 to 14) (size 15 to 20)
#    0.000    2.750    0.000    1.500    0.000    4.750 
#    0.000    2.500    0.000    3.000    0.000    0.000 
#    0.000    0.000    0.000    0.000    0.000    0.000 
#
# Total GULP energy -396474.075495 kJ/mol
# GULP energy per Si atom -12389.814859 kJ/mol
# Density = 1.799246 g / cm^3
# Si number density = 18.033509 Si / 1000 Ang^3
#
#
#
# Elastic Constant Matrix: (Units=GPa)
#
#
# Indices 1 2 3 4 5 6 
#
# 1 61.9287 27.9106 42.9072 0.0000 0.0000 0.0000
# 2 27.9106 66.1892 40.8419 0.0000 0.0000 0.0000
# 3 42.9072 40.8419 93.4760 0.0000 0.0000 0.0000
# 4 0.0000 0.0000 0.0000 14.3931 0.0000 0.0000
# 5 0.0000 0.0000 0.0000 0.0000 27.8104 0.0000
# 6 0.0000 0.0000 0.0000 0.0000 0.0000 14.3436
#
#
#
# Elastic Compliance Matrix: (Units=1/GPa)
#
#
# Indices 1 2 3 4 5 6 
#
# 1 0.024693 -0.004680 -0.009290 0.000000 0.000000 0.000000
# 2 -0.004680 0.021572 -0.007277 0.000000 0.000000 0.000000
# 3 -0.009290 -0.007277 0.018142 0.000000 0.000000 0.000000
# 4 0.000000 0.000000 0.000000 0.069478 0.000000 0.000000
# 5 0.000000 0.000000 0.000000 0.000000 0.035958 0.000000
# 6 0.000000 0.000000 0.000000 0.000000 0.000000 0.069717
#
#
# Mechanical properties :
#
#
# Convention : Reuss Voigt Hill
#
# Bulk Modulus (GPa) = 45.63549 49.43482 47.53515
# Shear Modulus (GPa) = 17.27958 18.63836 17.95897
#
# Velocity S-wave (km/s) = 3.09883 3.21836 3.15916
# Velocity P-wave (km/s) = 6.17774 6.42516 6.30267
#
# Compressibility (1/GPa) = 0.02191277
#
# Stress axis : x y z
#
# Youngs Moduli (GPa) = 40.49660 46.35619 55.12203
#
# Poissons Ratio (x) = 0.21697 0.51207
# Poissons Ratio (y) = 0.18954 0.40112
# Poissons Ratio (z) = 0.37620 0.33733
#
# Static dielectric constant tensor:
#      x y z
#    x 3.286240 0.000000 0.000000 
#    y 0.000000 3.406270 0.000000 
#    z 0.000000 0.000000 3.348520 
# 
# 
# High freq. dielectric constant tensor:
#      x y z
#    x 1.684810 0.000000 0.000000 
#    y 0.000000 1.687700 0.000000 
#    z 0.000000 0.000000 1.692540 
# 
# From -- ./inp_files/20068.got.cif
#   From: 2010.03.12/outbox.cif.g09.slc.cpg/sg38_11_cif.got.tgz:20068.got - 2010.04.14 02:38:36.
