data_PCOD8179173
_publ_section_title
;
Structure prediction by ZEFSAII (Michael W. Deem and Ramdas Pophale) SiO2 
 PCOD8179173
Probable space group: A M M 2
;
_chemical_formula_sum "Si O2"
_cell_formula_units_Z 40
_cell_length_a 9.084764
_cell_length_b 25.808149
_cell_length_c 9.435462
_cell_angle_alpha 90.000000
_cell_angle_beta 90.000000
_cell_angle_gamma 90.000000
_cell_volume 2212.247318
_symmetry_space_group_name_H-M "A M M 2"
_symmetry_group_IT_number 38
_symmetry_cell_setting 'orthorhombic'
loop_
_space_group_symop_operation_xyz
x,y,z
-x,-y,z
-x,y,z
x,-y,z
x,1/2+y,1/2+z
-x,1/2-y,1/2+z
-x,1/2+y,1/2+z
x,1/2-y,1/2+z
loop_
_atom_site_type_symbol
_atom_site_label
_atom_site_fract_x
_atom_site_fract_y
_atom_site_fract_z
Si Si1 0.831379 0.826997 0.853710
Si Si2 0.672283 0.559430 0.859302
Si Si3 0.670182 0.719101 0.855108
Si Si4 0.332089 0.362871 0.617286
Si Si5 0.169052 0.138408 0.543570
O O1 0.736201 0.775583 0.839029
O O2 0.814974 0.861064 0.712647
O O3 0.000000 0.811332 0.881381
O O4 0.773677 0.862255 0.982191
O O5 0.500000 0.566187 0.890900
O O6 0.719974 0.500000 0.845946
O O7 0.713504 0.588019 0.712965
O O8 0.758987 0.585175 0.989252
O O9 0.500000 0.723528 0.897967
O O10 0.690071 0.689791 0.706156
O O11 0.750434 0.688440 0.980190
O O12 0.500000 0.367998 0.565639
O O13 0.000000 0.140312 0.495319
#
# Coordination Sequence:
#
# PCOD8179173 Si02
#       5
#     8   8   8   8   8
#     4  11  22  33  48  75 110 142 171 207 251 301
#     4   9  19  38  61  80  98 126 169 217 261 307
#     4  10  20  34  53  76 103 139 179 213 249 298
#     4   9  19  34  53  77 103 133 170 211 255 304
#     4  10  21  35  52  77 107 138 172 209 252 304
#
# _framework density 18.081161999999999
#
# number of rings (size 3 to 8) (size 9 to 14) (size 15 to 20)
#    0.000    2.200    0.000    4.200    0.000   10.800 
#    0.000    1.000    0.000    3.600    0.000    0.000 
#    0.000    0.000    0.000    0.000    0.000    0.000 
#
# Total GULP energy -248079.894881 kJ/mol
# GULP energy per Si atom -12403.994744 kJ/mol
# Density = 1.804001 g / cm^3
# Si number density = 18.081162 Si / 1000 Ang^3
#
#
#
# Elastic Constant Matrix: (Units=GPa)
#
#
# Indices 1 2 3 4 5 6 
#
# 1 113.8597 58.3664 66.4971 0.0000 0.0000 0.0000
# 2 58.3664 132.0079 52.6906 0.0000 0.0000 0.0000
# 3 66.4971 52.6906 110.1728 0.0000 0.0000 0.0000
# 4 0.0000 0.0000 0.0000 10.4313 0.0000 0.0000
# 5 0.0000 0.0000 0.0000 0.0000 34.3704 0.0000
# 6 0.0000 0.0000 0.0000 0.0000 0.0000 16.8073
#
#
#
# Elastic Compliance Matrix: (Units=1/GPa)
#
#
# Indices 1 2 3 4 5 6 
#
# 1 0.014899 -0.003706 -0.007221 0.000000 0.000000 0.000000
# 2 -0.003706 0.010284 -0.002682 0.000000 0.000000 0.000000
# 3 -0.007221 -0.002682 0.014717 0.000000 0.000000 0.000000
# 4 0.000000 0.000000 0.000000 0.095866 0.000000 0.000000
# 5 0.000000 0.000000 0.000000 0.000000 0.029095 0.000000
# 6 0.000000 0.000000 0.000000 0.000000 0.000000 0.059498
#
#
# Mechanical properties :
#
#
# Convention : Reuss Voigt Hill
#
# Bulk Modulus (GPa) = 78.83434 79.01651 78.92543
# Shear Modulus (GPa) = 19.54627 24.22089 21.88358
#
# Velocity S-wave (km/s) = 3.29147 3.66398 3.48271
# Velocity P-wave (km/s) = 7.62495 7.85465 7.74065
#
# Compressibility (1/GPa) = 0.01268483
#
# Stress axis : x y z
#
# Youngs Moduli (GPa) = 67.11742 97.23705 67.94680
#
# Poissons Ratio (x) = 0.36032 0.49061
# Poissons Ratio (y) = 0.24871 0.18222
# Poissons Ratio (z) = 0.48463 0.26078
#
# Static dielectric constant tensor:
#      x y z
#    x 3.459650 0.000000 0.000000 
#    y 0.000000 3.215000 0.000000 
#    z 0.000000 0.000000 3.324410 
# 
# 
# High freq. dielectric constant tensor:
#      x y z
#    x 1.710940 0.000000 0.000000 
#    y 0.000000 1.684340 0.000000 
#    z 0.000000 0.000000 1.699950 
# 
# From -- ./inp_files/3296.got.cif
#   From: 2010.03.12/outbox.cif.g09.slc.cpg/sg38_2_cif.got.tgz:3296.got - 2010.04.14 02:38:36.
