data_PCOD8179562
_publ_section_title
;
Structure prediction by ZEFSAII (Michael W. Deem and Ramdas Pophale) SiO2 
 PCOD8179562
Probable space group: A M M 2
;
_chemical_formula_sum "Si O2"
_cell_formula_units_Z 64
_cell_length_a 24.270550
_cell_length_b 9.088047
_cell_length_c 14.954500
_cell_angle_alpha 90.000000
_cell_angle_beta 90.000000
_cell_angle_gamma 90.000000
_cell_volume 3298.542465
_symmetry_space_group_name_H-M "A M M 2"
_symmetry_group_IT_number 38
_symmetry_cell_setting 'orthorhombic'
loop_
_space_group_symop_operation_xyz
x,y,z
-x,-y,z
-x,y,z
x,-y,z
x,1/2+y,1/2+z
-x,1/2-y,1/2+z
-x,1/2+y,1/2+z
x,1/2-y,1/2+z
loop_
_atom_site_type_symbol
_atom_site_label
_atom_site_fract_x
_atom_site_fract_y
_atom_site_fract_z
Si Si1 0.060450 0.673221 0.586130
Si Si2 0.253821 0.826002 0.419395
Si Si3 0.064400 0.831010 0.288366
Si Si4 0.668407 0.173700 0.780326
Si Si5 0.559678 0.334854 0.568885
Si Si6 0.334394 0.170837 0.575531
Si Si7 0.439313 0.665516 0.781247
Si Si8 0.863090 0.674457 0.429041
O O1 0.055258 0.500000 0.574573
O O2 0.078501 0.711587 0.686483
O O3 0.106122 0.733393 0.517973
O O4 0.000000 0.742634 0.565171
O O5 0.284749 0.755038 0.335726
O O6 0.283453 0.785033 0.512758
O O7 0.193694 0.759268 0.423575
O O8 0.250851 0.000000 0.404631
O O9 0.099119 0.716624 0.345615
O O10 0.000000 0.808578 0.308029
O O11 0.081361 0.000000 0.308465
O O12 0.677327 0.223039 0.676988
O O13 0.608177 0.224664 0.815992
O O14 0.673979 0.000000 0.793252
O O15 0.500000 0.273513 0.535423
O O16 0.567703 0.500000 0.533668
O O17 0.610420 0.240096 0.532307
O O18 0.560082 0.331226 0.675142
O O19 0.345865 0.000000 0.575311
O O20 0.500000 0.715392 0.816617
O O21 0.426144 0.500000 0.814747
O O22 0.852834 0.500000 0.429662
#
# Coordination Sequence:
#
# PCOD8179562 Si02
#       8
#     8   8   8   8   8   8   8   8
#     4   8  16  33  57  84 114 146 178 213 258 315
#     4  11  24  41  56  74 105 145 187 224 266 324
#     4   9  18  35  59  86 116 149 182 215 258 316
#     4  10  20  36  57  81 107 135 174 226 278 320
#     4   8  14  26  48  78 107 134 168 212 263 322
#     4   9  20  37  56  77 104 138 175 222 274 320
#     4   8  14  27  49  77 107 139 174 211 260 325
#     4  11  22  36  56  82 111 143 182 228 271 308
#
# _framework density 19.402508000000001
#
# number of rings (size 3 to 8) (size 9 to 14) (size 15 to 20)
#    0.000    2.750    0.000    3.000    0.000    3.750 
#    0.000    6.875    0.000    2.250    0.000    0.000 
#    0.000    0.000    0.000    0.000    0.000    0.000 
#
# Total GULP energy -396677.322267 kJ/mol
# GULP energy per Si atom -12396.166321 kJ/mol
# Density = 1.935835 g / cm^3
# Si number density = 19.402508 Si / 1000 Ang^3
#
#
#
# Elastic Constant Matrix: (Units=GPa)
#
#
# Indices 1 2 3 4 5 6 
#
# 1 140.1374 52.2843 66.1784 0.0000 0.0000 0.0000
# 2 52.2843 64.3525 41.4242 0.0000 0.0000 0.0000
# 3 66.1784 41.4242 89.9074 0.0000 0.0000 0.0000
# 4 0.0000 0.0000 0.0000 23.8086 0.0000 0.0000
# 5 0.0000 0.0000 0.0000 0.0000 -41.0115 0.0000
# 6 0.0000 0.0000 0.0000 0.0000 0.0000 19.6653
#
#
#
# Elastic Compliance Matrix: (Units=1/GPa)
#
#
# Indices 1 2 3 4 5 6 
#
# 1 0.012356 -0.005949 -0.006354 0.000000 0.000000 0.000000
# 2 -0.005949 0.024955 -0.007119 0.000000 0.000000 0.000000
# 3 -0.006354 -0.007119 0.019080 0.000000 0.000000 0.000000
# 4 0.000000 0.000000 0.000000 0.042002 0.000000 0.000000
# 5 0.000000 0.000000 0.000000 0.000000 -0.024383 0.000000
# 6 0.000000 0.000000 0.000000 0.000000 0.000000 0.050851
#
#
# Mechanical properties :
#
#
# Convention : Reuss Voigt Hill
#
# Bulk Modulus (GPa) = 56.99011 68.24123 62.61567
# Shear Modulus (GPa) = 29.48933 9.45985 19.47459
#
# Velocity S-wave (km/s) = 3.90278 2.21047 3.17158
# Velocity P-wave (km/s) = 7.05303 6.46240 6.76417
#
# Compressibility (1/GPa) = 0.01754690
#
# Stress axis : x y z
#
# Youngs Moduli (GPa) = 80.93338 40.07179 52.41153
#
# Poissons Ratio (x) = 0.23837 0.33302
# Poissons Ratio (y) = 0.48144 0.37314
# Poissons Ratio (z) = 0.51425 0.28529
#
# Static dielectric constant tensor:
#      x y z
#    x 3.548660 0.000000 0.000000 
#    y 0.000000 3.426450 0.000000 
#    z 0.000000 0.000000 3.593280 
# 
# 
# High freq. dielectric constant tensor:
#      x y z
#    x 1.759990 0.000000 0.000000 
#    y 0.000000 1.741140 0.000000 
#    z 0.000000 0.000000 1.748750 
# 
# From -- ./inp_files/15864.got.cif
#   From: 2010.03.12/outbox.cif.g09.slc.cpg/sg38_8_cif.got.tgz:15864.got - 2010.04.14 02:38:36.
