data_PCOD8179166
_publ_section_title
;
Structure prediction by ZEFSAII (Michael W. Deem and Ramdas Pophale) SiO2 
 PCOD8179166
Probable space group: A M M 2
;
_chemical_formula_sum "Si O2"
_cell_formula_units_Z 64
_cell_length_a 9.068657
_cell_length_b 32.728808
_cell_length_c 11.699094
_cell_angle_alpha 90.000000
_cell_angle_beta 90.000000
_cell_angle_gamma 90.000000
_cell_volume 3472.365199
_symmetry_space_group_name_H-M "A M M 2"
_symmetry_group_IT_number 38
_symmetry_cell_setting 'orthorhombic'
loop_
_space_group_symop_operation_xyz
x,y,z
-x,-y,z
-x,y,z
x,-y,z
x,1/2+y,1/2+z
-x,1/2-y,1/2+z
-x,1/2+y,1/2+z
x,1/2-y,1/2+z
loop_
_atom_site_type_symbol
_atom_site_label
_atom_site_fract_x
_atom_site_fract_y
_atom_site_fract_z
Si Si1 0.171665 0.374645 0.093360
Si Si2 0.831862 0.186897 0.794252
Si Si3 0.828301 0.453676 0.229352
Si Si4 0.829861 0.780105 0.228093
Si Si5 0.323079 0.149716 0.361779
Si Si6 0.673121 0.546870 0.460968
Si Si7 0.338864 0.897295 0.152399
Si Si8 0.337688 0.313096 0.523675
O O1 0.215561 0.343704 0.193833
O O2 0.209225 0.421444 0.129178
O O3 0.000000 0.370056 0.060912
O O4 0.271068 0.362638 0.986495
O O5 0.809038 0.233115 0.756540
O O6 0.000000 0.178340 0.829812
O O7 0.728852 0.178162 0.900628
O O8 0.780049 0.500000 0.193370
O O9 0.745965 0.438703 0.343194
O O10 0.000000 0.452366 0.258131
O O11 0.743549 0.806819 0.322682
O O12 0.767010 0.784484 0.099973
O O13 0.000000 0.793595 0.229241
O O14 0.500000 0.153195 0.356648
O O15 0.264306 0.114050 0.274275
O O16 0.500000 0.556543 0.450976
O O17 0.707788 0.500000 0.483060
O O18 0.745591 0.570555 0.570063
O O19 0.500000 0.916075 0.178189
O O20 0.354803 0.855821 0.084318
O O21 0.500000 0.292736 0.511513
#
# Coordination Sequence:
#
# PCOD8179166 Si02
#       8
#     8   8   8   8   8   8   8   8
#     4  10  21  37  55  78 107 144 186 224 268 326
#     4  10  22  36  53  76 103 136 174 218 265 320
#     4   9  18  33  53  78 110 143 175 219 271 319
#     4  10  21  37  55  74 102 139 176 217 269 325
#     4  10  21  37  55  76 104 140 181 226 273 322
#     4   9  16  28  51  79 104 133 170 213 263 319
#     4   8  16  32  50  71 102 133 163 206 259 311
#     4  10  20  34  53  76 102 132 170 215 262 311
#
# _framework density 18.431241
#
# number of rings (size 3 to 8) (size 9 to 14) (size 15 to 20)
#    0.000    2.500    0.000    2.625    1.750    2.000 
#    0.000    3.750    0.000    0.750    0.000    0.000 
#    0.000    0.000    0.000    0.000    0.000    0.000 
#
# Total GULP energy -396640.096836 kJ/mol
# GULP energy per Si atom -12395.003026 kJ/mol
# Density = 1.838929 g / cm^3
# Si number density = 18.431241 Si / 1000 Ang^3
#
#
#
# Elastic Constant Matrix: (Units=GPa)
#
#
# Indices 1 2 3 4 5 6 
#
# 1 73.9632 30.4426 56.5377 0.0000 0.0000 0.0000
# 2 30.4426 67.2075 46.7397 0.0000 0.0000 0.0000
# 3 56.5377 46.7397 129.2120 0.0000 0.0000 0.0000
# 4 0.0000 0.0000 0.0000 0.0712 0.0000 0.0000
# 5 0.0000 0.0000 0.0000 0.0000 44.8352 0.0000
# 6 0.0000 0.0000 0.0000 0.0000 0.0000 18.4075
#
#
#
# Elastic Compliance Matrix: (Units=1/GPa)
#
#
# Indices 1 2 3 4 5 6 
#
# 1 0.021168 -0.004205 -0.007741 0.000000 0.000000 0.000000
# 2 -0.004205 0.020716 -0.005654 0.000000 0.000000 0.000000
# 3 -0.007741 -0.005654 0.013172 0.000000 0.000000 0.000000
# 4 0.000000 0.000000 0.000000 14.040261 0.000000 0.000000
# 5 0.000000 0.000000 0.000000 0.000000 0.022304 0.000000
# 6 0.000000 0.000000 0.000000 0.000000 0.000000 0.054326
#
#
# Mechanical properties :
#
#
# Convention : Reuss Voigt Hill
#
# Bulk Modulus (GPa) = 50.36224 59.75810 55.06017
# Shear Modulus (GPa) = 0.35177 21.77363 11.06270
#
# Velocity S-wave (km/s) = 0.43734 3.44080 2.45259
# Velocity P-wave (km/s) = 5.25726 6.94824 6.16104
#
# Compressibility (1/GPa) = 0.01985615
#
# Stress axis : x y z
#
# Youngs Moduli (GPa) = 47.24014 48.27241 75.92068
#
# Poissons Ratio (x) = 0.20297 0.58774
# Poissons Ratio (y) = 0.19863 0.42923
# Poissons Ratio (z) = 0.36571 0.27292
#
# Static dielectric constant tensor:
#      x y z
#    x 3.411090 0.000000 0.000000 
#    y 0.000000 3.523300 0.000000 
#    z 0.000000 0.000000 3.745880 
# 
# 
# High freq. dielectric constant tensor:
#      x y z
#    x 1.705350 0.000000 0.000000 
#    y 0.000000 1.713820 0.000000 
#    z 0.000000 0.000000 1.715140 
# 
# From -- ./inp_files/8583.got.cif
#   From: 2010.03.12/outbox.cif.g09.slc.cpg/sg38_5_cif.got.tgz:8583.got - 2010.04.14 02:38:36.
