data_PCOD8179865
_publ_section_title
;
Structure prediction by ZEFSAII (Michael W. Deem and Ramdas Pophale) SiO2 
 PCOD8179865
Probable space group: A M M 2
;
_chemical_formula_sum "Si O2"
_cell_formula_units_Z 64
_cell_length_a 9.188920
_cell_length_b 28.135062
_cell_length_c 14.065227
_cell_angle_alpha 90.000000
_cell_angle_beta 90.000000
_cell_angle_gamma 90.000000
_cell_volume 3636.294865
_symmetry_space_group_name_H-M "A M M 2"
_symmetry_group_IT_number 38
_symmetry_cell_setting 'orthorhombic'
loop_
_space_group_symop_operation_xyz
x,y,z
-x,-y,z
-x,y,z
x,-y,z
x,1/2+y,1/2+z
-x,1/2-y,1/2+z
-x,1/2+y,1/2+z
x,1/2-y,1/2+z
loop_
_atom_site_type_symbol
_atom_site_label
_atom_site_fract_x
_atom_site_fract_y
_atom_site_fract_z
Si Si1 0.830058 0.445601 0.573430
Si Si2 0.167106 0.704405 0.085094
Si Si3 0.173232 0.947156 0.601434
Si Si4 0.167137 0.370057 0.249710
Si Si5 0.330816 0.876791 0.942126
Si Si6 0.828705 0.628765 0.732330
Si Si7 0.827694 0.877157 0.445263
Si Si8 0.669267 0.198659 0.102854
O O1 0.781800 0.500000 0.587681
O O2 0.745463 0.423788 0.483889
O O3 0.789681 0.417538 0.669891
O O4 0.000000 0.441378 0.550782
O O5 0.186803 0.675382 0.182332
O O6 0.272242 0.749009 0.085187
O O7 0.000000 0.720975 0.073934
O O8 0.215811 0.672264 0.995514
O O9 0.218785 0.917502 0.694534
O O10 0.235109 0.921288 0.506735
O O11 0.000000 0.948762 0.595747
O O12 0.240077 0.000000 0.607904
O O13 0.267987 0.363169 0.340267
O O14 0.000000 0.374838 0.282381
O O15 0.500000 0.888034 0.932885
O O16 0.299178 0.831986 0.009155
O O17 0.766605 0.620200 0.838298
O O18 0.751136 0.675461 0.692055
O O19 0.000000 0.638878 0.733081
O O20 0.000000 0.881464 0.444299
O O21 0.500000 0.200953 0.127398
#
# Coordination Sequence:
#
# PCOD8179865 Si02
#       8
#     8   8   8   8   8   8   8   8
#     4   9  18  32  50  73 100 129 162 200 240 284
#     4   9  18  33  51  71  97 128 160 195 239 289
#     4   8  14  26  46  73 102 127 152 188 234 280
#     4   9  18  32  50  73  99 127 161 199 238 285
#     4  10  21  35  50  70  97 129 164 203 246 289
#     4   9  17  31  51  74  99 126 158 196 238 285
#     4   8  15  28  47  72  99 125 155 191 232 282
#     4  10  21  35  49  68  95 126 162 202 243 287
#
# _framework density 17.600332999999999
#
# number of rings (size 3 to 8) (size 9 to 14) (size 15 to 20)
#    0.000    3.000    0.000    2.250    0.000    4.250 
#    0.000    8.125    0.000    0.750    0.000    0.000 
#    0.000    0.000    0.000    0.000    0.000    0.000 
#
# Total GULP energy -396769.968525 kJ/mol
# GULP energy per Si atom -12399.061516 kJ/mol
# Density = 1.756027 g / cm^3
# Si number density = 17.600333 Si / 1000 Ang^3
#
#
#
# Elastic Constant Matrix: (Units=GPa)
#
#
# Indices 1 2 3 4 5 6 
#
# 1 46.8589 37.8659 38.8658 0.0000 0.0000 0.0000
# 2 37.8659 119.0210 42.5838 0.0000 0.0000 0.0000
# 3 38.8658 42.5838 116.2559 0.0000 0.0000 0.0000
# 4 0.0000 0.0000 0.0000 13.6370 0.0000 0.0000
# 5 0.0000 0.0000 0.0000 0.0000 13.9419 0.0000
# 6 0.0000 0.0000 0.0000 0.0000 0.0000 13.6105
#
#
#
# Elastic Compliance Matrix: (Units=1/GPa)
#
#
# Indices 1 2 3 4 5 6 
#
# 1 0.035129 -0.008026 -0.008804 0.000000 0.000000 0.000000
# 2 -0.008026 0.011503 -0.001530 0.000000 0.000000 0.000000
# 3 -0.008804 -0.001530 0.012106 0.000000 0.000000 0.000000
# 4 0.000000 0.000000 0.000000 0.073330 0.000000 0.000000
# 5 0.000000 0.000000 0.000000 0.000000 0.071726 0.000000
# 6 0.000000 0.000000 0.000000 0.000000 0.000000 0.073473
#
#
# Mechanical properties :
#
#
# Convention : Reuss Voigt Hill
#
# Bulk Modulus (GPa) = 45.42072 57.86299 51.64185
# Shear Modulus (GPa) = 15.56057 19.09258 17.32657
#
# Velocity S-wave (km/s) = 2.97662 3.29718 3.14099
# Velocity P-wave (km/s) = 6.13811 6.88786 6.52377
#
# Compressibility (1/GPa) = 0.02201639
#
# Stress axis : x y z
#
# Youngs Moduli (GPa) = 28.46679 86.93538 82.60698
#
# Poissons Ratio (x) = 0.69775 0.72728
# Poissons Ratio (y) = 0.22848 0.12641
# Poissons Ratio (z) = 0.25062 0.13303
#
# Static dielectric constant tensor:
#      x y z
#    x 2.983850 0.000000 0.000000 
#    y 0.000000 3.393900 0.000000 
#    z 0.000000 0.000000 3.427100 
# 
# 
# High freq. dielectric constant tensor:
#      x y z
#    x 1.650370 0.000000 0.000000 
#    y 0.000000 1.683410 0.000000 
#    z 0.000000 0.000000 1.684550 
# 
# From -- ./inp_files/13094.got.cif
#   From: 2010.03.12/outbox.cif.g09.slc.cpg/sg38_7_cif.got.tgz:13094.got - 2010.04.14 02:38:36.
