data_PCOD8179586
_publ_section_title
;
Structure prediction by ZEFSAII (Michael W. Deem and Ramdas Pophale) SiO2 
 PCOD8179586
Probable space group: A M M 2
;
_chemical_formula_sum "Si O2"
_cell_formula_units_Z 56
_cell_length_a 16.437268
_cell_length_b 9.016082
_cell_length_c 20.058807
_cell_angle_alpha 90.000000
_cell_angle_beta 90.000000
_cell_angle_gamma 90.000000
_cell_volume 2972.710306
_symmetry_space_group_name_H-M "A M M 2"
_symmetry_group_IT_number 38
_symmetry_cell_setting 'orthorhombic'
loop_
_space_group_symop_operation_xyz
x,y,z
-x,-y,z
-x,y,z
x,-y,z
x,1/2+y,1/2+z
-x,1/2-y,1/2+z
-x,1/2+y,1/2+z
x,1/2-y,1/2+z
loop_
_atom_site_type_symbol
_atom_site_label
_atom_site_fract_x
_atom_site_fract_y
_atom_site_fract_z
Si Si1 0.748324 0.327786 0.841850
Si Si2 0.407605 0.825288 0.886139
Si Si3 0.734242 0.672282 0.098839
Si Si4 0.408045 0.670098 0.537810
Si Si5 0.000000 0.176941 0.166982
Si Si6 0.841336 0.328680 0.978040
Si Si7 0.839911 0.675025 0.224178
Si Si8 0.000000 0.825308 0.012797
O O1 0.745650 0.500000 0.821271
O O2 0.656619 0.262616 0.840173
O O3 0.784766 0.303530 0.914732
O O4 0.807539 0.238175 0.793375
O O5 0.500000 0.789590 0.862507
O O6 0.390761 0.000000 0.879982
O O7 0.396645 0.770813 0.962394
O O8 0.722277 0.500000 0.087396
O O9 0.646299 0.745104 0.091458
O O10 0.770161 0.710806 0.170569
O O11 0.794127 0.735022 0.042160
O O12 0.500000 0.693900 0.561417
O O13 0.382742 0.500000 0.539501
O O14 0.078075 0.242078 0.204031
O O15 0.000000 0.229195 0.089822
O O16 0.000000 0.000000 0.173335
O O17 0.865239 0.500000 0.987324
O O18 0.923218 0.235061 0.972086
O O19 0.857308 0.500000 0.229577
O O20 0.000000 0.000000 0.009305
#
# Coordination Sequence:
#
# PCOD8179586 Si02
#       8
#     8   8   8   8   4   8   8   4
#     4  11  23  39  59  87 120 153 192 241 293 342
#     4   9  18  34  57  85 117 153 192 235 287 348
#     4  10  20  36  58  85 112 147 193 235 282 340
#     4   9  18  32  54  86 120 152 188 237 292 339
#     4  11  23  40  61  88 117 147 191 240 289 342
#     4  10  21  38  59  83 115 149 185 235 289 339
#     4  11  24  41  62  84 115 158 196 234 287 350
#     4  11  23  36  59  92 117 145 191 242 287 336
#
# _framework density 18.838028000000001
#
# number of rings (size 3 to 8) (size 9 to 14) (size 15 to 20)
#    0.000    1.857    2.857    2.143    0.000    4.571 
#    0.000    2.857    0.000    0.857    0.000    0.000 
#    0.000    0.000    0.000    0.000    0.000    0.000 
#
# Total GULP energy -347267.163598 kJ/mol
# GULP energy per Si atom -12402.398700 kJ/mol
# Density = 1.879515 g / cm^3
# Si number density = 18.838028 Si / 1000 Ang^3
#
#
#
# Elastic Constant Matrix: (Units=GPa)
#
#
# Indices 1 2 3 4 5 6 
#
# 1 110.3164 51.0867 18.4438 0.0000 0.0000 0.0000
# 2 51.0867 72.3769 33.1634 0.0000 0.0000 0.0000
# 3 18.4438 33.1634 42.5840 0.0000 0.0000 0.0000
# 4 0.0000 0.0000 0.0000 29.6329 0.0000 0.0000
# 5 0.0000 0.0000 0.0000 0.0000 28.6714 0.0000
# 6 0.0000 0.0000 0.0000 0.0000 0.0000 38.9988
#
#
#
# Elastic Compliance Matrix: (Units=1/GPa)
#
#
# Indices 1 2 3 4 5 6 
#
# 1 0.013632 -0.010754 0.002471 0.000000 0.000000 0.000000
# 2 -0.010754 0.029966 -0.018679 0.000000 0.000000 0.000000
# 3 0.002471 -0.018679 0.036960 0.000000 0.000000 0.000000
# 4 0.000000 0.000000 0.000000 0.033746 0.000000 0.000000
# 5 0.000000 0.000000 0.000000 0.000000 0.034878 0.000000
# 6 0.000000 0.000000 0.000000 0.000000 0.000000 0.025642
#
#
# Mechanical properties :
#
#
# Convention : Reuss Voigt Hill
#
# Bulk Modulus (GPa) = 37.54749 47.85165 42.69957
# Shear Modulus (GPa) = 21.04147 27.63285 24.33716
#
# Velocity S-wave (km/s) = 3.34573 3.83412 3.59822
# Velocity P-wave (km/s) = 5.90764 6.71248 6.32288
#
# Compressibility (1/GPa) = 0.02663294
#
# Stress axis : x y z
#
# Youngs Moduli (GPa) = 73.35739 33.37103 27.05656
#
# Poissons Ratio (x) = 0.35888 -0.06685
# Poissons Ratio (y) = 0.78889 0.50539
# Poissons Ratio (z) = -0.18126 0.62334
#
# Static dielectric constant tensor:
#      x y z
#    x 3.508360 0.000000 0.000000 
#    y 0.000000 3.405880 0.000000 
#    z 0.000000 0.000000 3.314320 
# 
# 
# High freq. dielectric constant tensor:
#      x y z
#    x 1.743780 0.000000 0.000000 
#    y 0.000000 1.732010 0.000000 
#    z 0.000000 0.000000 1.714300 
# 
# From -- ./inp_files/21109.got.cif
#   From: 2010.03.12/outbox.cif.g09.slc.cpg/sg38_11_cif.got.tgz:21109.got - 2010.04.14 02:38:36.
