data_PCOD8179064
_publ_section_title
;
Structure prediction by ZEFSAII (Michael W. Deem and Ramdas Pophale) SiO2 
 PCOD8179064
Probable space group: A M M 2
;
_chemical_formula_sum "Si O2"
_cell_formula_units_Z 64
_cell_length_a 14.555586
_cell_length_b 9.403393
_cell_length_c 24.687096
_cell_angle_alpha 90.000000
_cell_angle_beta 90.000000
_cell_angle_gamma 90.000000
_cell_volume 3378.969624
_symmetry_space_group_name_H-M "A M M 2"
_symmetry_group_IT_number 38
_symmetry_cell_setting 'orthorhombic'
loop_
_space_group_symop_operation_xyz
x,y,z
-x,-y,z
-x,y,z
x,-y,z
x,1/2+y,1/2+z
-x,1/2-y,1/2+z
-x,1/2+y,1/2+z
x,1/2-y,1/2+z
loop_
_atom_site_type_symbol
_atom_site_label
_atom_site_fract_x
_atom_site_fract_y
_atom_site_fract_z
Si Si1 0.639310 0.159334 0.938960
Si Si2 0.600241 0.167722 0.056849
Si Si3 0.213823 0.331896 0.781845
Si Si4 0.100765 0.656588 0.882705
Si Si5 0.794021 0.832095 0.093694
Si Si6 0.843669 0.656039 0.472842
Si Si7 0.398529 0.837361 0.333507
Si Si8 0.891898 0.168888 0.688285
O O1 0.748395 0.156964 0.940928
O O2 0.605681 0.250426 0.888739
O O3 0.600259 0.000000 0.931333
O O4 0.603327 0.228632 0.995511
O O5 0.500000 0.206007 0.082839
O O6 0.685984 0.218417 0.094273
O O7 0.614353 0.000000 0.050267
O O8 0.196724 0.500000 0.770453
O O9 0.168533 0.279094 0.837911
O O10 0.322344 0.294878 0.788251
O O11 0.168864 0.238880 0.735117
O O12 0.136121 0.500000 0.897875
O O13 0.091816 0.740628 0.938950
O O14 0.000000 0.653096 0.855998
O O15 0.854638 0.737050 0.133164
O O16 0.802828 0.000000 0.108033
O O17 0.833540 0.796058 0.034661
O O18 0.888059 0.500000 0.471502
O O19 0.500000 0.816241 0.307491
O O20 0.380749 0.000000 0.350104
O O21 0.000000 0.204700 0.695432
O O22 0.875984 0.000000 0.687710
#
# Coordination Sequence:
#
# PCOD8179064 Si02
#       8
#     8   8   8   8   8   8   8   8
#     4   9  16  28  49  77 111 151 188 220 257 308
#     4   8  14  27  50  81 114 147 185 223 259 309
#     4  10  21  39  60  80 108 145 184 226 271 326
#     4  10  20  33  52  79 108 142 182 221 272 334
#     4   9  19  36  58  83 110 144 185 226 270 323
#     4   9  18  32  51  79 114 148 182 220 265 320
#     4  10  20  33  52  81 114 146 182 222 265 317
#     4  11  25  43  62  83 104 133 180 237 290 334
#
# _framework density 18.940685999999999
#
# number of rings (size 3 to 8) (size 9 to 14) (size 15 to 20)
#    0.000    2.500    1.250    2.625    0.000    4.500 
#    0.000    5.000    0.000    4.875    0.000    0.000 
#    0.000    0.000    0.000    0.000    0.000    0.000 
#
# Total GULP energy -396513.840310 kJ/mol
# GULP energy per Si atom -12391.057510 kJ/mol
# Density = 1.889758 g / cm^3
# Si number density = 18.940686 Si / 1000 Ang^3
#
#
#
# Elastic Constant Matrix: (Units=GPa)
#
#
# Indices 1 2 3 4 5 6 
#
# 1 127.0784 44.1542 55.8521 0.0000 0.0000 0.0000
# 2 44.1542 69.1196 52.5383 0.0000 0.0000 0.0000
# 3 55.8521 52.5383 100.7488 0.0000 0.0000 0.0000
# 4 0.0000 0.0000 0.0000 30.7959 0.0000 0.0000
# 5 0.0000 0.0000 0.0000 0.0000 21.7935 0.0000
# 6 0.0000 0.0000 0.0000 0.0000 0.0000 20.6594
#
#
#
# Elastic Compliance Matrix: (Units=1/GPa)
#
#
# Indices 1 2 3 4 5 6 
#
# 1 0.011025 -0.003971 -0.004041 0.000000 0.000000 0.000000
# 2 -0.003971 0.025399 -0.011043 0.000000 0.000000 0.000000
# 3 -0.004041 -0.011043 0.017925 0.000000 0.000000 0.000000
# 4 0.000000 0.000000 0.000000 0.032472 0.000000 0.000000
# 5 0.000000 0.000000 0.000000 0.000000 0.045885 0.000000
# 6 0.000000 0.000000 0.000000 0.000000 0.000000 0.048404
#
#
# Mechanical properties :
#
#
# Convention : Reuss Voigt Hill
#
# Bulk Modulus (GPa) = 61.58675 66.89288 64.23982
# Shear Modulus (GPa) = 22.25849 24.27656 23.26753
#
# Velocity S-wave (km/s) = 3.43179 3.58399 3.50872
# Velocity P-wave (km/s) = 6.94904 7.24709 7.09963
#
# Compressibility (1/GPa) = 0.01623726
#
# Stress axis : x y z
#
# Youngs Moduli (GPa) = 90.70231 39.37215 55.78880
#
# Poissons Ratio (x) = 0.15636 0.22544
# Poissons Ratio (y) = 0.36021 0.61609
# Poissons Ratio (z) = 0.36653 0.43480
#
# Static dielectric constant tensor:
#      x y z
#    x 3.749310 0.000000 0.000000 
#    y 0.000000 3.328420 0.000000 
#    z 0.000000 0.000000 3.263460 
# 
# 
# High freq. dielectric constant tensor:
#      x y z
#    x 1.753460 0.000000 0.000000 
#    y 0.000000 1.711550 0.000000 
#    z 0.000000 0.000000 1.713790 
# 
# From -- ./inp_files/22888.got.cif
#   From: 2010.03.12/outbox.cif.g09.slc.cpg/sg38_12_cif.got.tgz:22888.got - 2010.04.14 02:38:36.
