data_PCOD8179760
_publ_section_title
;
Structure prediction by ZEFSAII (Michael W. Deem and Ramdas Pophale) SiO2 
 PCOD8179760
Probable space group: A M M 2
;
_chemical_formula_sum "Si O2"
_cell_formula_units_Z 40
_cell_length_a 7.720018
_cell_length_b 8.943841
_cell_length_c 29.250309
_cell_angle_alpha 90.000000
_cell_angle_beta 90.000000
_cell_angle_gamma 90.000000
_cell_volume 2019.634781
_symmetry_space_group_name_H-M "A M M 2"
_symmetry_group_IT_number 38
_symmetry_cell_setting 'orthorhombic'
loop_
_space_group_symop_operation_xyz
x,y,z
-x,-y,z
-x,y,z
x,-y,z
x,1/2+y,1/2+z
-x,1/2-y,1/2+z
-x,1/2+y,1/2+z
x,1/2-y,1/2+z
loop_
_atom_site_type_symbol
_atom_site_label
_atom_site_fract_x
_atom_site_fract_y
_atom_site_fract_z
Si Si1 0.000000 0.327360 0.697201
Si Si2 0.703326 0.332977 0.951720
Si Si3 0.298877 0.176168 0.860100
Si Si4 0.693655 0.674894 0.144377
Si Si5 0.000000 0.173809 0.304450
Si Si6 0.199425 0.669638 0.048331
O O1 0.826020 0.256595 0.677331
O O2 0.000000 0.299196 0.750757
O O3 0.000000 0.500000 0.684155
O O4 0.500000 0.345169 0.951022
O O5 0.785425 0.500000 0.946694
O O6 0.766027 0.230919 0.909829
O O7 0.760796 0.252791 0.999432
O O8 0.500000 0.220855 0.850894
O O9 0.176226 0.252301 0.822839
O O10 0.273890 0.000000 0.857420
O O11 0.500000 0.701998 0.163260
O O12 0.742248 0.500000 0.143425
O O13 0.702959 0.739394 0.092247
O O14 0.000000 0.000000 0.317529
O O15 0.263842 0.500000 0.041841
O O16 0.000000 0.681374 0.060840
#
# Coordination Sequence:
#
# PCOD8179760 Si02
#       6
#     4   8   8   8   4   8
#     4  11  25  43  60  85 118 149 188 241 298 355
#     4   9  17  30  51  81 116 155 198 237 275 328
#     4  10  22  40  61  88 121 153 189 237 293 349
#     4  10  20  37  63  90 117 153 196 240 286 338
#     4  11  25  43  64  85 110 149 196 243 292 349
#     4   9  16  28  51  84 118 152 195 241 277 322
#
# _framework density 19.805558999999999
#
# number of rings (size 3 to 8) (size 9 to 14) (size 15 to 20)
#    0.000    2.200    1.000    1.800    1.400    6.400 
#    0.000    5.000    0.000    2.400    0.000    0.000 
#    0.000    0.000    0.000    0.000    0.000    0.000 
#
# Total GULP energy -247928.880650 kJ/mol
# GULP energy per Si atom -12396.444033 kJ/mol
# Density = 1.976048 g / cm^3
# Si number density = 19.805559 Si / 1000 Ang^3
#
#
#
# Elastic Constant Matrix: (Units=GPa)
#
#
# Indices 1 2 3 4 5 6 
#
# 1 108.3149 54.1140 66.1673 0.0000 0.0000 0.0000
# 2 54.1140 85.7486 62.3450 0.0000 0.0000 0.0000
# 3 66.1673 62.3450 121.7362 0.0000 0.0000 0.0000
# 4 0.0000 0.0000 0.0000 27.8565 0.0000 0.0000
# 5 0.0000 0.0000 0.0000 0.0000 26.1783 0.0000
# 6 0.0000 0.0000 0.0000 0.0000 0.0000 20.6979
#
#
#
# Elastic Compliance Matrix: (Units=1/GPa)
#
#
# Indices 1 2 3 4 5 6 
#
# 1 0.015444 -0.005805 -0.005422 0.000000 0.000000 0.000000
# 2 -0.005805 0.020762 -0.007478 0.000000 0.000000 0.000000
# 3 -0.005422 -0.007478 0.014991 0.000000 0.000000 0.000000
# 4 0.000000 0.000000 0.000000 0.035898 0.000000 0.000000
# 5 0.000000 0.000000 0.000000 0.000000 0.038200 0.000000
# 6 0.000000 0.000000 0.000000 0.000000 0.000000 0.048314
#
#
# Mechanical properties :
#
#
# Convention : Reuss Voigt Hill
#
# Bulk Modulus (GPa) = 72.52205 75.67247 74.09726
# Shear Modulus (GPa) = 23.18955 23.82478 23.50716
#
# Velocity S-wave (km/s) = 3.42550 3.47210 3.44888
# Velocity P-wave (km/s) = 7.23477 7.37323 7.30433
#
# Compressibility (1/GPa) = 0.01378891
#
# Stress axis : x y z
#
# Youngs Moduli (GPa) = 64.74859 48.16459 66.70639
#
# Poissons Ratio (x) = 0.27958 0.36166
# Poissons Ratio (y) = 0.37584 0.49883
# Poissons Ratio (z) = 0.35105 0.36017
#
# Static dielectric constant tensor:
#      x y z
#    x 3.615200 0.000000 0.000000 
#    y 0.000000 3.442750 0.000000 
#    z 0.000000 0.000000 3.758780 
# 
# 
# High freq. dielectric constant tensor:
#      x y z
#    x 1.781150 0.000000 0.000000 
#    y 0.000000 1.736720 0.000000 
#    z 0.000000 0.000000 1.780870 
# 
# From -- ./inp_files/23257.got.cif
#   From: 2010.03.12/outbox.cif.g09.slc.cpg/sg38_12_cif.got.tgz:23257.got - 2010.04.14 02:38:36.
