data_PCOD8179490
_publ_section_title
;
Structure prediction by ZEFSAII (Michael W. Deem and Ramdas Pophale) SiO2 
 PCOD8179490
Probable space group: A M M 2
;
_chemical_formula_sum "Si O2"
_cell_formula_units_Z 64
_cell_length_a 18.625242
_cell_length_b 8.816085
_cell_length_c 19.886894
_cell_angle_alpha 90.000000
_cell_angle_beta 90.000000
_cell_angle_gamma 90.000000
_cell_volume 3265.462133
_symmetry_space_group_name_H-M "A M M 2"
_symmetry_group_IT_number 38
_symmetry_cell_setting 'orthorhombic'
loop_
_space_group_symop_operation_xyz
x,y,z
-x,-y,z
-x,y,z
x,-y,z
x,1/2+y,1/2+z
-x,1/2-y,1/2+z
-x,1/2+y,1/2+z
x,1/2-y,1/2+z
loop_
_atom_site_type_symbol
_atom_site_label
_atom_site_fract_x
_atom_site_fract_y
_atom_site_fract_z
Si Si1 0.082282 0.322740 0.484230
Si Si2 0.672101 0.823987 0.681569
Si Si3 0.338093 0.176915 0.424661
Si Si4 0.580686 0.180085 0.556846
Si Si5 0.084659 0.673676 0.122305
Si Si6 0.418953 0.328036 0.312516
Si Si7 0.814094 0.821326 0.225236
Si Si8 0.194604 0.821450 0.871964
O O1 0.090758 0.500000 0.498950
O O2 0.111182 0.236379 0.550235
O O3 0.128643 0.272952 0.419740
O O4 0.000000 0.278810 0.468420
O O5 0.620274 0.760226 0.623509
O O6 0.633149 0.795672 0.751303
O O7 0.745544 0.731153 0.682226
O O8 0.690209 0.000000 0.669475
O O9 0.370507 0.234142 0.494939
O O10 0.399722 0.209265 0.370250
O O11 0.267432 0.271430 0.408021
O O12 0.318890 0.000000 0.425410
O O13 0.500000 0.249267 0.552764
O O14 0.574425 0.000000 0.557780
O O15 0.109384 0.500000 0.128152
O O16 0.116533 0.767422 0.184310
O O17 0.000000 0.692629 0.127838
O O18 0.500000 0.299962 0.288391
O O19 0.408829 0.500000 0.338885
O O20 0.815129 0.754260 0.299867
O O21 0.814205 0.000000 0.232031
O O22 0.197253 0.000000 0.860127
#
# Coordination Sequence:
#
# PCOD8179490 Si02
#       8
#     8   8   8   8   8   8   8   8
#     4   9  20  40  65  93 124 157 195 243 298 352
#     4  10  20  37  60  85 115 155 199 246 296 355
#     4  11  22  36  56  85 119 156 195 245 300 356
#     4   9  19  36  58  85 115 150 195 245 299 357
#     4  10  22  41  66  94 124 160 201 242 289 351
#     4  10  20  35  58  84 112 152 199 246 298 357
#     4  12  25  40  60  89 124 161 202 250 300 354
#     4  11  23  40  61  87 121 162 204 249 300 358
#
# _framework density 19.599063999999998
#
# number of rings (size 3 to 8) (size 9 to 14) (size 15 to 20)
#    0.000    1.750    1.250    3.000    1.750    4.500 
#    0.000    1.875    0.000    2.625    0.000    0.000 
#    0.000    0.000    0.000    0.000    0.000    0.000 
#
# Total GULP energy -396904.943911 kJ/mol
# GULP energy per Si atom -12403.279497 kJ/mol
# Density = 1.955446 g / cm^3
# Si number density = 19.599064 Si / 1000 Ang^3
#
#
#
# Elastic Constant Matrix: (Units=GPa)
#
#
# Indices 1 2 3 4 5 6 
#
# 1 89.6093 36.7953 57.3447 0.0000 0.0000 0.0000
# 2 36.7953 80.8080 53.4205 0.0000 0.0000 0.0000
# 3 57.3447 53.4205 133.7884 0.0000 0.0000 0.0000
# 4 0.0000 0.0000 0.0000 23.2555 0.0000 0.0000
# 5 0.0000 0.0000 0.0000 0.0000 38.9710 0.0000
# 6 0.0000 0.0000 0.0000 0.0000 0.0000 27.0225
#
#
#
# Elastic Compliance Matrix: (Units=1/GPa)
#
#
# Indices 1 2 3 4 5 6 
#
# 1 0.016186 -0.003782 -0.005427 0.000000 0.000000 0.000000
# 2 -0.003782 0.017697 -0.005445 0.000000 0.000000 0.000000
# 3 -0.005427 -0.005445 0.011975 0.000000 0.000000 0.000000
# 4 0.000000 0.000000 0.000000 0.043001 0.000000 0.000000
# 5 0.000000 0.000000 0.000000 0.000000 0.025660 0.000000
# 6 0.000000 0.000000 0.000000 0.000000 0.000000 0.037006
#
#
# Mechanical properties :
#
#
# Convention : Reuss Voigt Hill
#
# Bulk Modulus (GPa) = 60.42904 66.59186 63.51045
# Shear Modulus (GPa) = 26.83125 28.29281 27.56203
#
# Velocity S-wave (km/s) = 3.70402 3.80357 3.75413
# Velocity P-wave (km/s) = 7.01374 7.30345 7.16006
#
# Compressibility (1/GPa) = 0.01654833
#
# Stress axis : x y z
#
# Youngs Moduli (GPa) = 61.78254 56.50736 83.50741
#
# Poissons Ratio (x) = 0.21372 0.45323
# Poissons Ratio (y) = 0.23367 0.45470
# Poissons Ratio (z) = 0.33532 0.30769
#
# Static dielectric constant tensor:
#      x y z
#    x 3.727170 0.000000 0.000000 
#    y 0.000000 3.475710 0.000000 
#    z 0.000000 0.000000 3.704660 
# 
# 
# High freq. dielectric constant tensor:
#      x y z
#    x 1.774120 0.000000 0.000000 
#    y 0.000000 1.750310 0.000000 
#    z 0.000000 0.000000 1.773260 
# 
# From -- ./inp_files/21386.got.cif
#   From: 2010.03.12/outbox.cif.g09.slc.cpg/sg38_11_cif.got.tgz:21386.got - 2010.04.14 02:38:36.
