data_PCOD8179162
_publ_section_title
;
Structure prediction by ZEFSAII (Michael W. Deem and Ramdas Pophale) SiO2 
 PCOD8179162
Probable space group: A M M 2
;
_chemical_formula_sum "Si O2"
_cell_formula_units_Z 48
_cell_length_a 9.264652
_cell_length_b 25.222340
_cell_length_c 12.048418
_cell_angle_alpha 90.000000
_cell_angle_beta 90.000000
_cell_angle_gamma 90.000000
_cell_volume 2815.428567
_symmetry_space_group_name_H-M "A M M 2"
_symmetry_group_IT_number 38
_symmetry_cell_setting 'orthorhombic'
loop_
_space_group_symop_operation_xyz
x,y,z
-x,-y,z
-x,y,z
x,-y,z
x,1/2+y,1/2+z
-x,1/2-y,1/2+z
-x,1/2+y,1/2+z
x,1/2-y,1/2+z
loop_
_atom_site_type_symbol
_atom_site_label
_atom_site_fract_x
_atom_site_fract_y
_atom_site_fract_z
Si Si1 0.668619 0.741647 0.643220
Si Si2 0.837148 0.350931 0.714148
Si Si3 0.666922 0.349106 0.265366
Si Si4 0.163226 0.179979 0.979637
Si Si5 0.332926 0.439537 0.099336
Si Si6 0.829943 0.440287 0.879494
O O1 0.500000 0.730591 0.628670
O O2 0.734629 0.700470 0.734896
O O3 0.701394 0.800798 0.682806
O O4 0.748143 0.731774 0.524198
O O5 0.835961 0.362947 0.581095
O O6 0.778158 0.401863 0.780275
O O7 0.000000 0.336936 0.753134
O O8 0.500000 0.348485 0.301061
O O9 0.762799 0.346530 0.374587
O O10 0.709894 0.403147 0.203308
O O11 0.000000 0.197025 0.949425
O O12 0.500000 0.432082 0.069024
O O13 0.296433 0.500000 0.132006
O O14 0.243157 0.420963 0.992774
O O15 0.779882 0.500000 0.849467
O O16 0.000000 0.437753 0.896784
#
# Coordination Sequence:
#
# PCOD8179162 Si02
#       6
#     8   8   8   8   8   8
#     4   9  18  32  50  73 101 132 165 203 244 294
#     4   8  17  33  49  73 104 132 164 203 248 291
#     4  10  20  34  53  75 101 135 169 203 251 300
#     4   9  19  34  51  73 103 132 166 206 245 294
#     4   9  19  35  52  73 102 132 167 211 253 296
#     4   9  17  32  54  76 102 134 167 206 249 297
#
# _framework density 17.048915000000001
#
# number of rings (size 3 to 8) (size 9 to 14) (size 15 to 20)
#    1.000    2.000    0.000    0.500    0.000    4.000 
#    0.000    5.833    0.000    1.000    0.000    0.000 
#    0.000    0.000    0.000    0.000    0.000    0.000 
#
# Total GULP energy -297410.492421 kJ/mol
# GULP energy per Si atom -12392.103851 kJ/mol
# Density = 1.701011 g / cm^3
# Si number density = 17.048915 Si / 1000 Ang^3
#
#
#
# Elastic Constant Matrix: (Units=GPa)
#
#
# Indices 1 2 3 4 5 6 
#
# 1 74.9674 46.6350 50.9559 0.0000 0.0000 0.0000
# 2 46.6350 92.7220 55.1927 0.0000 0.0000 0.0000
# 3 50.9559 55.1927 96.8028 0.0000 0.0000 0.0000
# 4 0.0000 0.0000 0.0000 28.2108 0.0000 0.0000
# 5 0.0000 0.0000 0.0000 0.0000 32.4527 0.0000
# 6 0.0000 0.0000 0.0000 0.0000 0.0000 17.7354
#
#
#
# Elastic Compliance Matrix: (Units=1/GPa)
#
#
# Indices 1 2 3 4 5 6 
#
# 1 0.023203 -0.006660 -0.008416 0.000000 0.000000 0.000000
# 2 -0.006660 0.018237 -0.006892 0.000000 0.000000 0.000000
# 3 -0.008416 -0.006892 0.018690 0.000000 0.000000 0.000000
# 4 0.000000 0.000000 0.000000 0.035447 0.000000 0.000000
# 5 0.000000 0.000000 0.000000 0.000000 0.030814 0.000000
# 6 0.000000 0.000000 0.000000 0.000000 0.000000 0.056384
#
#
# Mechanical properties :
#
#
# Convention : Reuss Voigt Hill
#
# Bulk Modulus (GPa) = 61.75594 63.33993 62.54794
# Shear Modulus (GPa) = 21.54135 23.12702 22.33419
#
# Velocity S-wave (km/s) = 3.55843 3.68708 3.62333
# Velocity P-wave (km/s) = 7.29278 7.44034 7.36693
#
# Compressibility (1/GPa) = 0.01619277
#
# Stress axis : x y z
#
# Youngs Moduli (GPa) = 43.09796 54.83266 53.50375
#
# Poissons Ratio (x) = 0.36519 0.45031
# Poissons Ratio (y) = 0.28704 0.36876
# Poissons Ratio (z) = 0.36273 0.37792
#
# Static dielectric constant tensor:
#      x y z
#    x 3.204660 0.000000 0.000000 
#    y 0.000000 3.139320 0.000000 
#    z 0.000000 0.000000 3.032180 
# 
# 
# High freq. dielectric constant tensor:
#      x y z
#    x 1.662830 0.000000 0.000000 
#    y 0.000000 1.642560 0.000000 
#    z 0.000000 0.000000 1.645230 
# 
# From -- ./inp_files/8232.got.cif
#   From: 2010.03.12/outbox.cif.g09.slc.cpg/sg38_5_cif.got.tgz:8232.got - 2010.04.14 02:38:36.
