data_PCOD8179974
_publ_section_title
;
Structure prediction by ZEFSAII (Michael W. Deem and Ramdas Pophale) SiO2 
 PCOD8179974
Probable space group: A M M 2
;
_chemical_formula_sum "Si O2"
_cell_formula_units_Z 64
_cell_length_a 13.850098
_cell_length_b 8.889286
_cell_length_c 25.768164
_cell_angle_alpha 90.000000
_cell_angle_beta 90.000000
_cell_angle_gamma 90.000000
_cell_volume 3172.511474
_symmetry_space_group_name_H-M "A M M 2"
_symmetry_group_IT_number 38
_symmetry_cell_setting 'orthorhombic'
loop_
_space_group_symop_operation_xyz
x,y,z
-x,-y,z
-x,y,z
x,-y,z
x,1/2+y,1/2+z
-x,1/2-y,1/2+z
-x,1/2+y,1/2+z
x,1/2-y,1/2+z
loop_
_atom_site_type_symbol
_atom_site_label
_atom_site_fract_x
_atom_site_fract_y
_atom_site_fract_z
Si Si1 0.611555 0.677321 0.256330
Si Si2 0.109779 0.322672 0.393056
Si Si3 0.722008 0.677897 0.661496
Si Si4 0.885576 0.665570 0.508653
Si Si5 0.384930 0.829657 0.948308
Si Si6 0.888304 0.174201 0.611273
Si Si7 0.606372 0.322821 0.562821
Si Si8 0.290862 0.676314 0.853984
O O1 0.500000 0.721514 0.248323
O O2 0.626480 0.500000 0.255978
O O3 0.674147 0.750075 0.211330
O O4 0.646876 0.740590 0.310826
O O5 0.114977 0.500000 0.382760
O O6 0.149300 0.284999 0.451255
O O7 0.180333 0.236117 0.353482
O O8 0.000000 0.264968 0.384666
O O9 0.717599 0.500000 0.667339
O O10 0.832369 0.732927 0.655732
O O11 0.669850 0.741488 0.609782
O O12 0.843663 0.500000 0.522940
O O13 0.852783 0.779850 0.553426
O O14 0.000000 0.655161 0.504762
O O15 0.500000 0.818893 0.948368
O O16 0.340642 0.710975 0.908805
O O17 0.352984 0.000000 0.933260
O O18 0.346571 0.787834 0.006345
O O19 0.000000 0.214605 0.618515
O O20 0.867137 0.000000 0.619012
O O21 0.500000 0.248965 0.566875
O O22 0.596151 0.500000 0.569300
O O23 0.290906 0.500000 0.842969
#
# Coordination Sequence:
#
# PCOD8179974 Si02
#       8
#     8   8   8   8   8   8   8   8
#     4  11  25  46  69  90 115 153 200 249 300 359
#     4   9  19  37  60  85 117 159 205 249 294 352
#     4  11  22  37  62  92 120 153 198 251 302 356
#     4   8  15  30  53  80 111 152 201 247 290 341
#     4   9  18  35  58  83 115 156 199 241 288 352
#     4  10  21  36  54  81 122 166 205 247 295 350
#     4   8  16  32  55  84 116 150 188 232 289 355
#     4  12  25  38  58  89 122 156 197 248 303 357
#
# _framework density 20.173292
#
# number of rings (size 3 to 8) (size 9 to 14) (size 15 to 20)
#    0.000    2.250    0.000    4.500    1.750    4.750 
#    0.000    2.500    0.000    5.250    0.000    0.000 
#    0.000    0.000    0.000    0.000    0.000    0.000 
#
# Total GULP energy -396781.097147 kJ/mol
# GULP energy per Si atom -12399.409286 kJ/mol
# Density = 2.012738 g / cm^3
# Si number density = 20.173292 Si / 1000 Ang^3
#
#
#
# Elastic Constant Matrix: (Units=GPa)
#
#
# Indices 1 2 3 4 5 6 
#
# 1 60.5621 42.2463 35.4056 0.0000 0.0000 0.0000
# 2 42.2463 76.7812 35.6328 0.0000 0.0000 0.0000
# 3 35.4056 35.6328 86.4185 0.0000 0.0000 0.0000
# 4 0.0000 0.0000 0.0000 33.1239 0.0000 0.0000
# 5 0.0000 0.0000 0.0000 0.0000 36.1371 0.0000
# 6 0.0000 0.0000 0.0000 0.0000 0.0000 24.2046
#
#
#
# Elastic Compliance Matrix: (Units=1/GPa)
#
#
# Indices 1 2 3 4 5 6 
#
# 1 0.029634 -0.013196 -0.006700 0.000000 0.000000 0.000000
# 2 -0.013196 0.021982 -0.003657 0.000000 0.000000 0.000000
# 3 -0.006700 -0.003657 0.015825 0.000000 0.000000 0.000000
# 4 0.000000 0.000000 0.000000 0.030190 0.000000 0.000000
# 5 0.000000 0.000000 0.000000 0.000000 0.027672 0.000000
# 6 0.000000 0.000000 0.000000 0.000000 0.000000 0.041314
#
#
# Mechanical properties :
#
#
# Convention : Reuss Voigt Hill
#
# Bulk Modulus (GPa) = 49.17864 50.03680 49.60772
# Shear Modulus (GPa) = 22.67560 26.05826 24.36693
#
# Velocity S-wave (km/s) = 3.35631 3.59795 3.47923
# Velocity P-wave (km/s) = 6.28098 6.48981 6.38625
#
# Compressibility (1/GPa) = 0.02033403
#
# Stress axis : x y z
#
# Youngs Moduli (GPa) = 33.74520 45.49202 63.19245
#
# Poissons Ratio (x) = 0.60030 0.42339
# Poissons Ratio (y) = 0.44529 0.23113
# Poissons Ratio (z) = 0.22609 0.16639
#
# Static dielectric constant tensor:
#      x y z
#    x 3.885380 0.000000 0.000000 
#    y 0.000000 3.423140 0.000000 
#    z 0.000000 0.000000 3.661670 
# 
# 
# High freq. dielectric constant tensor:
#      x y z
#    x 1.803750 0.000000 0.000000 
#    y 0.000000 1.765020 0.000000 
#    z 0.000000 0.000000 1.776000 
# 
# From -- ./inp_files/23004.got.cif
#   From: 2010.03.12/outbox.cif.g09.slc.cpg/sg38_12_cif.got.tgz:23004.got - 2010.04.14 02:38:36.
