data_PCOD8179862
_publ_section_title
;
Structure prediction by ZEFSAII (Michael W. Deem and Ramdas Pophale) SiO2 
 PCOD8179862
Probable space group: A M M 2
;
_chemical_formula_sum "Si O2"
_cell_formula_units_Z 48
_cell_length_a 8.827609
_cell_length_b 16.659287
_cell_length_c 18.837980
_cell_angle_alpha 90.000000
_cell_angle_beta 90.000000
_cell_angle_gamma 90.000000
_cell_volume 2770.344833
_symmetry_space_group_name_H-M "A M M 2"
_symmetry_group_IT_number 38
_symmetry_cell_setting 'orthorhombic'
loop_
_space_group_symop_operation_xyz
x,y,z
-x,-y,z
-x,y,z
x,-y,z
x,1/2+y,1/2+z
-x,1/2-y,1/2+z
-x,1/2+y,1/2+z
x,1/2-y,1/2+z
loop_
_atom_site_type_symbol
_atom_site_label
_atom_site_fract_x
_atom_site_fract_y
_atom_site_fract_z
Si Si1 0.680611 0.500000 0.093431
Si Si2 0.325097 0.226008 0.149159
Si Si3 0.318886 0.680835 0.865853
Si Si4 0.680499 0.662883 0.025329
Si Si5 0.681906 0.500000 0.253225
Si Si6 0.176738 0.592049 0.738704
Si Si7 0.325365 0.669840 0.284197
O O1 0.500000 0.500000 0.091387
O O2 0.745184 0.579031 0.054629
O O3 0.742238 0.500000 0.173116
O O4 0.500000 0.199988 0.145040
O O5 0.266033 0.261290 0.073688
O O6 0.233046 0.147542 0.173540
O O7 0.303410 0.298796 0.204286
O O8 0.500000 0.677153 0.861892
O O9 0.257588 0.612356 0.813307
O O10 0.253507 0.766892 0.839192
O O11 0.257303 0.670764 0.945388
O O12 0.500000 0.661355 0.026411
O O13 0.500000 0.500000 0.252225
O O14 0.746142 0.419546 0.291462
O O15 0.213696 0.500000 0.719236
O O16 0.000000 0.606562 0.749132
O O17 0.500000 0.662323 0.303269
#
# Coordination Sequence:
#
# PCOD8179862 Si02
#       7
#     4   8   8   8   4   8   8
#     4   9  14  20  36  66  98 123 144 175 225 278
#     4   9  16  29  49  70  92 119 154 197 240 280
#     4   9  18  30  47  71  99 126 153 189 238 289
#     4   9  16  26  43  71 103 125 149 188 234 287
#     4   9  12  18  36  60  88 117 146 179 221 268
#     4  10  21  35  49  67  92 124 166 208 239 276
#     4   8  13  22  37  61  89 118 148 180 219 267
#
# _framework density 17.326363000000001
#
# number of rings (size 3 to 8) (size 9 to 14) (size 15 to 20)
#    0.000    3.000    1.667    1.500    1.167    1.333 
#    0.000    0.833    1.833    0.000    0.000   14.000 
#    0.000    0.000    0.000    0.000    0.000    0.000 
#
# Total GULP energy -297395.738465 kJ/mol
# GULP energy per Si atom -12391.489103 kJ/mol
# Density = 1.728693 g / cm^3
# Si number density = 17.326363 Si / 1000 Ang^3
#
#
#
# Elastic Constant Matrix: (Units=GPa)
#
#
# Indices 1 2 3 4 5 6 
#
# 1 25.8976 27.0598 16.5720 0.0000 0.0000 0.0000
# 2 27.0598 141.1918 55.9304 0.0000 0.0000 0.0000
# 3 16.5720 55.9304 100.6610 0.0000 0.0000 0.0000
# 4 0.0000 0.0000 0.0000 22.9810 0.0000 0.0000
# 5 0.0000 0.0000 0.0000 0.0000 7.1081 0.0000
# 6 0.0000 0.0000 0.0000 0.0000 0.0000 11.9319
#
#
#
# Elastic Compliance Matrix: (Units=1/GPa)
#
#
# Indices 1 2 3 4 5 6 
#
# 1 0.049321 -0.007996 -0.003677 0.000000 0.000000 0.000000
# 2 -0.007996 0.010378 -0.004450 0.000000 0.000000 0.000000
# 3 -0.003677 -0.004450 0.013012 0.000000 0.000000 0.000000
# 4 0.000000 0.000000 0.000000 0.043514 0.000000 0.000000
# 5 0.000000 0.000000 0.000000 0.000000 0.140685 0.000000
# 6 0.000000 0.000000 0.000000 0.000000 0.000000 0.083809
#
#
# Mechanical properties :
#
#
# Convention : Reuss Voigt Hill
#
# Bulk Modulus (GPa) = 24.71234 51.87496 38.29365
# Shear Modulus (GPa) = 12.93816 19.61675 16.27745
#
# Velocity S-wave (km/s) = 2.73561 3.36845 3.06839
# Velocity P-wave (km/s) = 4.92665 6.71815 5.89090
#
# Compressibility (1/GPa) = 0.04046561
#
# Stress axis : x y z
#
# Youngs Moduli (GPa) = 20.27517 96.36027 76.85135
#
# Poissons Ratio (x) = 0.77050 0.28258
# Poissons Ratio (y) = 0.16212 0.34197
# Poissons Ratio (z) = 0.07455 0.42878
#
# Static dielectric constant tensor:
#      x y z
#    x 2.698480 0.000000 0.000000 
#    y 0.000000 3.532770 0.000000 
#    z 0.000000 0.000000 3.312580 
# 
# 
# High freq. dielectric constant tensor:
#      x y z
#    x 1.612580 0.000000 0.000000 
#    y 0.000000 1.679330 0.000000 
#    z 0.000000 0.000000 1.655410 
# 
# From -- ./inp_files/19936.got.cif
#   From: 2010.03.12/outbox.cif.g09.slc.cpg/sg38_10_cif.got.tgz:19936.got - 2010.04.14 02:38:36.
