data_PCOD8179159
_publ_section_title
;
Structure prediction by ZEFSAII (Michael W. Deem and Ramdas Pophale) SiO2 
 PCOD8179159
Probable space group: A M M 2
;
_chemical_formula_sum "Si O2"
_cell_formula_units_Z 48
_cell_length_a 9.061026
_cell_length_b 18.945343
_cell_length_c 15.259335
_cell_angle_alpha 90.000000
_cell_angle_beta 90.000000
_cell_angle_gamma 90.000000
_cell_volume 2619.482230
_symmetry_space_group_name_H-M "A M M 2"
_symmetry_group_IT_number 38
_symmetry_cell_setting 'orthorhombic'
loop_
_space_group_symop_operation_xyz
x,y,z
-x,-y,z
-x,y,z
x,-y,z
x,1/2+y,1/2+z
-x,1/2-y,1/2+z
-x,1/2+y,1/2+z
x,1/2-y,1/2+z
loop_
_atom_site_type_symbol
_atom_site_label
_atom_site_fract_x
_atom_site_fract_y
_atom_site_fract_z
Si Si1 0.824755 0.078507 0.380130
Si Si2 0.826062 0.670369 0.042139
Si Si3 0.674421 0.420161 0.383147
Si Si4 0.325066 0.825025 0.721509
Si Si5 0.830995 0.331278 0.527923
Si Si6 0.171725 0.821408 0.227101
O O1 0.768477 0.118723 0.466404
O O2 0.770826 0.118854 0.293354
O O3 0.000000 0.075324 0.381248
O O4 0.756748 0.000000 0.379360
O O5 0.742219 0.648120 0.130179
O O6 0.786124 0.749822 0.012907
O O7 0.000000 0.664140 0.060141
O O8 0.500000 0.420191 0.389042
O O9 0.736205 0.500000 0.379446
O O10 0.727151 0.379441 0.296196
O O11 0.732051 0.381873 0.469757
O O12 0.500000 0.821354 0.713097
O O13 0.264275 0.748434 0.746669
O O14 0.802922 0.350632 0.629425
O O15 0.000000 0.343754 0.501370
O O16 0.000000 0.802564 0.242128
#
# Coordination Sequence:
#
# PCOD8179159 Si02
#       6
#     8   8   8   8   8   8
#     4   9  17  30  51  78 105 133 163 197 243 298
#     4   9  18  33  53  77 103 129 162 206 249 289
#     4  10  22  37  50  69 101 137 168 203 250 297
#     4  10  20  34  53  74  97 130 171 209 246 293
#     4   9  18  32  52  76  98 127 168 209 247 289
#     4   9  18  34  55  77 102 130 162 204 249 292
#
# _framework density 18.324231999999999
#
# number of rings (size 3 to 8) (size 9 to 14) (size 15 to 20)
#    0.000    2.667    0.000    2.500    0.000    7.000 
#    0.000    2.500    0.000    1.500    0.000    0.000 
#    0.000    0.000    0.000    0.000    0.000    0.000 
#
# Total GULP energy -297621.826089 kJ/mol
# GULP energy per Si atom -12400.909420 kJ/mol
# Density = 1.828253 g / cm^3
# Si number density = 18.324232 Si / 1000 Ang^3
#
#
#
# Elastic Constant Matrix: (Units=GPa)
#
#
# Indices 1 2 3 4 5 6 
#
# 1 33.2676 28.2199 35.3381 0.0000 0.0000 0.0000
# 2 28.2199 137.9450 101.6690 0.0000 0.0000 0.0000
# 3 35.3381 101.6690 150.6867 0.0000 0.0000 0.0000
# 4 0.0000 0.0000 0.0000 17.0018 0.0000 0.0000
# 5 0.0000 0.0000 0.0000 0.0000 27.2755 0.0000
# 6 0.0000 0.0000 0.0000 0.0000 0.0000 20.8919
#
#
#
# Elastic Compliance Matrix: (Units=1/GPa)
#
#
# Indices 1 2 3 4 5 6 
#
# 1 0.040479 -0.002555 -0.007769 0.000000 0.000000 0.000000
# 2 -0.002555 0.014581 -0.009239 0.000000 0.000000 0.000000
# 3 -0.007769 -0.009239 0.014692 0.000000 0.000000 0.000000
# 4 0.000000 0.000000 0.000000 0.058817 0.000000 0.000000
# 5 0.000000 0.000000 0.000000 0.000000 0.036663 0.000000
# 6 0.000000 0.000000 0.000000 0.000000 0.000000 0.047866
#
#
# Mechanical properties :
#
#
# Convention : Reuss Voigt Hill
#
# Bulk Modulus (GPa) = 32.65157 72.48370 52.56764
# Shear Modulus (GPa) = 19.05252 23.47865 21.26559
#
# Velocity S-wave (km/s) = 3.22801 3.58339 3.41033
# Velocity P-wave (km/s) = 5.63479 7.53412 6.65259
#
# Compressibility (1/GPa) = 0.03062639
#
# Stress axis : x y z
#
# Youngs Moduli (GPa) = 24.70403 68.58145 68.06543
#
# Poissons Ratio (x) = 0.17522 0.52881
# Poissons Ratio (y) = 0.06312 0.62885
# Poissons Ratio (z) = 0.19193 0.63361
#
# Static dielectric constant tensor:
#      x y z
#    x 3.102600 0.000000 0.000000 
#    y 0.000000 3.534410 0.000000 
#    z 0.000000 0.000000 3.527250 
# 
# 
# High freq. dielectric constant tensor:
#      x y z
#    x 1.684380 0.000000 0.000000 
#    y 0.000000 1.708420 0.000000 
#    z 0.000000 0.000000 1.724310 
# 
# From -- ./inp_files/12018.got.cif
#   From: 2010.03.12/outbox.cif.g09.slc.cpg/sg38_7_cif.got.tgz:12018.got - 2010.04.14 02:38:36.
