data_PCOD8179300
_publ_section_title
;
Structure prediction by ZEFSAII (Michael W. Deem and Ramdas Pophale) SiO2 
 PCOD8179300
Probable space group: A M M 2
;
_chemical_formula_sum "Si O2"
_cell_formula_units_Z 40
_cell_length_a 18.472610
_cell_length_b 20.248301
_cell_length_c 5.132224
_cell_angle_alpha 90.000000
_cell_angle_beta 90.000000
_cell_angle_gamma 90.000000
_cell_volume 1919.651766
_symmetry_space_group_name_H-M "A M M 2"
_symmetry_group_IT_number 38
_symmetry_cell_setting 'orthorhombic'
loop_
_space_group_symop_operation_xyz
x,y,z
-x,-y,z
-x,y,z
x,-y,z
x,1/2+y,1/2+z
-x,1/2-y,1/2+z
-x,1/2+y,1/2+z
x,1/2-y,1/2+z
loop_
_atom_site_type_symbol
_atom_site_label
_atom_site_fract_x
_atom_site_fract_y
_atom_site_fract_z
Si Si1 0.419815 0.792146 0.126940
Si Si2 0.223693 0.427221 0.048649
Si Si3 0.866477 0.290773 0.594052
Si Si4 0.273735 0.640668 0.553285
Si Si5 0.081907 0.074612 0.284211
O O1 0.500000 0.824021 0.092666
O O2 0.410214 0.766887 0.420922
O O3 0.358668 0.845710 0.072974
O O4 0.244347 0.500000 0.141109
O O5 0.256849 0.377848 0.256210
O O6 0.256375 0.416458 0.760390
O O7 0.136522 0.417510 0.029430
O O8 0.893377 0.250484 0.343448
O O9 0.778658 0.296773 0.612424
O O10 0.900145 0.365365 0.583891
O O11 0.000000 0.081641 0.386855
O O12 0.093300 0.000000 0.161067
#
# Coordination Sequence:
#
# PCOD8179300 Si02
#       5
#     8   8   8   8   8
#     4  10  20  34  55  84 115 147 186 234 289 351
#     4  10  21  37  59  85 112 150 199 245 287 340
#     4  11  22  37  58  86 116 148 188 238 294 345
#     4  11  20  36  59  83 116 153 190 236 292 355
#     4   9  20  40  62  85 116 156 201 246 295 355
#
# _framework density 20.837115000000001
#
# number of rings (size 3 to 8) (size 9 to 14) (size 15 to 20)
#    0.000    1.800    0.000    5.400    0.000    1.600 
#    0.000    9.000    0.000   30.000    0.000    0.000 
#    0.000    0.000    0.000    0.000    0.000    0.000 
#
# Total GULP energy -247873.081202 kJ/mol
# GULP energy per Si atom -12393.654060 kJ/mol
# Density = 2.078969 g / cm^3
# Si number density = 20.837115 Si / 1000 Ang^3
#
#
#
# Elastic Constant Matrix: (Units=GPa)
#
#
# Indices 1 2 3 4 5 6 
#
# 1 153.9487 44.6087 21.2856 0.0000 0.0000 0.0000
# 2 44.6087 114.0150 37.0684 0.0000 0.0000 0.0000
# 3 21.2856 37.0684 102.1153 0.0000 0.0000 0.0000
# 4 0.0000 0.0000 0.0000 26.2192 0.0000 0.0000
# 5 0.0000 0.0000 0.0000 0.0000 19.7763 0.0000
# 6 0.0000 0.0000 0.0000 0.0000 0.0000 24.7453
#
#
#
# Elastic Compliance Matrix: (Units=1/GPa)
#
#
# Indices 1 2 3 4 5 6 
#
# 1 0.007354 -0.002697 -0.000554 0.000000 0.000000 0.000000
# 2 -0.002697 0.010934 -0.003407 0.000000 0.000000 0.000000
# 3 -0.000554 -0.003407 0.011145 0.000000 0.000000 0.000000
# 4 0.000000 0.000000 0.000000 0.038140 0.000000 0.000000
# 5 0.000000 0.000000 0.000000 0.000000 0.050566 0.000000
# 6 0.000000 0.000000 0.000000 0.000000 0.000000 0.040412
#
#
# Mechanical properties :
#
#
# Convention : Reuss Voigt Hill
#
# Bulk Modulus (GPa) = 62.04634 64.00051 63.02342
# Shear Modulus (GPa) = 28.21076 31.95592 30.08334
#
# Velocity S-wave (km/s) = 3.68349 3.92038 3.80378
# Velocity P-wave (km/s) = 6.92331 7.16057 7.04294
#
# Compressibility (1/GPa) = 0.01611699
#
# Stress axis : x y z
#
# Youngs Moduli (GPa) = 135.98462 91.46088 89.72666
#
# Poissons Ratio (x) = 0.24668 0.04969
# Poissons Ratio (y) = 0.36677 0.30568
# Poissons Ratio (z) = 0.07531 0.31158
#
# Static dielectric constant tensor:
#      x y z
#    x 3.941110 0.000000 0.000000 
#    y 0.000000 3.752850 0.000000 
#    z 0.000000 0.000000 3.633800 
# 
# 
# High freq. dielectric constant tensor:
#      x y z
#    x 1.808390 0.000000 0.000000 
#    y 0.000000 1.802830 0.000000 
#    z 0.000000 0.000000 1.814520 
# 
# From -- ./inp_files/1537.got.cif
#   From: 2010.03.12/outbox.cif.g09.slc.cpg/sg38_1_cif.got.tgz:1537.got - 2010.04.14 02:38:36.
