data_PCOD8179398
_publ_section_title
;
Structure prediction by ZEFSAII (Michael W. Deem and Ramdas Pophale) SiO2 
 PCOD8179398
Probable space group: A M M 2
;
_chemical_formula_sum "Si O2"
_cell_formula_units_Z 64
_cell_length_a 20.241753
_cell_length_b 8.992834
_cell_length_c 18.640513
_cell_angle_alpha 90.000000
_cell_angle_beta 90.000000
_cell_angle_gamma 90.000000
_cell_volume 3393.146088
_symmetry_space_group_name_H-M "A M M 2"
_symmetry_group_IT_number 38
_symmetry_cell_setting 'orthorhombic'
loop_
_space_group_symop_operation_xyz
x,y,z
-x,-y,z
-x,y,z
x,-y,z
x,1/2+y,1/2+z
-x,1/2-y,1/2+z
-x,1/2+y,1/2+z
x,1/2-y,1/2+z
loop_
_atom_site_type_symbol
_atom_site_label
_atom_site_fract_x
_atom_site_fract_y
_atom_site_fract_z
Si Si1 0.689953 0.323742 0.899210
Si Si2 0.423888 0.172389 0.814884
Si Si3 0.076598 0.826010 0.903852
Si Si4 0.816160 0.676165 0.809599
Si Si5 0.924566 0.170845 0.548819
Si Si6 0.813357 0.173724 0.658057
Si Si7 0.427300 0.177068 0.653187
Si Si8 0.692280 0.176486 0.560339
O O1 0.687188 0.500000 0.899020
O O2 0.621498 0.265342 0.867905
O O3 0.752423 0.266600 0.853564
O O4 0.697542 0.260566 0.979876
O O5 0.500000 0.199645 0.836207
O O6 0.410721 0.229378 0.733929
O O7 0.405249 0.000000 0.821905
O O8 0.117717 0.745792 0.842169
O O9 0.000000 0.786389 0.891009
O O10 0.089933 0.000000 0.899324
O O11 0.099363 0.769141 0.981912
O O12 0.822426 0.500000 0.812403
O O13 0.808335 0.728613 0.728577
O O14 0.882474 0.208749 0.619132
O O15 0.000000 0.205401 0.569239
O O16 0.913914 0.000000 0.525854
O O17 0.755852 0.227343 0.604841
O O18 0.806672 0.000000 0.677924
O O19 0.500000 0.235645 0.630290
O O20 0.373205 0.242732 0.598570
O O21 0.427193 0.000000 0.652379
O O22 0.688200 0.000000 0.558328
#
# Coordination Sequence:
#
# PCOD8179398 Si02
#       8
#     8   8   8   8   8   8   8   8
#     4  10  21  35  52  77 107 138 174 217 265 318
#     4   9  18  33  53  77 105 137 173 214 262 316
#     4  10  21  37  58  83 109 140 181 223 263 318
#     4  11  23  37  53  77 111 146 181 224 273 322
#     4   9  18  34  56  80 107 138 170 212 269 323
#     4  10  20  35  55  77 103 138 180 223 267 318
#     4   8  14  26  46  71  96 124 163 209 252 298
#     4   9  17  30  49  72  98 130 170 216 263 309
#
# _framework density 18.861550999999999
#
# number of rings (size 3 to 8) (size 9 to 14) (size 15 to 20)
#    0.000    2.500    0.000    3.000    0.000    6.500 
#    0.000    3.125    0.000    0.750    0.000    0.000 
#    0.000    0.000    0.000    0.000    0.000    0.000 
#
# Total GULP energy -396837.791746 kJ/mol
# GULP energy per Si atom -12401.180992 kJ/mol
# Density = 1.881862 g / cm^3
# Si number density = 18.861551 Si / 1000 Ang^3
#
#
#
# Elastic Constant Matrix: (Units=GPa)
#
#
# Indices 1 2 3 4 5 6 
#
# 1 117.1875 32.5547 79.5624 0.0000 0.0000 0.0000
# 2 32.5547 40.2454 36.6449 0.0000 0.0000 0.0000
# 3 79.5624 36.6449 150.3856 0.0000 0.0000 0.0000
# 4 0.0000 0.0000 0.0000 30.3429 0.0000 0.0000
# 5 0.0000 0.0000 0.0000 0.0000 39.9198 0.0000
# 6 0.0000 0.0000 0.0000 0.0000 0.0000 24.5182
#
#
#
# Elastic Compliance Matrix: (Units=1/GPa)
#
#
# Indices 1 2 3 4 5 6 
#
# 1 0.014377 -0.006045 -0.006133 0.000000 0.000000 0.000000
# 2 -0.006045 0.034474 -0.005202 0.000000 0.000000 0.000000
# 3 -0.006133 -0.005202 0.011162 0.000000 0.000000 0.000000
# 4 0.000000 0.000000 0.000000 0.032957 0.000000 0.000000
# 5 0.000000 0.000000 0.000000 0.000000 0.025050 0.000000
# 6 0.000000 0.000000 0.000000 0.000000 0.000000 0.040786
#
#
# Mechanical properties :
#
#
# Convention : Reuss Voigt Hill
#
# Bulk Modulus (GPa) = 39.60052 67.26027 53.43040
# Shear Modulus (GPa) = 24.75449 29.55994 27.15721
#
# Velocity S-wave (km/s) = 3.62668 3.96309 3.79861
# Velocity P-wave (km/s) = 6.21112 7.52854 6.90134
#
# Compressibility (1/GPa) = 0.02525220
#
# Stress axis : x y z
#
# Youngs Moduli (GPa) = 69.55788 29.00716 89.59018
#
# Poissons Ratio (x) = 0.17535 0.54946
# Poissons Ratio (y) = 0.42047 0.46608
# Poissons Ratio (z) = 0.42660 0.15090
#
# Static dielectric constant tensor:
#      x y z
#    x 3.701770 0.000000 0.000000 
#    y 0.000000 3.138090 0.000000 
#    z 0.000000 0.000000 3.538900 
# 
# 
# High freq. dielectric constant tensor:
#      x y z
#    x 1.747250 0.000000 0.000000 
#    y 0.000000 1.699970 0.000000 
#    z 0.000000 0.000000 1.736350 
# 
# From -- ./inp_files/15794.got.cif
#   From: 2010.03.12/outbox.cif.g09.slc.cpg/sg38_8_cif.got.tgz:15794.got - 2010.04.14 02:38:36.
