data_PCOD8179371
_publ_section_title
;
Structure prediction by ZEFSAII (Michael W. Deem and Ramdas Pophale) SiO2 
 PCOD8179371
Probable space group: A M M 2
;
_chemical_formula_sum "Si O2"
_cell_formula_units_Z 64
_cell_length_a 14.494048
_cell_length_b 26.746130
_cell_length_c 9.412076
_cell_angle_alpha 90.000000
_cell_angle_beta 90.000000
_cell_angle_gamma 90.000000
_cell_volume 3648.682484
_symmetry_space_group_name_H-M "A M M 2"
_symmetry_group_IT_number 38
_symmetry_cell_setting 'orthorhombic'
loop_
_space_group_symop_operation_xyz
x,y,z
-x,-y,z
-x,y,z
x,-y,z
x,1/2+y,1/2+z
-x,1/2-y,1/2+z
-x,1/2+y,1/2+z
x,1/2-y,1/2+z
loop_
_atom_site_type_symbol
_atom_site_label
_atom_site_fract_x
_atom_site_fract_y
_atom_site_fract_z
Si Si1 0.391574 0.895512 0.308490
Si Si2 0.107520 0.558409 0.152495
Si Si3 0.254910 0.557291 0.618283
Si Si4 0.729158 0.100454 0.813555
Si Si5 0.389906 0.696387 0.351381
Si Si6 0.608188 0.206826 0.179695
Si Si7 0.898694 0.059121 0.330085
Si Si8 0.396388 0.555964 0.095268
O O1 0.500000 0.899737 0.286219
O O2 0.348324 0.938133 0.208534
O O3 0.350941 0.841701 0.260538
O O4 0.364791 0.905644 0.472211
O O5 0.130472 0.500000 0.184260
O O6 0.167427 0.596277 0.249596
O O7 0.000000 0.568498 0.184212
O O8 0.132335 0.572246 0.990047
O O9 0.236703 0.500000 0.576699
O O10 0.264535 0.590172 0.479134
O O11 0.172469 0.580434 0.714429
O O12 0.675114 0.152462 0.791663
O O13 0.668775 0.059198 0.731779
O O14 0.500000 0.684189 0.334255
O O15 0.357492 0.743391 0.257742
O O16 0.364195 0.707555 0.514625
O O17 0.500000 0.203900 0.196999
O O18 0.000000 0.081848 0.298503
O O19 0.902761 0.000000 0.316218
O O20 0.500000 0.568378 0.144814
O O21 0.389628 0.500000 0.032907
#
# Coordination Sequence:
#
# PCOD8179371 Si02
#       8
#     8   8   8   8   8   8   8   8
#     4  10  20  35  52  72 101 138 181 222 258 311
#     4   9  18  34  55  78 108 147 186 221 259 312
#     4  11  21  31  48  75 108 143 173 210 265 322
#     4  12  22  33  50  79 113 143 174 225 269 324
#     4  10  21  37  56  78 105 139 181 229 281 328
#     4   9  19  36  56  76  99 131 177 231 277 315
#     4   8  16  33  54  73  97 134 179 221 258 302
#     4  10  21  34  48  70 105 150 190 215 251 316
#
# _framework density 17.540576999999999
#
# number of rings (size 3 to 8) (size 9 to 14) (size 15 to 20)
#    0.000    2.125    1.250    3.375    1.750    2.750 
#    0.000    1.250    0.000    0.000    0.000    1.750 
#    0.000    0.000    0.000    0.000    0.000    0.000 
#
# Total GULP energy -396670.829047 kJ/mol
# GULP energy per Si atom -12395.963408 kJ/mol
# Density = 1.750065 g / cm^3
# Si number density = 17.540577 Si / 1000 Ang^3
#
#
#
# Elastic Constant Matrix: (Units=GPa)
#
#
# Indices 1 2 3 4 5 6 
#
# 1 81.0213 33.1320 52.0909 0.0000 0.0000 0.0000
# 2 33.1320 65.7169 27.6323 0.0000 0.0000 0.0000
# 3 52.0909 27.6323 99.1210 0.0000 0.0000 0.0000
# 4 0.0000 0.0000 0.0000 29.8844 0.0000 0.0000
# 5 0.0000 0.0000 0.0000 0.0000 28.2595 0.0000
# 6 0.0000 0.0000 0.0000 0.0000 0.0000 17.9909
#
#
#
# Elastic Compliance Matrix: (Units=1/GPa)
#
#
# Indices 1 2 3 4 5 6 
#
# 1 0.020975 -0.006729 -0.009147 0.000000 0.000000 0.000000
# 2 -0.006729 0.019396 -0.001871 0.000000 0.000000 0.000000
# 3 -0.009147 -0.001871 0.015417 0.000000 0.000000 0.000000
# 4 0.000000 0.000000 0.000000 0.033462 0.000000 0.000000
# 5 0.000000 0.000000 0.000000 0.000000 0.035386 0.000000
# 6 0.000000 0.000000 0.000000 0.000000 0.000000 0.055584
#
#
# Mechanical properties :
#
#
# Convention : Reuss Voigt Hill
#
# Bulk Modulus (GPa) = 49.27420 52.39664 50.83542
# Shear Modulus (GPa) = 22.47407 24.09390 23.28399
#
# Velocity S-wave (km/s) = 3.58335 3.71024 3.64735
# Velocity P-wave (km/s) = 6.72853 6.94918 6.83974
#
# Compressibility (1/GPa) = 0.02029460
#
# Stress axis : x y z
#
# Youngs Moduli (GPa) = 47.67596 51.55761 64.86196
#
# Poissons Ratio (x) = 0.34691 0.59330
# Poissons Ratio (y) = 0.32079 0.12135
# Poissons Ratio (z) = 0.43610 0.09646
#
# Static dielectric constant tensor:
#      x y z
#    x 3.361990 0.000000 0.000000 
#    y 0.000000 3.168870 0.000000 
#    z 0.000000 0.000000 3.339840 
# 
# 
# High freq. dielectric constant tensor:
#      x y z
#    x 1.663310 0.000000 0.000000 
#    y 0.000000 1.648050 0.000000 
#    z 0.000000 0.000000 1.688630 
# 
# From -- ./inp_files/5890.got.cif
#   From: 2010.03.12/outbox.cif.g09.slc.cpg/sg38_3_cif.got.tgz:5890.got - 2010.04.14 02:38:36.
