data_PCOD8179270
_publ_section_title
;
Structure prediction by ZEFSAII (Michael W. Deem and Ramdas Pophale) SiO2 
 PCOD8179270
Probable space group: A M M 2
;
_chemical_formula_sum "Si O2"
_cell_formula_units_Z 64
_cell_length_a 23.899409
_cell_length_b 8.659660
_cell_length_c 15.557625
_cell_angle_alpha 90.000000
_cell_angle_beta 90.000000
_cell_angle_gamma 90.000000
_cell_volume 3219.817834
_symmetry_space_group_name_H-M "A M M 2"
_symmetry_group_IT_number 38
_symmetry_cell_setting 'orthorhombic'
loop_
_space_group_symop_operation_xyz
x,y,z
-x,-y,z
-x,y,z
x,-y,z
x,1/2+y,1/2+z
-x,1/2-y,1/2+z
-x,1/2+y,1/2+z
x,1/2-y,1/2+z
loop_
_atom_site_type_symbol
_atom_site_label
_atom_site_fract_x
_atom_site_fract_y
_atom_site_fract_z
Si Si1 0.127411 0.317962 0.893910
Si Si2 0.935518 0.319791 0.232688
Si Si3 0.323859 0.316190 0.065009
Si Si4 0.253415 0.681587 0.906925
Si Si5 0.438588 0.175379 0.823651
Si Si6 0.560401 0.819158 0.503214
Si Si7 0.678697 0.821857 0.754291
Si Si8 0.934466 0.178920 0.053350
O O1 0.124636 0.500000 0.877420
O O2 0.099253 0.231850 0.814682
O O3 0.190673 0.253971 0.899657
O O4 0.096896 0.279654 0.982643
O O5 0.926541 0.500000 0.216280
O O6 0.914239 0.230288 0.147987
O O7 0.000000 0.279951 0.251571
O O8 0.327017 0.500000 0.055798
O O9 0.386658 0.246937 0.053361
O O10 0.301323 0.270188 0.159218
O O11 0.282897 0.246630 0.991957
O O12 0.250832 0.500000 0.917233
O O13 0.288600 0.720436 0.822616
O O14 0.500000 0.202598 0.779965
O O15 0.388402 0.206551 0.756957
O O16 0.434735 0.000000 0.858342
O O17 0.430284 0.290513 0.902499
O O18 0.500000 0.747367 0.532337
O O19 0.558516 0.000000 0.519621
O O20 0.693259 0.000000 0.771952
O O21 0.000000 0.212077 0.043095
O O22 0.920128 0.000000 0.039606
#
# Coordination Sequence:
#
# PCOD8179270 Si02
#       8
#     8   8   8   8   8   8   8   8
#     4  11  23  37  57  84 115 155 198 239 288 339
#     4  10  21  38  61  89 120 153 189 233 286 339
#     4   9  18  34  54  75 103 136 174 223 272 322
#     4  10  22  40  56  75 108 145 183 231 278 318
#     4   9  17  29  47  74 107 135 164 214 276 331
#     4   9  16  28  51  77  99 132 175 215 263 327
#     4  10  20  34  55  79 102 138 183 224 275 332
#     4  10  21  38  61  90 123 155 188 230 280 337
#
# _framework density 19.876902000000001
#
# number of rings (size 3 to 8) (size 9 to 14) (size 15 to 20)
#    0.000    2.250    1.250    1.500    0.000    5.500 
#    0.000    5.000    0.000    0.000    0.000    3.500 
#    0.000    0.000    0.000    0.000    0.000    0.000 
#
# Total GULP energy -396693.866858 kJ/mol
# GULP energy per Si atom -12396.683339 kJ/mol
# Density = 1.983166 g / cm^3
# Si number density = 19.876902 Si / 1000 Ang^3
#
#
#
# Elastic Constant Matrix: (Units=GPa)
#
#
# Indices 1 2 3 4 5 6 
#
# 1 107.0572 17.0754 56.3278 0.0000 0.0000 0.0000
# 2 17.0754 18.9025 0.8777 0.0000 0.0000 0.0000
# 3 56.3278 0.8777 117.4205 0.0000 0.0000 0.0000
# 4 0.0000 0.0000 0.0000 31.1565 0.0000 0.0000
# 5 0.0000 0.0000 0.0000 0.0000 -18.7747 0.0000
# 6 0.0000 0.0000 0.0000 0.0000 0.0000 20.7839
#
#
#
# Elastic Compliance Matrix: (Units=1/GPa)
#
#
# Indices 1 2 3 4 5 6 
#
# 1 0.015300 -0.013485 -0.007239 0.000000 0.000000 0.000000
# 2 -0.013485 0.064807 0.005985 0.000000 0.000000 0.000000
# 3 -0.007239 0.005985 0.011944 0.000000 0.000000 0.000000
# 4 0.000000 0.000000 0.000000 0.032096 0.000000 0.000000
# 5 0.000000 0.000000 0.000000 0.000000 -0.053263 0.000000
# 6 0.000000 0.000000 0.000000 0.000000 0.000000 0.048114
#
#
# Mechanical properties :
#
#
# Convention : Reuss Voigt Hill
#
# Bulk Modulus (GPa) = 15.98152 43.54914 29.76533
# Shear Modulus (GPa) = 29.52713 17.90642 23.71678
#
# Velocity S-wave (km/s) = 3.85840 3.00470 3.45800
# Velocity P-wave (km/s) = 5.28274 5.83049 5.56336
#
# Compressibility (1/GPa) = 0.06257227
#
# Stress axis : x y z
#
# Youngs Moduli (GPa) = 65.35751 15.43043 83.72214
#
# Poissons Ratio (x) = 0.20809 0.60606
# Poissons Ratio (y) = 0.88137 -0.50105
# Poissons Ratio (z) = 0.47312 -0.09235
#
# Static dielectric constant tensor:
#      x y z
#    x 3.942390 0.000000 0.000000 
#    y 0.000000 3.390080 0.000000 
#    z 0.000000 0.000000 3.571390 
# 
# 
# High freq. dielectric constant tensor:
#      x y z
#    x 1.780540 0.000000 0.000000 
#    y 0.000000 1.752060 0.000000 
#    z 0.000000 0.000000 1.774030 
# 
# From -- ./inp_files/15853.got.cif
#   From: 2010.03.12/outbox.cif.g09.slc.cpg/sg38_8_cif.got.tgz:15853.got - 2010.04.14 02:38:36.
