data_PCOD8179655
_publ_section_title
;
Structure prediction by ZEFSAII (Michael W. Deem and Ramdas Pophale) SiO2 
 PCOD8179655
Probable space group: A M M 2
;
_chemical_formula_sum "Si O2"
_cell_formula_units_Z 56
_cell_length_a 14.253341
_cell_length_b 14.167023
_cell_length_c 14.573687
_cell_angle_alpha 90.000000
_cell_angle_beta 90.000000
_cell_angle_gamma 90.000000
_cell_volume 2942.826867
_symmetry_space_group_name_H-M "A M M 2"
_symmetry_group_IT_number 38
_symmetry_cell_setting 'orthorhombic'
loop_
_space_group_symop_operation_xyz
x,y,z
-x,-y,z
-x,y,z
x,-y,z
x,1/2+y,1/2+z
-x,1/2-y,1/2+z
-x,1/2+y,1/2+z
x,1/2-y,1/2+z
loop_
_atom_site_type_symbol
_atom_site_label
_atom_site_fract_x
_atom_site_fract_y
_atom_site_fract_z
Si Si1 0.889329 0.890721 0.455720
Si Si2 0.676727 0.394821 0.554712
Si Si3 0.604198 0.391195 0.162778
Si Si4 0.782039 0.223816 0.605624
Si Si5 0.217961 0.223816 0.305816
Si Si6 0.676727 0.105179 0.856728
Si Si7 0.604198 0.891195 0.248662
O O1 0.852390 0.840813 0.548056
O O2 0.852390 0.840813 0.363384
O O3 0.000000 0.881298 0.455720
O O4 0.857627 0.000000 0.455720
O O5 0.719082 0.500000 0.566564
O O6 0.764169 0.322624 0.554585
O O7 0.624430 0.386351 0.455720
O O8 0.606824 0.373345 0.638743
O O9 0.500000 0.361828 0.129312
O O10 0.623902 0.500000 0.138915
O O11 0.681815 0.329131 0.112371
O O12 0.606824 0.373345 0.272697
O O13 0.824295 0.250000 0.705720
O O14 0.235831 0.322624 0.356855
O O15 0.318185 0.170869 0.299069
O O16 0.719082 0.000000 0.844876
O O17 0.500000 0.861828 0.282128
O O18 0.623902 0.000000 0.272524
#
# Coordination Sequence:
#
# PCOD8179655 Si02
#       7
#     8   8   8   8   8   8   8
#     4  11  24  42  64  90 116 145 190 246 300 352
#     4   9  17  30  50  76 108 148 189 228 271 325
#     4   9  18  32  51  79 115 152 190 232 278 333
#     4  10  20  36  61  84 114 152 192 232 288 344
#     4  10  20  36  61  84 114 152 192 232 288 344
#     4   9  17  30  50  76 108 148 189 228 271 325
#     4   9  18  32  51  79 115 152 190 232 278 333
#
# _framework density 19.029323000000002
#
# number of rings (size 3 to 8) (size 9 to 14) (size 15 to 20)
#    0.000    2.429    1.429    0.857    0.000    7.429 
#    0.000    3.571    0.000    4.286    0.000    0.000 
#    0.000    0.000    0.000    0.000    0.000    0.000 
#
# Total GULP energy -346944.779557 kJ/mol
# GULP energy per Si atom -12390.884984 kJ/mol
# Density = 1.898601 g / cm^3
# Si number density = 19.029323 Si / 1000 Ang^3
#
#
#
# Elastic Constant Matrix: (Units=GPa)
#
#
# Indices 1 2 3 4 5 6 
#
# 1 77.0326 48.9391 39.1626 0.0000 0.0000 0.0000
# 2 48.9391 113.3192 35.3099 0.0000 0.0000 0.0000
# 3 39.1626 35.3099 92.6611 0.0000 0.0000 0.0000
# 4 0.0000 0.0000 0.0000 27.4270 0.0000 0.0000
# 5 0.0000 0.0000 0.0000 0.0000 19.6733 0.0000
# 6 0.0000 0.0000 0.0000 0.0000 0.0000 24.0580
#
#
#
# Elastic Compliance Matrix: (Units=1/GPa)
#
#
# Indices 1 2 3 4 5 6 
#
# 1 0.020452 -0.006966 -0.005989 0.000000 0.000000 0.000000
# 2 -0.006966 0.012387 -0.001776 0.000000 0.000000 0.000000
# 3 -0.005989 -0.001776 0.014000 0.000000 0.000000 0.000000
# 4 0.000000 0.000000 0.000000 0.036460 0.000000 0.000000
# 5 0.000000 0.000000 0.000000 0.000000 0.050830 0.000000
# 6 0.000000 0.000000 0.000000 0.000000 0.000000 0.041566
#
#
# Mechanical properties :
#
#
# Convention : Reuss Voigt Hill
#
# Bulk Modulus (GPa) = 57.55143 58.87068 58.21105
# Shear Modulus (GPa) = 23.70219 24.87173 24.28696
#
# Velocity S-wave (km/s) = 3.53308 3.61920 3.57640
# Velocity P-wave (km/s) = 6.85221 6.96195 6.90730
#
# Compressibility (1/GPa) = 0.01737576
#
# Stress axis : x y z
#
# Youngs Moduli (GPa) = 48.89440 80.73268 71.42839
#
# Poissons Ratio (x) = 0.56242 0.42781
# Poissons Ratio (y) = 0.34062 0.12684
# Poissons Ratio (z) = 0.29284 0.14336
#
# Static dielectric constant tensor:
#      x y z
#    x 3.000980 0.000000 0.000000 
#    y 0.000000 3.912610 0.000000 
#    z 0.000000 0.000000 3.569600 
# 
# 
# High freq. dielectric constant tensor:
#      x y z
#    x 1.683550 0.000000 0.000000 
#    y 0.000000 1.768280 0.000000 
#    z 0.000000 0.000000 1.742570 
# 
# From -- ./inp_files/14645.got.cif
#   From: 2010.03.12/outbox.cif.g09.slc.cpg/sg38_8_cif.got.tgz:14645.got - 2010.04.14 02:38:36.
