data_PCOD8179483
_publ_section_title
;
Structure prediction by ZEFSAII (Michael W. Deem and Ramdas Pophale) SiO2 
 PCOD8179483
Probable space group: A M M 2
;
_chemical_formula_sum "Si O2"
_cell_formula_units_Z 64
_cell_length_a 18.866840
_cell_length_b 20.364004
_cell_length_c 8.644492
_cell_angle_alpha 90.000000
_cell_angle_beta 90.000000
_cell_angle_gamma 90.000000
_cell_volume 3321.251907
_symmetry_space_group_name_H-M "A M M 2"
_symmetry_group_IT_number 38
_symmetry_cell_setting 'orthorhombic'
loop_
_space_group_symop_operation_xyz
x,y,z
-x,-y,z
-x,y,z
x,-y,z
x,1/2+y,1/2+z
-x,1/2-y,1/2+z
-x,1/2+y,1/2+z
x,1/2-y,1/2+z
loop_
_atom_site_type_symbol
_atom_site_label
_atom_site_fract_x
_atom_site_fract_y
_atom_site_fract_z
Si Si1 0.723754 0.687609 0.146010
Si Si2 0.920501 0.843058 0.837370
Si Si3 0.420900 0.285458 0.044418
Si Si4 0.079520 0.287257 0.999569
Si Si5 0.421501 0.344263 0.707564
Si Si6 0.212974 0.926135 0.829399
Si Si7 0.215240 0.811581 0.322738
Si Si8 0.285810 0.925631 0.150712
O O1 0.638198 0.685850 0.163714
O O2 0.754886 0.618050 0.194911
O O3 0.767299 0.747249 0.222250
O O4 0.732524 0.696845 0.964781
O O5 0.913938 0.791521 0.978812
O O6 0.902043 0.806062 0.675718
O O7 0.865882 0.901302 0.872430
O O8 0.000000 0.872379 0.829858
O O9 0.500000 0.308720 0.096520
O O10 0.415101 0.206503 0.064392
O O11 0.406503 0.305384 0.867257
O O12 0.134230 0.319298 0.879297
O O13 0.000000 0.310377 0.954795
O O14 0.500000 0.375898 0.711586
O O15 0.365881 0.402398 0.681283
O O16 0.205908 0.000000 0.766812
O O17 0.267284 0.922271 0.970595
O O18 0.230007 0.878889 0.234597
O O19 0.277919 0.000000 0.213014
#
# Coordination Sequence:
#
# PCOD8179483 Si02
#       8
#     8   8   8   8   8   8   8   8
#     4  12  21  36  62  90 117 154 196 247 300 354
#     4  10  21  38  60  88 119 153 193 244 302 355
#     4  10  20  35  57  91 121 149 193 243 298 355
#     4  10  20  35  57  91 121 149 193 243 298 355
#     4  10  21  38  60  88 119 153 193 244 302 355
#     4  11  25  41  58  84 119 160 206 247 295 357
#     4  12  21  36  62  90 117 154 196 247 300 354
#     4  11  25  41  58  84 119 160 206 247 295 357
#
# _framework density 19.269843000000002
#
# number of rings (size 3 to 8) (size 9 to 14) (size 15 to 20)
#    0.000    1.250    5.000    0.750    3.500    1.000 
#    0.000    0.000    0.000    2.250    0.000    0.000 
#    0.000    0.000    0.000    0.000    0.000    0.000 
#
# Total GULP energy -396630.196699 kJ/mol
# GULP energy per Si atom -12394.693647 kJ/mol
# Density = 1.922598 g / cm^3
# Si number density = 19.269843 Si / 1000 Ang^3
#
#
#
# Elastic Constant Matrix: (Units=GPa)
#
#
# Indices 1 2 3 4 5 6 
#
# 1 132.3866 47.2559 12.2922 0.0000 0.0000 0.0000
# 2 47.2559 124.9802 28.2054 0.0000 0.0000 0.0000
# 3 12.2922 28.2054 40.3989 0.0000 0.0000 0.0000
# 4 0.0000 0.0000 0.0000 24.0399 0.0000 0.0000
# 5 0.0000 0.0000 0.0000 0.0000 31.0662 0.0000
# 6 0.0000 0.0000 0.0000 0.0000 0.0000 19.0097
#
#
#
# Elastic Compliance Matrix: (Units=1/GPa)
#
#
# Indices 1 2 3 4 5 6 
#
# 1 0.008738 -0.003210 -0.000418 0.000000 0.000000 0.000000
# 2 -0.003210 0.010677 -0.006478 0.000000 0.000000 0.000000
# 3 -0.000418 -0.006478 0.029403 0.000000 0.000000 0.000000
# 4 0.000000 0.000000 0.000000 0.041597 0.000000 0.000000
# 5 0.000000 0.000000 0.000000 0.000000 0.032189 0.000000
# 6 0.000000 0.000000 0.000000 0.000000 0.000000 0.052605
#
#
# Mechanical properties :
#
#
# Convention : Reuss Voigt Hill
#
# Bulk Modulus (GPa) = 34.95600 52.58587 43.77093
# Shear Modulus (GPa) = 24.39559 28.82398 26.60979
#
# Velocity S-wave (km/s) = 3.56195 3.87176 3.72008
# Velocity P-wave (km/s) = 5.92421 6.88011 6.41997
#
# Compressibility (1/GPa) = 0.02860739
#
# Stress axis : x y z
#
# Youngs Moduli (GPa) = 114.44097 93.66184 34.01042
#
# Poissons Ratio (x) = 0.30062 0.01421
# Poissons Ratio (y) = 0.36731 0.22031
# Poissons Ratio (z) = 0.04782 0.60670
#
# Static dielectric constant tensor:
#      x y z
#    x 3.910300 0.000000 0.000000 
#    y 0.000000 3.296960 0.000000 
#    z 0.000000 0.000000 3.493020 
# 
# 
# High freq. dielectric constant tensor:
#      x y z
#    x 1.778830 0.000000 0.000000 
#    y 0.000000 1.712810 0.000000 
#    z 0.000000 0.000000 1.747310 
# 
# From -- ./inp_files/6835.got.cif
#   From: 2010.03.12/outbox.cif.g09.slc.cpg/sg38_4_cif.got.tgz:6835.got - 2010.04.14 02:38:36.
