data_PCOD8179479
_publ_section_title
;
Structure prediction by ZEFSAII (Michael W. Deem and Ramdas Pophale) SiO2 
 PCOD8179479
Probable space group: A M M 2
;
_chemical_formula_sum "Si O2"
_cell_formula_units_Z 64
_cell_length_a 23.870694
_cell_length_b 8.886092
_cell_length_c 15.400259
_cell_angle_alpha 90.000000
_cell_angle_beta 90.000000
_cell_angle_gamma 90.000000
_cell_volume 3266.659556
_symmetry_space_group_name_H-M "A M M 2"
_symmetry_group_IT_number 38
_symmetry_cell_setting 'orthorhombic'
loop_
_space_group_symop_operation_xyz
x,y,z
-x,-y,z
-x,y,z
x,-y,z
x,1/2+y,1/2+z
-x,1/2-y,1/2+z
-x,1/2+y,1/2+z
x,1/2-y,1/2+z
loop_
_atom_site_type_symbol
_atom_site_label
_atom_site_fract_x
_atom_site_fract_y
_atom_site_fract_z
Si Si1 0.254750 0.175238 0.987660
Si Si2 0.745917 0.174863 0.785081
Si Si3 0.062765 0.822065 0.379381
Si Si4 0.437058 0.679015 0.885843
Si Si5 0.868907 0.327121 0.230726
Si Si6 0.141569 0.825374 0.534758
Si Si7 0.364752 0.677965 0.724519
Si Si8 0.366249 0.678174 0.048531
O O1 0.254026 0.212974 0.886312
O O2 0.264915 0.000000 0.005737
O O3 0.196607 0.224716 0.029498
O O4 0.303013 0.270157 0.033095
O O5 0.805119 0.225603 0.745478
O O6 0.699213 0.273102 0.737727
O O7 0.733591 0.000000 0.766861
O O8 0.089476 0.768429 0.289477
O O9 0.097794 0.765926 0.462871
O O10 0.000000 0.756288 0.387073
O O11 0.061320 0.000000 0.378090
O O12 0.500000 0.744201 0.883426
O O13 0.437861 0.500000 0.885396
O O14 0.402997 0.739563 0.802946
O O15 0.406163 0.738615 0.971880
O O16 0.874861 0.500000 0.259319
O O17 0.885433 0.303521 0.130058
O O18 0.157395 0.000000 0.519277
O O19 0.367600 0.500000 0.717142
O O20 0.389401 0.750638 0.637209
O O21 0.367753 0.500000 0.055372
#
# Coordination Sequence:
#
# PCOD8179479 Si02
#       8
#     8   8   8   8   8   8   8   8
#     4  11  21  35  59  89 120 150 188 237 286 341
#     4  10  20  35  57  86 121 151 185 236 288 342
#     4  10  22  39  57  81 114 151 192 237 282 333
#     4   9  20  39  60  82 113 154 197 239 285 341
#     4  10  21  38  59  85 112 147 189 232 283 337
#     4  10  21  37  60  86 116 152 189 230 283 346
#     4  11  22  37  60  89 117 151 193 236 288 344
#     4  11  22  38  60  86 117 154 193 234 287 346
#
# _framework density 19.59188
#
# number of rings (size 3 to 8) (size 9 to 14) (size 15 to 20)
#    0.000    1.750    2.500    1.875    0.000    3.750 
#    0.000    1.250    0.000    5.250    0.000    0.000 
#    0.000    0.000    0.000    0.000    0.000    0.000 
#
# Total GULP energy -396942.331904 kJ/mol
# GULP energy per Si atom -12404.447872 kJ/mol
# Density = 1.954729 g / cm^3
# Si number density = 19.591880 Si / 1000 Ang^3
#
#
#
# Elastic Constant Matrix: (Units=GPa)
#
#
# Indices 1 2 3 4 5 6 
#
# 1 135.5473 23.9161 60.7629 0.0000 0.0000 0.0000
# 2 23.9161 45.4553 33.4415 0.0000 0.0000 0.0000
# 3 60.7629 33.4415 149.7522 0.0000 0.0000 0.0000
# 4 0.0000 0.0000 0.0000 32.5518 0.0000 0.0000
# 5 0.0000 0.0000 0.0000 0.0000 13.2622 0.0000
# 6 0.0000 0.0000 0.0000 0.0000 0.0000 7.4555
#
#
#
# Elastic Compliance Matrix: (Units=1/GPa)
#
#
# Indices 1 2 3 4 5 6 
#
# 1 0.009253 -0.002520 -0.003192 0.000000 0.000000 0.000000
# 2 -0.002520 0.027011 -0.005009 0.000000 0.000000 0.000000
# 3 -0.003192 -0.005009 0.009091 0.000000 0.000000 0.000000
# 4 0.000000 0.000000 0.000000 0.030720 0.000000 0.000000
# 5 0.000000 0.000000 0.000000 0.000000 0.075403 0.000000
# 6 0.000000 0.000000 0.000000 0.000000 0.000000 0.134130
#
#
# Mechanical properties :
#
#
# Convention : Reuss Voigt Hill
#
# Bulk Modulus (GPa) = 41.81841 62.99955 52.40898
# Shear Modulus (GPa) = 15.87195 24.82950 20.35073
#
# Velocity S-wave (km/s) = 2.84936 3.56383 3.22643
# Velocity P-wave (km/s) = 5.67594 7.01144 6.37874
#
# Compressibility (1/GPa) = 0.02391291
#
# Stress axis : x y z
#
# Youngs Moduli (GPa) = 108.07406 37.02194 109.99465
#
# Poissons Ratio (x) = 0.09331 0.35106
# Poissons Ratio (y) = 0.27238 0.55099
# Poissons Ratio (z) = 0.34493 0.18545
#
# Static dielectric constant tensor:
#      x y z
#    x 3.634300 0.000000 0.000000 
#    y 0.000000 3.371720 0.000000 
#    z 0.000000 0.000000 3.821020 
# 
# 
# High freq. dielectric constant tensor:
#      x y z
#    x 1.758330 0.000000 0.000000 
#    y 0.000000 1.746380 0.000000 
#    z 0.000000 0.000000 1.781630 
# 
# From -- ./inp_files/15780.got.cif
#   From: 2010.03.12/outbox.cif.g09.slc.cpg/sg38_8_cif.got.tgz:15780.got - 2010.04.14 02:38:36.
