data_PCOD8179015
_publ_section_title
;
Structure prediction by ZEFSAII (Michael W. Deem and Ramdas Pophale) SiO2 
 PCOD8179015
Probable space group: A M M 2
;
_chemical_formula_sum "Si O2"
_cell_formula_units_Z 64
_cell_length_a 20.153544
_cell_length_b 9.078831
_cell_length_c 18.622078
_cell_angle_alpha 90.000000
_cell_angle_beta 90.000000
_cell_angle_gamma 90.000000
_cell_volume 3407.293158
_symmetry_space_group_name_H-M "A M M 2"
_symmetry_group_IT_number 38
_symmetry_cell_setting 'orthorhombic'
loop_
_space_group_symop_operation_xyz
x,y,z
-x,-y,z
-x,y,z
x,-y,z
x,1/2+y,1/2+z
-x,1/2-y,1/2+z
-x,1/2+y,1/2+z
x,1/2-y,1/2+z
loop_
_atom_site_type_symbol
_atom_site_label
_atom_site_fract_x
_atom_site_fract_y
_atom_site_fract_z
Si Si1 0.926841 0.824563 0.001640
Si Si2 0.805386 0.175156 0.093562
Si Si3 0.422389 0.170248 0.597672
Si Si4 0.923444 0.169502 0.840072
Si Si5 0.424068 0.169691 0.241931
Si Si6 0.812328 0.826248 0.254820
Si Si7 0.311358 0.672095 0.851786
Si Si8 0.319971 0.174805 0.002184
O O1 0.871559 0.760360 0.055465
O O2 0.000000 0.767187 0.025131
O O3 0.927026 0.000000 0.001868
O O4 0.910717 0.771477 0.920802
O O5 0.801643 0.236017 0.174465
O O6 0.741184 0.230691 0.050602
O O7 0.807799 0.000000 0.092318
O O8 0.500000 0.195249 0.585733
O O9 0.400238 0.234429 0.674472
O O10 0.386817 0.255267 0.533294
O O11 0.402588 0.000000 0.595139
O O12 0.880274 0.263014 0.785331
O O13 0.000000 0.190511 0.818753
O O14 0.902066 0.000000 0.834048
O O15 0.500000 0.204356 0.263035
O O16 0.379447 0.208789 0.310351
O O17 0.414277 0.000000 0.219476
O O18 0.749890 0.778054 0.302418
O O19 0.819278 0.000000 0.252324
O O20 0.307445 0.500000 0.871984
O O21 0.308433 0.770512 0.921999
O O22 0.326572 0.000000 0.002162
#
# Coordination Sequence:
#
# PCOD8179015 Si02
#       8
#     8   8   8   8   8   8   8   8
#     4   8  14  27  49  74  99 130 168 208 249 297
#     4   9  18  32  50  75 104 132 168 215 262 306
#     4  10  21  37  57  81 110 141 173 215 267 321
#     4   9  18  33  52  74 102 135 171 214 263 314
#     4   9  18  35  59  82 106 140 178 215 259 313
#     4  10  20  33  51  75 104 137 172 215 265 316
#     4  10  21  36  52  76 112 146 178 221 271 317
#     4  11  22  36  56  79 105 140 182 225 266 316
#
# _framework density 18.783238999999998
#
# number of rings (size 3 to 8) (size 9 to 14) (size 15 to 20)
#    0.000    2.500    0.000    3.000    0.000    6.000 
#    0.000    5.000    0.000    0.750    0.000    0.000 
#    0.000    0.000    0.000    0.000    0.000    0.000 
#
# Total GULP energy -396849.226337 kJ/mol
# GULP energy per Si atom -12401.538323 kJ/mol
# Density = 1.874049 g / cm^3
# Si number density = 18.783239 Si / 1000 Ang^3
#
#
#
# Elastic Constant Matrix: (Units=GPa)
#
#
# Indices 1 2 3 4 5 6 
#
# 1 105.0904 39.7998 77.3013 0.0000 0.0000 0.0000
# 2 39.7998 50.5682 51.0319 0.0000 0.0000 0.0000
# 3 77.3013 51.0319 155.3369 0.0000 0.0000 0.0000
# 4 0.0000 0.0000 0.0000 30.6715 0.0000 0.0000
# 5 0.0000 0.0000 0.0000 0.0000 38.9136 0.0000
# 6 0.0000 0.0000 0.0000 0.0000 0.0000 24.0017
#
#
#
# Elastic Compliance Matrix: (Units=1/GPa)
#
#
# Indices 1 2 3 4 5 6 
#
# 1 0.016533 -0.007045 -0.005913 0.000000 0.000000 0.000000
# 2 -0.007045 0.032585 -0.007199 0.000000 0.000000 0.000000
# 3 -0.005913 -0.007199 0.011745 0.000000 0.000000 0.000000
# 4 0.000000 0.000000 0.000000 0.032604 0.000000 0.000000
# 5 0.000000 0.000000 0.000000 0.000000 0.025698 0.000000
# 6 0.000000 0.000000 0.000000 0.000000 0.000000 0.041664
#
#
# Mechanical properties :
#
#
# Convention : Reuss Voigt Hill
#
# Bulk Modulus (GPa) = 48.66398 71.91793 60.29096
# Shear Modulus (GPa) = 24.03922 28.24152 26.14037
#
# Velocity S-wave (km/s) = 3.58134 3.88177 3.73458
# Velocity P-wave (km/s) = 6.56245 7.64607 7.12489
#
# Compressibility (1/GPa) = 0.02054908
#
# Stress axis : x y z
#
# Youngs Moduli (GPa) = 60.48434 30.68861 85.14120
#
# Poissons Ratio (x) = 0.21621 0.50344
# Poissons Ratio (y) = 0.42613 0.61294
# Poissons Ratio (z) = 0.35764 0.22093
#
# Static dielectric constant tensor:
#      x y z
#    x 3.654370 0.000000 0.000000 
#    y 0.000000 3.156240 0.000000 
#    z 0.000000 0.000000 3.504480 
# 
# 
# High freq. dielectric constant tensor:
#      x y z
#    x 1.742750 0.000000 0.000000 
#    y 0.000000 1.699410 0.000000 
#    z 0.000000 0.000000 1.732870 
# 
# From -- ./inp_files/18866.got.cif
#   From: 2010.03.12/outbox.cif.g09.slc.cpg/sg38_10_cif.got.tgz:18866.got - 2010.04.14 02:38:36.
