data_PCOD8179184
_publ_section_title
;
Structure prediction by ZEFSAII (Michael W. Deem and Ramdas Pophale) SiO2 
 PCOD8179184
Probable space group: A M M 2
;
_chemical_formula_sum "Si O2"
_cell_formula_units_Z 64
_cell_length_a 24.421212
_cell_length_b 9.063335
_cell_length_c 15.115689
_cell_angle_alpha 90.000000
_cell_angle_beta 90.000000
_cell_angle_gamma 90.000000
_cell_volume 3345.670710
_symmetry_space_group_name_H-M "A M M 2"
_symmetry_group_IT_number 38
_symmetry_cell_setting 'orthorhombic'
loop_
_space_group_symop_operation_xyz
x,y,z
-x,-y,z
-x,y,z
x,-y,z
x,1/2+y,1/2+z
-x,1/2-y,1/2+z
-x,1/2+y,1/2+z
x,1/2-y,1/2+z
loop_
_atom_site_type_symbol
_atom_site_label
_atom_site_fract_x
_atom_site_fract_y
_atom_site_fract_z
Si Si1 0.936237 0.329618 0.976650
Si Si2 0.865506 0.174777 0.832755
Si Si3 0.060332 0.325212 0.175896
Si Si4 0.750555 0.328502 0.825719
Si Si5 0.442404 0.164410 0.181746
Si Si6 0.559863 0.835417 0.971845
Si Si7 0.666946 0.827943 0.481597
Si Si8 0.674213 0.676279 0.666568
O O1 0.920479 0.500000 0.960635
O O2 0.899549 0.225384 0.917122
O O3 0.000000 0.303639 0.955621
O O4 0.922580 0.280897 0.076841
O O5 0.895392 0.237796 0.744838
O O6 0.804743 0.235048 0.837023
O O7 0.863040 0.000000 0.831999
O O8 0.057048 0.500000 0.182776
O O9 0.000000 0.260080 0.198381
O O10 0.765739 0.500000 0.822498
O O11 0.721659 0.279102 0.734408
O O12 0.712125 0.292859 0.908427
O O13 0.500000 0.245841 0.211510
O O14 0.441028 0.158144 0.076661
O O15 0.384020 0.237149 0.208395
O O16 0.444805 0.000000 0.221198
O O17 0.500000 0.778968 0.937452
O O18 0.608740 0.727452 0.942193
O O19 0.571012 0.000000 0.934553
O O20 0.685984 0.747518 0.571395
O O21 0.661697 0.000000 0.501700
O O22 0.669983 0.500000 0.654455
#
# Coordination Sequence:
#
# PCOD8179184 Si02
#       8
#     8   8   8   8   8   8   8   8
#     4   9  18  35  59  84 112 146 176 204 252 318
#     4  11  22  35  55  81 108 140 180 226 266 300
#     4   8  16  33  56  81 109 139 169 205 256 314
#     4  10  23  40  53  71 105 145 184 222 263 317
#     4   7  10  20  43  72  94 116 155 203 249 302
#     4   8  14  27  49  75 102 134 170 208 258 323
#     4  10  20  34  53  77 105 136 171 220 275 318
#     4   9  18  35  56  74  98 137 179 217 261 318
#
# _framework density 19.129199
#
# number of rings (size 3 to 8) (size 9 to 14) (size 15 to 20)
#    0.000    3.000    0.000    3.375    0.000    3.500 
#    0.000    5.625    0.000    3.750    0.000    0.000 
#    0.000    0.000    0.000    0.000    0.000    0.000 
#
# Total GULP energy -396483.867173 kJ/mol
# GULP energy per Si atom -12390.120849 kJ/mol
# Density = 1.908566 g / cm^3
# Si number density = 19.129199 Si / 1000 Ang^3
#
#
#
# Elastic Constant Matrix: (Units=GPa)
#
#
# Indices 1 2 3 4 5 6 
#
# 1 149.8703 57.1291 73.3689 0.0000 0.0000 0.0000
# 2 57.1291 57.7545 43.8684 0.0000 0.0000 0.0000
# 3 73.3689 43.8684 100.6673 0.0000 0.0000 0.0000
# 4 0.0000 0.0000 0.0000 23.6152 0.0000 0.0000
# 5 0.0000 0.0000 0.0000 0.0000 -18.9079 0.0000
# 6 0.0000 0.0000 0.0000 0.0000 0.0000 21.4200
#
#
#
# Elastic Compliance Matrix: (Units=1/GPa)
#
#
# Indices 1 2 3 4 5 6 
#
# 1 0.012497 -0.008137 -0.005562 0.000000 0.000000 0.000000
# 2 -0.008137 0.031179 -0.007657 0.000000 0.000000 0.000000
# 3 -0.005562 -0.007657 0.017324 0.000000 0.000000 0.000000
# 4 0.000000 0.000000 0.000000 0.042346 0.000000 0.000000
# 5 0.000000 0.000000 0.000000 0.000000 -0.052888 0.000000
# 6 0.000000 0.000000 0.000000 0.000000 0.000000 0.046685
#
#
# Mechanical properties :
#
#
# Convention : Reuss Voigt Hill
#
# Bulk Modulus (GPa) = 54.67863 73.00276 63.84069
# Shear Modulus (GPa) = 34.25771 14.15383 24.20577
#
# Velocity S-wave (km/s) = 4.23645 2.72307 3.56108
# Velocity P-wave (km/s) = 7.25092 6.93777 7.09608
#
# Compressibility (1/GPa) = 0.01828868
#
# Stress axis : x y z
#
# Youngs Moduli (GPa) = 80.01772 32.07255 57.72189
#
# Poissons Ratio (x) = 0.26097 0.32108
# Poissons Ratio (y) = 0.65109 0.44197
# Poissons Ratio (z) = 0.44510 0.24557
#
# Static dielectric constant tensor:
#      x y z
#    x 3.645730 0.000000 0.000000 
#    y 0.000000 3.201270 0.000000 
#    z 0.000000 0.000000 3.420280 
# 
# 
# High freq. dielectric constant tensor:
#      x y z
#    x 1.756080 0.000000 0.000000 
#    y 0.000000 1.711540 0.000000 
#    z 0.000000 0.000000 1.733860 
# 
# From -- ./inp_files/15890.got.cif
#   From: 2010.03.12/outbox.cif.g09.slc.cpg/sg38_8_cif.got.tgz:15890.got - 2010.04.14 02:38:36.
