data_PCOD8179283
_publ_section_title
;
Structure prediction by ZEFSAII (Michael W. Deem and Ramdas Pophale) SiO2 
 PCOD8179283
Probable space group: A M M 2
;
_chemical_formula_sum "Si O2"
_cell_formula_units_Z 64
_cell_length_a 19.371379
_cell_length_b 20.004462
_cell_length_c 8.871454
_cell_angle_alpha 90.000000
_cell_angle_beta 90.000000
_cell_angle_gamma 90.000000
_cell_volume 3437.812759
_symmetry_space_group_name_H-M "A M M 2"
_symmetry_group_IT_number 38
_symmetry_cell_setting 'orthorhombic'
loop_
_space_group_symop_operation_xyz
x,y,z
-x,-y,z
-x,y,z
x,-y,z
x,1/2+y,1/2+z
-x,1/2-y,1/2+z
-x,1/2+y,1/2+z
x,1/2-y,1/2+z
loop_
_atom_site_type_symbol
_atom_site_label
_atom_site_fract_x
_atom_site_fract_y
_atom_site_fract_z
Si Si1 0.847125 0.274951 0.776340
Si Si2 0.805411 0.341333 0.071812
Si Si3 0.579656 0.925719 0.321621
Si Si4 0.919680 0.577752 0.231314
Si Si5 0.418769 0.695191 0.624686
Si Si6 0.331118 0.075579 0.618373
Si Si7 0.418364 0.825939 0.788294
Si Si8 0.920867 0.324376 0.488913
O O1 0.799755 0.221293 0.687101
O O2 0.879828 0.322293 0.647098
O O3 0.904343 0.237500 0.877799
O O4 0.803558 0.319119 0.895699
O O5 0.875216 0.383284 0.105435
O O6 0.740823 0.387843 0.100947
O O7 0.500000 0.910972 0.364620
O O8 0.609856 0.870914 0.206846
O O9 0.624718 0.919469 0.468650
O O10 0.586653 0.000000 0.250032
O O11 0.899691 0.500000 0.232711
O O12 0.904016 0.607167 0.398637
O O13 0.000000 0.588823 0.189802
O O14 0.500000 0.695757 0.645072
O O15 0.389940 0.764671 0.688580
O O16 0.395407 0.693093 0.454492
O O17 0.377886 0.107134 0.748687
O O18 0.315356 0.000000 0.665409
O O19 0.500000 0.838395 0.772474
O O20 0.000000 0.319556 0.534124
#
# Coordination Sequence:
#
# PCOD8179283 Si02
#       8
#     8   8   8   8   8   8   8   8
#     4   9  19  33  52  78 105 136 171 213 267 313
#     4  10  21  37  54  77 107 136 175 218 262 318
#     4   9  18  34  55  78 106 141 179 217 261 314
#     4   9  18  34  55  77 105 143 179 212 255 307
#     4   9  18  33  54  81 110 139 173 217 266 310
#     4  11  23  37  54  75 104 142 177 217 266 313
#     4  10  20  34  55  82 108 136 175 219 262 313
#     4   9  16  29  53  82 109 134 167 213 259 308
#
# _framework density 18.616486999999999
#
# number of rings (size 3 to 8) (size 9 to 14) (size 15 to 20)
#    0.000    2.500    0.000    1.875    0.000    8.750 
#    0.000    5.000    0.000    3.000    0.000    0.000 
#    0.000    0.000    0.000    0.000    0.000    0.000 
#
# Total GULP energy -396702.541331 kJ/mol
# GULP energy per Si atom -12396.954417 kJ/mol
# Density = 1.857412 g / cm^3
# Si number density = 18.616487 Si / 1000 Ang^3
#
#
#
# Elastic Constant Matrix: (Units=GPa)
#
#
# Indices 1 2 3 4 5 6 
#
# 1 68.2608 48.1652 42.2819 0.0000 0.0000 0.0000
# 2 48.1652 116.7111 50.9178 0.0000 0.0000 0.0000
# 3 42.2819 50.9178 97.0445 0.0000 0.0000 0.0000
# 4 0.0000 0.0000 0.0000 29.2002 0.0000 0.0000
# 5 0.0000 0.0000 0.0000 0.000044154.6696 0.0000
# 6 0.0000 0.0000 0.0000 0.0000 0.0000 29.3644
#
#
#
# Elastic Compliance Matrix: (Units=1/GPa)
#
#
# Indices 1 2 3 4 5 6 
#
# 1 0.023619 -0.006819 -0.006713 0.000000 0.000000 0.000000
# 2 -0.006819 0.013080 -0.003892 0.000000 0.000000 0.000000
# 3 -0.006713 -0.003892 0.015272 0.000000 0.000000 0.000000
# 4 0.000000 0.000000 0.000000 0.034246 0.000000 0.000000
# 5 0.000000 0.000000 0.000000 0.000000 0.000023 0.000000
# 6 0.000000 0.000000 0.000000 0.000000 0.000000 0.034055
#
#
# Mechanical properties :
#
#
# Convention : Reuss Voigt Hill
#
# Bulk Modulus (GPa) = 58.40045 62.74957 60.57501
# Shear Modulus (GPa) = 31.08482 8852.02360 4441.55421
#
# Velocity S-wave (km/s) = 4.09069 69.03086 48.89782
# Velocity P-wave (km/s) = 7.33144 79.92159 56.75037
#
# Compressibility (1/GPa) = 0.01712316
#
# Stress axis : x y z
#
# Youngs Moduli (GPa) = 42.33844 76.45182 65.48101
#
# Poissons Ratio (x) = 0.52129 0.43959
# Poissons Ratio (y) = 0.28869 0.25486
# Poissons Ratio (z) = 0.28423 0.29756
#
# Static dielectric constant tensor:
#      x y z
#    x -8.151610 0.000000 0.000000 
#    y 0.000000 3.696940 0.000000 
#    z 0.000000 0.000000 3.551260 
# 
# 
# High freq. dielectric constant tensor:
#      x y z
#    x 1.705520 0.000000 0.000000 
#    y 0.000000 1.728290 0.000000 
#    z 0.000000 0.000000 1.720020 
# 
# From -- ./inp_files/6464.got.cif
#   From: 2010.03.12/outbox.cif.g09.slc.cpg/sg38_4_cif.got.tgz:6464.got - 2010.04.14 02:38:36.
