data_PCOD8179312
_publ_section_title
;
Structure prediction by ZEFSAII (Michael W. Deem and Ramdas Pophale) SiO2 
 PCOD8179312
Probable space group: A M M 2
;
_chemical_formula_sum "Si O2"
_cell_formula_units_Z 40
_cell_length_a 8.995499
_cell_length_b 7.754346
_cell_length_c 28.707533
_cell_angle_alpha 90.000000
_cell_angle_beta 90.000000
_cell_angle_gamma 90.000000
_cell_volume 2002.471334
_symmetry_space_group_name_H-M "A M M 2"
_symmetry_group_IT_number 38
_symmetry_cell_setting 'orthorhombic'
loop_
_space_group_symop_operation_xyz
x,y,z
-x,-y,z
-x,y,z
x,-y,z
x,1/2+y,1/2+z
-x,1/2-y,1/2+z
-x,1/2+y,1/2+z
x,1/2-y,1/2+z
loop_
_atom_site_type_symbol
_atom_site_label
_atom_site_fract_x
_atom_site_fract_y
_atom_site_fract_z
Si Si1 0.830490 0.300271 0.471580
Si Si2 0.669747 0.808525 0.162819
Si Si3 0.671713 0.694927 0.882685
Si Si4 0.176760 0.000000 0.827586
Si Si5 0.676228 0.000000 0.728147
Si Si6 0.825087 0.803450 0.572800
O O1 0.822617 0.500000 0.458364
O O2 0.728069 0.196649 0.435835
O O3 0.767760 0.269255 0.523445
O O4 0.000000 0.231918 0.467964
O O5 0.500000 0.765265 0.151183
O O6 0.728615 0.668953 0.199751
O O7 0.756618 0.805641 0.114425
O O8 0.688040 0.000000 0.184564
O O9 0.500000 0.751364 0.881102
O O10 0.691203 0.500000 0.863329
O O11 0.766178 0.826378 0.851899
O O12 0.232437 0.000000 0.775154
O O13 0.000000 0.000000 0.829729
O O14 0.500000 0.000000 0.738640
O O15 0.000000 0.781078 0.575846
O O16 0.773990 0.000000 0.578161
#
# Coordination Sequence:
#
# PCOD8179312 Si02
#       6
#     8   8   8   4   4   8
#     4  10  20  35  57  87 123 165 208 254 310 367
#     4  10  21  38  61  88 119 158 203 251 305 361
#     4  11  24  42  65  93 126 165 209 258 312 373
#     4  12  26  44  68  96 126 162 206 262 323 382
#     4  10  22  42  64  88 122 160 204 260 313 370
#     4  10  20  34  55  85 123 165 207 250 301 362
#
# _framework density 19.975315999999999
#
# number of rings (size 3 to 8) (size 9 to 14) (size 15 to 20)
#    0.000    1.600    2.000    2.700    0.000    6.000 
#    0.000    2.000    0.000    0.000    0.000    0.000 
#    0.000    0.000    0.000    0.000    0.000    0.000 
#
# Total GULP energy -248063.017945 kJ/mol
# GULP energy per Si atom -12403.150897 kJ/mol
# Density = 1.992985 g / cm^3
# Si number density = 19.975316 Si / 1000 Ang^3
#
#
#
# Elastic Constant Matrix: (Units=GPa)
#
#
# Indices 1 2 3 4 5 6 
#
# 1 91.6119 49.1393 58.9706 0.0000 0.0000 0.0000
# 2 49.1393 124.9391 59.8287 0.0000 0.0000 0.0000
# 3 58.9706 59.8287 138.7046 0.0000 0.0000 0.0000
# 4 0.0000 0.0000 0.0000 28.3628 0.0000 0.0000
# 5 0.0000 0.0000 0.0000 0.0000 46.6719 0.0000
# 6 0.0000 0.0000 0.0000 0.0000 0.0000 16.3989
#
#
#
# Elastic Compliance Matrix: (Units=1/GPa)
#
#
# Indices 1 2 3 4 5 6 
#
# 1 0.016428 -0.003928 -0.005290 0.000000 0.000000 0.000000
# 2 -0.003928 0.011027 -0.003086 0.000000 0.000000 0.000000
# 3 -0.005290 -0.003086 0.010790 0.000000 0.000000 0.000000
# 4 0.000000 0.000000 0.000000 0.035257 0.000000 0.000000
# 5 0.000000 0.000000 0.000000 0.000000 0.021426 0.000000
# 6 0.000000 0.000000 0.000000 0.000000 0.000000 0.060980
#
#
# Mechanical properties :
#
#
# Convention : Reuss Voigt Hill
#
# Bulk Modulus (GPa) = 73.33625 76.79252 75.06438
# Shear Modulus (GPa) = 27.01809 30.77452 28.89630
#
# Velocity S-wave (km/s) = 3.68173 3.92934 3.80755
# Velocity P-wave (km/s) = 7.40720 7.68853 7.54917
#
# Compressibility (1/GPa) = 0.01363582
#
# Stress axis : x y z
#
# Youngs Moduli (GPa) = 60.87295 90.68918 92.67972
#
# Poissons Ratio (x) = 0.35622 0.49027
# Poissons Ratio (y) = 0.23910 0.28603
# Poissons Ratio (z) = 0.32202 0.27989
#
# Static dielectric constant tensor:
#      x y z
#    x 3.476430 0.000000 0.000000 
#    y 0.000000 3.816780 0.000000 
#    z 0.000000 0.000000 3.597430 
# 
# 
# High freq. dielectric constant tensor:
#      x y z
#    x 1.768830 0.000000 0.000000 
#    y 0.000000 1.795730 0.000000 
#    z 0.000000 0.000000 1.776600 
# 
# From -- ./inp_files/23249.got.cif
#   From: 2010.03.12/outbox.cif.g09.slc.cpg/sg38_12_cif.got.tgz:23249.got - 2010.04.14 02:38:36.
