data_PCOD8179791
_publ_section_title
;
Structure prediction by ZEFSAII (Michael W. Deem and Ramdas Pophale) SiO2 
 PCOD8179791
Probable space group: A M M 2
;
_chemical_formula_sum "Si O2"
_cell_formula_units_Z 32
_cell_length_a 12.184556
_cell_length_b 8.624776
_cell_length_c 15.025963
_cell_angle_alpha 90.000000
_cell_angle_beta 90.000000
_cell_angle_gamma 90.000000
_cell_volume 1579.064420
_symmetry_space_group_name_H-M "A M M 2"
_symmetry_group_IT_number 38
_symmetry_cell_setting 'orthorhombic'
loop_
_space_group_symop_operation_xyz
x,y,z
-x,-y,z
-x,y,z
x,-y,z
x,1/2+y,1/2+z
-x,1/2-y,1/2+z
-x,1/2+y,1/2+z
x,1/2-y,1/2+z
loop_
_atom_site_type_symbol
_atom_site_label
_atom_site_fract_x
_atom_site_fract_y
_atom_site_fract_z
Si Si1 0.500000 0.331196 0.371460
Si Si2 0.128648 0.679402 0.011322
Si Si3 0.734106 0.314987 0.357540
Si Si4 0.271987 0.816761 0.164094
Si Si5 0.500000 0.171486 0.660714
O O1 0.500000 0.500000 0.416826
O O2 0.615976 0.249312 0.396324
O O3 0.500000 0.345484 0.265618
O O4 0.159299 0.500000 0.001371
O O5 0.180560 0.746929 0.100215
O O6 0.000000 0.707036 0.017770
O O7 0.170628 0.770153 0.924745
O O8 0.726506 0.500000 0.345597
O O9 0.758523 0.240088 0.262496
O O10 0.391699 0.763157 0.129939
O O11 0.267057 0.000000 0.160393
O O12 0.500000 0.000000 0.616894
#
# Coordination Sequence:
#
# PCOD8179791 Si02
#       5
#     4   8   8   8   4
#     4   7  14  30  55  86 116 146 180 223 279 346
#     4  11  25  43  60  82 115 157 206 253 296 348
#     4  10  20  38  63  89 120 155 191 237 295 355
#     4  11  22  38  62  91 122 156 195 241 296 353
#     4   9  17  34  59  88 122 156 192 235 289 352
#
# _framework density 20.265163000000001
#
# number of rings (size 3 to 8) (size 9 to 14) (size 15 to 20)
#    0.000    2.000    0.000    5.625    0.000    4.000 
#    0.000    5.625    0.000    0.000    0.000    0.000 
#    0.000    0.000    0.000    0.000    0.000    0.000 
#
# Total GULP energy -198339.069675 kJ/mol
# GULP energy per Si atom -12396.191855 kJ/mol
# Density = 2.021904 g / cm^3
# Si number density = 20.265163 Si / 1000 Ang^3
#
#
#
# Elastic Constant Matrix: (Units=GPa)
#
#
# Indices 1 2 3 4 5 6 
#
# 1 129.5530 80.9692 69.6986 0.0000 0.0000 0.0000
# 2 80.9692 419.6826 196.2244 0.0000 0.0000 0.0000
# 3 69.6986 196.2244 179.9944 0.0000 0.0000 0.0000
# 4 0.0000 0.0000 0.0000 31.0339 0.0000 0.0000
# 5 0.0000 0.0000 0.0000 0.0000 24.9166 0.0000
# 6 0.0000 0.0000 0.0000 0.0000 0.0000 32.6283
#
#
#
# Elastic Compliance Matrix: (Units=1/GPa)
#
#
# Indices 1 2 3 4 5 6 
#
# 1 0.009762 -0.000237 -0.003522 0.000000 0.000000 0.000000
# 2 -0.000237 0.004866 -0.005213 0.000000 0.000000 0.000000
# 3 -0.003522 -0.005213 0.012602 0.000000 0.000000 0.000000
# 4 0.000000 0.000000 0.000000 0.032223 0.000000 0.000000
# 5 0.000000 0.000000 0.000000 0.000000 0.040134 0.000000
# 6 0.000000 0.000000 0.000000 0.000000 0.000000 0.030648
#
#
# Mechanical properties :
#
#
# Convention : Reuss Voigt Hill
#
# Bulk Modulus (GPa) = 107.67975 158.11270 132.89623
# Shear Modulus (GPa) = 33.05287 43.20496 38.12891
#
# Velocity S-wave (km/s) = 4.04297 4.62235 4.34233
# Velocity P-wave (km/s) = 8.66284 10.32857 9.53216
#
# Compressibility (1/GPa) = 0.00928680
#
# Stress axis : x y z
#
# Youngs Moduli (GPa) = 102.44306 205.52231 79.35005
#
# Poissons Ratio (x) = 0.04861 0.27948
# Poissons Ratio (y) = 0.02423 0.41364
# Poissons Ratio (z) = 0.36081 1.07135
#
# Static dielectric constant tensor:
#      x y z
#    x 3.967350 0.000000 0.000000 
#    y 0.000000 3.739560 0.000000 
#    z 0.000000 0.000000 3.467660 
# 
# 
# High freq. dielectric constant tensor:
#      x y z
#    x 1.800640 0.000000 0.000000 
#    y 0.000000 1.792990 0.000000 
#    z 0.000000 0.000000 1.783250 
# 
# From -- ./inp_files/13251.got.cif
#   From: 2010.03.12/outbox.cif.g09.slc.cpg/sg38_7_cif.got.tgz:13251.got - 2010.04.14 02:38:36.
