data_PCOD8179085
_publ_section_title
;
Structure prediction by ZEFSAII (Michael W. Deem and Ramdas Pophale) SiO2 
 PCOD8179085
Probable space group: A M M 2
;
_chemical_formula_sum "Si O2"
_cell_formula_units_Z 64
_cell_length_a 23.904016
_cell_length_b 9.327896
_cell_length_c 15.612867
_cell_angle_alpha 90.000000
_cell_angle_beta 90.000000
_cell_angle_gamma 90.000000
_cell_volume 3481.266142
_symmetry_space_group_name_H-M "A M M 2"
_symmetry_group_IT_number 38
_symmetry_cell_setting 'orthorhombic'
loop_
_space_group_symop_operation_xyz
x,y,z
-x,-y,z
-x,y,z
x,-y,z
x,1/2+y,1/2+z
-x,1/2-y,1/2+z
-x,1/2+y,1/2+z
x,1/2-y,1/2+z
loop_
_atom_site_type_symbol
_atom_site_label
_atom_site_fract_x
_atom_site_fract_y
_atom_site_fract_z
Si Si1 0.241386 0.169727 0.564050
Si Si2 0.437900 0.670183 0.902467
Si Si3 0.938862 0.830712 0.471853
Si Si4 0.434265 0.165453 0.211055
Si Si5 0.825050 0.670150 0.899969
Si Si6 0.178809 0.665505 0.712438
Si Si7 0.369861 0.830226 0.564862
Si Si8 0.061481 0.338481 0.642558
O O1 0.214888 0.228594 0.475385
O O2 0.210043 0.239108 0.643595
O O3 0.305624 0.217208 0.565475
O O4 0.234478 0.000000 0.571440
O O5 0.500000 0.731959 0.920946
O O6 0.440504 0.500000 0.904158
O O7 0.417811 0.716658 0.807389
O O8 0.396383 0.728044 0.975884
O O9 0.888712 0.773000 0.412329
O O10 0.929094 0.770208 0.565893
O O11 0.000000 0.783471 0.435578
O O12 0.935589 0.000000 0.481016
O O13 0.500000 0.188086 0.196016
O O14 0.400312 0.261790 0.145528
O O15 0.417783 0.000000 0.197051
O O16 0.825320 0.500000 0.902053
O O17 0.802710 0.719840 0.807009
O O18 0.195397 0.500000 0.697204
O O19 0.111421 0.685578 0.709910
O O20 0.376910 0.000000 0.571773
O O21 0.064634 0.500000 0.605771
O O22 0.000000 0.313128 0.685734
#
# Coordination Sequence:
#
# PCOD8179085 Si02
#       8
#     8   8   8   8   8   8   8   8
#     4  10  21  37  52  71 103 136 170 215 256 290
#     4   8  15  30  52  77 104 134 167 200 241 299
#     4   9  16  28  50  75  97 126 163 202 249 306
#     4   9  18  33  54  81 110 136 164 204 252 297
#     4   9  18  33  52  73  98 129 168 212 254 300
#     4  10  20  34  54  76  97 130 172 209 254 308
#     4  10  20  33  53  77 101 136 176 210 248 294
#     4   9  17  29  47  73 103 128 154 199 256 308
#
# _framework density 18.384115000000001
#
# number of rings (size 3 to 8) (size 9 to 14) (size 15 to 20)
#    0.000    2.750    1.250    1.125    0.000    2.750 
#    0.000    6.875    0.000    0.750    0.000    3.500 
#    0.000    0.000    0.000    0.000    0.000    0.000 
#
# Total GULP energy -396592.944549 kJ/mol
# GULP energy per Si atom -12393.529517 kJ/mol
# Density = 1.834227 g / cm^3
# Si number density = 18.384115 Si / 1000 Ang^3
#
#
#
# Elastic Constant Matrix: (Units=GPa)
#
#
# Indices 1 2 3 4 5 6 
#
# 1 119.7914 27.4780 79.9331 0.0000 0.0000 0.0000
# 2 27.4780 16.7956 23.2248 0.0000 0.0000 0.0000
# 3 79.9331 23.2248 148.6873 0.0000 0.0000 0.0000
# 4 0.0000 0.0000 0.0000 25.7296 0.0000 0.0000
# 5 0.0000 0.0000 0.0000 0.0000 11.6271 0.0000
# 6 0.0000 0.0000 0.0000 0.0000 0.0000 22.9473
#
#
#
# Elastic Compliance Matrix: (Units=1/GPa)
#
#
# Indices 1 2 3 4 5 6 
#
# 1 0.016736 -0.019055 -0.006021 0.000000 0.000000 0.000000
# 2 -0.019055 0.097638 -0.005007 0.000000 0.000000 0.000000
# 3 -0.006021 -0.005007 0.010744 0.000000 0.000000 0.000000
# 4 0.000000 0.000000 0.000000 0.038866 0.000000 0.000000
# 5 0.000000 0.000000 0.000000 0.000000 0.086006 0.000000
# 6 0.000000 0.000000 0.000000 0.000000 0.000000 0.043578
#
#
# Mechanical properties :
#
#
# Convention : Reuss Voigt Hill
#
# Bulk Modulus (GPa) = 15.39595 60.72734 38.06165
# Shear Modulus (GPa) = 13.31964 22.37002 17.84483
#
# Velocity S-wave (km/s) = 2.69461 3.49207 3.11893
# Velocity P-wave (km/s) = 4.25135 7.02592 5.80679
#
# Compressibility (1/GPa) = 0.06495213
#
# Stress axis : x y z
#
# Youngs Moduli (GPa) = 59.75009 10.24194 93.07184
#
# Poissons Ratio (x) = 0.19516 0.56038
# Poissons Ratio (y) = 1.13856 0.46600
# Poissons Ratio (z) = 0.35975 0.05128
#
# Static dielectric constant tensor:
#      x y z
#    x 3.698680 0.000000 0.000000 
#    y 0.000000 3.071020 0.000000 
#    z 0.000000 0.000000 3.519470 
# 
# 
# High freq. dielectric constant tensor:
#      x y z
#    x 1.719510 0.000000 0.000000 
#    y 0.000000 1.676250 0.000000 
#    z 0.000000 0.000000 1.713670 
# 
# From -- ./inp_files/15825.got.cif
#   From: 2010.03.12/outbox.cif.g09.slc.cpg/sg38_8_cif.got.tgz:15825.got - 2010.04.14 02:38:36.
