data_PCOD8179979
_publ_section_title
;
Structure prediction by ZEFSAII (Michael W. Deem and Ramdas Pophale) SiO2 
 PCOD8179979
Probable space group: A M M 2
;
_chemical_formula_sum "Si O2"
_cell_formula_units_Z 40
_cell_length_a 9.034532
_cell_length_b 9.259587
_cell_length_c 25.527922
_cell_angle_alpha 90.000000
_cell_angle_beta 90.000000
_cell_angle_gamma 90.000000
_cell_volume 2135.564738
_symmetry_space_group_name_H-M "A M M 2"
_symmetry_group_IT_number 38
_symmetry_cell_setting 'orthorhombic'
loop_
_space_group_symop_operation_xyz
x,y,z
-x,-y,z
-x,y,z
x,-y,z
x,1/2+y,1/2+z
-x,1/2-y,1/2+z
-x,1/2+y,1/2+z
x,1/2-y,1/2+z
loop_
_atom_site_type_symbol
_atom_site_label
_atom_site_fract_x
_atom_site_fract_y
_atom_site_fract_z
Si Si1 0.826143 0.334382 0.714470
Si Si2 0.830600 0.329929 0.015505
Si Si3 0.670965 0.833312 0.410311
Si Si4 0.672181 0.667561 0.608089
Si Si5 0.670859 0.169392 0.806277
O O1 0.782015 0.500000 0.726454
O O2 0.750873 0.280290 0.661099
O O3 0.771102 0.234409 0.761030
O O4 0.000000 0.315719 0.707859
O O5 0.813429 0.500000 0.022713
O O6 0.735537 0.255457 0.059943
O O7 0.000000 0.279661 0.019706
O O8 0.768380 0.281666 0.959252
O O9 0.500000 0.806623 0.424588
O O10 0.721115 0.738693 0.361009
O O11 0.700964 0.000000 0.396400
O O12 0.500000 0.701419 0.613884
O O13 0.703975 0.500000 0.597694
O O14 0.500000 0.206670 0.794551
O O15 0.698970 0.000000 0.809577
#
# Coordination Sequence:
#
# PCOD8179979 Si02
#       5
#     8   8   8   8   8
#     4  10  21  37  57  80 107 141 180 221 267 320
#     4  10  21  36  55  81 112 144 178 218 266 319
#     4   9  18  34  55  77 105 144 186 224 262 310
#     4  10  21  37  58  82 107 139 180 223 267 317
#     4  10  21  36  55  81 111 142 178 221 268 317
#
# _framework density 18.730409999999999
#
# number of rings (size 3 to 8) (size 9 to 14) (size 15 to 20)
#    0.000    2.200    0.000    2.400    0.000    7.200 
#    0.000    4.000    0.000    0.000    0.000    0.000 
#    0.000    0.000    0.000    0.000    0.000    0.000 
#
# Total GULP energy -248102.547770 kJ/mol
# GULP energy per Si atom -12405.127389 kJ/mol
# Density = 1.868778 g / cm^3
# Si number density = 18.730410 Si / 1000 Ang^3
#
#
#
# Elastic Constant Matrix: (Units=GPa)
#
#
# Indices 1 2 3 4 5 6 
#
# 1 86.0148 40.4935 65.9086 0.0000 0.0000 0.0000
# 2 40.4935 64.1967 65.4569 0.0000 0.0000 0.0000
# 3 65.9086 65.4569 152.9419 0.0000 0.0000 0.0000
# 4 0.0000 0.0000 0.0000 34.1579 0.0000 0.0000
# 5 0.0000 0.0000 0.0000 0.0000 -31.8109 0.0000
# 6 0.0000 0.0000 0.0000 0.0000 0.0000 28.5869
#
#
#
# Elastic Compliance Matrix: (Units=1/GPa)
#
#
# Indices 1 2 3 4 5 6 
#
# 1 0.018712 -0.006354 -0.005345 0.000000 0.000000 0.000000
# 2 -0.006354 0.029795 -0.010014 0.000000 0.000000 0.000000
# 3 -0.005345 -0.010014 0.013127 0.000000 0.000000 0.000000
# 4 0.000000 0.000000 0.000000 0.029276 0.000000 0.000000
# 5 0.000000 0.000000 0.000000 0.000000 -0.031436 0.000000
# 6 0.000000 0.000000 0.000000 0.000000 0.000000 0.034981
#
#
# Mechanical properties :
#
#
# Convention : Reuss Voigt Hill
#
# Bulk Modulus (GPa) = 54.91276 71.87461 63.39368
# Shear Modulus (GPa) = 34.73405 14.93974 24.83690
#
# Velocity S-wave (km/s) = 4.31097 2.82728 3.64541
# Velocity P-wave (km/s) = 7.35937 7.00818 7.18592
#
# Compressibility (1/GPa) = 0.01821070
#
# Stress axis : x y z
#
# Youngs Moduli (GPa) = 53.44067 33.56223 76.17636
#
# Poissons Ratio (x) = 0.21325 0.40713
# Poissons Ratio (y) = 0.33955 0.76283
# Poissons Ratio (z) = 0.28562 0.33609
#
# Static dielectric constant tensor:
#      x y z
#    x 3.650230 0.000000 0.000000 
#    y 0.000000 3.377520 0.000000 
#    z 0.000000 0.000000 3.531820 
# 
# 
# High freq. dielectric constant tensor:
#      x y z
#    x 1.733890 0.000000 0.000000 
#    y 0.000000 1.720730 0.000000 
#    z 0.000000 0.000000 1.739170 
# 
# From -- ./inp_files/19468.got.cif
#   From: 2010.03.12/outbox.cif.g09.slc.cpg/sg38_10_cif.got.tgz:19468.got - 2010.04.14 02:38:36.
