data_PCOD8179234
_publ_section_title
;
Structure prediction by ZEFSAII (Michael W. Deem and Ramdas Pophale) SiO2 
 PCOD8179234
Probable space group: A M M 2
;
_chemical_formula_sum "Si O2"
_cell_formula_units_Z 40
_cell_length_a 9.374234
_cell_length_b 8.857980
_cell_length_c 25.673346
_cell_angle_alpha 90.000000
_cell_angle_beta 90.000000
_cell_angle_gamma 90.000000
_cell_volume 2131.831914
_symmetry_space_group_name_H-M "A M M 2"
_symmetry_group_IT_number 38
_symmetry_cell_setting 'orthorhombic'
loop_
_space_group_symop_operation_xyz
x,y,z
-x,-y,z
-x,y,z
x,-y,z
x,1/2+y,1/2+z
-x,1/2-y,1/2+z
-x,1/2+y,1/2+z
x,1/2-y,1/2+z
loop_
_atom_site_type_symbol
_atom_site_label
_atom_site_fract_x
_atom_site_fract_y
_atom_site_fract_z
Si Si1 0.667096 0.173859 0.271280
Si Si2 0.164517 0.823490 0.863210
Si Si3 0.831086 0.827029 0.072347
Si Si4 0.830453 0.669903 0.967842
Si Si5 0.664199 0.324526 0.164062
O O1 0.500000 0.198296 0.279968
O O2 0.748426 0.272201 0.313388
O O3 0.713206 0.231088 0.214476
O O4 0.711766 0.000000 0.276811
O O5 0.227527 0.741451 0.914339
O O6 0.000000 0.779974 0.854224
O O7 0.183963 0.000000 0.871936
O O8 0.760349 0.725499 0.116228
O O9 0.000000 0.808883 0.077170
O O10 0.783272 0.000000 0.078689
O O11 0.775516 0.767738 0.016568
O O12 0.771244 0.500000 0.973002
O O13 0.000000 0.671948 0.966921
O O14 0.500000 0.290408 0.150411
O O15 0.689460 0.500000 0.175622
#
# Coordination Sequence:
#
# PCOD8179234 Si02
#       5
#     8   8   8   8   8
#     4  10  21  37  56  77 103 137 175 215 261 311
#     4  10  20  34  54  80 108 138 173 213 257 307
#     4  10  20  34  54  80 108 138 173 213 257 307
#     4   9  17  31  52  77 106 139 172 210 258 307
#     4  10  21  37  56  77 103 137 175 215 261 311
#
# _framework density 18.763207000000001
#
# number of rings (size 3 to 8) (size 9 to 14) (size 15 to 20)
#    0.000    2.200    0.000    3.000    0.000    8.000 
#    0.000    1.000    0.000    6.000    0.000    0.000 
#    0.000    0.000    0.000    0.000    0.000    0.000 
#
# Total GULP energy -248072.207687 kJ/mol
# GULP energy per Si atom -12403.610384 kJ/mol
# Density = 1.872050 g / cm^3
# Si number density = 18.763207 Si / 1000 Ang^3
#
#
#
# Elastic Constant Matrix: (Units=GPa)
#
#
# Indices 1 2 3 4 5 6 
#
# 1 29.8824 21.4280 33.7096 0.0000 0.0000 0.0000
# 2 21.4280 73.1293 23.2803 0.0000 0.0000 0.0000
# 3 33.7096 23.2803 114.3241 0.0000 0.0000 0.0000
# 4 0.0000 0.0000 0.0000 44.9431 0.0000 0.0000
# 5 0.0000 0.0000 0.0000 0.0000 700.4254 0.0000
# 6 0.0000 0.0000 0.0000 0.0000 0.0000 26.4500
#
#
#
# Elastic Compliance Matrix: (Units=1/GPa)
#
#
# Indices 1 2 3 4 5 6 
#
# 1 0.059378 -0.012645 -0.014933 0.000000 0.000000 0.000000
# 2 -0.012645 0.017315 0.000202 0.000000 0.000000 0.000000
# 3 -0.014933 0.000202 0.013109 0.000000 0.000000 0.000000
# 4 0.000000 0.000000 0.000000 0.022250 0.000000 0.000000
# 5 0.000000 0.000000 0.000000 0.000000 0.001428 0.000000
# 6 0.000000 0.000000 0.000000 0.000000 0.000000 0.037807
#
#
# Mechanical properties :
#
#
# Convention : Reuss Voigt Hill
#
# Bulk Modulus (GPa) = 28.52996 41.57461 35.05229
# Shear Modulus (GPa) = 22.96515 163.62490 93.29502
#
# Velocity S-wave (km/s) = 3.50229 9.34850 7.05906
# Velocity P-wave (km/s) = 5.62076 11.77844 9.22834
#
# Compressibility (1/GPa) = 0.03505087
#
# Stress axis : x y z
#
# Youngs Moduli (GPa) = 16.84139 57.75328 76.28322
#
# Poissons Ratio (x) = 0.73027 1.13915
# Poissons Ratio (y) = 0.21295 -0.01545
# Poissons Ratio (z) = 0.25150 -0.01169
#
# Static dielectric constant tensor:
#      x y z
#    x 3.083940 0.000000 0.000000 
#    y 0.000000 3.631040 0.000000 
#    z 0.000000 0.000000 3.554900 
# 
# 
# High freq. dielectric constant tensor:
#      x y z
#    x 1.695720 0.000000 0.000000 
#    y 0.000000 1.748220 0.000000 
#    z 0.000000 0.000000 1.743490 
# 
# From -- ./inp_files/17457.got.cif
#   From: 2010.03.12/outbox.cif.g09.slc.cpg/sg38_9_cif.got.tgz:17457.got - 2010.04.14 02:38:36.
