data_PCOD8179561
_publ_section_title
;
Structure prediction by ZEFSAII (Michael W. Deem and Ramdas Pophale) SiO2 
 PCOD8179561
Probable space group: A M M 2
;
_chemical_formula_sum "Si O2"
_cell_formula_units_Z 48
_cell_length_a 15.293216
_cell_length_b 8.592982
_cell_length_c 18.562832
_cell_angle_alpha 90.000000
_cell_angle_beta 90.000000
_cell_angle_gamma 90.000000
_cell_volume 2439.422127
_symmetry_space_group_name_H-M "A M M 2"
_symmetry_group_IT_number 38
_symmetry_cell_setting 'orthorhombic'
loop_
_space_group_symop_operation_xyz
x,y,z
-x,-y,z
-x,y,z
x,-y,z
x,1/2+y,1/2+z
-x,1/2-y,1/2+z
-x,1/2+y,1/2+z
x,1/2-y,1/2+z
loop_
_atom_site_type_symbol
_atom_site_label
_atom_site_fract_x
_atom_site_fract_y
_atom_site_fract_z
Si Si1 0.500000 0.818825 0.134771
Si Si2 0.690063 0.182536 0.613616
Si Si3 0.099300 0.815152 0.367518
Si Si4 0.779730 0.829746 0.247278
Si Si5 0.500000 0.325317 0.284687
Si Si6 0.762605 0.683451 0.476062
Si Si7 0.642112 0.669335 0.869506
O O1 0.590258 0.744937 0.104936
O O2 0.500000 0.799281 0.220791
O O3 0.500000 0.000000 0.115304
O O4 0.731546 0.214205 0.692408
O O5 0.758862 0.263301 0.559280
O O6 0.687477 0.000000 0.600455
O O7 0.132242 0.763979 0.286378
O O8 0.150669 0.737995 0.434446
O O9 0.000000 0.757764 0.374357
O O10 0.107707 0.000000 0.375136
O O11 0.722553 0.855806 0.317639
O O12 0.794302 0.000000 0.210181
O O13 0.500000 0.500000 0.252560
O O14 0.581787 0.300367 0.335606
O O15 0.755979 0.500000 0.470036
O O16 0.675393 0.763198 0.444723
O O17 0.596174 0.500000 0.881851
#
# Coordination Sequence:
#
# PCOD8179561 Si02
#       7
#     4   8   8   8   4   8   8
#     4  12  24  39  58  83 118 159 201 249 299 349
#     4  12  24  39  59  85 119 160 205 248 294 351
#     4   9  19  39  66  92 119 152 192 240 298 362
#     4   9  18  34  58  85 115 149 188 235 292 350
#     4  12  22  33  54  85 114 149 199 247 289 341
#     4  11  23  39  59  85 119 156 196 243 297 358
#     4  10  20  36  57  80 111 150 193 240 291 343
#
# _framework density 19.67679
#
# number of rings (size 3 to 8) (size 9 to 14) (size 15 to 20)
#    0.000    1.500    1.667    6.000    0.000    3.667 
#    0.000    4.167    0.000    3.000    0.000    0.000 
#    0.000    0.000    0.000    0.000    0.000    0.000 
#
# Total GULP energy -297412.006842 kJ/mol
# GULP energy per Si atom -12392.166952 kJ/mol
# Density = 1.963200 g / cm^3
# Si number density = 19.676790 Si / 1000 Ang^3
#
#
#
# Elastic Constant Matrix: (Units=GPa)
#
#
# Indices 1 2 3 4 5 6 
#
# 1 108.9523 37.6245 37.4121 0.0000 0.0000 0.0000
# 2 37.6245 114.6650 28.7078 0.0000 0.0000 0.0000
# 3 37.4121 28.7078 76.8565 0.0000 0.0000 0.0000
# 4 0.0000 0.0000 0.0000 30.1667 0.0000 0.0000
# 5 0.0000 0.0000 0.0000 0.0000 40.7412 0.0000
# 6 0.0000 0.0000 0.0000 0.0000 0.0000 25.8142
#
#
#
# Elastic Compliance Matrix: (Units=1/GPa)
#
#
# Indices 1 2 3 4 5 6 
#
# 1 0.011715 -0.002666 -0.004707 0.000000 0.000000 0.000000
# 2 -0.002666 0.010227 -0.002523 0.000000 0.000000 0.000000
# 3 -0.004707 -0.002523 0.016245 0.000000 0.000000 0.000000
# 4 0.000000 0.000000 0.000000 0.033149 0.000000 0.000000
# 5 0.000000 0.000000 0.000000 0.000000 0.024545 0.000000
# 6 0.000000 0.000000 0.000000 0.000000 0.000000 0.038738
#
#
# Mechanical properties :
#
#
# Convention : Reuss Voigt Hill
#
# Bulk Modulus (GPa) = 54.35725 56.44031 55.39878
# Shear Modulus (GPa) = 31.14437 32.45969 31.80203
#
# Velocity S-wave (km/s) = 3.98275 4.06599 4.02459
# Velocity P-wave (km/s) = 6.98819 7.12664 7.05775
#
# Compressibility (1/GPa) = 0.01839681
#
# Stress axis : x y z
#
# Youngs Moduli (GPa) = 85.35968 97.77788 61.55817
#
# Poissons Ratio (x) = 0.26063 0.28976
# Poissons Ratio (y) = 0.22753 0.15529
# Poissons Ratio (z) = 0.40179 0.24665
#
# Static dielectric constant tensor:
#      x y z
#    x 3.454650 0.000000 0.000000 
#    y 0.000000 3.567890 0.000000 
#    z 0.000000 0.000000 3.495680 
# 
# 
# High freq. dielectric constant tensor:
#      x y z
#    x 1.754570 0.000000 0.000000 
#    y 0.000000 1.771610 0.000000 
#    z 0.000000 0.000000 1.759820 
# 
# From -- ./inp_files/18192.got.cif
#   From: 2010.03.12/outbox.cif.g09.slc.cpg/sg38_10_cif.got.tgz:18192.got - 2010.04.14 02:38:36.
