data_PCOD8179280
_publ_section_title
;
Structure prediction by ZEFSAII (Michael W. Deem and Ramdas Pophale) SiO2 
 PCOD8179280
Probable space group: A M M 2
;
_chemical_formula_sum "Si O2"
_cell_formula_units_Z 64
_cell_length_a 17.663331
_cell_length_b 9.257036
_cell_length_c 20.363377
_cell_angle_alpha 90.000000
_cell_angle_beta 90.000000
_cell_angle_gamma 90.000000
_cell_volume 3329.617625
_symmetry_space_group_name_H-M "A M M 2"
_symmetry_group_IT_number 38
_symmetry_cell_setting 'orthorhombic'
loop_
_space_group_symop_operation_xyz
x,y,z
-x,-y,z
-x,y,z
x,-y,z
x,1/2+y,1/2+z
-x,1/2-y,1/2+z
-x,1/2+y,1/2+z
x,1/2-y,1/2+z
loop_
_atom_site_type_symbol
_atom_site_label
_atom_site_fract_x
_atom_site_fract_y
_atom_site_fract_z
Si Si1 0.413442 0.333662 0.586210
Si Si2 0.850166 0.665875 0.960778
Si Si3 0.647477 0.668399 0.204325
Si Si4 0.838221 0.659613 0.337243
Si Si5 0.328318 0.333924 0.974192
Si Si6 0.340901 0.159915 0.850108
Si Si7 0.912705 0.166050 0.081266
Si Si8 0.822982 0.332174 0.191319
O O1 0.500000 0.318018 0.563387
O O2 0.388243 0.500000 0.588434
O O3 0.404985 0.265352 0.658272
O O4 0.359785 0.250185 0.536280
O O5 0.874641 0.500000 0.963379
O O6 0.871939 0.726163 0.888723
O O7 0.761610 0.685608 0.975248
O O8 0.898232 0.752849 0.013369
O O9 0.631659 0.500000 0.190911
O O10 0.625540 0.707964 0.279614
O O11 0.734557 0.705311 0.189493
O O12 0.871169 0.500000 0.352742
O O13 0.748515 0.653422 0.342651
O O14 0.858622 0.704523 0.262731
O O15 0.352409 0.500000 0.979281
O O16 0.364607 0.270869 0.907161
O O17 0.371067 0.000000 0.869112
O O18 0.863479 0.233324 0.138785
O O19 0.000000 0.182329 0.100598
O O20 0.889054 0.000000 0.072308
O O21 0.836033 0.500000 0.173824
#
# Coordination Sequence:
#
# PCOD8179280 Si02
#       8
#     8   8   8   8   8   8   8   8
#     4  11  24  38  51  72 104 141 180 218 256 303
#     4  10  20  34  55  82 107 133 170 214 259 309
#     4   9  18  34  57  83 107 133 169 211 256 309
#     4   8  15  30  53  80 108 135 165 206 255 306
#     4  10  20  34  55  82 107 133 170 214 259 309
#     4   8  15  30  53  80 108 135 165 206 255 306
#     4  11  24  38  51  72 104 141 180 218 256 303
#     4   9  18  34  57  83 107 133 169 211 256 309
#
# _framework density 19.221425
#
# number of rings (size 3 to 8) (size 9 to 14) (size 15 to 20)
#    0.000    2.500    0.000    3.750    0.000    8.000 
#    0.000    3.750    0.000    1.500    0.000    0.000 
#    0.000    0.000    0.000    0.000    0.000    0.000 
#
# Total GULP energy -396790.949974 kJ/mol
# GULP energy per Si atom -12399.717187 kJ/mol
# Density = 1.917768 g / cm^3
# Si number density = 19.221425 Si / 1000 Ang^3
#
#
#
# Elastic Constant Matrix: (Units=GPa)
#
#
# Indices 1 2 3 4 5 6 
#
# 1 25.3923 24.4119 9.3472 0.0000 0.0000 0.0000
# 2 24.4119 117.4675 54.8906 0.0000 0.0000 0.0000
# 3 9.3472 54.8906 102.6356 0.0000 0.0000 0.0000
# 4 0.0000 0.0000 0.0000 42.3264 0.0000 0.0000
# 5 0.0000 0.0000 0.0000 0.0000 5.2922 0.0000
# 6 0.0000 0.0000 0.0000 0.0000 0.0000 23.4109
#
#
#
# Elastic Compliance Matrix: (Units=1/GPa)
#
#
# Indices 1 2 3 4 5 6 
#
# 1 0.049349 -0.010873 0.001321 0.000000 0.000000 0.000000
# 2 -0.010873 0.013745 -0.006361 0.000000 0.000000 0.000000
# 3 0.001321 -0.006361 0.013025 0.000000 0.000000 0.000000
# 4 0.000000 0.000000 0.000000 0.023626 0.000000 0.000000
# 5 0.000000 0.000000 0.000000 0.000000 0.188957 0.000000
# 6 0.000000 0.000000 0.000000 0.000000 0.000000 0.042715
#
#
# Mechanical properties :
#
#
# Convention : Reuss Voigt Hill
#
# Bulk Modulus (GPa) = 22.57712 46.97722 34.77717
# Shear Modulus (GPa) = 13.22729 24.66227 18.94478
#
# Velocity S-wave (km/s) = 2.62611 3.58587 3.14284
# Velocity P-wave (km/s) = 4.57893 6.45273 5.59483
#
# Compressibility (1/GPa) = 0.04429263
#
# Stress axis : x y z
#
# Youngs Moduli (GPa) = 20.26395 72.75500 76.77726
#
# Poissons Ratio (x) = 0.79104 -0.10139
# Poissons Ratio (y) = 0.22032 0.48835
# Poissons Ratio (z) = -0.02676 0.46277
#
# Static dielectric constant tensor:
#      x y z
#    x 3.161750 0.000000 0.000000 
#    y 0.000000 3.627250 0.000000 
#    z 0.000000 0.000000 3.785040 
# 
# 
# High freq. dielectric constant tensor:
#      x y z
#    x 1.711550 0.000000 0.000000 
#    y 0.000000 1.750900 0.000000 
#    z 0.000000 0.000000 1.763210 
# 
# From -- ./inp_files/21373.got.cif
#   From: 2010.03.12/outbox.cif.g09.slc.cpg/sg38_11_cif.got.tgz:21373.got - 2010.04.14 02:38:36.
