data_PCOD8179877
_publ_section_title
;
Structure prediction by ZEFSAII (Michael W. Deem and Ramdas Pophale) SiO2 
 PCOD8179877
Probable space group: A M M 2
;
_chemical_formula_sum "Si O2"
_cell_formula_units_Z 56
_cell_length_a 19.707288
_cell_length_b 9.309920
_cell_length_c 15.786072
_cell_angle_alpha 90.000000
_cell_angle_beta 90.000000
_cell_angle_gamma 90.000000
_cell_volume 2896.322324
_symmetry_space_group_name_H-M "A M M 2"
_symmetry_group_IT_number 38
_symmetry_cell_setting 'orthorhombic'
loop_
_space_group_symop_operation_xyz
x,y,z
-x,-y,z
-x,y,z
x,-y,z
x,1/2+y,1/2+z
-x,1/2-y,1/2+z
-x,1/2+y,1/2+z
x,1/2-y,1/2+z
loop_
_atom_site_type_symbol
_atom_site_label
_atom_site_fract_x
_atom_site_fract_y
_atom_site_fract_z
Si Si1 0.424735 0.834886 0.162960
Si Si2 0.424674 0.167093 0.835992
Si Si3 0.690802 0.344425 0.095582
Si Si4 0.843863 0.670502 0.905854
Si Si5 0.305710 0.344972 0.901780
Si Si6 0.079417 0.667174 0.260003
Si Si7 0.161881 0.829785 0.598640
O O1 0.500000 0.817028 0.123020
O O2 0.418399 0.745946 0.247756
O O3 0.368952 0.771747 0.100407
O O4 0.408805 0.000000 0.181734
O O5 0.500000 0.194508 0.875402
O O6 0.365334 0.228934 0.893859
O O7 0.411954 0.000000 0.822418
O O8 0.670899 0.500000 0.137437
O O9 0.762301 0.284103 0.131327
O O10 0.706239 0.374642 0.999102
O O11 0.856167 0.500000 0.901545
O O12 0.767993 0.708855 0.870016
O O13 0.895353 0.748880 0.842930
O O14 0.855232 0.728094 0.003197
O O15 0.325491 0.500000 0.859425
O O16 0.097884 0.500000 0.271681
O O17 0.111156 0.727683 0.171557
O O18 0.000000 0.692814 0.252206
O O19 0.158332 0.000000 0.593250
#
# Coordination Sequence:
#
# PCOD8179877 Si02
#       7
#     8   8   8   8   8   8   8
#     4  10  21  35  50  72 105 141 177 222 273 320
#     4  10  21  35  51  73 102 139 183 225 267 322
#     4   9  18  34  55  77 102 136 179 223 268 323
#     4   9  19  37  59  83 112 146 186 229 273 329
#     4   9  19  35  54  78 107 137 174 224 278 325
#     4  10  21  36  56  85 116 146 183 225 274 330
#     4   8  17  36  58  80 110 148 186 224 270 328
#
# _framework density 19.334864
#
# number of rings (size 3 to 8) (size 9 to 14) (size 15 to 20)
#    0.000    2.714    0.000    2.571    2.000    4.286 
#    0.000    7.143    0.000    0.000    0.000    0.000 
#    0.000    0.000    0.000    0.000    0.000    0.000 
#
# Total GULP energy -346890.650070 kJ/mol
# GULP energy per Si atom -12388.951788 kJ/mol
# Density = 1.929086 g / cm^3
# Si number density = 19.334864 Si / 1000 Ang^3
#
#
#
# Elastic Constant Matrix: (Units=GPa)
#
#
# Indices 1 2 3 4 5 6 
#
# 1 125.4096 54.0628 48.1304 0.0000 0.0000 0.0000
# 2 54.0628 80.9164 28.1583 0.0000 0.0000 0.0000
# 3 48.1304 28.1583 78.9614 0.0000 0.0000 0.0000
# 4 0.0000 0.0000 0.0000 28.1406 0.0000 0.0000
# 5 0.0000 0.0000 0.0000 0.0000 23.6713 0.0000
# 6 0.0000 0.0000 0.0000 0.0000 0.0000 22.1417
#
#
#
# Elastic Compliance Matrix: (Units=1/GPa)
#
#
# Indices 1 2 3 4 5 6 
#
# 1 0.013010 -0.006774 -0.005515 0.000000 0.000000 0.000000
# 2 -0.006774 0.017636 -0.002160 0.000000 0.000000 0.000000
# 3 -0.005515 -0.002160 0.016796 0.000000 0.000000 0.000000
# 4 0.000000 0.000000 0.000000 0.035536 0.000000 0.000000
# 5 0.000000 0.000000 0.000000 0.000000 0.042245 0.000000
# 6 0.000000 0.000000 0.000000 0.000000 0.000000 0.045164
#
#
# Mechanical properties :
#
#
# Convention : Reuss Voigt Hill
#
# Bulk Modulus (GPa) = 53.92261 60.66560 57.29410
# Shear Modulus (GPa) = 24.33487 25.11978 24.72732
#
# Velocity S-wave (km/s) = 3.55152 3.60835 3.58005
# Velocity P-wave (km/s) = 6.69082 6.98603 6.84002
#
# Compressibility (1/GPa) = 0.01854510
#
# Stress axis : x y z
#
# Youngs Moduli (GPa) = 76.86146 56.70282 59.53660
#
# Poissons Ratio (x) = 0.38408 0.32834
# Poissons Ratio (y) = 0.52062 0.12862
# Poissons Ratio (z) = 0.42389 0.12250
#
# Static dielectric constant tensor:
#      x y z
#    x 3.807030 0.000000 0.000000 
#    y 0.000000 2.762980 0.000000 
#    z 0.000000 0.000000 3.421570 
# 
# 
# High freq. dielectric constant tensor:
#      x y z
#    x 1.760040 0.000000 0.000000 
#    y 0.000000 1.734790 0.000000 
#    z 0.000000 0.000000 1.739980 
# 
# From -- ./inp_files/15431.got.cif
#   From: 2010.03.12/outbox.cif.g09.slc.cpg/sg38_8_cif.got.tgz:15431.got - 2010.04.14 02:38:36.
