data_PCOD8179867
_publ_section_title
;
Structure prediction by ZEFSAII (Michael W. Deem and Ramdas Pophale) SiO2 
 PCOD8179867
Probable space group: A M M 2
;
_chemical_formula_sum "Si O2"
_cell_formula_units_Z 64
_cell_length_a 9.927318
_cell_length_b 9.219633
_cell_length_c 40.565549
_cell_angle_alpha 90.000000
_cell_angle_beta 90.000000
_cell_angle_gamma 90.000000
_cell_volume 3712.811712
_symmetry_space_group_name_H-M "A M M 2"
_symmetry_group_IT_number 38
_symmetry_cell_setting 'orthorhombic'
loop_
_space_group_symop_operation_xyz
x,y,z
-x,-y,z
-x,y,z
x,-y,z
x,1/2+y,1/2+z
-x,1/2-y,1/2+z
-x,1/2+y,1/2+z
x,1/2-y,1/2+z
loop_
_atom_site_type_symbol
_atom_site_label
_atom_site_fract_x
_atom_site_fract_y
_atom_site_fract_z
Si Si1 0.154902 0.669655 0.467750
Si Si2 0.657267 0.831948 0.170060
Si Si3 0.850649 0.327366 0.541589
Si Si4 0.649474 0.672387 0.843755
Si Si5 0.845150 0.330951 0.787159
Si Si6 0.351539 0.671966 0.595541
Si Si7 0.844928 0.170319 0.720567
Si Si8 0.654965 0.669229 0.917406
O O1 0.178930 0.500000 0.463550
O O2 0.193872 0.719389 0.504848
O O3 0.249861 0.750313 0.442586
O O4 0.000000 0.709764 0.460441
O O5 0.500000 0.802925 0.177390
O O6 0.693116 0.788122 0.132557
O O7 0.749232 0.731254 0.192388
O O8 0.691929 0.000000 0.176718
O O9 0.851994 0.500000 0.543733
O O10 0.750440 0.259600 0.568826
O O11 0.000000 0.267568 0.549227
O O12 0.500000 0.728296 0.834101
O O13 0.649999 0.500000 0.844070
O O14 0.756676 0.731380 0.817322
O O15 0.687531 0.726448 0.880456
O O16 0.816187 0.500000 0.780581
O O17 0.802702 0.244031 0.754776
O O18 0.000000 0.303544 0.796527
O O19 0.500000 0.735693 0.588319
O O20 0.356084 0.500000 0.592070
O O21 0.000000 0.207315 0.711906
O O22 0.821825 0.000000 0.723952
O O23 0.500000 0.702490 0.926181
O O24 0.685542 0.500000 0.920078
#
# Coordination Sequence:
#
# PCOD8179867 Si02
#       8
#     8   8   8   8   8   8   8   8
#     4   9  18  31  46  68  98 128 159 195 234 278
#     4   9  18  32  50  73  98 122 153 195 238 279
#     4   8  14  25  41  63  92 122 151 187 231 276
#     4   8  15  29  48  69  92 117 148 190 236 277
#     4   9  17  30  49  71  92 116 151 193 233 275
#     4   8  14  25  42  66  93 117 146 188 234 277
#     4  10  21  35  49  68  97 130 160 190 228 276
#     4   9  18  32  49  70  96 125 158 195 234 278
#
# _framework density 17.237611000000001
#
# number of rings (size 3 to 8) (size 9 to 14) (size 15 to 20)
#    0.000    3.250    0.000    2.625    0.000    3.500 
#    0.000    5.625    0.000    3.000    0.000    0.000 
#    0.000    0.000    0.000    0.000    0.000    0.000 
#
# Total GULP energy -396662.018634 kJ/mol
# GULP energy per Si atom -12395.688082 kJ/mol
# Density = 1.719838 g / cm^3
# Si number density = 17.237611 Si / 1000 Ang^3
#
#
#
# Elastic Constant Matrix: (Units=GPa)
#
#
# Indices 1 2 3 4 5 6 
#
# 1 112.1062 40.8155 105.9491 0.0000 0.0000 0.0000
# 2 40.8155 39.4963 46.3906 0.0000 0.0000 0.0000
# 3 105.9491 46.3906 160.9597 0.0000 0.0000 0.0000
# 4 0.0000 0.0000 0.0000 19.9931 0.0000 0.0000
# 5 0.0000 0.0000 0.0000 0.0000 40.7924 0.0000
# 6 0.0000 0.0000 0.0000 0.0000 0.0000 23.2421
#
#
#
# Elastic Compliance Matrix: (Units=1/GPa)
#
#
# Indices 1 2 3 4 5 6 
#
# 1 0.026094 -0.010267 -0.014217 0.000000 0.000000 0.000000
# 2 -0.010267 0.042316 -0.005438 0.000000 0.000000 0.000000
# 3 -0.014217 -0.005438 0.017138 0.000000 0.000000 0.000000
# 4 0.000000 0.000000 0.000000 0.050017 0.000000 0.000000
# 5 0.000000 0.000000 0.000000 0.000000 0.024514 0.000000
# 6 0.000000 0.000000 0.000000 0.000000 0.000000 0.043025
#
#
# Mechanical properties :
#
#
# Convention : Reuss Voigt Hill
#
# Bulk Modulus (GPa) = 38.90394 77.65253 58.27823
# Shear Modulus (GPa) = 18.41499 24.76599 21.59049
#
# Velocity S-wave (km/s) = 3.27204 3.79455 3.54294
# Velocity P-wave (km/s) = 6.07398 8.02149 7.11468
#
# Compressibility (1/GPa) = 0.02570434
#
# Stress axis : x y z
#
# Youngs Moduli (GPa) = 38.32226 23.63175 58.34941
#
# Poissons Ratio (x) = 0.24263 0.82956
# Poissons Ratio (y) = 0.39347 0.31729
# Poissons Ratio (z) = 0.54483 0.12850
#
# Static dielectric constant tensor:
#      x y z
#    x 3.768240 0.000000 0.000000 
#    y 0.000000 2.805670 0.000000 
#    z 0.000000 0.000000 3.598550 
# 
# 
# High freq. dielectric constant tensor:
#      x y z
#    x 1.669560 0.000000 0.000000 
#    y 0.000000 1.621920 0.000000 
#    z 0.000000 0.000000 1.674540 
# 
# From -- ./inp_files/24931.got.cif
#   From: 2010.03.12/outbox.cif.g09.slc.cpg/sg38_13_cif.got.tgz:24931.got - 2010.04.14 02:38:36.
