data_PCOD8179381
_publ_section_title
;
Structure prediction by ZEFSAII (Michael W. Deem and Ramdas Pophale) SiO2 
 PCOD8179381
Probable space group: A M M 2
;
_chemical_formula_sum "Si O2"
_cell_formula_units_Z 64
_cell_length_a 8.842213
_cell_length_b 19.762713
_cell_length_c 20.208791
_cell_angle_alpha 90.000000
_cell_angle_beta 90.000000
_cell_angle_gamma 90.000000
_cell_volume 3531.407773
_symmetry_space_group_name_H-M "A M M 2"
_symmetry_group_IT_number 38
_symmetry_cell_setting 'orthorhombic'
loop_
_space_group_symop_operation_xyz
x,y,z
-x,-y,z
-x,y,z
x,-y,z
x,1/2+y,1/2+z
-x,1/2-y,1/2+z
-x,1/2+y,1/2+z
x,1/2-y,1/2+z
loop_
_atom_site_type_symbol
_atom_site_label
_atom_site_fract_x
_atom_site_fract_y
_atom_site_fract_z
Si Si1 0.176520 0.077466 0.563660
Si Si2 0.674043 0.420733 0.927309
Si Si3 0.821685 0.820458 0.822435
Si Si4 0.322438 0.824492 0.178200
Si Si5 0.178565 0.817342 0.674313
Si Si6 0.179806 0.574863 0.427252
Si Si7 0.178472 0.831218 0.317110
Si Si8 0.826612 0.420753 0.576376
O O1 0.267698 0.101390 0.499333
O O2 0.229901 0.123759 0.624566
O O3 0.000000 0.086857 0.548480
O O4 0.214290 0.000000 0.582268
O O5 0.500000 0.399880 0.920599
O O6 0.699371 0.500000 0.916911
O O7 0.770645 0.383772 0.871962
O O8 0.770122 0.839528 0.748020
O O9 0.747395 0.872104 0.875138
O O10 0.770426 0.744069 0.839184
O O11 0.000000 0.826605 0.828383
O O12 0.500000 0.817922 0.186637
O O13 0.256859 0.752684 0.154250
O O14 0.253036 0.849569 0.247317
O O15 0.284363 0.880362 0.123852
O O16 0.000000 0.804941 0.671917
O O17 0.243785 0.500000 0.410951
O O18 0.224370 0.596382 0.501481
O O19 0.000000 0.573040 0.421811
O O20 0.000000 0.835383 0.307496
O O21 0.808095 0.500000 0.590566
O O22 0.000000 0.398362 0.588392
#
# Coordination Sequence:
#
# PCOD8179381 Si02
#       8
#     8   8   8   8   8   8   8   8
#     4   9  18  33  53  77 104 136 175 216 258 306
#     4  10  21  36  53  75 104 135 168 210 258 309
#     4   8  15  28  47  73 101 128 161 201 245 290
#     4  11  22  35  52  74 101 134 172 214 259 307
#     4   9  18  33  52  75 105 138 172 213 257 302
#     4   8  14  26  47  75 103 128 157 197 244 293
#     4  10  20  35  54  75 101 133 168 208 254 304
#     4   9  18  33  52  74 101 133 167 204 251 307
#
# _framework density 18.123085
#
# number of rings (size 3 to 8) (size 9 to 14) (size 15 to 20)
#    0.000    2.750    0.000    3.375    0.000    3.500 
#    0.000    5.000    0.000    3.000    0.000    0.000 
#    0.000    0.000    0.000    0.000    0.000    0.000 
#
# Total GULP energy -396778.726872 kJ/mol
# GULP energy per Si atom -12399.335215 kJ/mol
# Density = 1.808184 g / cm^3
# Si number density = 18.123085 Si / 1000 Ang^3
#
#
#
# Elastic Constant Matrix: (Units=GPa)
#
#
# Indices 1 2 3 4 5 6 
#
# 1 60.2344 34.9910 40.9170 0.0000 0.0000 0.0000
# 2 34.9910 88.1390 82.5032 0.0000 0.0000 0.0000
# 3 40.9170 82.5032 130.9388 0.0000 0.0000 0.0000
# 4 0.0000 0.0000 0.0000 40.4689 0.0000 0.0000
# 5 0.0000 0.0000 0.0000 0.0000 10.4335 0.0000
# 6 0.0000 0.0000 0.0000 0.0000 0.0000 14.3561
#
#
#
# Elastic Compliance Matrix: (Units=1/GPa)
#
#
# Indices 1 2 3 4 5 6 
#
# 1 0.022172 -0.005648 -0.003370 0.000000 0.000000 0.000000
# 2 -0.005648 0.029098 -0.016569 0.000000 0.000000 0.000000
# 3 -0.003370 -0.016569 0.019130 0.000000 0.000000 0.000000
# 4 0.000000 0.000000 0.000000 0.024710 0.000000 0.000000
# 5 0.000000 0.000000 0.000000 0.000000 0.095845 0.000000
# 6 0.000000 0.000000 0.000000 0.000000 0.000000 0.069657
#
#
# Mechanical properties :
#
#
# Convention : Reuss Voigt Hill
#
# Bulk Modulus (GPa) = 52.01289 66.23717 59.12503
# Shear Modulus (GPa) = 15.71366 21.11176 18.41271
#
# Velocity S-wave (km/s) = 2.94777 3.41678 3.19090
# Velocity P-wave (km/s) = 6.35200 7.22452 6.80226
#
# Compressibility (1/GPa) = 0.01922600
#
# Stress axis : x y z
#
# Youngs Moduli (GPa) = 45.10225 34.36702 52.27302
#
# Poissons Ratio (x) = 0.19410 0.17615
# Poissons Ratio (y) = 0.25473 0.86613
# Poissons Ratio (z) = 0.15199 0.56944
#
# Static dielectric constant tensor:
#      x y z
#    x 3.077730 0.000000 0.000000 
#    y 0.000000 3.501580 0.000000 
#    z 0.000000 0.000000 3.537500 
# 
# 
# High freq. dielectric constant tensor:
#      x y z
#    x 1.675500 0.000000 0.000000 
#    y 0.000000 1.703030 0.000000 
#    z 0.000000 0.000000 1.708960 
# 
# From -- ./inp_files/17206.got.cif
#   From: 2010.03.12/outbox.cif.g09.slc.cpg/sg38_9_cif.got.tgz:17206.got - 2010.04.14 02:38:36.
