data_PCOD8179235
_publ_section_title
;
Structure prediction by ZEFSAII (Michael W. Deem and Ramdas Pophale) SiO2 
 PCOD8179235
Probable space group: A M M 2
;
_chemical_formula_sum "Si O2"
_cell_formula_units_Z 48
_cell_length_a 9.030387
_cell_length_b 25.060737
_cell_length_c 12.041368
_cell_angle_alpha 90.000000
_cell_angle_beta 90.000000
_cell_angle_gamma 90.000000
_cell_volume 2725.059759
_symmetry_space_group_name_H-M "A M M 2"
_symmetry_group_IT_number 38
_symmetry_cell_setting 'orthorhombic'
loop_
_space_group_symop_operation_xyz
x,y,z
-x,-y,z
-x,y,z
x,-y,z
x,1/2+y,1/2+z
-x,1/2-y,1/2+z
-x,1/2+y,1/2+z
x,1/2-y,1/2+z
loop_
_atom_site_type_symbol
_atom_site_label
_atom_site_fract_x
_atom_site_fract_y
_atom_site_fract_z
Si Si1 0.670035 0.061907 0.969010
Si Si2 0.327910 0.060888 0.714822
Si Si3 0.166798 0.680546 0.837935
Si Si4 0.832764 0.647489 0.070527
Si Si5 0.675044 0.746004 0.001741
Si Si6 0.174245 0.151743 0.094234
O O1 0.500000 0.076331 0.994932
O O2 0.707138 0.076305 0.841655
O O3 0.700122 0.000000 0.991473
O O4 0.777649 0.094221 0.049779
O O5 0.500000 0.068723 0.689177
O O6 0.236324 0.097991 0.633430
O O7 0.280443 0.000000 0.692136
O O8 0.222144 0.654995 0.723341
O O9 0.000000 0.703063 0.824272
O O10 0.170310 0.635994 0.936917
O O11 0.273629 0.729327 0.876647
O O12 0.741954 0.702932 0.090460
O O13 0.000000 0.656125 0.113201
O O14 0.500000 0.746886 0.010732
O O15 0.738880 0.804038 0.025073
O O16 0.000000 0.159507 0.078017
#
# Coordination Sequence:
#
# PCOD8179235 Si02
#       6
#     8   8   8   8   8   8
#     4   9  20  38  56  78 110 143 180 226 270 317
#     4   9  18  34  56  81 110 144 182 224 268 316
#     4   8  19  37  53  75 109 142 176 219 265 314
#     4   9  18  35  54  77 109 142 177 219 266 315
#     4  10  20  34  54  80 108 140 178 220 264 317
#     4  11  21  36  58  81 109 144 180 220 268 324
#
# _framework density 17.614291000000001
#
# number of rings (size 3 to 8) (size 9 to 14) (size 15 to 20)
#    1.000    1.667    0.000    3.000    0.000    4.000 
#    0.000    2.500    0.000    5.000    0.000    0.000 
#    0.000    0.000    0.000    0.000    0.000    0.000 
#
# Total GULP energy -297426.856685 kJ/mol
# GULP energy per Si atom -12392.785695 kJ/mol
# Density = 1.757420 g / cm^3
# Si number density = 17.614291 Si / 1000 Ang^3
#
#
#
# Elastic Constant Matrix: (Units=GPa)
#
#
# Indices 1 2 3 4 5 6 
#
# 1 110.1759 54.2943 51.0981 0.0000 0.0000 0.0000
# 2 54.2943 89.0015 50.6467 0.0000 0.0000 0.0000
# 3 51.0981 50.6467 92.3869 0.0000 0.0000 0.0000
# 4 0.0000 0.0000 0.0000 30.7867 0.0000 0.0000
# 5 0.0000 0.0000 0.0000 0.0000 27.5958 0.0000
# 6 0.0000 0.0000 0.0000 0.0000 0.0000 30.1948
#
#
#
# Elastic Compliance Matrix: (Units=1/GPa)
#
#
# Indices 1 2 3 4 5 6 
#
# 1 0.014157 -0.006076 -0.004499 0.000000 0.000000 0.000000
# 2 -0.006076 0.018938 -0.007021 0.000000 0.000000 0.000000
# 3 -0.004499 -0.007021 0.017162 0.000000 0.000000 0.000000
# 4 0.000000 0.000000 0.000000 0.032482 0.000000 0.000000
# 5 0.000000 0.000000 0.000000 0.000000 0.036237 0.000000
# 6 0.000000 0.000000 0.000000 0.000000 0.000000 0.033118
#
#
# Mechanical properties :
#
#
# Convention : Reuss Voigt Hill
#
# Bulk Modulus (GPa) = 66.38522 67.07139 66.72830
# Shear Modulus (GPa) = 25.99988 26.75048 26.37518
#
# Velocity S-wave (km/s) = 3.84613 3.90125 3.87379
# Velocity P-wave (km/s) = 7.58246 7.64549 7.61404
#
# Compressibility (1/GPa) = 0.01506359
#
# Stress axis : x y z
#
# Youngs Moduli (GPa) = 70.63410 52.80426 58.26989
#
# Poissons Ratio (x) = 0.32085 0.26217
# Poissons Ratio (y) = 0.42919 0.40912
# Poissons Ratio (z) = 0.31781 0.37074
#
# Static dielectric constant tensor:
#      x y z
#    x 3.233480 0.000000 0.000000 
#    y 0.000000 3.081390 0.000000 
#    z 0.000000 0.000000 3.206130 
# 
# 
# High freq. dielectric constant tensor:
#      x y z
#    x 1.686990 0.000000 0.000000 
#    y 0.000000 1.666080 0.000000 
#    z 0.000000 0.000000 1.671700 
# 
# From -- ./inp_files/8228.got.cif
#   From: 2010.03.12/outbox.cif.g09.slc.cpg/sg38_5_cif.got.tgz:8228.got - 2010.04.14 02:38:36.
