data_PCOD8179217
_publ_section_title
;
Structure prediction by ZEFSAII (Michael W. Deem and Ramdas Pophale) SiO2 
 PCOD8179217
Probable space group: A M M 2
;
_chemical_formula_sum "Si O2"
_cell_formula_units_Z 64
_cell_length_a 18.366924
_cell_length_b 9.098499
_cell_length_c 20.962029
_cell_angle_alpha 90.000000
_cell_angle_beta 90.000000
_cell_angle_gamma 90.000000
_cell_volume 3502.994844
_symmetry_space_group_name_H-M "A M M 2"
_symmetry_group_IT_number 38
_symmetry_cell_setting 'orthorhombic'
loop_
_space_group_symop_operation_xyz
x,y,z
-x,-y,z
-x,y,z
x,-y,z
x,1/2+y,1/2+z
-x,1/2-y,1/2+z
-x,1/2+y,1/2+z
x,1/2-y,1/2+z
loop_
_atom_site_type_symbol
_atom_site_label
_atom_site_fract_x
_atom_site_fract_y
_atom_site_fract_z
Si Si1 0.083180 0.172684 0.516120
Si Si2 0.586511 0.163436 0.535202
Si Si3 0.917384 0.675520 0.152192
Si Si4 0.340692 0.174003 0.775969
Si Si5 0.413464 0.166638 0.158360
Si Si6 0.914589 0.672812 0.878682
Si Si7 0.584287 0.827313 0.392622
Si Si8 0.826133 0.173622 0.769875
O O1 0.116522 0.230121 0.583518
O O2 0.113848 0.231246 0.448518
O O3 0.000000 0.218897 0.520053
O O4 0.091308 0.000000 0.512509
O O5 0.500000 0.157445 0.536343
O O6 0.616291 0.269817 0.590861
O O7 0.610387 0.216626 0.464366
O O8 0.617654 0.000000 0.548243
O O9 0.918605 0.500000 0.152980
O O10 0.865009 0.738358 0.206805
O O11 0.000000 0.733500 0.163059
O O12 0.385036 0.239065 0.717118
O O13 0.368792 0.235360 0.842983
O O14 0.257300 0.222787 0.768546
O O15 0.350629 0.000000 0.775447
O O16 0.500000 0.174326 0.159824
O O17 0.385624 0.000000 0.164782
O O18 0.901020 0.500000 0.870103
O O19 0.866063 0.760918 0.830185
O O20 0.000000 0.708692 0.869361
O O21 0.500000 0.786551 0.382598
O O22 0.596499 0.000000 0.381019
O O23 0.833955 0.000000 0.773137
#
# Coordination Sequence:
#
# PCOD8179217 Si02
#       8
#     8   8   8   8   8   8   8   8
#     4   7  11  22  43  71  95 113 145 195 240 278
#     4   8  15  30  53  79 103 124 152 199 255 304
#     4   8  13  25  48  72  91 117 156 199 238 276
#     4  11  23  35  47  68 102 140 174 211 253 295
#     4  10  20  34  54  78 101 128 165 206 248 301
#     4   9  17  30  50  75  99 123 155 198 247 297
#     4   9  18  34  56  79 100 125 163 210 256 304
#     4  10  21  34  47  68  99 132 166 203 241 286
#
# _framework density 18.270081000000001
#
# number of rings (size 3 to 8) (size 9 to 14) (size 15 to 20)
#    0.000    3.000    0.000    3.750    0.000    4.750 
#    0.000    2.500    0.000    3.750    0.000    1.750 
#    0.000    0.000    0.000    0.000    0.000    0.000 
#
# Total GULP energy -396466.780106 kJ/mol
# GULP energy per Si atom -12389.586878 kJ/mol
# Density = 1.822850 g / cm^3
# Si number density = 18.270081 Si / 1000 Ang^3
#
#
#
# Elastic Constant Matrix: (Units=GPa)
#
#
# Indices 1 2 3 4 5 6 
#
# 1 43.3960 22.7283 37.5801 0.0000 0.0000 0.0000
# 2 22.7283 40.8208 39.2460 0.0000 0.0000 0.0000
# 3 37.5801 39.2460 168.2564 0.0000 0.0000 0.0000
# 4 0.0000 0.0000 0.0000 32.9353 0.0000 0.0000
# 5 0.0000 0.0000 0.0000 0.0000 21.8414 0.0000
# 6 0.0000 0.0000 0.0000 0.0000 0.0000 18.8196
#
#
#
# Elastic Compliance Matrix: (Units=1/GPa)
#
#
# Indices 1 2 3 4 5 6 
#
# 1 0.034667 -0.015286 -0.004177 0.000000 0.000000 0.000000
# 2 -0.015286 0.038319 -0.005524 0.000000 0.000000 0.000000
# 3 -0.004177 -0.005524 0.008165 0.000000 0.000000 0.000000
# 4 0.000000 0.000000 0.000000 0.030363 0.000000 0.000000
# 5 0.000000 0.000000 0.000000 0.000000 0.045785 0.000000
# 6 0.000000 0.000000 0.000000 0.000000 0.000000 0.053136
#
#
# Mechanical properties :
#
#
# Convention : Reuss Voigt Hill
#
# Bulk Modulus (GPa) = 32.07525 50.17577 41.12551
# Shear Modulus (GPa) = 18.46380 24.91384 21.68882
#
# Velocity S-wave (km/s) = 3.18245 3.69676 3.44920
# Velocity P-wave (km/s) = 5.57658 6.76346 6.19849
#
# Compressibility (1/GPa) = 0.03117668
#
# Stress axis : x y z
#
# Youngs Moduli (GPa) = 28.84591 26.09677 122.47685
#
# Poissons Ratio (x) = 0.39891 0.51164
# Poissons Ratio (y) = 0.44093 0.67655
# Poissons Ratio (z) = 0.12050 0.14416
#
# Static dielectric constant tensor:
#      x y z
#    x 2.894010 0.000000 0.000000 
#    y 0.000000 3.138030 0.000000 
#    z 0.000000 0.000000 3.917280 
# 
# 
# High freq. dielectric constant tensor:
#      x y z
#    x 1.672700 0.000000 0.000000 
#    y 0.000000 1.677680 0.000000 
#    z 0.000000 0.000000 1.737440 
# 
# From -- ./inp_files/21400.got.cif
#   From: 2010.03.12/outbox.cif.g09.slc.cpg/sg38_11_cif.got.tgz:21400.got - 2010.04.14 02:38:36.
