data_PCOD8179247
_publ_section_title
;
Structure prediction by ZEFSAII (Michael W. Deem and Ramdas Pophale) SiO2 
 PCOD8179247
Probable space group: A M M 2
;
_chemical_formula_sum "Si O2"
_cell_formula_units_Z 40
_cell_length_a 12.234726
_cell_length_b 7.625121
_cell_length_c 23.730529
_cell_angle_alpha 90.000000
_cell_angle_beta 90.000000
_cell_angle_gamma 90.000000
_cell_volume 2213.851097
_symmetry_space_group_name_H-M "A M M 2"
_symmetry_group_IT_number 38
_symmetry_cell_setting 'orthorhombic'
loop_
_space_group_symop_operation_xyz
x,y,z
-x,-y,z
-x,y,z
x,-y,z
x,1/2+y,1/2+z
-x,1/2-y,1/2+z
-x,1/2+y,1/2+z
x,1/2-y,1/2+z
loop_
_atom_site_type_symbol
_atom_site_label
_atom_site_fract_x
_atom_site_fract_y
_atom_site_fract_z
Si Si1 0.260040 0.303305 0.510740
Si Si2 0.500000 0.297031 0.526808
Si Si3 0.268335 0.708319 0.137869
Si Si4 0.500000 0.691399 0.148356
Si Si5 0.870430 0.000000 0.323620
Si Si6 0.130695 0.500000 0.951542
Si Si7 0.871225 0.198100 0.742713
O O1 0.230822 0.500000 0.490856
O O2 0.386612 0.258662 0.493166
O O3 0.242707 0.295860 0.578125
O O4 0.176775 0.173355 0.480713
O O5 0.500000 0.500000 0.546673
O O6 0.500000 0.171504 0.580521
O O7 0.277246 0.500000 0.128641
O O8 0.384326 0.783665 0.163492
O O9 0.175609 0.758870 0.182440
O O10 0.500000 0.500000 0.176733
O O11 0.827390 0.000000 0.387230
O O12 0.827291 0.825886 0.291745
O O13 0.000000 0.000000 0.323670
O O14 0.000000 0.500000 0.956714
O O15 0.000000 0.211706 0.736523
O O16 0.833996 0.000000 0.757745
#
# Coordination Sequence:
#
# PCOD8179247 Si02
#       7
#     8   4   8   4   4   4   8
#     4  10  20  34  54  81 109 142 175 215 272 319
#     4   8  16  30  50  76 103 133 180 219 248 315
#     4   9  16  29  49  77 109 135 165 208 257 316
#     4   8  14  24  44  70 101 141 166 190 249 312
#     4   9  20  38  55  71  95 135 185 220 249 302
#     4  11  24  39  53  75 109 144 182 226 267 318
#     4   9  18  32  52  75  97 129 170 214 258 301
#
# _framework density 18.068062999999999
#
# number of rings (size 3 to 8) (size 9 to 14) (size 15 to 20)
#    0.000    2.800    1.000    0.000    2.800    2.000 
#    0.000    2.000    0.000    2.400    0.000    4.200 
#    0.000    0.000    0.000    0.000    0.000    0.000 
#
# Total GULP energy -247781.926578 kJ/mol
# GULP energy per Si atom -12389.096329 kJ/mol
# Density = 1.802694 g / cm^3
# Si number density = 18.068063 Si / 1000 Ang^3
#
#
#
# Elastic Constant Matrix: (Units=GPa)
#
#
# Indices 1 2 3 4 5 6 
#
# 1 79.0080 45.4514 44.0571 0.0000 0.0000 0.0000
# 2 45.4514 94.8215 46.3843 0.0000 0.0000 0.0000
# 3 44.0571 46.3843 95.6172 0.0000 0.0000 0.0000
# 4 0.0000 0.0000 0.0000 8.1287 0.0000 0.0000
# 5 0.0000 0.0000 0.0000 0.0000 4.3514 0.0000
# 6 0.0000 0.0000 0.0000 0.0000 0.0000 12.2121
#
#
#
# Elastic Compliance Matrix: (Units=1/GPa)
#
#
# Indices 1 2 3 4 5 6 
#
# 1 0.019727 -0.006568 -0.005903 0.000000 0.000000 0.000000
# 2 -0.006568 0.016014 -0.004742 0.000000 0.000000 0.000000
# 3 -0.005903 -0.004742 0.015479 0.000000 0.000000 0.000000
# 4 0.000000 0.000000 0.000000 0.123021 0.000000 0.000000
# 5 0.000000 0.000000 0.000000 0.000000 0.229811 0.000000
# 6 0.000000 0.000000 0.000000 0.000000 0.000000 0.081886
#
#
# Mechanical properties :
#
#
# Convention : Reuss Voigt Hill
#
# Bulk Modulus (GPa) = 59.54894 60.13692 59.84293
# Shear Modulus (GPa) = 9.50635 13.84203 11.67419
#
# Velocity S-wave (km/s) = 2.29627 2.77086 2.54465
# Velocity P-wave (km/s) = 6.32931 6.60248 6.46733
#
# Compressibility (1/GPa) = 0.01679291
#
# Stress axis : x y z
#
# Youngs Moduli (GPa) = 50.69085 62.44427 64.60404
#
# Poissons Ratio (x) = 0.41015 0.38139
# Poissons Ratio (y) = 0.33295 0.30636
# Poissons Ratio (z) = 0.29925 0.29612
#
# Static dielectric constant tensor:
#      x y z
#    x 3.488100 0.000000 0.000000 
#    y 0.000000 3.428990 0.000000 
#    z 0.000000 0.000000 3.100870 
# 
# 
# High freq. dielectric constant tensor:
#      x y z
#    x 1.698380 0.000000 0.000000 
#    y 0.000000 1.707530 0.000000 
#    z 0.000000 0.000000 1.654400 
# 
# From -- ./inp_files/20522.got.cif
#   From: 2010.03.12/outbox.cif.g09.slc.cpg/sg38_11_cif.got.tgz:20522.got - 2010.04.14 02:38:36.
