data_PCOD8179041
_publ_section_title
;
Structure prediction by ZEFSAII (Michael W. Deem and Ramdas Pophale) SiO2 
 PCOD8179041
Probable space group: A M M 2
;
_chemical_formula_sum "Si O2"
_cell_formula_units_Z 56
_cell_length_a 19.941078
_cell_length_b 9.296446
_cell_length_c 15.228125
_cell_angle_alpha 90.000000
_cell_angle_beta 90.000000
_cell_angle_gamma 90.000000
_cell_volume 2823.007398
_symmetry_space_group_name_H-M "A M M 2"
_symmetry_group_IT_number 38
_symmetry_cell_setting 'orthorhombic'
loop_
_space_group_symop_operation_xyz
x,y,z
-x,-y,z
-x,y,z
x,-y,z
x,1/2+y,1/2+z
-x,1/2-y,1/2+z
-x,1/2+y,1/2+z
x,1/2-y,1/2+z
loop_
_atom_site_type_symbol
_atom_site_label
_atom_site_fract_x
_atom_site_fract_y
_atom_site_fract_z
Si Si1 0.289796 0.341683 0.524800
Si Si2 0.922236 0.166288 0.677093
Si Si3 0.297649 0.658709 0.323490
Si Si4 0.165913 0.665253 0.014596
Si Si5 0.425474 0.661486 0.788228
Si Si6 0.428566 0.163258 0.080970
Si Si7 0.830600 0.829700 0.312069
O O1 0.288660 0.500000 0.570727
O O2 0.277148 0.360981 0.423041
O O3 0.228522 0.247080 0.559980
O O4 0.361442 0.261508 0.542920
O O5 0.897030 0.198254 0.577695
O O6 0.887648 0.265251 0.749980
O O7 0.000000 0.205228 0.678074
O O8 0.908939 0.000000 0.701581
O O9 0.298394 0.500000 0.278061
O O10 0.371360 0.726740 0.323024
O O11 0.240888 0.761513 0.281358
O O12 0.186609 0.500000 0.015782
O O13 0.150746 0.709798 0.913486
O O14 0.500000 0.704974 0.822261
O O15 0.407862 0.500000 0.820546
O O16 0.424388 0.666904 0.684447
O O17 0.500000 0.235883 0.051033
O O18 0.428841 0.000000 0.045912
O O19 0.826256 0.000000 0.298161
#
# Coordination Sequence:
#
# PCOD8179041 Si02
#       7
#     8   8   8   8   8   8   8
#     4   9  18  32  52  77 102 134 178 226 272 321
#     4  10  22  40  61  87 118 150 182 221 278 338
#     4  10  20  33  51  77 108 140 178 228 282 329
#     4   9  20  38  58  82 114 150 184 225 278 333
#     4   9  18  32  49  71 102 140 182 228 277 328
#     4   8  15  29  48  70  97 132 175 220 266 315
#     4  10  21  38  60  85 115 151 191 232 273 328
#
# _framework density 19.837001000000001
#
# number of rings (size 3 to 8) (size 9 to 14) (size 15 to 20)
#    0.000    2.714    0.000    1.714    2.000    3.429 
#    0.000    2.857    0.000    1.286    0.000    0.000 
#    0.000    0.000    0.000    0.000    0.000    0.000 
#
# Total GULP energy -346947.531210 kJ/mol
# GULP energy per Si atom -12390.983257 kJ/mol
# Density = 1.979185 g / cm^3
# Si number density = 19.837001 Si / 1000 Ang^3
#
#
#
# Elastic Constant Matrix: (Units=GPa)
#
#
# Indices 1 2 3 4 5 6 
#
# 1 162.7429 75.3476 42.5182 0.0000 0.0000 0.0000
# 2 75.3476 101.1454 38.1029 0.0000 0.0000 0.0000
# 3 42.5182 38.1029 55.5960 0.0000 0.0000 0.0000
# 4 0.0000 0.0000 0.0000 18.8353 0.0000 0.0000
# 5 0.0000 0.0000 0.0000 0.0000 33.1254 0.0000
# 6 0.0000 0.0000 0.0000 0.0000 0.0000 32.4096
#
#
#
# Elastic Compliance Matrix: (Units=1/GPa)
#
#
# Indices 1 2 3 4 5 6 
#
# 1 0.009826 -0.006051 -0.003367 0.000000 0.000000 0.000000
# 2 -0.006051 0.017054 -0.007060 0.000000 0.000000 0.000000
# 3 -0.003367 -0.007060 0.025401 0.000000 0.000000 0.000000
# 4 0.000000 0.000000 0.000000 0.053092 0.000000 0.000000
# 5 0.000000 0.000000 0.000000 0.000000 0.030188 0.000000
# 6 0.000000 0.000000 0.000000 0.000000 0.000000 0.030855
#
#
# Mechanical properties :
#
#
# Convention : Reuss Voigt Hill
#
# Bulk Modulus (GPa) = 51.75107 70.15795 60.95451
# Shear Modulus (GPa) = 24.29353 27.77511 26.03432
#
# Velocity S-wave (km/s) = 3.50331 3.74594 3.62665
# Velocity P-wave (km/s) = 6.51989 7.35890 6.95206
#
# Compressibility (1/GPa) = 0.01932327
#
# Stress axis : x y z
#
# Youngs Moduli (GPa) = 101.76958 58.63583 39.36844
#
# Poissons Ratio (x) = 0.35483 0.13257
# Poissons Ratio (y) = 0.61584 0.27796
# Poissons Ratio (z) = 0.34270 0.41399
#
# Static dielectric constant tensor:
#      x y z
#    x 3.486250 0.000000 0.000000 
#    y 0.000000 3.723150 0.000000 
#    z 0.000000 0.000000 3.440300 
# 
# 
# High freq. dielectric constant tensor:
#      x y z
#    x 1.780910 0.000000 0.000000 
#    y 0.000000 1.754970 0.000000 
#    z 0.000000 0.000000 1.759320 
# 
# From -- ./inp_files/15447.got.cif
#   From: 2010.03.12/outbox.cif.g09.slc.cpg/sg38_8_cif.got.tgz:15447.got - 2010.04.14 02:38:36.
