data_PCOD8179910
_publ_section_title
;
Structure prediction by ZEFSAII (Michael W. Deem and Ramdas Pophale) SiO2 
 PCOD8179910
Probable space group: A M M 2
;
_chemical_formula_sum "Si O2"
_cell_formula_units_Z 48
_cell_length_a 9.538648
_cell_length_b 23.159098
_cell_length_c 11.700672
_cell_angle_alpha 90.000000
_cell_angle_beta 90.000000
_cell_angle_gamma 90.000000
_cell_volume 2584.754310
_symmetry_space_group_name_H-M "A M M 2"
_symmetry_group_IT_number 38
_symmetry_cell_setting 'orthorhombic'
loop_
_space_group_symop_operation_xyz
x,y,z
-x,-y,z
-x,y,z
x,-y,z
x,1/2+y,1/2+z
-x,1/2-y,1/2+z
-x,1/2+y,1/2+z
x,1/2-y,1/2+z
loop_
_atom_site_type_symbol
_atom_site_label
_atom_site_fract_x
_atom_site_fract_y
_atom_site_fract_z
Si Si1 0.340852 0.347953 0.370220
Si Si2 0.844678 0.564260 0.758642
Si Si3 0.342203 0.278387 0.780056
Si Si4 0.837771 0.664848 0.593500
Si Si5 0.666211 0.066038 0.675363
Si Si6 0.335878 0.620081 0.941423
O O1 0.500000 0.359326 0.414071
O O2 0.337262 0.289326 0.298808
O O3 0.233397 0.339172 0.471614
O O4 0.287684 0.400879 0.290901
O O5 0.829688 0.500000 0.712425
O O6 0.816571 0.602447 0.648139
O O7 0.732999 0.574034 0.857381
O O8 0.000000 0.576870 0.808703
O O9 0.500000 0.297284 0.744797
O O10 0.237955 0.288982 0.674971
O O11 0.298373 0.315125 0.894727
O O12 0.000000 0.682764 0.579633
O O13 0.500000 0.063463 0.670506
O O14 0.721360 0.104965 0.568341
O O15 0.726419 0.000000 0.673270
O O16 0.500000 0.609355 0.938526
#
# Coordination Sequence:
#
# PCOD8179910 Si02
#       6
#     8   8   8   8   8   8
#     4  10  21  35  55  78 105 141 179 218 261 317
#     4   9  18  33  52  74 103 139 174 211 259 310
#     4   9  19  34  56  80 103 133 177 224 269 318
#     4  10  21  36  53  76 107 138 174 217 264 315
#     4   9  18  32  51  78 110 141 174 216 266 313
#     4   9  17  31  53  80 103 130 172 222 267 309
#
# _framework density 18.570430000000002
#
# number of rings (size 3 to 8) (size 9 to 14) (size 15 to 20)
#    0.000    2.667    0.000    1.000    2.333    3.000 
#    0.000    0.833    0.000    1.000    0.000    0.000 
#    0.000    0.000    0.000    0.000    0.000    0.000 
#
# Total GULP energy -297465.143716 kJ/mol
# GULP energy per Si atom -12394.380988 kJ/mol
# Density = 1.852816 g / cm^3
# Si number density = 18.570430 Si / 1000 Ang^3
#
#
#
# Elastic Constant Matrix: (Units=GPa)
#
#
# Indices 1 2 3 4 5 6 
#
# 1 67.4248 22.6494 51.2960 0.0000 0.0000 0.0000
# 2 22.6494 85.2040 33.6927 0.0000 0.0000 0.0000
# 3 51.2960 33.6927 108.7166 0.0000 0.0000 0.0000
# 4 0.0000 0.0000 0.0000 16.9035 0.0000 0.0000
# 5 0.0000 0.0000 0.0000 0.0000 16.5078 0.0000
# 6 0.0000 0.0000 0.0000 0.0000 0.0000 17.8353
#
#
#
# Elastic Compliance Matrix: (Units=1/GPa)
#
#
# Indices 1 2 3 4 5 6 
#
# 1 0.023468 -0.002119 -0.010416 0.000000 0.000000 0.000000
# 2 -0.002119 0.013567 -0.003205 0.000000 0.000000 0.000000
# 3 -0.010416 -0.003205 0.015106 0.000000 0.000000 0.000000
# 4 0.000000 0.000000 0.000000 0.059159 0.000000 0.000000
# 5 0.000000 0.000000 0.000000 0.000000 0.060577 0.000000
# 6 0.000000 0.000000 0.000000 0.000000 0.000000 0.056069
#
#
# Mechanical properties :
#
#
# Convention : Reuss Voigt Hill
#
# Bulk Modulus (GPa) = 48.40099 52.95793 50.67946
# Shear Modulus (GPa) = 18.77490 20.49647 19.63569
#
# Velocity S-wave (km/s) = 3.18309 3.32583 3.25524
# Velocity P-wave (km/s) = 6.29519 6.58236 6.44038
#
# Compressibility (1/GPa) = 0.02066073
#
# Stress axis : x y z
#
# Youngs Moduli (GPa) = 42.61193 73.70736 66.19910
#
# Poissons Ratio (x) = 0.15622 0.68952
# Poissons Ratio (y) = 0.09031 0.21214
# Poissons Ratio (z) = 0.44384 0.23620
#
# Static dielectric constant tensor:
#      x y z
#    x 3.376300 0.000000 0.000000 
#    y 0.000000 3.615040 0.000000 
#    z 0.000000 0.000000 3.363660 
# 
# 
# High freq. dielectric constant tensor:
#      x y z
#    x 1.701210 0.000000 0.000000 
#    y 0.000000 1.725660 0.000000 
#    z 0.000000 0.000000 1.713550 
# 
# From -- ./inp_files/8109.got.cif
#   From: 2010.03.12/outbox.cif.g09.slc.cpg/sg38_5_cif.got.tgz:8109.got - 2010.04.14 02:38:36.
