data_PCOD8179087
_publ_section_title
;
Structure prediction by ZEFSAII (Michael W. Deem and Ramdas Pophale) SiO2 
 PCOD8179087
Probable space group: A M M 2
;
_chemical_formula_sum "Si O2"
_cell_formula_units_Z 64
_cell_length_a 23.758028
_cell_length_b 9.489166
_cell_length_c 15.621106
_cell_angle_alpha 90.000000
_cell_angle_beta 90.000000
_cell_angle_gamma 90.000000
_cell_volume 3521.682614
_symmetry_space_group_name_H-M "A M M 2"
_symmetry_group_IT_number 38
_symmetry_cell_setting 'orthorhombic'
loop_
_space_group_symop_operation_xyz
x,y,z
-x,-y,z
-x,y,z
x,-y,z
x,1/2+y,1/2+z
-x,1/2-y,1/2+z
-x,1/2+y,1/2+z
x,1/2-y,1/2+z
loop_
_atom_site_type_symbol
_atom_site_label
_atom_site_fract_x
_atom_site_fract_y
_atom_site_fract_z
Si Si1 0.130616 0.666209 0.260260
Si Si2 0.257414 0.336730 0.263861
Si Si3 0.622731 0.161895 0.028903
Si Si4 0.565507 0.334707 0.177870
Si Si5 0.936376 0.832570 0.925464
Si Si6 0.740079 0.342360 0.602185
Si Si7 0.630579 0.833579 0.842827
Si Si8 0.133303 0.835142 0.088265
O O1 0.122772 0.500000 0.242526
O O2 0.194067 0.702047 0.291608
O O3 0.090895 0.721504 0.336727
O O4 0.115916 0.749772 0.173501
O O5 0.262348 0.500000 0.242972
O O6 0.275621 0.261906 0.177393
O O7 0.303330 0.291115 0.334554
O O8 0.607143 0.220315 0.934149
O O9 0.603673 0.000000 0.042400
O O10 0.591007 0.257271 0.096433
O O11 0.690804 0.172784 0.032732
O O12 0.500000 0.300934 0.183799
O O13 0.577550 0.500000 0.167325
O O14 0.594095 0.272702 0.264123
O O15 0.000000 0.775708 0.930141
O O16 0.933926 0.000000 0.925599
O O17 0.903066 0.776397 0.008684
O O18 0.741712 0.500000 0.640321
O O19 0.801500 0.307420 0.562885
O O20 0.624491 0.000000 0.842712
O O21 0.121243 0.000000 0.105075
#
# Coordination Sequence:
#
# PCOD8179087 Si02
#       8
#     8   8   8   8   8   8   8   8
#     4   9  18  31  50  75 100 129 167 211 252 293
#     4   9  16  29  51  74  99 130 166 203 246 300
#     4  10  20  33  53  80 104 129 165 209 254 296
#     4  10  21  38  56  73 100 137 171 204 245 297
#     4   9  18  32  50  73 101 135 173 209 250 304
#     4   9  17  29  48  75 105 130 160 206 256 298
#     4   9  18  32  52  77 101 129 164 202 245 296
#     4   9  18  32  50  72 101 135 168 205 251 304
#
# _framework density 18.173131000000001
#
# number of rings (size 3 to 8) (size 9 to 14) (size 15 to 20)
#    0.000    2.750    1.250    0.000    1.750    1.250 
#    0.000    3.125    0.000    0.750    0.000    0.000 
#    0.000    0.000    0.000    0.000    0.000    0.000 
#
# Total GULP energy -396623.110447 kJ/mol
# GULP energy per Si atom -12394.472201 kJ/mol
# Density = 1.813177 g / cm^3
# Si number density = 18.173131 Si / 1000 Ang^3
#
#
#
# Elastic Constant Matrix: (Units=GPa)
#
#
# Indices 1 2 3 4 5 6 
#
# 1 103.7627 35.6445 79.6161 0.0000 0.0000 0.0000
# 2 35.6445 30.5250 39.2252 0.0000 0.0000 0.0000
# 3 79.6161 39.2252 159.1529 0.0000 0.0000 0.0000
# 4 0.0000 0.0000 0.0000 26.7683 0.0000 0.0000
# 5 0.0000 0.0000 0.0000 0.0000 24.2860 0.0000
# 6 0.0000 0.0000 0.0000 0.0000 0.0000 17.5735
#
#
#
# Elastic Compliance Matrix: (Units=1/GPa)
#
#
# Indices 1 2 3 4 5 6 
#
# 1 0.019370 -0.014879 -0.006022 0.000000 0.000000 0.000000
# 2 -0.014879 0.059374 -0.007190 0.000000 0.000000 0.000000
# 3 -0.006022 -0.007190 0.011068 0.000000 0.000000 0.000000
# 4 0.000000 0.000000 0.000000 0.037358 0.000000 0.000000
# 5 0.000000 0.000000 0.000000 0.000000 0.041176 0.000000
# 6 0.000000 0.000000 0.000000 0.000000 0.000000 0.056904
#
#
# Mechanical properties :
#
#
# Convention : Reuss Voigt Hill
#
# Bulk Modulus (GPa) = 29.73696 66.93471 48.33584
# Shear Modulus (GPa) = 17.08569 22.98923 20.03746
#
# Velocity S-wave (km/s) = 3.06953 3.56056 3.32412
# Velocity P-wave (km/s) = 5.38158 7.33588 6.43337
#
# Compressibility (1/GPa) = 0.03362818
#
# Stress axis : x y z
#
# Youngs Moduli (GPa) = 51.62711 16.84232 90.34962
#
# Poissons Ratio (x) = 0.25060 0.54413
# Poissons Ratio (y) = 0.76817 0.64963
# Poissons Ratio (z) = 0.31092 0.12110
#
# Static dielectric constant tensor:
#      x y z
#    x 3.547190 0.000000 0.000000 
#    y 0.000000 3.089330 0.000000 
#    z 0.000000 0.000000 3.471610 
# 
# 
# High freq. dielectric constant tensor:
#      x y z
#    x 1.710180 0.000000 0.000000 
#    y 0.000000 1.669110 0.000000 
#    z 0.000000 0.000000 1.704050 
# 
# From -- ./inp_files/15781.got.cif
#   From: 2010.03.12/outbox.cif.g09.slc.cpg/sg38_8_cif.got.tgz:15781.got - 2010.04.14 02:38:36.
