data_PCOD8179538
_publ_section_title
;
Structure prediction by ZEFSAII (Michael W. Deem and Ramdas Pophale) SiO2 
 PCOD8179538
Probable space group: A M M 2
;
_chemical_formula_sum "Si O2"
_cell_formula_units_Z 48
_cell_length_a 8.410670
_cell_length_b 30.433294
_cell_length_c 10.031825
_cell_angle_alpha 90.000000
_cell_angle_beta 90.000000
_cell_angle_gamma 90.000000
_cell_volume 2567.789995
_symmetry_space_group_name_H-M "A M M 2"
_symmetry_group_IT_number 38
_symmetry_cell_setting 'orthorhombic'
loop_
_space_group_symop_operation_xyz
x,y,z
-x,-y,z
-x,y,z
x,-y,z
x,1/2+y,1/2+z
-x,1/2-y,1/2+z
-x,1/2+y,1/2+z
x,1/2-y,1/2+z
loop_
_atom_site_type_symbol
_atom_site_label
_atom_site_fract_x
_atom_site_fract_y
_atom_site_fract_z
Si Si1 0.185646 0.718865 0.380280
Si Si2 0.315986 0.715754 0.092940
Si Si3 0.810916 0.048823 0.376917
Si Si4 0.189343 0.048962 0.078654
Si Si5 0.810746 0.378178 0.077347
Si Si6 0.812109 0.119704 0.875350
O O1 0.219303 0.729323 0.225275
O O2 0.286487 0.749711 0.475918
O O3 0.239692 0.669036 0.413303
O O4 0.000000 0.726306 0.407403
O O5 0.500000 0.714819 0.130496
O O6 0.261994 0.668554 0.036988
O O7 0.751307 0.060136 0.227843
O O8 0.741162 0.084848 0.478257
O O9 0.000000 0.049838 0.381735
O O10 0.751411 0.000000 0.417905
O O11 0.000000 0.050833 0.074547
O O12 0.246512 0.000000 0.037559
O O13 0.264919 0.084602 0.977438
O O14 0.754991 0.391461 0.225902
O O15 0.000000 0.374173 0.068295
O O16 0.000000 0.116091 0.882244
#
# Coordination Sequence:
#
# PCOD8179538 Si02
#       6
#     8   8   8   8   8   8
#     4  10  20  36  55  75 101 135 175 214 256 310
#     4  11  22  36  53  76 105 134 169 215 265 313
#     4   8  14  24  40  65  96 127 161 204 251 298
#     4   8  13  22  37  62  96 125 149 188 244 295
#     4   9  17  30  47  68  96 129 165 204 249 303
#     4   8  15  26  41  63  90 122 159 197 237 287
#
# _framework density 18.693117999999998
#
# number of rings (size 3 to 8) (size 9 to 14) (size 15 to 20)
#    0.000    3.000    0.000    4.000    0.000    2.000 
#    0.000    6.667    0.000    0.500    0.000    0.000 
#    0.000    8.667    0.000    0.000    0.000    0.000 
#
# Total GULP energy -297509.226467 kJ/mol
# GULP energy per Si atom -12396.217769 kJ/mol
# Density = 1.865057 g / cm^3
# Si number density = 18.693118 Si / 1000 Ang^3
#
#
#
# Elastic Constant Matrix: (Units=GPa)
#
#
# Indices 1 2 3 4 5 6 
#
# 1 30.5187 13.3097 7.3383 0.0000 0.0000 0.0000
# 2 13.3097 154.6791 107.2071 0.0000 0.0000 0.0000
# 3 7.3383 107.2071 120.9453 0.0000 0.0000 0.0000
# 4 0.0000 0.0000 0.0000 45.3645 0.0000 0.0000
# 5 0.0000 0.0000 0.0000 0.0000 12.6148 0.0000
# 6 0.0000 0.0000 0.0000 0.0000 0.0000 3.6210
#
#
#
# Elastic Compliance Matrix: (Units=1/GPa)
#
#
# Indices 1 2 3 4 5 6 
#
# 1 0.034133 -0.003894 0.001381 0.000000 0.000000 0.000000
# 2 -0.003894 0.017209 -0.015018 0.000000 0.000000 0.000000
# 3 0.001381 -0.015018 0.021496 0.000000 0.000000 0.000000
# 4 0.000000 0.000000 0.000000 0.022044 0.000000 0.000000
# 5 0.000000 0.000000 0.000000 0.000000 0.079272 0.000000
# 6 0.000000 0.000000 0.000000 0.000000 0.000000 0.276167
#
#
# Mechanical properties :
#
#
# Convention : Reuss Voigt Hill
#
# Bulk Modulus (GPa) = 26.47184 62.42814 44.44999
# Shear Modulus (GPa) = 10.04066 24.20593 17.12330
#
# Velocity S-wave (km/s) = 2.32012 3.60239 3.02987
# Velocity P-wave (km/s) = 4.62270 7.12543 6.00588
#
# Compressibility (1/GPa) = 0.03777599
#
# Stress axis : x y z
#
# Youngs Moduli (GPa) = 29.29709 58.10992 46.51965
#
# Poissons Ratio (x) = 0.22628 -0.06423
# Poissons Ratio (y) = 0.11408 0.69862
# Poissons Ratio (z) = -0.04045 0.87268
#
# Static dielectric constant tensor:
#      x y z
#    x 2.893410 0.000000 0.000000 
#    y 0.000000 3.701840 0.000000 
#    z 0.000000 0.000000 3.671900 
# 
# 
# High freq. dielectric constant tensor:
#      x y z
#    x 1.678100 0.000000 0.000000 
#    y 0.000000 1.731850 0.000000 
#    z 0.000000 0.000000 1.727680 
# 
# From -- ./inp_files/8143.got.cif
#   From: 2010.03.12/outbox.cif.g09.slc.cpg/sg38_5_cif.got.tgz:8143.got - 2010.04.14 02:38:36.
