data_PCOD8179928
_publ_section_title
;
Structure prediction by ZEFSAII (Michael W. Deem and Ramdas Pophale) SiO2 
 PCOD8179928
Probable space group: A M M 2
;
_chemical_formula_sum "Si O2"
_cell_formula_units_Z 64
_cell_length_a 9.046460
_cell_length_b 14.350615
_cell_length_c 27.693368
_cell_angle_alpha 90.000000
_cell_angle_beta 90.000000
_cell_angle_gamma 90.000000
_cell_volume 3595.215747
_symmetry_space_group_name_H-M "A M M 2"
_symmetry_group_IT_number 38
_symmetry_cell_setting 'orthorhombic'
loop_
_space_group_symop_operation_xyz
x,y,z
-x,-y,z
-x,y,z
x,-y,z
x,1/2+y,1/2+z
-x,1/2-y,1/2+z
-x,1/2+y,1/2+z
x,1/2-y,1/2+z
loop_
_atom_site_type_symbol
_atom_site_label
_atom_site_fract_x
_atom_site_fract_y
_atom_site_fract_z
Si Si1 0.829619 0.605886 0.982510
Si Si2 0.330210 0.892413 0.653589
Si Si3 0.169638 0.607037 0.870848
Si Si4 0.674101 0.776307 0.561409
Si Si5 0.173945 0.393415 0.251915
Si Si6 0.172371 0.394327 0.601100
Si Si7 0.169182 0.107952 0.211726
Si Si8 0.674384 0.224430 0.291933
O O1 0.777711 0.500000 0.992382
O O2 0.806284 0.631284 0.926685
O O3 0.000000 0.617318 0.997131
O O4 0.732400 0.676624 0.012986
O O5 0.500000 0.869035 0.666537
O O6 0.272790 0.834807 0.607795
O O7 0.229049 0.864595 0.698711
O O8 0.310954 0.000000 0.639903
O O9 0.212106 0.500000 0.860551
O O10 0.275369 0.673272 0.840408
O O11 0.000000 0.624445 0.855628
O O12 0.500000 0.772036 0.557958
O O13 0.736816 0.672127 0.565564
O O14 0.217982 0.500000 0.263561
O O15 0.253013 0.327262 0.290900
O O16 0.000000 0.378125 0.254288
O O17 0.212418 0.500000 0.587019
O O18 0.216997 0.375183 0.656550
O O19 0.000000 0.375541 0.593791
O O20 0.276957 0.167237 0.244925
O O21 0.000000 0.139660 0.220236
O O22 0.186237 0.000000 0.225529
O O23 0.500000 0.235002 0.292177
#
# Coordination Sequence:
#
# PCOD8179928 Si02
#       8
#     8   8   8   8   8   8   8   8
#     4   9  19  36  57  79 102 131 167 205 246 294
#     4   9  18  32  48  71 106 140 167 200 247 301
#     4   9  19  37  58  78 102 132 166 205 247 292
#     4  11  21  31  49  77 106 136 167 203 253 306
#     4  10  21  36  53  72  96 132 177 218 252 289
#     4   9  19  35  52  70  96 134 178 218 252 288
#     4   9  18  33  52  74 102 136 173 212 250 290
#     4  12  23  32  49  77 106 136 167 202 251 307
#
# _framework density 17.801435000000001
#
# number of rings (size 3 to 8) (size 9 to 14) (size 15 to 20)
#    0.000    2.250    0.000    4.875    0.000    7.750 
#    0.000    3.750    0.000    0.750    0.000    5.250 
#    0.000    0.000    0.000    0.000    0.000    0.000 
#
# Total GULP energy -396898.012935 kJ/mol
# GULP energy per Si atom -12403.062904 kJ/mol
# Density = 1.776092 g / cm^3
# Si number density = 17.801435 Si / 1000 Ang^3
#
#
#
# Elastic Constant Matrix: (Units=GPa)
#
#
# Indices 1 2 3 4 5 6 
#
# 1 91.6305 55.3683 49.1616 0.0000 0.0000 0.0000
# 2 55.3683 105.2272 60.3158 0.0000 0.0000 0.0000
# 3 49.1616 60.3158 77.4181 0.0000 0.0000 0.0000
# 4 0.0000 0.0000 0.0000 32.0701 0.0000 0.0000
# 5 0.0000 0.0000 0.0000 0.0000 23.0992 0.0000
# 6 0.0000 0.0000 0.0000 0.0000 0.0000 24.9867
#
#
#
# Elastic Compliance Matrix: (Units=1/GPa)
#
#
# Indices 1 2 3 4 5 6 
#
# 1 0.018047 -0.005289 -0.007340 0.000000 0.000000 0.000000
# 2 -0.005289 0.018722 -0.011227 0.000000 0.000000 0.000000
# 3 -0.007340 -0.011227 0.026325 0.000000 0.000000 0.000000
# 4 0.000000 0.000000 0.000000 0.031182 0.000000 0.000000
# 5 0.000000 0.000000 0.000000 0.000000 0.043292 0.000000
# 6 0.000000 0.000000 0.000000 0.000000 0.000000 0.040021
#
#
# Mechanical properties :
#
#
# Convention : Reuss Voigt Hill
#
# Bulk Modulus (GPa) = 65.01210 67.10747 66.05979
# Shear Modulus (GPa) = 21.69884 23.32654 22.51269
#
# Velocity S-wave (km/s) = 3.49512 3.62384 3.56006
# Velocity P-wave (km/s) = 7.27240 7.43567 7.35449
#
# Compressibility (1/GPa) = 0.01538175
#
# Stress axis : x y z
#
# Youngs Moduli (GPa) = 55.41044 53.41414 37.98705
#
# Poissons Ratio (x) = 0.28251 0.27881
# Poissons Ratio (y) = 0.29306 0.42649
# Poissons Ratio (z) = 0.40669 0.59970
#
# Static dielectric constant tensor:
#      x y z
#    x 3.195620 0.000000 0.000000 
#    y 0.000000 3.395590 0.000000 
#    z 0.000000 0.000000 3.119780 
# 
# 
# High freq. dielectric constant tensor:
#      x y z
#    x 1.687290 0.000000 0.000000 
#    y 0.000000 1.693180 0.000000 
#    z 0.000000 0.000000 1.668800 
# 
# From -- ./inp_files/22215.got.cif
#   From: 2010.03.12/outbox.cif.g09.slc.cpg/sg38_12_cif.got.tgz:22215.got - 2010.04.14 02:38:36.
