data_PCOD8179756
_publ_section_title
;
Structure prediction by ZEFSAII (Michael W. Deem and Ramdas Pophale) SiO2 
 PCOD8179756
Probable space group: A M M 2
;
_chemical_formula_sum "Si O2"
_cell_formula_units_Z 56
_cell_length_a 14.526682
_cell_length_b 14.212091
_cell_length_c 12.358186
_cell_angle_alpha 90.000000
_cell_angle_beta 90.000000
_cell_angle_gamma 90.000000
_cell_volume 2551.403439
_symmetry_space_group_name_H-M "A M M 2"
_symmetry_group_IT_number 38
_symmetry_cell_setting 'orthorhombic'
loop_
_space_group_symop_operation_xyz
x,y,z
-x,-y,z
-x,y,z
x,-y,z
x,1/2+y,1/2+z
-x,1/2-y,1/2+z
-x,1/2+y,1/2+z
x,1/2-y,1/2+z
loop_
_atom_site_type_symbol
_atom_site_label
_atom_site_fract_x
_atom_site_fract_y
_atom_site_fract_z
Si Si1 0.400009 0.893300 0.587010
Si Si2 0.219932 0.890259 0.314123
Si Si3 0.700830 0.395199 0.398687
Si Si4 0.103102 0.202272 0.506524
Si Si5 0.788833 0.606183 0.189726
Si Si6 0.840251 0.394911 0.574189
Si Si7 0.397504 0.710569 0.865487
O O1 0.500000 0.876657 0.643179
O O2 0.318376 0.867841 0.668073
O O3 0.389620 0.826810 0.485730
O O4 0.391044 0.000000 0.545153
O O5 0.167933 0.835437 0.410754
O O6 0.165108 0.877192 0.202725
O O7 0.320573 0.844273 0.295505
O O8 0.228759 0.000000 0.345727
O O9 0.661245 0.500000 0.374956
O O10 0.790909 0.377473 0.319401
O O11 0.738264 0.387908 0.521310
O O12 0.620419 0.321776 0.374880
O O13 0.141612 0.170782 0.623562
O O14 0.098060 0.315642 0.515761
O O15 0.000000 0.163351 0.488195
O O16 0.813033 0.500000 0.155965
O O17 0.881221 0.500000 0.553274
O O18 0.500000 0.693594 0.816699
#
# Coordination Sequence:
#
# PCOD8179756 Si02
#       7
#     8   8   8   8   8   8   8
#     4   9  17  31  55  86 118 156 203 256 318 383
#     4  11  23  43  70  98 133 172 216 273 331 387
#     4  10  21  40  63  87 126 176 220 262 316 386
#     4  12  25  41  68  99 129 164 215 274 332 391
#     4  10  20  37  62  91 128 165 205 266 327 381
#     4  10  23  45  69  92 129 177 219 264 325 394
#     4  11  21  35  61  94 129 169 216 268 322 383
#
# _framework density 21.948705
#
# number of rings (size 3 to 8) (size 9 to 14) (size 15 to 20)
#    0.000    1.571    2.857    1.714    0.000    3.714 
#    0.000    5.000    0.000    5.143    0.000    0.000 
#    0.000    0.000    0.000    0.000    0.000    0.000 
#
# Total GULP energy -347013.967694 kJ/mol
# GULP energy per Si atom -12393.355989 kJ/mol
# Density = 2.189875 g / cm^3
# Si number density = 21.948705 Si / 1000 Ang^3
#
#
#
# Elastic Constant Matrix: (Units=GPa)
#
#
# Indices 1 2 3 4 5 6 
#
# 1 104.9281 40.3206 15.8694 0.0000 0.0000 0.0000
# 2 40.3206 130.8782 37.1410 0.0000 0.0000 0.0000
# 3 15.8694 37.1410 77.9638 0.0000 0.0000 0.0000
# 4 0.0000 0.0000 0.0000 28.3517 0.0000 0.0000
# 5 0.0000 0.0000 0.0000 0.0000 5.0237 0.0000
# 6 0.0000 0.0000 0.0000 0.0000 0.0000 16.8236
#
#
#
# Elastic Compliance Matrix: (Units=1/GPa)
#
#
# Indices 1 2 3 4 5 6 
#
# 1 0.010844 -0.003139 -0.000712 0.000000 0.000000 0.000000
# 2 -0.003139 0.009744 -0.004003 0.000000 0.000000 0.000000
# 3 -0.000712 -0.004003 0.014878 0.000000 0.000000 0.000000
# 4 0.000000 0.000000 0.000000 0.035271 0.000000 0.000000
# 5 0.000000 0.000000 0.000000 0.000000 0.199056 0.000000
# 6 0.000000 0.000000 0.000000 0.000000 0.000000 0.059440
#
#
# Mechanical properties :
#
#
# Convention : Reuss Voigt Hill
#
# Bulk Modulus (GPa) = 50.61042 55.60355 53.10698
# Shear Modulus (GPa) = 14.22366 24.73575 19.47970
#
# Velocity S-wave (km/s) = 2.54843 3.36069 2.98234
# Velocity P-wave (km/s) = 5.63630 6.35983 6.00896
#
# Compressibility (1/GPa) = 0.01975878
#
# Stress axis : x y z
#
# Youngs Moduli (GPa) = 92.21552 102.63127 67.21193
#
# Poissons Ratio (x) = 0.32214 0.04786
# Poissons Ratio (y) = 0.28944 0.26904
# Poissons Ratio (z) = 0.06566 0.41082
#
# Static dielectric constant tensor:
#      x y z
#    x 3.810090 0.000000 0.000000 
#    y 0.000000 4.290770 0.000000 
#    z 0.000000 0.000000 3.914300 
# 
# 
# High freq. dielectric constant tensor:
#      x y z
#    x 1.830090 0.000000 0.000000 
#    y 0.000000 1.882900 0.000000 
#    z 0.000000 0.000000 1.861540 
# 
# From -- ./inp_files/10089.got.cif
#   From: 2010.03.12/outbox.cif.g09.slc.cpg/sg38_6_cif.got.tgz:10089.got - 2010.04.14 02:38:36.
