data_PCOD8179101
_publ_section_title
;
Structure prediction by ZEFSAII (Michael W. Deem and Ramdas Pophale) SiO2 
 PCOD8179101
Probable space group: A M M 2
;
_chemical_formula_sum "Si O2"
_cell_formula_units_Z 64
_cell_length_a 9.567733
_cell_length_b 27.979570
_cell_length_c 12.193089
_cell_angle_alpha 90.000000
_cell_angle_beta 90.000000
_cell_angle_gamma 90.000000
_cell_volume 3264.102792
_symmetry_space_group_name_H-M "A M M 2"
_symmetry_group_IT_number 38
_symmetry_cell_setting 'orthorhombic'
loop_
_space_group_symop_operation_xyz
x,y,z
-x,-y,z
-x,y,z
x,-y,z
x,1/2+y,1/2+z
-x,1/2-y,1/2+z
-x,1/2+y,1/2+z
x,1/2-y,1/2+z
loop_
_atom_site_type_symbol
_atom_site_label
_atom_site_fract_x
_atom_site_fract_y
_atom_site_fract_z
Si Si1 0.342492 0.713992 0.233130
Si Si2 0.343535 0.179529 0.289762
Si Si3 0.836985 0.554132 0.071751
Si Si4 0.847209 0.673179 0.403204
Si Si5 0.154669 0.931018 0.822303
Si Si6 0.337052 0.351327 0.030703
Si Si7 0.163193 0.626745 0.628394
Si Si8 0.345582 0.947555 0.018626
O O1 0.500000 0.697031 0.251348
O O2 0.332162 0.770986 0.222035
O O3 0.263744 0.707312 0.347928
O O4 0.282091 0.683729 0.129368
O O5 0.500000 0.158925 0.269701
O O6 0.315187 0.180189 0.420494
O O7 0.223688 0.146048 0.241296
O O8 0.797694 0.500000 0.027781
O O9 0.807835 0.553050 0.200800
O O10 0.745673 0.597921 0.021673
O O11 0.000000 0.564711 0.046713
O O12 0.846252 0.625761 0.330239
O O13 0.806879 0.663342 0.529006
O O14 0.000000 0.697376 0.398110
O O15 0.000000 0.950291 0.855987
O O16 0.274243 0.951739 0.899776
O O17 0.500000 0.363784 0.047846
O O18 0.244908 0.578462 0.603429
O O19 0.000000 0.615458 0.640641
O O20 0.500000 0.923190 0.008245
O O21 0.364770 0.000000 0.067326
#
# Coordination Sequence:
#
# PCOD8179101 Si02
#       8
#     8   8   8   8   8   8   8   8
#     4  10  21  36  60  88 115 150 190 234 289 351
#     4  10  23  41  61  84 115 154 197 244 294 353
#     4  10  20  35  57  84 116 158 203 245 295 353
#     4   9  18  33  54  82 115 147 183 228 279 337
#     4   9  17  31  51  78 116 155 189 234 289 345
#     4  10  22  40  59  87 122 153 196 249 297 352
#     4  10  22  39  58  83 115 150 193 240 288 343
#     4  10  20  33  53  83 116 152 194 239 292 350
#
# _framework density 19.607226000000001
#
# number of rings (size 3 to 8) (size 9 to 14) (size 15 to 20)
#    0.000    2.250    1.250    1.875    1.750    5.750 
#    0.000    0.625    0.000    0.750    0.000    0.000 
#    0.000    0.000    0.000    0.000    0.000    0.000 
#
# Total GULP energy -396481.424767 kJ/mol
# GULP energy per Si atom -12390.044524 kJ/mol
# Density = 1.956260 g / cm^3
# Si number density = 19.607226 Si / 1000 Ang^3
#
#
#
# Elastic Constant Matrix: (Units=GPa)
#
#
# Indices 1 2 3 4 5 6 
#
# 1 108.2680 44.1651 45.9301 0.0000 0.0000 0.0000
# 2 44.1651 76.6928 32.6920 0.0000 0.0000 0.0000
# 3 45.9301 32.6920 75.5218 0.0000 0.0000 0.0000
# 4 0.0000 0.0000 0.0000 2.8920 0.0000 0.0000
# 5 0.0000 0.0000 0.0000 0.0000 30.4043 0.0000
# 6 0.0000 0.0000 0.0000 0.0000 0.0000 93.9969
#
#
#
# Elastic Compliance Matrix: (Units=1/GPa)
#
#
# Indices 1 2 3 4 5 6 
#
# 1 0.014103 -0.005476 -0.006207 0.000000 0.000000 0.000000
# 2 -0.005476 0.018116 -0.004512 0.000000 0.000000 0.000000
# 3 -0.006207 -0.004512 0.018969 0.000000 0.000000 0.000000
# 4 0.000000 0.000000 0.000000 0.345781 0.000000 0.000000
# 5 0.000000 0.000000 0.000000 0.000000 0.032890 0.000000
# 6 0.000000 0.000000 0.000000 0.000000 0.000000 0.010639
#
#
# Mechanical properties :
#
#
# Convention : Reuss Voigt Hill
#
# Bulk Modulus (GPa) = 53.19358 56.22856 54.71107
# Shear Modulus (GPa) = 10.43509 34.63833 22.53671
#
# Velocity S-wave (km/s) = 2.30946 4.20767 3.39397
# Velocity P-wave (km/s) = 5.85662 7.23503 6.58201
#
# Compressibility (1/GPa) = 0.01879926
#
# Stress axis : x y z
#
# Youngs Moduli (GPa) = 70.90639 55.20105 52.71767
#
# Poissons Ratio (x) = 0.30227 0.32720
# Poissons Ratio (y) = 0.38827 0.23785
# Poissons Ratio (z) = 0.44009 0.24905
#
# Static dielectric constant tensor:
#      x y z
#    x 3.716150 0.000000 0.000000 
#    y 0.000000 3.515270 0.000000 
#    z 0.000000 0.000000 3.334840 
# 
# 
# High freq. dielectric constant tensor:
#      x y z
#    x 1.768130 0.000000 0.000000 
#    y 0.000000 1.755680 0.000000 
#    z 0.000000 0.000000 1.743550 
# 
# From -- ./inp_files/8679.got.cif
#   From: 2010.03.12/outbox.cif.g09.slc.cpg/sg38_5_cif.got.tgz:8679.got - 2010.04.14 02:38:36.
