data_PCOD8179716
_publ_section_title
;
Structure prediction by ZEFSAII (Michael W. Deem and Ramdas Pophale) SiO2 
 PCOD8179716
Probable space group: A M M 2
;
_chemical_formula_sum "Si O2"
_cell_formula_units_Z 64
_cell_length_a 18.849781
_cell_length_b 8.972128
_cell_length_c 19.540908
_cell_angle_alpha 90.000000
_cell_angle_beta 90.000000
_cell_angle_gamma 90.000000
_cell_volume 3304.810103
_symmetry_space_group_name_H-M "A M M 2"
_symmetry_group_IT_number 38
_symmetry_cell_setting 'orthorhombic'
loop_
_space_group_symop_operation_xyz
x,y,z
-x,-y,z
-x,y,z
x,-y,z
x,1/2+y,1/2+z
-x,1/2-y,1/2+z
-x,1/2+y,1/2+z
x,1/2-y,1/2+z
loop_
_atom_site_type_symbol
_atom_site_label
_atom_site_fract_x
_atom_site_fract_y
_atom_site_fract_z
Si Si1 0.201120 0.824345 0.593610
Si Si2 0.419018 0.669376 0.177792
Si Si3 0.801085 0.823093 0.748555
Si Si4 0.655184 0.828942 0.815782
Si Si5 0.919666 0.326729 0.990357
Si Si6 0.919722 0.176341 0.851032
Si Si7 0.658147 0.824601 0.061869
Si Si8 0.418473 0.825424 0.439092
O O1 0.195735 0.761261 0.671055
O O2 0.128270 0.783842 0.555229
O O3 0.263727 0.743302 0.552199
O O4 0.216393 0.000000 0.593216
O O5 0.500000 0.709778 0.162860
O O6 0.401253 0.500000 0.154824
O O7 0.404717 0.687183 0.258064
O O8 0.369170 0.782644 0.137297
O O9 0.729797 0.768899 0.786311
O O10 0.869009 0.763149 0.790642
O O11 0.801645 0.000000 0.745020
O O12 0.632863 0.727245 0.878785
O O13 0.661866 0.000000 0.840602
O O14 0.913749 0.500000 0.973132
O O15 0.893018 0.240311 0.923246
O O16 0.000000 0.280786 0.009261
O O17 0.000000 0.229581 0.835089
O O18 0.915044 0.000000 0.855961
O O19 0.661757 0.000000 0.052485
O O20 0.603067 0.757083 0.008231
O O21 0.500000 0.785265 0.422126
O O22 0.408280 0.000000 0.450235
#
# Coordination Sequence:
#
# PCOD8179716 Si02
#       8
#     8   8   8   8   8   8   8   8
#     4  10  20  38  60  82 115 155 191 234 285 339
#     4  10  20  37  62  86 112 150 190 229 284 348
#     4   9  18  34  57  83 113 149 190 231 275 331
#     4  10  20  37  60  86 116 150 190 236 283 342
#     4   9  19  35  57  86 115 147 189 235 282 333
#     4   9  18  33  55  84 117 152 189 230 277 331
#     4  12  25  39  58  85 116 150 193 242 285 339
#     4  11  25  43  61  83 114 150 190 238 293 350
#
# _framework density 19.365711999999998
#
# number of rings (size 3 to 8) (size 9 to 14) (size 15 to 20)
#    0.000    2.000    1.250    2.250    1.750    4.750 
#    0.000    3.125    0.000    0.000    0.000    3.500 
#    0.000    0.000    0.000    0.000    0.000    0.000 
#
# Total GULP energy -396892.797176 kJ/mol
# GULP energy per Si atom -12402.899912 kJ/mol
# Density = 1.932163 g / cm^3
# Si number density = 19.365712 Si / 1000 Ang^3
#
#
#
# Elastic Constant Matrix: (Units=GPa)
#
#
# Indices 1 2 3 4 5 6 
#
# 1 109.9027 37.2293 50.8365 0.0000 0.0000 0.0000
# 2 37.2293 62.2296 34.4441 0.0000 0.0000 0.0000
# 3 50.8365 34.4441 94.6229 0.0000 0.0000 0.0000
# 4 0.0000 0.0000 0.0000 30.6384 0.0000 0.0000
# 5 0.0000 0.0000 0.0000 0.0000 40.0740 0.0000
# 6 0.0000 0.0000 0.0000 0.0000 0.0000 22.8074
#
#
#
# Elastic Compliance Matrix: (Units=1/GPa)
#
#
# Indices 1 2 3 4 5 6 
#
# 1 0.013239 -0.004988 -0.005297 0.000000 0.000000 0.000000
# 2 -0.004988 0.022004 -0.005330 0.000000 0.000000 0.000000
# 3 -0.005297 -0.005330 0.015354 0.000000 0.000000 0.000000
# 4 0.000000 0.000000 0.000000 0.032639 0.000000 0.000000
# 5 0.000000 0.000000 0.000000 0.000000 0.024954 0.000000
# 6 0.000000 0.000000 0.000000 0.000000 0.000000 0.043845
#
#
# Mechanical properties :
#
#
# Convention : Reuss Voigt Hill
#
# Bulk Modulus (GPa) = 51.63420 56.86391 54.24906
# Shear Modulus (GPa) = 26.35459 28.32031 27.33745
#
# Velocity S-wave (km/s) = 3.69303 3.82828 3.76126
# Velocity P-wave (km/s) = 6.70113 6.99770 6.85102
#
# Compressibility (1/GPa) = 0.01936701
#
# Stress axis : x y z
#
# Youngs Moduli (GPa) = 75.53529 45.44652 65.12940
#
# Poissons Ratio (x) = 0.22671 0.34497
# Poissons Ratio (y) = 0.37681 0.34712
# Poissons Ratio (z) = 0.40009 0.24221
#
# Static dielectric constant tensor:
#      x y z
#    x 3.750160 0.000000 0.000000 
#    y 0.000000 3.310410 0.000000 
#    z 0.000000 0.000000 3.596740 
# 
# 
# High freq. dielectric constant tensor:
#      x y z
#    x 1.765040 0.000000 0.000000 
#    y 0.000000 1.728710 0.000000 
#    z 0.000000 0.000000 1.757680 
# 
# From -- ./inp_files/18991.got.cif
#   From: 2010.03.12/outbox.cif.g09.slc.cpg/sg38_10_cif.got.tgz:18991.got - 2010.04.14 02:38:36.
