data_PCOD8179494
_publ_section_title
;
Structure prediction by ZEFSAII (Michael W. Deem and Ramdas Pophale) SiO2 
 PCOD8179494
Probable space group: A M M 2
;
_chemical_formula_sum "Si O2"
_cell_formula_units_Z 48
_cell_length_a 8.885053
_cell_length_b 14.470140
_cell_length_c 20.304609
_cell_angle_alpha 90.000000
_cell_angle_beta 90.000000
_cell_angle_gamma 90.000000
_cell_volume 2610.522174
_symmetry_space_group_name_H-M "A M M 2"
_symmetry_group_IT_number 38
_symmetry_cell_setting 'orthorhombic'
loop_
_space_group_symop_operation_xyz
x,y,z
-x,-y,z
-x,y,z
x,-y,z
x,1/2+y,1/2+z
-x,1/2-y,1/2+z
-x,1/2+y,1/2+z
x,1/2-y,1/2+z
loop_
_atom_site_type_symbol
_atom_site_label
_atom_site_fract_x
_atom_site_fract_y
_atom_site_fract_z
Si Si1 0.673657 0.699680 0.941830
Si Si2 0.325939 0.814299 0.213027
Si Si3 0.177865 0.500000 0.759846
Si Si4 0.822777 0.500000 0.516648
Si Si5 0.178076 0.500000 0.369585
Si Si6 0.822216 0.196921 0.822653
Si Si7 0.327883 0.319748 0.564294
Si Si8 0.671819 0.500000 0.898705
O O1 0.500000 0.721471 0.925045
O O2 0.777366 0.744766 0.886484
O O3 0.703435 0.589814 0.943433
O O4 0.719914 0.739858 0.013003
O O5 0.500000 0.828465 0.231297
O O6 0.242367 0.910473 0.224083
O O7 0.258057 0.734144 0.257867
O O8 0.303609 0.781408 0.137868
O O9 0.219033 0.500000 0.836465
O O10 0.000000 0.500000 0.752529
O O11 0.752242 0.500000 0.443124
O O12 0.772308 0.590132 0.555534
O O13 0.000000 0.500000 0.513227
O O14 0.232241 0.408841 0.331177
O O15 0.000000 0.500000 0.376123
O O16 0.000000 0.204987 0.813458
O O17 0.500000 0.349290 0.553029
O O18 0.500000 0.500000 0.872636
#
# Coordination Sequence:
#
# PCOD8179494 Si02
#       8
#     8   8   4   4   4   8   8   4
#     4  10  20  36  58  83 111 147 187 230 284 338
#     4  11  23  39  56  81 119 155 189 234 288 337
#     4  12  23  35  56  86 116 148 192 236 283 344
#     4  11  20  34  57  85 116 147 184 233 288 340
#     4   9  20  36  55  84 117 146 179 233 288 328
#     4  11  21  37  59  83 113 149 190 234 282 338
#     4  10  22  38  56  82 116 152 189 232 282 342
#     4  10  20  35  58  85 115 145 181 232 289 338
#
# _framework density 18.387124
#
# number of rings (size 3 to 8) (size 9 to 14) (size 15 to 20)
#    0.000    1.500    3.333    2.500    0.000    3.333 
#    0.000    2.500    0.000    2.000    0.000    0.000 
#    0.000    0.000    0.000    0.000    0.000    0.000 
#
# Total GULP energy -297672.620779 kJ/mol
# GULP energy per Si atom -12403.025866 kJ/mol
# Density = 1.834527 g / cm^3
# Si number density = 18.387124 Si / 1000 Ang^3
#
#
#
# Elastic Constant Matrix: (Units=GPa)
#
#
# Indices 1 2 3 4 5 6 
#
# 1 87.9847 44.8194 48.7343 0.0000 0.0000 0.0000
# 2 44.8194 141.1113 66.1625 0.0000 0.0000 0.0000
# 3 48.7343 66.1625 135.8175 0.0000 0.0000 0.0000
# 4 0.0000 0.0000 0.0000 14.9137 0.0000 0.0000
# 5 0.0000 0.0000 0.0000 0.0000 17.7823 0.0000
# 6 0.0000 0.0000 0.0000 0.0000 0.0000 14.9995
#
#
#
# Elastic Compliance Matrix: (Units=1/GPa)
#
#
# Indices 1 2 3 4 5 6 
#
# 1 0.015056 -0.002915 -0.003983 0.000000 0.000000 0.000000
# 2 -0.002915 0.009749 -0.003703 0.000000 0.000000 0.000000
# 3 -0.003983 -0.003703 0.010596 0.000000 0.000000 0.000000
# 4 0.000000 0.000000 0.000000 0.067053 0.000000 0.000000
# 5 0.000000 0.000000 0.000000 0.000000 0.056236 0.000000
# 6 0.000000 0.000000 0.000000 0.000000 0.000000 0.066669
#
#
# Mechanical properties :
#
#
# Convention : Reuss Voigt Hill
#
# Bulk Modulus (GPa) = 70.42370 76.03844 73.23107
# Shear Modulus (GPa) = 19.89716 23.21892 21.55804
#
# Velocity S-wave (km/s) = 3.29314 3.55742 3.42782
# Velocity P-wave (km/s) = 7.26934 7.63660 7.45523
#
# Compressibility (1/GPa) = 0.01419976
#
# Stress axis : x y z
#
# Youngs Moduli (GPa) = 66.41692 102.57806 94.37698
#
# Poissons Ratio (x) = 0.29900 0.37587
# Poissons Ratio (y) = 0.19360 0.34949
# Poissons Ratio (z) = 0.26451 0.37985
#
# Static dielectric constant tensor:
#      x y z
#    x 3.382580 0.000000 0.000000 
#    y 0.000000 3.648160 0.000000 
#    z 0.000000 0.000000 3.457400 
# 
# 
# High freq. dielectric constant tensor:
#      x y z
#    x 1.712130 0.000000 0.000000 
#    y 0.000000 1.714130 0.000000 
#    z 0.000000 0.000000 1.711670 
# 
# From -- ./inp_files/16734.got.cif
#   From: 2010.03.12/outbox.cif.g09.slc.cpg/sg38_9_cif.got.tgz:16734.got - 2010.04.14 02:38:36.
