data_PCOD8179396
_publ_section_title
;
Structure prediction by ZEFSAII (Michael W. Deem and Ramdas Pophale) SiO2 
 PCOD8179396
Probable space group: A M M 2
;
_chemical_formula_sum "Si O2"
_cell_formula_units_Z 64
_cell_length_a 23.833048
_cell_length_b 9.151666
_cell_length_c 15.511807
_cell_angle_alpha 90.000000
_cell_angle_beta 90.000000
_cell_angle_gamma 90.000000
_cell_volume 3383.312723
_symmetry_space_group_name_H-M "A M M 2"
_symmetry_group_IT_number 38
_symmetry_cell_setting 'orthorhombic'
loop_
_space_group_symop_operation_xyz
x,y,z
-x,-y,z
-x,y,z
x,-y,z
x,1/2+y,1/2+z
-x,1/2-y,1/2+z
-x,1/2+y,1/2+z
x,1/2-y,1/2+z
loop_
_atom_site_type_symbol
_atom_site_label
_atom_site_fract_x
_atom_site_fract_y
_atom_site_fract_z
Si Si1 0.933879 0.332237 0.979540
Si Si2 0.866669 0.173742 0.833130
Si Si3 0.062156 0.326818 0.172581
Si Si4 0.749099 0.329450 0.834471
Si Si5 0.438985 0.173457 0.237607
Si Si6 0.560994 0.673414 0.931050
Si Si7 0.676536 0.828583 0.500718
Si Si8 0.676859 0.671728 0.668462
O O1 0.915820 0.500000 0.963514
O O2 0.901445 0.227654 0.914972
O O3 0.000000 0.313598 0.965401
O O4 0.917318 0.282444 0.076722
O O5 0.895549 0.233059 0.745192
O O6 0.804567 0.234685 0.836461
O O7 0.864910 0.000000 0.835214
O O8 0.058337 0.500000 0.177259
O O9 0.000000 0.261531 0.190329
O O10 0.764581 0.500000 0.834000
O O11 0.713880 0.285149 0.750528
O O12 0.713120 0.287511 0.917989
O O13 0.500000 0.221062 0.198777
O O14 0.433583 0.236114 0.334346
O O15 0.386832 0.232327 0.181759
O O16 0.434742 0.000000 0.242178
O O17 0.500000 0.720681 0.969925
O O18 0.565503 0.500000 0.926292
O O19 0.612910 0.732287 0.987365
O O20 0.702289 0.749533 0.584277
O O21 0.677446 0.000000 0.517705
O O22 0.677745 0.500000 0.653060
#
# Coordination Sequence:
#
# PCOD8179396 Si02
#       8
#     8   8   8   8   8   8   8   8
#     4   9  18  35  59  85 114 148 181 211 252 312
#     4  11  22  35  56  83 110 141 181 227 271 308
#     4   8  16  33  56  81 110 142 172 205 252 311
#     4  10  22  40  55  70 102 144 185 222 261 316
#     4   8  13  25  49  77 102 131 169 211 259 321
#     4   8  13  25  49  77 101 129 170 214 256 316
#     4  10  20  35  55  77 101 136 177 218 268 323
#     4  10  20  35  55  78 103 135 175 222 271 318
#
# _framework density 18.916371999999999
#
# number of rings (size 3 to 8) (size 9 to 14) (size 15 to 20)
#    0.000    2.750    1.250    2.250    0.000    3.250 
#    0.000    5.000    0.000    1.500    0.000    1.750 
#    0.000    0.000    0.000    0.000    0.000    0.000 
#
# Total GULP energy -396630.057190 kJ/mol
# GULP energy per Si atom -12394.689287 kJ/mol
# Density = 1.887332 g / cm^3
# Si number density = 18.916372 Si / 1000 Ang^3
#
#
#
# Elastic Constant Matrix: (Units=GPa)
#
#
# Indices 1 2 3 4 5 6 
#
# 1 119.0580 44.8175 76.9086 0.0000 0.0000 0.0000
# 2 44.8175 38.0553 47.0355 0.0000 0.0000 0.0000
# 3 76.9086 47.0355 156.7259 0.0000 0.0000 0.0000
# 4 0.0000 0.0000 0.0000 27.4013 0.0000 0.0000
# 5 0.0000 0.0000 0.0000 0.0000 -5.8006 0.0000
# 6 0.0000 0.0000 0.0000 0.0000 0.0000 19.5460
#
#
#
# Elastic Compliance Matrix: (Units=1/GPa)
#
#
# Indices 1 2 3 4 5 6 
#
# 1 0.016239 -0.014744 -0.003544 0.000000 0.000000 0.000000
# 2 -0.014744 0.055160 -0.009319 0.000000 0.000000 0.000000
# 3 -0.003544 -0.009319 0.010916 0.000000 0.000000 0.000000
# 4 0.000000 0.000000 0.000000 0.036495 0.000000 0.000000
# 5 0.000000 0.000000 0.000000 0.000000 -0.172397 0.000000
# 6 0.000000 0.000000 0.000000 0.000000 0.000000 0.051161
#
#
# Mechanical properties :
#
#
# Convention : Reuss Voigt Hill
#
# Bulk Modulus (GPa) = 36.89908 72.37362 54.63635
# Shear Modulus (GPa) = 80.87926 17.90118 49.39022
#
# Velocity S-wave (km/s) = 6.54592 3.07959 5.11532
# Velocity P-wave (km/s) = 8.75676 7.14059 7.98964
#
# Compressibility (1/GPa) = 0.02710094
#
# Stress axis : x y z
#
# Youngs Moduli (GPa) = 61.58154 18.12923 91.60667
#
# Poissons Ratio (x) = 0.26730 0.32463
# Poissons Ratio (y) = 0.90797 0.85367
# Poissons Ratio (z) = 0.21823 0.16894
#
# Static dielectric constant tensor:
#      x y z
#    x 4.513690 0.000000 0.000000 
#    y 0.000000 2.978310 0.000000 
#    z 0.000000 0.000000 3.598780 
# 
# 
# High freq. dielectric constant tensor:
#      x y z
#    x 1.740590 0.000000 0.000000 
#    y 0.000000 1.688690 0.000000 
#    z 0.000000 0.000000 1.741600 
# 
# From -- ./inp_files/15830.got.cif
#   From: 2010.03.12/outbox.cif.g09.slc.cpg/sg38_8_cif.got.tgz:15830.got - 2010.04.14 02:38:36.
