data_PCOD8179091
_publ_section_title
;
Structure prediction by ZEFSAII (Michael W. Deem and Ramdas Pophale) SiO2 
 PCOD8179091
Probable space group: A M M 2
;
_chemical_formula_sum "Si O2"
_cell_formula_units_Z 56
_cell_length_a 15.312011
_cell_length_b 8.875813
_cell_length_c 20.225216
_cell_angle_alpha 90.000000
_cell_angle_beta 90.000000
_cell_angle_gamma 90.000000
_cell_volume 2748.739255
_symmetry_space_group_name_H-M "A M M 2"
_symmetry_group_IT_number 38
_symmetry_cell_setting 'orthorhombic'
loop_
_space_group_symop_operation_xyz
x,y,z
-x,-y,z
-x,y,z
x,-y,z
x,1/2+y,1/2+z
-x,1/2-y,1/2+z
-x,1/2+y,1/2+z
x,1/2-y,1/2+z
loop_
_atom_site_type_symbol
_atom_site_label
_atom_site_fract_x
_atom_site_fract_y
_atom_site_fract_z
Si Si1 0.221113 0.676306 0.512510
Si Si2 0.402204 0.175567 0.328210
Si Si3 0.172040 0.676468 0.141946
Si Si4 0.408019 0.172107 0.044075
Si Si5 0.772373 0.174996 0.865259
Si Si6 0.097389 0.174514 0.262707
Si Si7 0.344139 0.830311 0.184211
O O1 0.224394 0.500000 0.530943
O O2 0.161294 0.757112 0.567474
O O3 0.319637 0.747420 0.516120
O O4 0.186324 0.702810 0.438299
O O5 0.500000 0.224277 0.351253
O O6 0.328063 0.269635 0.366321
O O7 0.395618 0.210881 0.250387
O O8 0.386875 0.000000 0.342846
O O9 0.157627 0.500000 0.137492
O O10 0.100284 0.746327 0.191053
O O11 0.265260 0.714423 0.173986
O O12 0.500000 0.248170 0.019414
O O13 0.410375 0.183073 0.123545
O O14 0.408412 0.000000 0.020373
O O15 0.830750 0.262183 0.812826
O O16 0.773944 0.000000 0.846892
O O17 0.000000 0.200816 0.291585
O O18 0.118016 0.000000 0.253075
O O19 0.305030 0.000000 0.188235
#
# Coordination Sequence:
#
# PCOD8179091 Si02
#       7
#     8   8   8   8   8   8   8
#     4   9  20  37  57  81 116 162 203 240 294 358
#     4  10  20  33  53  82 119 167 213 250 295 352
#     4  11  21  35  60  91 119 148 189 244 302 354
#     4   8  13  24  46  74 103 143 199 248 281 328
#     4  11  23  39  60  89 125 163 203 252 303 353
#     4  11  24  43  68  93 118 153 196 244 303 371
#     4   9  16  29  50  76 112 155 197 243 295 349
#
# _framework density 20.372978
#
# number of rings (size 3 to 8) (size 9 to 14) (size 15 to 20)
#    0.000    2.143    1.429    3.429    0.000    4.857 
#    0.000    2.143    0.000   11.143    0.000    0.000 
#    0.000    0.000    0.000    0.000    0.000    0.000 
#
# Total GULP energy -347011.997981 kJ/mol
# GULP energy per Si atom -12393.285642 kJ/mol
# Density = 2.032661 g / cm^3
# Si number density = 20.372978 Si / 1000 Ang^3
#
#
#
# Elastic Constant Matrix: (Units=GPa)
#
#
# Indices 1 2 3 4 5 6 
#
# 1 82.6533 35.7471 27.2139 0.0000 0.0000 0.0000
# 2 35.7471 105.9056 47.9953 0.0000 0.0000 0.0000
# 3 27.2139 47.9953 107.6347 0.0000 0.0000 0.0000
# 4 0.0000 0.0000 0.0000 28.5020 0.0000 0.0000
# 5 0.0000 0.0000 0.0000 0.0000 8.7756 0.0000
# 6 0.0000 0.0000 0.0000 0.0000 0.0000 15.3503
#
#
#
# Elastic Compliance Matrix: (Units=1/GPa)
#
#
# Indices 1 2 3 4 5 6 
#
# 1 0.014456 -0.004039 -0.001854 0.000000 0.000000 0.000000
# 2 -0.004039 0.012962 -0.004759 0.000000 0.000000 0.000000
# 3 -0.001854 -0.004759 0.011881 0.000000 0.000000 0.000000
# 4 0.000000 0.000000 0.000000 0.035085 0.000000 0.000000
# 5 0.000000 0.000000 0.000000 0.000000 0.113953 0.000000
# 6 0.000000 0.000000 0.000000 0.000000 0.000000 0.065145
#
#
# Mechanical properties :
#
#
# Convention : Reuss Voigt Hill
#
# Bulk Modulus (GPa) = 55.56790 57.56736 56.56763
# Shear Modulus (GPa) = 17.80717 22.87473 20.34095
#
# Velocity S-wave (km/s) = 2.95965 3.35445 3.16322
# Velocity P-wave (km/s) = 6.24611 6.58188 6.41620
#
# Compressibility (1/GPa) = 0.01799600
#
# Stress axis : x y z
#
# Youngs Moduli (GPa) = 69.17495 77.14614 84.16533
#
# Poissons Ratio (x) = 0.31162 0.15603
# Poissons Ratio (y) = 0.27942 0.40052
# Poissons Ratio (z) = 0.12824 0.36712
#
# Static dielectric constant tensor:
#      x y z
#    x 3.624640 0.000000 0.000000 
#    y 0.000000 3.428780 0.000000 
#    z 0.000000 0.000000 3.762190 
# 
# 
# High freq. dielectric constant tensor:
#      x y z
#    x 1.779900 0.000000 0.000000 
#    y 0.000000 1.771300 0.000000 
#    z 0.000000 0.000000 1.799340 
# 
# From -- ./inp_files/21058.got.cif
#   From: 2010.03.12/outbox.cif.g09.slc.cpg/sg38_11_cif.got.tgz:21058.got - 2010.04.14 02:38:36.
