data_PCOD8179154
_publ_section_title
;
Structure prediction by ZEFSAII (Michael W. Deem and Ramdas Pophale) SiO2 
 PCOD8179154
Probable space group: A M M 2
;
_chemical_formula_sum "Si O2"
_cell_formula_units_Z 48
_cell_length_a 9.407102
_cell_length_b 7.946140
_cell_length_c 34.422399
_cell_angle_alpha 90.000000
_cell_angle_beta 90.000000
_cell_angle_gamma 90.000000
_cell_volume 2573.079471
_symmetry_space_group_name_H-M "A M M 2"
_symmetry_group_IT_number 38
_symmetry_cell_setting 'orthorhombic'
loop_
_space_group_symop_operation_xyz
x,y,z
-x,-y,z
-x,y,z
x,-y,z
x,1/2+y,1/2+z
-x,1/2-y,1/2+z
-x,1/2+y,1/2+z
x,1/2-y,1/2+z
loop_
_atom_site_type_symbol
_atom_site_label
_atom_site_fract_x
_atom_site_fract_y
_atom_site_fract_z
Si Si1 0.161492 0.808725 0.682700
Si Si2 0.831587 0.809633 0.262714
Si Si3 0.831255 0.185881 0.102915
Si Si4 0.165146 0.301803 0.847568
Si Si5 0.667620 0.500000 0.972260
Si Si6 0.830269 0.000000 0.552412
Si Si7 0.663408 0.688481 0.419166
O O1 0.235420 0.785383 0.725073
O O2 0.231790 0.706782 0.646803
O O3 0.000000 0.745885 0.687924
O O4 0.168680 0.000000 0.669471
O O5 0.778417 0.742682 0.304760
O O6 0.000000 0.790992 0.263982
O O7 0.783477 0.000000 0.257460
O O8 0.774782 0.332316 0.074595
O O9 0.000000 0.204753 0.105626
O O10 0.787179 0.000000 0.087315
O O11 0.191686 0.500000 0.852698
O O12 0.250568 0.198668 0.879360
O O13 0.000000 0.258726 0.852815
O O14 0.500000 0.500000 0.981450
O O15 0.714389 0.331536 0.949211
O O16 0.757303 0.500000 0.011073
O O17 0.000000 0.000000 0.547471
O O18 0.500000 0.721104 0.408812
O O19 0.685892 0.500000 0.436786
#
# Coordination Sequence:
#
# PCOD8179154 Si02
#       7
#     8   8   8   8   4   4   8
#     4   9  14  21  35  58  93 135 172 201 237 288
#     4   8  14  23  36  60  95 133 169 205 244 289
#     4   9  16  27  44  67  99 135 165 201 248 295
#     4   9  17  30  49  74 106 139 171 211 260 306
#     4  10  22  40  58  76 102 132 164 210 262 308
#     4  10  20  34  52  78 104 126 164 210 252 306
#     4  10  21  37  57  78  99 131 174 212 251 309
#
# _framework density 18.654689000000001
#
# number of rings (size 3 to 8) (size 9 to 14) (size 15 to 20)
#    0.000    2.833    1.667    1.500    0.000    4.333 
#    0.000    1.667    0.000    0.000    0.000    1.167 
#    0.000    2.667    0.000    0.000    0.000    0.000 
#
# Total GULP energy -297342.380190 kJ/mol
# GULP energy per Si atom -12389.265841 kJ/mol
# Density = 1.861223 g / cm^3
# Si number density = 18.654689 Si / 1000 Ang^3
#
#
#
# Elastic Constant Matrix: (Units=GPa)
#
#
# Indices 1 2 3 4 5 6 
#
# 1 18.2077 17.9760 30.2400 0.0000 0.0000 0.0000
# 2 17.9760 120.0413 75.0400 0.0000 0.0000 0.0000
# 3 30.2400 75.0400 154.7830 0.0000 0.0000 0.0000
# 4 0.0000 0.0000 0.0000 27.3334 0.0000 0.0000
# 5 0.0000 0.0000 0.0000 0.0000 -5.0898 0.0000
# 6 0.0000 0.0000 0.0000 0.0000 0.0000 12.8100
#
#
#
# Elastic Compliance Matrix: (Units=1/GPa)
#
#
# Indices 1 2 3 4 5 6 
#
# 1 0.082181 -0.003257 -0.014477 0.000000 0.000000 0.000000
# 2 -0.003257 0.012082 -0.005221 0.000000 0.000000 0.000000
# 3 -0.014477 -0.005221 0.011820 0.000000 0.000000 0.000000
# 4 0.000000 0.000000 0.000000 0.036585 0.000000 0.000000
# 5 0.000000 0.000000 0.000000 0.000000 -0.196473 0.000000
# 6 0.000000 0.000000 0.000000 0.000000 0.000000 0.078064
#
#
# Mechanical properties :
#
#
# Convention : Reuss Voigt Hill
#
# Bulk Modulus (GPa) = 16.61856 59.94932 38.28394
# Shear Modulus (GPa) = 55.41575 18.32912 36.87243
#
# Velocity S-wave (km/s) = 5.45624 3.13796 4.45069
# Velocity P-wave (km/s) = 6.97294 6.73314 6.85409
#
# Compressibility (1/GPa) = 0.06017370
#
# Stress axis : x y z
#
# Youngs Moduli (GPa) = 12.16829 82.76763 84.60053
#
# Poissons Ratio (x) = 0.26955 1.22474
# Poissons Ratio (y) = 0.03963 0.44172
# Poissons Ratio (z) = 0.17616 0.43215
#
# Static dielectric constant tensor:
#      x y z
#    x 2.787650 0.000000 0.000000 
#    y 0.000000 3.592380 0.000000 
#    z 0.000000 0.000000 3.632420 
# 
# 
# High freq. dielectric constant tensor:
#      x y z
#    x 1.645720 0.000000 0.000000 
#    y 0.000000 1.732210 0.000000 
#    z 0.000000 0.000000 1.735350 
# 
# From -- ./inp_files/24371.got.cif
#   From: 2010.03.12/outbox.cif.g09.slc.cpg/sg38_13_cif.got.tgz:24371.got - 2010.04.14 02:38:36.
