data_PCOD8179134
_publ_section_title
;
Structure prediction by ZEFSAII (Michael W. Deem and Ramdas Pophale) SiO2 
 PCOD8179134
Probable space group: A M M 2
;
_chemical_formula_sum "Si O2"
_cell_formula_units_Z 64
_cell_length_a 20.210176
_cell_length_b 9.024067
_cell_length_c 18.710658
_cell_angle_alpha 90.000000
_cell_angle_beta 90.000000
_cell_angle_gamma 90.000000
_cell_volume 3412.412054
_symmetry_space_group_name_H-M "A M M 2"
_symmetry_group_IT_number 38
_symmetry_cell_setting 'orthorhombic'
loop_
_space_group_symop_operation_xyz
x,y,z
-x,-y,z
-x,y,z
x,-y,z
x,1/2+y,1/2+z
-x,1/2-y,1/2+z
-x,1/2+y,1/2+z
x,1/2-y,1/2+z
loop_
_atom_site_type_symbol
_atom_site_label
_atom_site_fract_x
_atom_site_fract_y
_atom_site_fract_z
Si Si1 0.425339 0.173724 0.205830
Si Si2 0.693546 0.823895 0.462613
Si Si3 0.924409 0.829459 0.314518
Si Si4 0.692142 0.324414 0.803372
Si Si5 0.922835 0.172405 0.958598
Si Si6 0.818395 0.175943 0.554016
Si Si7 0.425432 0.174514 0.558661
Si Si8 0.187469 0.673556 0.705244
O O1 0.500000 0.215426 0.228751
O O2 0.376601 0.229357 0.268155
O O3 0.404595 0.252708 0.133016
O O4 0.417431 0.000000 0.192546
O O5 0.697426 0.755938 0.382866
O O6 0.756006 0.766832 0.507926
O O7 0.625233 0.768132 0.498455
O O8 0.694204 0.000000 0.459678
O O9 0.900130 0.732434 0.381387
O O10 0.881237 0.791618 0.245221
O O11 0.000000 0.793693 0.294080
O O12 0.914685 0.000000 0.337216
O O13 0.693887 0.500000 0.809306
O O14 0.753358 0.269927 0.755814
O O15 0.884941 0.256541 0.021353
O O16 0.000000 0.204644 0.970473
O O17 0.906028 0.000000 0.962649
O O18 0.809574 0.231556 0.634082
O O19 0.823787 0.000000 0.553823
O O20 0.500000 0.220868 0.536231
O O21 0.419703 0.000000 0.569205
O O22 0.194231 0.500000 0.686756
#
# Coordination Sequence:
#
# PCOD8179134 Si02
#       8
#     8   8   8   8   8   8   8   8
#     4   9  17  29  47  71  97 126 162 205 251 299
#     4   9  18  32  50  74 102 131 168 213 256 299
#     4   9  18  34  56  79 103 133 167 203 249 305
#     4   9  17  30  49  71  96 128 166 209 255 301
#     4  10  21  37  57  80 106 135 168 209 255 304
#     4  11  22  35  53  76 104 138 174 214 258 304
#     4   9  17  30  50  74 100 132 167 204 248 298
#     4  10  20  34  52  74 102 136 172 210 254 304
#
# _framework density 18.755061999999999
#
# number of rings (size 3 to 8) (size 9 to 14) (size 15 to 20)
#    0.000    2.500    0.000    2.250    0.000    4.250 
#    0.000    4.375    0.000    3.000    0.000    3.500 
#    0.000    0.000    0.000    0.000    0.000    0.000 
#
# Total GULP energy -396843.673795 kJ/mol
# GULP energy per Si atom -12401.364806 kJ/mol
# Density = 1.871237 g / cm^3
# Si number density = 18.755062 Si / 1000 Ang^3
#
#
#
# Elastic Constant Matrix: (Units=GPa)
#
#
# Indices 1 2 3 4 5 6 
#
# 1 116.9414 35.4628 88.0270 0.0000 0.0000 0.0000
# 2 35.4628 46.4483 45.7809 0.0000 0.0000 0.0000
# 3 88.0270 45.7809 169.4818 0.0000 0.0000 0.0000
# 4 0.0000 0.0000 0.0000 32.3840 0.0000 0.0000
# 5 0.0000 0.0000 0.0000 0.0000 38.5791 0.0000
# 6 0.0000 0.0000 0.0000 0.0000 0.0000 18.2762
#
#
#
# Elastic Compliance Matrix: (Units=1/GPa)
#
#
# Indices 1 2 3 4 5 6 
#
# 1 0.014878 -0.005101 -0.006349 0.000000 0.000000 0.000000
# 2 -0.005101 0.031090 -0.005749 0.000000 0.000000 0.000000
# 3 -0.006349 -0.005749 0.010751 0.000000 0.000000 0.000000
# 4 0.000000 0.000000 0.000000 0.030879 0.000000 0.000000
# 5 0.000000 0.000000 0.000000 0.000000 0.025921 0.000000
# 6 0.000000 0.000000 0.000000 0.000000 0.000000 0.054716
#
#
# Mechanical properties :
#
#
# Convention : Reuss Voigt Hill
#
# Bulk Modulus (GPa) = 44.80170 74.60143 59.70156
# Shear Modulus (GPa) = 23.80125 28.75457 26.27791
#
# Velocity S-wave (km/s) = 3.56625 3.91981 3.74720
# Velocity P-wave (km/s) = 6.39509 7.76850 7.11501
#
# Compressibility (1/GPa) = 0.02232058
#
# Stress axis : x y z
#
# Youngs Moduli (GPa) = 67.21514 32.16485 93.01390
#
# Poissons Ratio (x) = 0.16406 0.59059
# Poissons Ratio (y) = 0.34284 0.53472
# Poissons Ratio (z) = 0.42678 0.18491
#
# Static dielectric constant tensor:
#      x y z
#    x 3.692870 0.000000 0.000000 
#    y 0.000000 3.174560 0.000000 
#    z 0.000000 0.000000 3.560560 
# 
# 
# High freq. dielectric constant tensor:
#      x y z
#    x 1.743160 0.000000 0.000000 
#    y 0.000000 1.698190 0.000000 
#    z 0.000000 0.000000 1.730420 
# 
# From -- ./inp_files/18875.got.cif
#   From: 2010.03.12/outbox.cif.g09.slc.cpg/sg38_10_cif.got.tgz:18875.got - 2010.04.14 02:38:36.
