data_PCOD8179769
_publ_section_title
;
Structure prediction by ZEFSAII (Michael W. Deem and Ramdas Pophale) SiO2 
 PCOD8179769
Probable space group: A M M 2
;
_chemical_formula_sum "Si O2"
_cell_formula_units_Z 38
_cell_length_a 7.472644
_cell_length_b 24.603583
_cell_length_c 10.007821
_cell_angle_alpha 90.000000
_cell_angle_beta 90.000000
_cell_angle_gamma 90.000000
_cell_volume 1839.976090
_symmetry_space_group_name_H-M "A M M 2"
_symmetry_group_IT_number 38
_symmetry_cell_setting 'orthorhombic'
loop_
_space_group_symop_operation_xyz
x,y,z
-x,-y,z
-x,y,z
x,-y,z
x,1/2+y,1/2+z
-x,1/2-y,1/2+z
-x,1/2+y,1/2+z
x,1/2-y,1/2+z
loop_
_atom_site_type_symbol
_atom_site_label
_atom_site_fract_x
_atom_site_fract_y
_atom_site_fract_z
Si Si1 0.300959 0.000000 0.495800
Si Si2 0.292340 0.595244 0.793198
Si Si3 0.000000 0.000000 0.704576
Si Si4 0.000000 0.115932 0.819923
Si Si5 0.287196 0.803479 0.718840
Si Si6 0.710644 0.707425 0.913646
Si Si7 0.000000 0.436697 0.587677
O O1 0.263081 0.946343 0.412319
O O2 0.178475 0.000000 0.621575
O O3 0.500000 0.000000 0.552323
O O4 0.500000 0.599017 0.749192
O O5 0.214603 0.652397 0.847414
O O6 0.180702 0.573668 0.669349
O O7 0.000000 0.947298 0.792819
O O8 0.179709 0.142900 0.760883
O O9 0.000000 0.112284 0.979808
O O10 0.500000 0.814955 0.727404
O O11 0.222625 0.757457 0.823250
O O12 0.228957 0.786157 0.568328
O O13 0.500000 0.704449 0.909087
O O14 0.000000 0.500000 0.538864
#
# Coordination Sequence:
#
# PCOD8179769 Si02
#       7
#     4   8   2   4   8   8   4
#     4  10  20  37  67  97 119 158 209 258 322 384
#     4  10  21  39  66  96 125 160 207 261 315 378
#     4  12  24  42  60  86 126 166 204 268 318 368
#     4  12  28  42  62  88 127 171 214 257 318 380
#     4  10  23  44  66  95 130 166 209 262 317 379
#     4   9  20  40  68  97 128 164 208 260 317 376
#     4  12  25  43  61  91 128 166 212 263 312 377
#
# _framework density 20.652443000000002
#
# number of rings (size 3 to 8) (size 9 to 14) (size 15 to 20)
#    0.000    1.684    1.579    1.895    2.947    5.895 
#    0.000    0.000    0.000    0.000    0.000    0.000 
#    0.000    0.000    0.000    0.000    0.000    0.000 
#
# Total GULP energy -235552.860616 kJ/mol
# GULP energy per Si atom -12397.518980 kJ/mol
# Density = 2.060544 g / cm^3
# Si number density = 20.652443 Si / 1000 Ang^3
#
#
#
# Elastic Constant Matrix: (Units=GPa)
#
#
# Indices 1 2 3 4 5 6 
#
# 1 78.4081 35.6881 35.8240 0.0000 0.0000 0.0000
# 2 35.6881 143.7228 44.7154 0.0000 0.0000 0.0000
# 3 35.8240 44.7154 99.7145 0.0000 0.0000 0.0000
# 4 0.0000 0.0000 0.0000 34.0010 0.0000 0.0000
# 5 0.0000 0.0000 0.0000 0.0000 19.7213 0.0000
# 6 0.0000 0.0000 0.0000 0.0000 0.0000 40.4229
#
#
#
# Elastic Compliance Matrix: (Units=1/GPa)
#
#
# Indices 1 2 3 4 5 6 
#
# 1 0.016019 -0.002542 -0.004615 0.000000 0.000000 0.000000
# 2 -0.002542 0.008489 -0.002894 0.000000 0.000000 0.000000
# 3 -0.004615 -0.002894 0.012984 0.000000 0.000000 0.000000
# 4 0.000000 0.000000 0.000000 0.029411 0.000000 0.000000
# 5 0.000000 0.000000 0.000000 0.000000 0.050707 0.000000
# 6 0.000000 0.000000 0.000000 0.000000 0.000000 0.024738
#
#
# Mechanical properties :
#
#
# Convention : Reuss Voigt Hill
#
# Bulk Modulus (GPa) = 57.50005 61.58893 59.54449
# Shear Modulus (GPa) = 29.71801 32.53690 31.12746
#
# Velocity S-wave (km/s) = 3.79748 3.97350 3.88649
# Velocity P-wave (km/s) = 6.86513 7.13708 7.00243
#
# Compressibility (1/GPa) = 0.01739129
#
# Stress axis : x y z
#
# Youngs Moduli (GPa) = 62.42406 117.79521 77.01544
#
# Poissons Ratio (x) = 0.29942 0.35546
# Poissons Ratio (y) = 0.15867 0.22286
# Poissons Ratio (z) = 0.28811 0.34086
#
# Static dielectric constant tensor:
#      x y z
#    x 3.645220 0.000000 0.000000 
#    y 0.000000 4.024470 0.000000 
#    z 0.000000 0.000000 3.835980 
# 
# 
# High freq. dielectric constant tensor:
#      x y z
#    x 1.808630 0.000000 0.000000 
#    y 0.000000 1.819690 0.000000 
#    z 0.000000 0.000000 1.809080 
# 
# From -- ./inp_files/3356.got.cif
#   From: 2010.03.12/outbox.cif.g09.slc.cpg/sg38_2_cif.got.tgz:3356.got - 2010.04.14 02:38:36.
