data_PCOD8179634
_publ_section_title
;
Structure prediction by ZEFSAII (Michael W. Deem and Ramdas Pophale) SiO2 
 PCOD8179634
Probable space group: A M M 2
;
_chemical_formula_sum "Si O2"
_cell_formula_units_Z 56
_cell_length_a 9.225300
_cell_length_b 17.697455
_cell_length_c 17.173982
_cell_angle_alpha 90.000000
_cell_angle_beta 90.000000
_cell_angle_gamma 90.000000
_cell_volume 2803.898692
_symmetry_space_group_name_H-M "A M M 2"
_symmetry_group_IT_number 38
_symmetry_cell_setting 'orthorhombic'
loop_
_space_group_symop_operation_xyz
x,y,z
-x,-y,z
-x,y,z
x,-y,z
x,1/2+y,1/2+z
-x,1/2-y,1/2+z
-x,1/2+y,1/2+z
x,1/2-y,1/2+z
loop_
_atom_site_type_symbol
_atom_site_label
_atom_site_fract_x
_atom_site_fract_y
_atom_site_fract_z
Si Si1 0.829551 0.588787 0.390660
Si Si2 0.833596 0.191800 0.037458
Si Si3 0.158023 0.413564 0.965095
Si Si4 0.167223 0.166119 0.214762
Si Si5 0.341653 0.586679 0.827593
Si Si6 0.666558 0.661767 0.080786
Si Si7 0.330679 0.185486 0.759875
O O1 0.786869 0.500000 0.397456
O O2 0.787668 0.630940 0.471680
O O3 0.741837 0.627016 0.319936
O O4 0.000000 0.597121 0.373600
O O5 0.812200 0.156582 0.122906
O O6 0.731964 0.264980 0.036745
O O7 0.000000 0.216544 0.025370
O O8 0.134868 0.500000 0.943479
O O9 0.244052 0.408327 0.046432
O O10 0.000000 0.373999 0.970315
O O11 0.253796 0.373239 0.898024
O O12 0.244976 0.092583 0.249698
O O13 0.249166 0.234653 0.258776
O O14 0.000000 0.171425 0.238298
O O15 0.500000 0.625342 0.817880
O O16 0.365200 0.500000 0.847852
O O17 0.500000 0.657310 0.056984
O O18 0.688372 0.654755 0.172576
O O19 0.500000 0.195438 0.780960
#
# Coordination Sequence:
#
# PCOD8179634 Si02
#       7
#     8   8   8   8   8   8   8
#     4  10  22  40  61  86 117 153 194 242 295 349
#     4   9  20  38  59  84 113 147 191 239 285 340
#     4  10  21  36  55  81 112 147 188 231 278 336
#     4  10  20  36  60  86 113 149 192 238 287 339
#     4  10  21  36  54  80 115 151 186 227 279 338
#     4  10  21  37  58  83 113 150 190 236 289 341
#     4  10  22  39  58  83 115 151 193 238 286 343
#
# _framework density 19.972190999999999
#
# number of rings (size 3 to 8) (size 9 to 14) (size 15 to 20)
#    0.000    2.143    0.000    2.143    2.000    6.000 
#    0.000    4.286    0.000    0.000    0.000    0.000 
#    0.000    0.000    0.000    0.000    0.000    0.000 
#
# Total GULP energy -347004.314016 kJ/mol
# GULP energy per Si atom -12393.011215 kJ/mol
# Density = 1.992673 g / cm^3
# Si number density = 19.972191 Si / 1000 Ang^3
#
#
#
# Elastic Constant Matrix: (Units=GPa)
#
#
# Indices 1 2 3 4 5 6 
#
# 1 160.2541 42.0923 83.1027 0.0000 0.0000 0.0000
# 2 42.0923 61.1108 52.8252 0.0000 0.0000 0.0000
# 3 83.1027 52.8252 117.6998 0.0000 0.0000 0.0000
# 4 0.0000 0.0000 0.0000 33.6353 0.0000 0.0000
# 5 0.0000 0.0000 0.0000 0.0000 34.8494 0.0000
# 6 0.0000 0.0000 0.0000 0.0000 0.0000 27.7143
#
#
#
# Elastic Compliance Matrix: (Units=1/GPa)
#
#
# Indices 1 2 3 4 5 6 
#
# 1 0.009904 -0.001270 -0.006423 0.000000 0.000000 0.000000
# 2 -0.001270 0.026899 -0.011176 0.000000 0.000000 0.000000
# 3 -0.006423 -0.011176 0.018047 0.000000 0.000000 0.000000
# 4 0.000000 0.000000 0.000000 0.029731 0.000000 0.000000
# 5 0.000000 0.000000 0.000000 0.000000 0.028695 0.000000
# 6 0.000000 0.000000 0.000000 0.000000 0.000000 0.036083
#
#
# Mechanical properties :
#
#
# Convention : Reuss Voigt Hill
#
# Bulk Modulus (GPa) = 58.43613 77.23390 67.83502
# Shear Modulus (GPa) = 25.93337 29.97609 27.95473
#
# Velocity S-wave (km/s) = 3.60734 3.87834 3.74529
# Velocity P-wave (km/s) = 6.83175 7.66877 7.26233
#
# Compressibility (1/GPa) = 0.01711270
#
# Stress axis : x y z
#
# Youngs Moduli (GPa) = 100.96431 37.17586 55.40960
#
# Poissons Ratio (x) = 0.04720 0.35591
# Poissons Ratio (y) = 0.12819 0.61927
# Poissons Ratio (z) = 0.64852 0.41549
#
# Static dielectric constant tensor:
#      x y z
#    x 4.003090 0.000000 0.000000 
#    y 0.000000 3.447660 0.000000 
#    z 0.000000 0.000000 3.707230 
# 
# 
# High freq. dielectric constant tensor:
#      x y z
#    x 1.795720 0.000000 0.000000 
#    y 0.000000 1.759150 0.000000 
#    z 0.000000 0.000000 1.785930 
# 
# From -- ./inp_files/12385.got.cif
#   From: 2010.03.12/outbox.cif.g09.slc.cpg/sg38_7_cif.got.tgz:12385.got - 2010.04.14 02:38:36.
