data_PCOD8179731
_publ_section_title
;
Structure prediction by ZEFSAII (Michael W. Deem and Ramdas Pophale) SiO2 
 PCOD8179731
Probable space group: A M M 2
;
_chemical_formula_sum "Si O2"
_cell_formula_units_Z 48
_cell_length_a 16.714032
_cell_length_b 8.687744
_cell_length_c 15.712798
_cell_angle_alpha 90.000000
_cell_angle_beta 90.000000
_cell_angle_gamma 90.000000
_cell_volume 2281.611892
_symmetry_space_group_name_H-M "A M M 2"
_symmetry_group_IT_number 38
_symmetry_cell_setting 'orthorhombic'
loop_
_space_group_symop_operation_xyz
x,y,z
-x,-y,z
-x,y,z
x,-y,z
x,1/2+y,1/2+z
-x,1/2-y,1/2+z
-x,1/2+y,1/2+z
x,1/2-y,1/2+z
loop_
_atom_site_type_symbol
_atom_site_label
_atom_site_fract_x
_atom_site_fract_y
_atom_site_fract_z
Si Si1 0.000000 0.678135 0.821460
Si Si2 0.406033 0.177025 0.490995
Si Si3 0.169090 0.178386 0.584640
Si Si4 0.322931 0.320579 0.328321
Si Si5 0.000000 0.820568 0.641923
Si Si6 0.676757 0.180177 0.152598
Si Si7 0.170802 0.675176 0.889083
O O1 0.000000 0.788444 0.741269
O O2 0.922081 0.718266 0.877037
O O3 0.000000 0.500000 0.792912
O O4 0.500000 0.200937 0.483865
O O5 0.368004 0.232951 0.403309
O O6 0.374964 0.271598 0.571502
O O7 0.381835 0.000000 0.504981
O O8 0.080469 0.248494 0.599978
O O9 0.230509 0.275620 0.640689
O O10 0.193579 0.198466 0.487066
O O11 0.173490 0.000000 0.612837
O O12 0.339075 0.500000 0.338059
O O13 0.356354 0.263986 0.237274
O O14 0.227859 0.284707 0.333593
O O15 0.000000 0.000000 0.622555
O O16 0.668710 0.000000 0.166536
O O17 0.186477 0.500000 0.860315
#
# Coordination Sequence:
#
# PCOD8179731 Si02
#       7
#     4   8   8   8   4   8   8
#     4  10  21  35  53  83 119 166 216 266 320 373
#     4  11  25  47  73 100 131 166 207 261 324 387
#     4  10  20  37  61  87 123 167 216 268 321 378
#     4  12  25  42  67  98 133 173 217 263 318 382
#     4  10  21  35  53  83 119 166 216 266 320 373
#     4  12  25  42  67  98 133 173 217 263 318 382
#     4  10  20  37  61  87 123 167 216 268 321 378
#
# _framework density 21.037759999999999
#
# number of rings (size 3 to 8) (size 9 to 14) (size 15 to 20)
#    0.000    1.167    1.667    5.000    0.000    8.000 
#    0.000    0.000    0.000    3.000    0.000    0.000 
#    0.000    0.000    0.000    0.000    0.000    0.000 
#
# Total GULP energy -297713.956805 kJ/mol
# GULP energy per Si atom -12404.748200 kJ/mol
# Density = 2.098988 g / cm^3
# Si number density = 21.037760 Si / 1000 Ang^3
#
#
#
# Elastic Constant Matrix: (Units=GPa)
#
#
# Indices 1 2 3 4 5 6 
#
# 1 93.4970 30.1891 26.8628 0.0000 0.0000 0.0000
# 2 30.1891 57.4681 5.3403 0.0000 0.0000 0.0000
# 3 26.8628 5.3403 99.1837 0.0000 0.0000 0.0000
# 4 0.0000 0.0000 0.0000 36.8880 0.0000 0.0000
# 5 0.0000 0.0000 0.0000 0.0000 16.2956 0.0000
# 6 0.0000 0.0000 0.0000 0.0000 0.0000 26.9853
#
#
#
# Elastic Compliance Matrix: (Units=1/GPa)
#
#
# Indices 1 2 3 4 5 6 
#
# 1 0.013933 -0.007004 -0.003396 0.000000 0.000000 0.000000
# 2 -0.007004 0.021009 0.000766 0.000000 0.000000 0.000000
# 3 -0.003396 0.000766 0.010961 0.000000 0.000000 0.000000
# 4 0.000000 0.000000 0.000000 0.027109 0.000000 0.000000
# 5 0.000000 0.000000 0.000000 0.000000 0.061366 0.000000
# 6 0.000000 0.000000 0.000000 0.000000 0.000000 0.037057
#
#
# Mechanical properties :
#
#
# Convention : Reuss Voigt Hill
#
# Bulk Modulus (GPa) = 37.54600 41.65923 39.60262
# Shear Modulus (GPa) = 25.05238 28.55088 26.80163
#
# Velocity S-wave (km/s) = 3.45458 3.68791 3.57315
# Velocity P-wave (km/s) = 5.81360 6.16274 5.99071
#
# Compressibility (1/GPa) = 0.02663400
#
# Stress axis : x y z
#
# Youngs Moduli (GPa) = 71.77348 47.59886 91.23285
#
# Poissons Ratio (x) = 0.33336 0.30987
# Poissons Ratio (y) = 0.50267 -0.06985
# Poissons Ratio (z) = 0.24377 -0.03644
#
# Static dielectric constant tensor:
#      x y z
#    x 3.999990 0.000000 0.000000 
#    y 0.000000 3.719320 0.000000 
#    z 0.000000 0.000000 3.852520 
# 
# 
# High freq. dielectric constant tensor:
#      x y z
#    x 1.830950 0.000000 0.000000 
#    y 0.000000 1.813660 0.000000 
#    z 0.000000 0.000000 1.835170 
# 
# From -- ./inp_files/14996.got.cif
#   From: 2010.03.12/outbox.cif.g09.slc.cpg/sg38_8_cif.got.tgz:14996.got - 2010.04.14 02:38:36.
