data_PCOD8179384
_publ_section_title
;
Structure prediction by ZEFSAII (Michael W. Deem and Ramdas Pophale) SiO2 
 PCOD8179384
Probable space group: A M M 2
;
_chemical_formula_sum "Si O2"
_cell_formula_units_Z 64
_cell_length_a 16.168766
_cell_length_b 9.081469
_cell_length_c 23.164777
_cell_angle_alpha 90.000000
_cell_angle_beta 90.000000
_cell_angle_gamma 90.000000
_cell_volume 3401.426605
_symmetry_space_group_name_H-M "A M M 2"
_symmetry_group_IT_number 38
_symmetry_cell_setting 'orthorhombic'
loop_
_space_group_symop_operation_xyz
x,y,z
-x,-y,z
-x,y,z
x,-y,z
x,1/2+y,1/2+z
-x,1/2-y,1/2+z
-x,1/2+y,1/2+z
x,1/2-y,1/2+z
loop_
_atom_site_type_symbol
_atom_site_label
_atom_site_fract_x
_atom_site_fract_y
_atom_site_fract_z
Si Si1 0.192991 0.829863 0.853000
Si Si2 0.645536 0.833516 0.779437
Si Si3 0.268715 0.173241 0.456645
Si Si4 0.257802 0.324640 0.579211
Si Si5 0.907232 0.175072 0.142887
Si Si6 0.405445 0.325929 0.664401
Si Si7 0.409760 0.663586 0.400641
Si Si8 0.904680 0.159368 0.269253
O O1 0.265813 0.795499 0.807431
O O2 0.201915 0.742847 0.913094
O O3 0.112148 0.771873 0.821008
O O4 0.184410 0.000000 0.868279
O O5 0.622342 0.727680 0.727305
O O6 0.581395 0.810019 0.831957
O O7 0.643086 0.000000 0.755629
O O8 0.263757 0.246888 0.518398
O O9 0.358863 0.208781 0.431259
O O10 0.254894 0.000000 0.461602
O O11 0.260022 0.500000 0.572083
O O12 0.168425 0.270198 0.603123
O O13 0.336633 0.271699 0.617923
O O14 0.881880 0.229661 0.207033
O O15 0.000000 0.234148 0.124369
O O16 0.910948 0.000000 0.143198
O O17 0.500000 0.271005 0.649688
O O18 0.404835 0.500000 0.666421
O O19 0.500000 0.666442 0.428804
O O20 0.368574 0.500000 0.410254
O O21 0.000000 0.126721 0.268796
O O22 0.859321 0.000000 0.278409
#
# Coordination Sequence:
#
# PCOD8179384 Si02
#       8
#     8   8   8   8   8   8   8   8
#     4  10  20  35  54  76 104 139 178 215 259 318
#     4   9  18  32  51  76 104 134 169 212 262 312
#     4  11  23  37  53  74 101 134 177 225 269 313
#     4  10  20  36  55  73 101 141 181 221 264 312
#     4   8  15  30  55  84 108 134 172 215 262 319
#     4  10  21  34  50  76 107 140 177 213 256 316
#     4   9  18  34  55  77 103 136 172 213 265 321
#     4   9  17  31  54  85 116 139 163 204 259 315
#
# _framework density 18.815633999999999
#
# number of rings (size 3 to 8) (size 9 to 14) (size 15 to 20)
#    0.000    2.500    0.000    4.125    0.000    5.750 
#    0.000    2.500    0.000    3.375    0.000    0.000 
#    0.000    0.000    0.000    0.000    0.000    0.000 
#
# Total GULP energy -396489.243798 kJ/mol
# GULP energy per Si atom -12390.288869 kJ/mol
# Density = 1.877281 g / cm^3
# Si number density = 18.815634 Si / 1000 Ang^3
#
#
#
# Elastic Constant Matrix: (Units=GPa)
#
#
# Indices 1 2 3 4 5 6 
#
# 1 52.8349 24.1246 55.9073 0.0000 0.0000 0.0000
# 2 24.1246 48.0456 39.1833 0.0000 0.0000 0.0000
# 3 55.9073 39.1833 129.8416 0.0000 0.0000 0.0000
# 4 0.0000 0.0000 0.0000 31.4623 0.0000 0.0000
# 5 0.0000 0.0000 0.0000 0.0000 8.0189 0.0000
# 6 0.0000 0.0000 0.0000 0.0000 0.0000 19.1894
#
#
#
# Elastic Compliance Matrix: (Units=1/GPa)
#
#
# Indices 1 2 3 4 5 6 
#
# 1 0.036617 -0.007332 -0.013554 0.000000 0.000000 0.000000
# 2 -0.007332 0.029077 -0.005618 0.000000 0.000000 0.000000
# 3 -0.013554 -0.005618 0.015233 0.000000 0.000000 0.000000
# 4 0.000000 0.000000 0.000000 0.031784 0.000000 0.000000
# 5 0.000000 0.000000 0.000000 0.000000 0.124705 0.000000
# 6 0.000000 0.000000 0.000000 0.000000 0.000000 0.052112
#
#
# Mechanical properties :
#
#
# Convention : Reuss Voigt Hill
#
# Bulk Modulus (GPa) = 35.81769 52.12805 43.97287
# Shear Modulus (GPa) = 14.21099 19.16793 16.68946
#
# Velocity S-wave (km/s) = 2.75121 3.19521 2.98148
# Velocity P-wave (km/s) = 5.40089 6.43252 5.93915
#
# Compressibility (1/GPa) = 0.02791916
#
# Stress axis : x y z
#
# Youngs Moduli (GPa) = 27.30991 34.39193 65.64720
#
# Poissons Ratio (x) = 0.25217 0.88977
# Poissons Ratio (y) = 0.20024 0.36878
# Poissons Ratio (z) = 0.37015 0.19320
#
# Static dielectric constant tensor:
#      x y z
#    x 3.741020 0.000000 0.000000 
#    y 0.000000 3.302200 0.000000 
#    z 0.000000 0.000000 3.441080 
# 
# 
# High freq. dielectric constant tensor:
#      x y z
#    x 1.731900 0.000000 0.000000 
#    y 0.000000 1.709720 0.000000 
#    z 0.000000 0.000000 1.724330 
# 
# From -- ./inp_files/21384.got.cif
#   From: 2010.03.12/outbox.cif.g09.slc.cpg/sg38_11_cif.got.tgz:21384.got - 2010.04.14 02:38:36.
