data_PCOD8179079
_publ_section_title
;
Structure prediction by ZEFSAII (Michael W. Deem and Ramdas Pophale) SiO2 
 PCOD8179079
Probable space group: A M M 2
;
_chemical_formula_sum "Si O2"
_cell_formula_units_Z 64
_cell_length_a 8.980646
_cell_length_b 15.312160
_cell_length_c 23.099253
_cell_angle_alpha 90.000000
_cell_angle_beta 90.000000
_cell_angle_gamma 90.000000
_cell_volume 3176.449621
_symmetry_space_group_name_H-M "A M M 2"
_symmetry_group_IT_number 38
_symmetry_cell_setting 'orthorhombic'
loop_
_space_group_symop_operation_xyz
x,y,z
-x,-y,z
-x,y,z
x,-y,z
x,1/2+y,1/2+z
-x,1/2-y,1/2+z
-x,1/2+y,1/2+z
x,1/2-y,1/2+z
loop_
_atom_site_type_symbol
_atom_site_label
_atom_site_fract_x
_atom_site_fract_y
_atom_site_fract_z
Si Si1 0.324348 0.745608 0.260310
Si Si2 0.168599 0.902742 0.205986
Si Si3 0.839178 0.400423 0.041763
Si Si4 0.332101 0.637382 0.593221
Si Si5 0.673822 0.100199 0.963128
Si Si6 0.823048 0.764283 0.877178
Si Si7 0.334493 0.171485 0.638988
Si Si8 0.674434 0.898167 0.429500
O O1 0.500000 0.746838 0.272258
O O2 0.272732 0.844005 0.246565
O O3 0.237372 0.705231 0.314621
O O4 0.283359 0.685998 0.204950
O O5 0.225108 0.906984 0.139928
O O6 0.000000 0.866060 0.206704
O O7 0.174182 0.000000 0.231968
O O8 0.867591 0.500000 0.028022
O O9 0.776506 0.393764 0.106846
O O10 0.000000 0.351648 0.036555
O O11 0.722966 0.366394 0.993766
O O12 0.500000 0.601713 0.602268
O O13 0.274636 0.613304 0.529372
O O14 0.328585 0.740736 0.601516
O O15 0.500000 0.123480 0.956247
O O16 0.767966 0.165790 0.923845
O O17 0.705055 0.000000 0.944521
O O18 0.760893 0.665897 0.886028
O O19 0.000000 0.761370 0.877522
O O20 0.500000 0.131578 0.638359
O O21 0.500000 0.881639 0.423244
O O22 0.713783 0.000000 0.416809
#
# Coordination Sequence:
#
# PCOD8179079 Si02
#       8
#     8   8   8   8   8   8   8   8
#     4  10  22  40  59  77 102 141 189 234 274 327
#     4  10  20  33  52  82 117 147 176 217 271 330
#     4  10  20  33  52  82 116 144 174 220 278 335
#     4   9  18  33  55  83 112 143 181 224 271 326
#     4  10  21  38  61  87 116 153 197 241 282 332
#     4  12  25  40  60  84 114 151 190 240 294 341
#     4   9  18  33  55  81 107 140 180 222 271 329
#     4  10  21  38  61  87 116 152 192 232 277 338
#
# _framework density 20.148281999999998
#
# number of rings (size 3 to 8) (size 9 to 14) (size 15 to 20)
#    0.000    2.000    0.000    4.500    0.000    7.750 
#    0.000    0.625    0.000    0.750    0.000    0.000 
#    0.000    0.000    0.000    0.000    0.000    0.000 
#
# Total GULP energy -396747.275483 kJ/mol
# GULP energy per Si atom -12398.352359 kJ/mol
# Density = 2.010242 g / cm^3
# Si number density = 20.148282 Si / 1000 Ang^3
#
#
#
# Elastic Constant Matrix: (Units=GPa)
#
#
# Indices 1 2 3 4 5 6 
#
# 1 111.2699 27.0440 41.4983 0.0000 0.0000 0.0000
# 2 27.0440 45.6225 24.3929 0.0000 0.0000 0.0000
# 3 41.4983 24.3929 96.0702 0.0000 0.0000 0.0000
# 4 0.0000 0.0000 0.0000 16.8801 0.0000 0.0000
# 5 0.0000 0.0000 0.0000 0.0000 17.6104 0.0000
# 6 0.0000 0.0000 0.0000 0.0000 0.0000 27.0044
#
#
#
# Elastic Compliance Matrix: (Units=1/GPa)
#
#
# Indices 1 2 3 4 5 6 
#
# 1 0.011570 -0.004844 -0.003768 0.000000 0.000000 0.000000
# 2 -0.004844 0.027390 -0.004862 0.000000 0.000000 0.000000
# 3 -0.003768 -0.004862 0.013271 0.000000 0.000000 0.000000
# 4 0.000000 0.000000 0.000000 0.059241 0.000000 0.000000
# 5 0.000000 0.000000 0.000000 0.000000 0.056785 0.000000
# 6 0.000000 0.000000 0.000000 0.000000 0.000000 0.037031
#
#
# Mechanical properties :
#
#
# Convention : Reuss Voigt Hill
#
# Bulk Modulus (GPa) = 39.55177 48.75925 44.15551
# Shear Modulus (GPa) = 20.77596 22.96747 21.87171
#
# Velocity S-wave (km/s) = 3.21464 3.37994 3.29832
# Velocity P-wave (km/s) = 5.78373 6.28368 6.03888
#
# Compressibility (1/GPa) = 0.02528332
#
# Stress axis : x y z
#
# Youngs Moduli (GPa) = 86.43346 36.50972 75.35169
#
# Poissons Ratio (x) = 0.17684 0.28390
# Poissons Ratio (y) = 0.41866 0.36638
# Poissons Ratio (z) = 0.32566 0.17752
#
# Static dielectric constant tensor:
#      x y z
#    x 3.826120 0.000000 0.000000 
#    y 0.000000 3.477240 0.000000 
#    z 0.000000 0.000000 3.647310 
# 
# 
# High freq. dielectric constant tensor:
#      x y z
#    x 1.790700 0.000000 0.000000 
#    y 0.000000 1.769530 0.000000 
#    z 0.000000 0.000000 1.784250 
# 
# From -- ./inp_files/22169.got.cif
#   From: 2010.03.12/outbox.cif.g09.slc.cpg/sg38_12_cif.got.tgz:22169.got - 2010.04.14 02:38:36.
