data_PCOD8179032
_publ_section_title
;
Structure prediction by ZEFSAII (Michael W. Deem and Ramdas Pophale) SiO2 
 PCOD8179032
Probable space group: A M M 2
;
_chemical_formula_sum "Si O2"
_cell_formula_units_Z 56
_cell_length_a 8.871207
_cell_length_b 14.280305
_cell_length_c 23.091694
_cell_angle_alpha 90.000000
_cell_angle_beta 90.000000
_cell_angle_gamma 90.000000
_cell_volume 2925.337579
_symmetry_space_group_name_H-M "A M M 2"
_symmetry_group_IT_number 38
_symmetry_cell_setting 'orthorhombic'
loop_
_space_group_symop_operation_xyz
x,y,z
-x,-y,z
-x,y,z
x,-y,z
x,1/2+y,1/2+z
-x,1/2-y,1/2+z
-x,1/2+y,1/2+z
x,1/2-y,1/2+z
loop_
_atom_site_type_symbol
_atom_site_label
_atom_site_fract_x
_atom_site_fract_y
_atom_site_fract_z
Si Si1 0.677531 0.105973 0.735360
Si Si2 0.174412 0.895716 0.415089
Si Si3 0.673570 0.608411 0.794619
Si Si4 0.827935 0.608710 0.354903
Si Si5 0.176422 0.208784 0.968590
Si Si6 0.822059 0.718439 0.692690
Si Si7 0.179864 0.106483 0.081368
O O1 0.500000 0.114895 0.730813
O O2 0.727662 0.135416 0.799786
O O3 0.753270 0.176864 0.689728
O O4 0.731508 0.000000 0.721369
O O5 0.273955 0.870415 0.359619
O O6 0.210248 0.820556 0.465846
O O7 0.000000 0.888705 0.396285
O O8 0.212697 0.000000 0.438500
O O9 0.500000 0.638010 0.788138
O O10 0.698416 0.500000 0.779547
O O11 0.773899 0.668359 0.751474
O O12 0.818788 0.500000 0.369664
O O13 0.758590 0.662158 0.410205
O O14 0.000000 0.639541 0.341841
O O15 0.000000 0.187544 0.970367
O O16 0.247793 0.162226 0.025932
O O17 0.759725 0.658923 0.638469
O O18 0.000000 0.727040 0.690281
O O19 0.000000 0.106802 0.080804
O O20 0.240900 0.000000 0.080847
#
# Coordination Sequence:
#
# PCOD8179032 Si02
#       7
#     8   8   8   8   8   8   8
#     4  10  21  36  53  74 103 137 170 207 253 305
#     4   9  17  29  47  73 103 132 165 207 253 303
#     4  10  20  33  51  76 106 139 173 211 257 307
#     4   9  16  27  48  77 103 127 160 204 251 299
#     4   9  16  28  47  71  99 131 165 203 251 301
#     4  11  21  33  52  76 102 134 172 214 258 302
#     4   9  18  32  50  74 102 130 164 208 255 301
#
# _framework density 19.143090000000001
#
# number of rings (size 3 to 8) (size 9 to 14) (size 15 to 20)
#    0.000    2.429    0.000    3.000    0.000    5.143 
#    0.000    0.714    0.000    6.000    0.000    4.000 
#    0.000    0.000    0.000    0.000    0.000    0.000 
#
# Total GULP energy -347175.091258 kJ/mol
# GULP energy per Si atom -12399.110402 kJ/mol
# Density = 1.909952 g / cm^3
# Si number density = 19.143090 Si / 1000 Ang^3
#
#
#
# Elastic Constant Matrix: (Units=GPa)
#
#
# Indices 1 2 3 4 5 6 
#
# 1 44.4524 28.6255 22.3834 0.0000 0.0000 0.0000
# 2 28.6255 148.0637 87.7785 0.0000 0.0000 0.0000
# 3 22.3834 87.7785 90.9312 0.0000 0.0000 0.0000
# 4 0.0000 0.0000 0.0000 36.6593 0.0000 0.0000
# 5 0.0000 0.0000 0.0000 0.0000 1.8428 0.0000
# 6 0.0000 0.0000 0.0000 0.0000 0.0000 23.1401
#
#
#
# Elastic Compliance Matrix: (Units=1/GPa)
#
#
# Indices 1 2 3 4 5 6 
#
# 1 0.026202 -0.002904 -0.003647 0.000000 0.000000 0.000000
# 2 -0.002904 0.016112 -0.014839 0.000000 0.000000 0.000000
# 3 -0.003647 -0.014839 0.026220 0.000000 0.000000 0.000000
# 4 0.000000 0.000000 0.000000 0.027278 0.000000 0.000000
# 5 0.000000 0.000000 0.000000 0.000000 0.542642 0.000000
# 6 0.000000 0.000000 0.000000 0.000000 0.000000 0.043215
#
#
# Mechanical properties :
#
#
# Convention : Reuss Voigt Hill
#
# Bulk Modulus (GPa) = 38.82736 62.33579 50.58157
# Shear Modulus (GPa) = 6.82098 21.97244 14.39671
#
# Velocity S-wave (km/s) = 1.88968 3.39160 2.74534
# Velocity P-wave (km/s) = 5.00878 6.92611 6.04396
#
# Compressibility (1/GPa) = 0.02575504
#
# Stress axis : x y z
#
# Youngs Moduli (GPa) = 38.16473 62.06387 38.13954
#
# Poissons Ratio (x) = 0.18022 0.13909
# Poissons Ratio (y) = 0.11082 0.56595
# Poissons Ratio (z) = 0.13918 0.92097
#
# Static dielectric constant tensor:
#      x y z
#    x 3.194710 0.000000 0.000000 
#    y 0.000000 3.885800 0.000000 
#    z 0.000000 0.000000 3.452970 
# 
# 
# High freq. dielectric constant tensor:
#      x y z
#    x 1.710970 0.000000 0.000000 
#    y 0.000000 1.765980 0.000000 
#    z 0.000000 0.000000 1.722430 
# 
# From -- ./inp_files/19772.got.cif
#   From: 2010.03.12/outbox.cif.g09.slc.cpg/sg38_10_cif.got.tgz:19772.got - 2010.04.14 02:38:36.
