data_PCOD8179147
_publ_section_title
;
Structure prediction by ZEFSAII (Michael W. Deem and Ramdas Pophale) SiO2 
 PCOD8179147
Probable space group: A M M 2
;
_chemical_formula_sum "Si O2"
_cell_formula_units_Z 64
_cell_length_a 8.975011
_cell_length_b 19.797586
_cell_length_c 20.093026
_cell_angle_alpha 90.000000
_cell_angle_beta 90.000000
_cell_angle_gamma 90.000000
_cell_volume 3570.200233
_symmetry_space_group_name_H-M "A M M 2"
_symmetry_group_IT_number 38
_symmetry_cell_setting 'orthorhombic'
loop_
_space_group_symop_operation_xyz
x,y,z
-x,-y,z
-x,y,z
x,-y,z
x,1/2+y,1/2+z
-x,1/2-y,1/2+z
-x,1/2+y,1/2+z
x,1/2-y,1/2+z
loop_
_atom_site_type_symbol
_atom_site_label
_atom_site_fract_x
_atom_site_fract_y
_atom_site_fract_z
Si Si1 0.675915 0.820457 0.266350
Si Si2 0.673305 0.076955 0.380524
Si Si3 0.174895 0.325363 0.126572
Si Si4 0.328468 0.577910 0.371906
Si Si5 0.671051 0.078058 0.025457
Si Si6 0.175021 0.826878 0.128248
Si Si7 0.823457 0.076633 0.515061
Si Si8 0.176331 0.680288 0.275235
O O1 0.500000 0.811215 0.259904
O O2 0.721229 0.878047 0.318326
O O3 0.740714 0.845132 0.196096
O O4 0.746543 0.751014 0.292918
O O5 0.500000 0.084167 0.396226
O O6 0.760332 0.103176 0.445254
O O7 0.717258 0.000000 0.363566
O O8 0.219204 0.249090 0.106672
O O9 0.229919 0.342010 0.201368
O O10 0.000000 0.335078 0.123801
O O11 0.246601 0.377322 0.073873
O O12 0.500000 0.594466 0.355811
O O13 0.293469 0.500000 0.356063
O O14 0.293463 0.593775 0.448691
O O15 0.222067 0.623290 0.327175
O O16 0.500000 0.095696 0.041681
O O17 0.778920 0.122838 0.070002
O O18 0.703098 0.000000 0.041338
O O19 0.000000 0.832920 0.141658
O O20 0.000000 0.082422 0.512065
O O21 0.771431 0.000000 0.528652
O O22 0.000000 0.691213 0.277580
#
# Coordination Sequence:
#
# PCOD8179147 Si02
#       8
#     8   8   8   8   8   8   8   8
#     4  10  20  35  54  74 101 139 175 208 253 310
#     4   9  19  35  52  72  99 129 164 207 251 296
#     4   8  17  33  49  70 102 134 164 201 248 301
#     4   9  19  36  55  76 105 139 175 215 258 310
#     4   9  19  36  55  74 100 135 172 210 255 311
#     4  10  20  34  52  76 105 133 166 213 260 302
#     4   9  17  31  52  74  97 129 166 202 243 294
#     4  10  20  34  53  77 105 136 172 217 262 304
#
# _framework density 17.926165999999998
#
# number of rings (size 3 to 8) (size 9 to 14) (size 15 to 20)
#    0.000    2.750    0.000    2.625    0.000    4.000 
#    0.000   10.000    0.000    1.500    0.000    0.000 
#    0.000    0.000    0.000    0.000    0.000    0.000 
#
# Total GULP energy -396799.681971 kJ/mol
# GULP energy per Si atom -12399.990062 kJ/mol
# Density = 1.788536 g / cm^3
# Si number density = 17.926166 Si / 1000 Ang^3
#
#
#
# Elastic Constant Matrix: (Units=GPa)
#
#
# Indices 1 2 3 4 5 6 
#
# 1 60.8515 44.2891 50.8975 0.0000 0.0000 0.0000
# 2 44.2891 104.1813 87.2281 0.0000 0.0000 0.0000
# 3 50.8975 87.2281 124.4249 0.0000 0.0000 0.0000
# 4 0.0000 0.0000 0.0000 40.1450 0.0000 0.0000
# 5 0.0000 0.0000 0.0000 0.0000 31.2752 0.0000
# 6 0.0000 0.0000 0.0000 0.0000 0.0000 27.8344
#
#
#
# Elastic Compliance Matrix: (Units=1/GPa)
#
#
# Indices 1 2 3 4 5 6 
#
# 1 0.026103 -0.005221 -0.007017 0.000000 0.000000 0.000000
# 2 -0.005221 0.024284 -0.014888 0.000000 0.000000 0.000000
# 3 -0.007017 -0.014888 0.021345 0.000000 0.000000 0.000000
# 4 0.000000 0.000000 0.000000 0.024910 0.000000 0.000000
# 5 0.000000 0.000000 0.000000 0.000000 0.031974 0.000000
# 6 0.000000 0.000000 0.000000 0.000000 0.000000 0.035927
#
#
# Mechanical properties :
#
#
# Convention : Reuss Voigt Hill
#
# Bulk Modulus (GPa) = 57.21528 72.69856 64.95692
# Shear Modulus (GPa) = 22.25948 26.98712 24.62330
#
# Velocity S-wave (km/s) = 3.52764 3.88424 3.71023
# Velocity P-wave (km/s) = 6.96985 7.79480 7.39384
#
# Compressibility (1/GPa) = 0.01747785
#
# Stress axis : x y z
#
# Youngs Moduli (GPa) = 38.30947 41.17927 46.84931
#
# Poissons Ratio (x) = 0.21502 0.32876
# Poissons Ratio (y) = 0.20003 0.69751
# Poissons Ratio (z) = 0.26883 0.61310
#
# Static dielectric constant tensor:
#      x y z
#    x 3.171180 0.000000 0.000000 
#    y 0.000000 3.422140 0.000000 
#    z 0.000000 0.000000 3.414060 
# 
# 
# High freq. dielectric constant tensor:
#      x y z
#    x 1.685190 0.000000 0.000000 
#    y 0.000000 1.695090 0.000000 
#    z 0.000000 0.000000 1.698570 
# 
# From -- ./inp_files/17192.got.cif
#   From: 2010.03.12/outbox.cif.g09.slc.cpg/sg38_9_cif.got.tgz:17192.got - 2010.04.14 02:38:36.
