data_PCOD8179369
_publ_section_title
;
Structure prediction by ZEFSAII (Michael W. Deem and Ramdas Pophale) SiO2 
 PCOD8179369
Probable space group: A M M 2
;
_chemical_formula_sum "Si O2"
_cell_formula_units_Z 40
_cell_length_a 8.863962
_cell_length_b 26.014651
_cell_length_c 9.616892
_cell_angle_alpha 90.000000
_cell_angle_beta 90.000000
_cell_angle_gamma 90.000000
_cell_volume 2217.586803
_symmetry_space_group_name_H-M "A M M 2"
_symmetry_group_IT_number 38
_symmetry_cell_setting 'orthorhombic'
loop_
_space_group_symop_operation_xyz
x,y,z
-x,-y,z
-x,y,z
x,-y,z
x,1/2+y,1/2+z
-x,1/2-y,1/2+z
-x,1/2+y,1/2+z
x,1/2-y,1/2+z
loop_
_atom_site_type_symbol
_atom_site_label
_atom_site_fract_x
_atom_site_fract_y
_atom_site_fract_z
Si Si1 0.334167 0.099172 0.671050
Si Si2 0.166621 0.000000 0.671332
Si Si3 0.680296 0.212732 0.685140
Si Si4 0.669327 0.398325 0.500990
Si Si5 0.821118 0.294111 0.483117
Si Si6 0.171050 0.500000 0.503603
O O1 0.500000 0.091617 0.609006
O O2 0.273751 0.155743 0.629456
O O3 0.338019 0.096327 0.836431
O O4 0.238025 0.052212 0.609521
O O5 0.000000 0.000000 0.613281
O O6 0.174914 0.000000 0.837119
O O7 0.500000 0.221553 0.675175
O O8 0.775444 0.252382 0.596250
O O9 0.730425 0.219314 0.843990
O O10 0.500000 0.391933 0.561544
O O11 0.770997 0.349533 0.542707
O O12 0.745039 0.449685 0.563485
O O13 0.000000 0.293733 0.456476
O O14 0.000000 0.500000 0.557925
#
# Coordination Sequence:
#
# PCOD8179369 Si02
#       6
#     8   4   8   8   8   4
#     4   8  15  26  41  60  86 119 155 191 230 278
#     4   9  15  21  35  59  88 117 146 185 236 283
#     4  10  20  35  52  71  97 132 168 202 242 294
#     4   9  16  27  42  62  90 125 159 193 237 292
#     4  11  21  33  50  74 101 129 163 207 250 289
#     4   9  15  23  37  61  90 119 152 195 242 285
#
# _framework density 18.037624999999998
#
# number of rings (size 3 to 8) (size 9 to 14) (size 15 to 20)
#    0.000    2.600    0.000    4.800    0.000    8.000 
#    0.000    0.000    0.000    0.000    0.000    1.400 
#    0.000    4.800    0.000    0.000    0.000    0.000 
#
# Total GULP energy -247889.705017 kJ/mol
# GULP energy per Si atom -12394.485251 kJ/mol
# Density = 1.799657 g / cm^3
# Si number density = 18.037625 Si / 1000 Ang^3
#
#
#
# Elastic Constant Matrix: (Units=GPa)
#
#
# Indices 1 2 3 4 5 6 
#
# 1 109.5532 54.6717 8.6062 0.0000 0.0000 0.0000
# 2 54.6717 157.2336 25.0967 0.0000 0.0000 0.0000
# 3 8.6062 25.0967 18.4514 0.0000 0.0000 0.0000
# 4 0.0000 0.0000 0.0000 18.2471 0.0000 0.0000
# 5 0.0000 0.0000 0.0000 0.0000 16.6741 0.0000
# 6 0.0000 0.0000 0.0000 0.0000 0.0000 33.7321
#
#
#
# Elastic Compliance Matrix: (Units=1/GPa)
#
#
# Indices 1 2 3 4 5 6 
#
# 1 0.011045 -0.003855 0.000092 0.000000 0.000000 0.000000
# 2 -0.003855 0.009469 -0.011081 0.000000 0.000000 0.000000
# 3 0.000092 -0.011081 0.069226 0.000000 0.000000 0.000000
# 4 0.000000 0.000000 0.000000 0.054803 0.000000 0.000000
# 5 0.000000 0.000000 0.000000 0.000000 0.059973 0.000000
# 6 0.000000 0.000000 0.000000 0.000000 0.000000 0.029645
#
#
# Mechanical properties :
#
#
# Convention : Reuss Voigt Hill
#
# Bulk Modulus (GPa) = 16.65258 51.33190 33.99224
# Shear Modulus (GPa) = 17.61386 26.85491 22.23438
#
# Velocity S-wave (km/s) = 3.12830 3.86272 3.51474
# Velocity P-wave (km/s) = 4.72234 6.95803 5.94620
#
# Compressibility (1/GPa) = 0.06005076
#
# Stress axis : x y z
#
# Youngs Moduli (GPa) = 90.54232 105.60645 14.44544
#
# Poissons Ratio (x) = 0.40711 -0.00133
# Poissons Ratio (y) = 0.34904 0.16008
# Poissons Ratio (z) = -0.00832 1.17027
#
# Static dielectric constant tensor:
#      x y z
#    x 3.529570 0.000000 0.000000 
#    y 0.000000 3.735710 0.000000 
#    z 0.000000 0.000000 2.619440 
# 
# 
# High freq. dielectric constant tensor:
#      x y z
#    x 1.712680 0.000000 0.000000 
#    y 0.000000 1.722010 0.000000 
#    z 0.000000 0.000000 1.615150 
# 
# From -- ./inp_files/3507.got.cif
#   From: 2010.03.12/outbox.cif.g09.slc.cpg/sg38_2_cif.got.tgz:3507.got - 2010.04.14 02:38:36.
