data_PCOD8179803
_publ_section_title
;
Structure prediction by ZEFSAII (Michael W. Deem and Ramdas Pophale) SiO2 
 PCOD8179803
Probable space group: A M M 2
;
_chemical_formula_sum "Si O2"
_cell_formula_units_Z 34
_cell_length_a 7.853068
_cell_length_b 7.628157
_cell_length_c 26.989303
_cell_angle_alpha 90.000000
_cell_angle_beta 90.000000
_cell_angle_gamma 90.000000
_cell_volume 1616.778964
_symmetry_space_group_name_H-M "A M M 2"
_symmetry_group_IT_number 38
_symmetry_cell_setting 'orthorhombic'
loop_
_space_group_symop_operation_xyz
x,y,z
-x,-y,z
-x,y,z
x,-y,z
x,1/2+y,1/2+z
-x,1/2-y,1/2+z
-x,1/2+y,1/2+z
x,1/2-y,1/2+z
loop_
_atom_site_type_symbol
_atom_site_label
_atom_site_fract_x
_atom_site_fract_y
_atom_site_fract_z
Si Si1 0.500000 0.500000 0.613020
Si Si2 0.500000 0.209781 0.693801
Si Si3 0.303353 0.696086 0.971877
Si Si4 0.300841 0.799309 0.865237
Si Si5 0.187456 0.500000 0.539168
Si Si6 0.187971 0.706950 0.261065
O O1 0.500000 0.318745 0.643300
O O2 0.330249 0.500000 0.580725
O O3 0.332589 0.273654 0.723608
O O4 0.500000 0.000000 0.682896
O O5 0.500000 0.755500 0.974187
O O6 0.277582 0.500000 0.992634
O O7 0.197102 0.827512 0.005325
O O8 0.241789 0.698753 0.914701
O O9 0.500000 0.779471 0.855782
O O10 0.211499 0.716484 0.816570
O O11 0.247362 0.000000 0.872908
O O12 0.000000 0.500000 0.564118
O O13 0.208771 0.500000 0.265234
O O14 0.000000 0.761110 0.241321
#
# Coordination Sequence:
#
# PCOD8179803 Si02
#       6
#     2   4   8   8   4   8
#     4  12  28  48  70  94 118 158 220 276 338 384
#     4  10  22  44  67  89 119 159 206 270 322 373
#     4  10  20  38  65  95 131 174 214 258 314 381
#     4   9  15  28  54  88 131 175 209 243 297 369
#     4  12  26  46  70  94 128 168 214 272 333 390
#     4   9  17  32  58  91 127 168 208 246 305 376
#
# _framework density 21.029467
#
# number of rings (size 3 to 8) (size 9 to 14) (size 15 to 20)
#    0.000    2.118    3.529    0.000    0.000    3.294 
#    2.118    0.000    0.000    0.000    0.000    0.000 
#    0.000    0.000    0.000    0.000    0.000    0.000 
#
# Total GULP energy -210748.034056 kJ/mol
# GULP energy per Si atom -12396.943180 kJ/mol
# Density = 2.098160 g / cm^3
# Si number density = 21.029467 Si / 1000 Ang^3
#
#
#
# Elastic Constant Matrix: (Units=GPa)
#
#
# Indices 1 2 3 4 5 6 
#
# 1 147.4655 32.4334 70.1962 0.0000 0.0000 0.0000
# 2 32.4334 82.8108 40.9113 0.0000 0.0000 0.0000
# 3 70.1962 40.9113 119.9359 0.0000 0.0000 0.0000
# 4 0.0000 0.0000 0.0000 -13.1712 0.0000 0.0000
# 5 0.0000 0.0000 0.0000 0.0000 8.2208 0.0000
# 6 0.0000 0.0000 0.0000 0.0000 0.0000 6.4239
#
#
#
# Elastic Compliance Matrix: (Units=1/GPa)
#
#
# Indices 1 2 3 4 5 6 
#
# 1 0.009494 -0.001170 -0.005157 0.000000 0.000000 0.000000
# 2 -0.001170 0.014667 -0.004318 0.000000 0.000000 0.000000
# 3 -0.005157 -0.004318 0.012829 0.000000 0.000000 0.000000
# 4 0.000000 0.000000 0.000000 -0.075923 0.000000 0.000000
# 5 0.000000 0.000000 0.000000 0.000000 0.121642 0.000000
# 6 0.000000 0.000000 0.000000 0.000000 0.000000 0.155670
#
#
# Mechanical properties :
#
#
# Convention : Reuss Voigt Hill
#
# Bulk Modulus (GPa) = 63.69977 70.81043 67.25510
# Shear Modulus (GPa) = 18.87481 14.07279 16.47380
#
# Velocity S-wave (km/s) = 2.99915 2.58968 2.80191
# Velocity P-wave (km/s) = 6.50766 6.53353 6.52061
#
# Compressibility (1/GPa) = 0.01569864
#
# Stress axis : x y z
#
# Youngs Moduli (GPa) = 105.33449 68.17813 77.94750
#
# Poissons Ratio (x) = 0.07980 0.40199
# Poissons Ratio (y) = 0.12328 0.33659
# Poissons Ratio (z) = 0.54323 0.29441
#
# Static dielectric constant tensor:
#      x y z
#    x 3.799260 0.000000 0.000000 
#    y 0.000000 3.563290 0.000000 
#    z 0.000000 0.000000 3.676060 
# 
# 
# High freq. dielectric constant tensor:
#      x y z
#    x 1.820540 0.000000 0.000000 
#    y 0.000000 1.809900 0.000000 
#    z 0.000000 0.000000 1.804760 
# 
# From -- ./inp_files/19277.got.cif
#   From: 2010.03.12/outbox.cif.g09.slc.cpg/sg38_10_cif.got.tgz:19277.got - 2010.04.14 02:38:36.
