data_PCOD8179026
_publ_section_title
;
Structure prediction by ZEFSAII (Michael W. Deem and Ramdas Pophale) SiO2 
 PCOD8179026
Probable space group: A M M 2
;
_chemical_formula_sum "Si O2"
_cell_formula_units_Z 48
_cell_length_a 9.072095
_cell_length_b 31.461420
_cell_length_c 9.111290
_cell_angle_alpha 90.000000
_cell_angle_beta 90.000000
_cell_angle_gamma 90.000000
_cell_volume 2600.553422
_symmetry_space_group_name_H-M "A M M 2"
_symmetry_group_IT_number 38
_symmetry_cell_setting 'orthorhombic'
loop_
_space_group_symop_operation_xyz
x,y,z
-x,-y,z
-x,y,z
x,-y,z
x,1/2+y,1/2+z
-x,1/2-y,1/2+z
-x,1/2+y,1/2+z
x,1/2-y,1/2+z
loop_
_atom_site_type_symbol
_atom_site_label
_atom_site_fract_x
_atom_site_fract_y
_atom_site_fract_z
Si Si1 0.666375 0.863645 0.895850
Si Si2 0.670609 0.870409 0.549443
Si Si3 0.828819 0.453296 0.066948
Si Si4 0.174033 0.790058 0.058802
Si Si5 0.175311 0.293077 0.892048
Si Si6 0.333005 0.045324 0.864815
O O1 0.500000 0.848505 0.926888
O O2 0.699320 0.864450 0.722360
O O3 0.693861 0.911784 0.959935
O O4 0.775597 0.832318 0.976703
O O5 0.500000 0.867912 0.508476
O O6 0.733580 0.915808 0.492326
O O7 0.756068 0.834231 0.464084
O O8 0.798352 0.500000 0.994497
O O9 0.785781 0.456042 0.236808
O O10 0.000000 0.441316 0.054450
O O11 0.231720 0.789649 0.225110
O O12 0.000000 0.789749 0.054296
O O13 0.235416 0.748444 0.976632
O O14 0.000000 0.296499 0.901480
O O15 0.500000 0.049428 0.798202
O O16 0.320031 0.000000 0.953373
#
# Coordination Sequence:
#
# PCOD8179026 Si02
#       6
#     8   8   8   8   8   8
#     4   9  18  31  49  75 104 133 167 206 248 296
#     4  10  20  33  51  76 104 136 171 207 250 297
#     4   9  16  26  44  72 103 134 168 207 249 291
#     4  10  21  36  55  76  99 130 166 207 256 306
#     4  10  21  37  55  75  98 127 166 209 255 306
#     4   8  14  26  44  68 100 135 170 209 250 292
#
# _framework density 18.457609999999999
#
# number of rings (size 3 to 8) (size 9 to 14) (size 15 to 20)
#    0.000    2.667    0.000    3.000    0.000    7.000 
#    0.000    0.000    0.000    1.000    0.000    4.667 
#    0.000    0.000    0.000    0.000    0.000    0.000 
#
# Total GULP energy -297389.878315 kJ/mol
# GULP energy per Si atom -12391.244930 kJ/mol
# Density = 1.841560 g / cm^3
# Si number density = 18.457610 Si / 1000 Ang^3
#
#
#
# Elastic Constant Matrix: (Units=GPa)
#
#
# Indices 1 2 3 4 5 6 
#
# 1 21.2020 25.4676 14.4190 0.0000 0.0000 0.0000
# 2 25.4676 172.4261 48.7522 0.0000 0.0000 0.0000
# 3 14.4190 48.7522 59.4580 0.0000 0.0000 0.0000
# 4 0.0000 0.0000 0.0000 22.1725 0.0000 0.0000
# 5 0.0000 0.0000 0.0000 0.0000 19.5184 0.0000
# 6 0.0000 0.0000 0.0000 0.0000 0.0000 30.7624
#
#
#
# Elastic Compliance Matrix: (Units=1/GPa)
#
#
# Indices 1 2 3 4 5 6 
#
# 1 0.061351 -0.006320 -0.009696 0.000000 0.000000 0.000000
# 2 -0.006320 0.008201 -0.005192 0.000000 0.000000 0.000000
# 3 -0.009696 -0.005192 0.023427 0.000000 0.000000 0.000000
# 4 0.000000 0.000000 0.000000 0.045101 0.000000 0.000000
# 5 0.000000 0.000000 0.000000 0.000000 0.051234 0.000000
# 6 0.000000 0.000000 0.000000 0.000000 0.000000 0.032507
#
#
# Mechanical properties :
#
#
# Convention : Reuss Voigt Hill
#
# Bulk Modulus (GPa) = 19.77712 47.81818 33.79765
# Shear Modulus (GPa) = 17.78785 25.45380 21.62083
#
# Velocity S-wave (km/s) = 3.10774 3.71757 3.42625
# Velocity P-wave (km/s) = 4.85958 6.66261 5.83121
#
# Compressibility (1/GPa) = 0.05056347
#
# Stress axis : x y z
#
# Youngs Moduli (GPa) = 16.29962 121.93629 42.68617
#
# Poissons Ratio (x) = 0.77067 0.41388
# Poissons Ratio (y) = 0.10302 0.22161
# Poissons Ratio (z) = 0.15804 0.63305
#
# Static dielectric constant tensor:
#      x y z
#    x 3.337630 0.000000 0.000000 
#    y 0.000000 3.921530 0.000000 
#    z 0.000000 0.000000 3.057410 
# 
# 
# High freq. dielectric constant tensor:
#      x y z
#    x 1.714630 0.000000 0.000000 
#    y 0.000000 1.747250 0.000000 
#    z 0.000000 0.000000 1.659820 
# 
# From -- ./inp_files/3763.got.cif
#   From: 2010.03.12/outbox.cif.g09.slc.cpg/sg38_2_cif.got.tgz:3763.got - 2010.04.14 02:38:36.
