data_PCOD8179721
_publ_section_title
;
Structure prediction by ZEFSAII (Michael W. Deem and Ramdas Pophale) SiO2 
 PCOD8179721
Probable space group: A M M 2
;
_chemical_formula_sum "Si O2"
_cell_formula_units_Z 64
_cell_length_a 9.132453
_cell_length_b 24.471994
_cell_length_c 14.968250
_cell_angle_alpha 90.000000
_cell_angle_beta 90.000000
_cell_angle_gamma 90.000000
_cell_volume 3345.244239
_symmetry_space_group_name_H-M "A M M 2"
_symmetry_group_IT_number 38
_symmetry_cell_setting 'orthorhombic'
loop_
_space_group_symop_operation_xyz
x,y,z
-x,-y,z
-x,y,z
x,-y,z
x,1/2+y,1/2+z
-x,1/2-y,1/2+z
-x,1/2+y,1/2+z
x,1/2-y,1/2+z
loop_
_atom_site_type_symbol
_atom_site_label
_atom_site_fract_x
_atom_site_fract_y
_atom_site_fract_z
Si Si1 0.829256 0.103235 0.312280
Si Si2 0.834959 0.262643 0.051567
Si Si3 0.171489 0.063192 0.505448
Si Si4 0.173115 0.859014 0.008248
Si Si5 0.667816 0.332244 0.333185
Si Si6 0.667529 0.856883 0.635736
Si Si7 0.835493 0.775385 0.347607
Si Si8 0.666669 0.563176 0.642714
O O1 0.773229 0.084160 0.409299
O O2 0.802245 0.167860 0.297622
O O3 0.735771 0.071017 0.239967
O O4 0.000000 0.088518 0.300012
O O5 0.786507 0.199418 0.051496
O O6 0.729098 0.296626 0.115058
O O7 0.000000 0.268201 0.088216
O O8 0.823136 0.287606 0.952745
O O9 0.247712 0.095533 0.585203
O O10 0.000000 0.074026 0.514439
O O11 0.212416 0.000000 0.516114
O O12 0.240612 0.905883 0.068299
O O13 0.000000 0.866863 0.001510
O O14 0.237917 0.862677 0.908542
O O15 0.500000 0.329289 0.364720
O O16 0.683378 0.366493 0.241888
O O17 0.722584 0.270413 0.316072
O O18 0.500000 0.858512 0.605150
O O19 0.000000 0.754783 0.325796
O O20 0.500000 0.584672 0.643237
O O21 0.672703 0.500000 0.617011
#
# Coordination Sequence:
#
# PCOD8179721 Si02
#       8
#     8   8   8   8   8   8   8   8
#     4  10  20  37  60  87 118 155 198 242 289 345
#     4   9  18  35  57  83 115 149 189 236 287 341
#     4  10  21  39  62  85 114 155 200 245 290 338
#     4  10  22  41  64  88 112 150 200 249 297 346
#     4  10  22  38  56  84 122 159 193 239 297 353
#     4  11  23  36  55  86 121 157 195 235 290 350
#     4   9  18  34  56  84 116 154 195 236 284 339
#     4  11  25  42  60  86 120 156 195 243 300 358
#
# _framework density 19.131637999999999
#
# number of rings (size 3 to 8) (size 9 to 14) (size 15 to 20)
#    0.000    2.000    1.250    2.625    1.750    7.250 
#    0.000    0.625    0.000    0.750    0.000    0.000 
#    0.000    0.000    0.000    0.000    0.000    0.000 
#
# Total GULP energy -396897.893999 kJ/mol
# GULP energy per Si atom -12403.059187 kJ/mol
# Density = 1.908809 g / cm^3
# Si number density = 19.131638 Si / 1000 Ang^3
#
#
#
# Elastic Constant Matrix: (Units=GPa)
#
#
# Indices 1 2 3 4 5 6 
#
# 1 105.8067 55.0223 58.8573 0.0000 0.0000 0.0000
# 2 55.0223 87.0820 55.4490 0.0000 0.0000 0.0000
# 3 58.8573 55.4490 102.7389 0.0000 0.0000 0.0000
# 4 0.0000 0.0000 0.0000 30.2856 0.0000 0.0000
# 5 0.0000 0.0000 0.0000 0.0000 31.2273 0.0000
# 6 0.0000 0.0000 0.0000 0.0000 0.0000 26.7308
#
#
#
# Elastic Compliance Matrix: (Units=1/GPa)
#
#
# Indices 1 2 3 4 5 6 
#
# 1 0.015968 -0.006497 -0.005641 0.000000 0.000000 0.000000
# 2 -0.006497 0.020140 -0.007147 0.000000 0.000000 0.000000
# 3 -0.005641 -0.007147 0.016823 0.000000 0.000000 0.000000
# 4 0.000000 0.000000 0.000000 0.033019 0.000000 0.000000
# 5 0.000000 0.000000 0.000000 0.000000 0.032023 0.000000
# 6 0.000000 0.000000 0.000000 0.000000 0.000000 0.037410
#
#
# Mechanical properties :
#
#
# Convention : Reuss Voigt Hill
#
# Bulk Modulus (GPa) = 69.64419 70.47610 70.06014
# Shear Modulus (GPa) = 25.15839 26.06865 25.61352
#
# Velocity S-wave (km/s) = 3.63025 3.69534 3.66294
# Velocity P-wave (km/s) = 7.35209 7.42461 7.38844
#
# Compressibility (1/GPa) = 0.01435870
#
# Stress axis : x y z
#
# Youngs Moduli (GPa) = 62.62535 49.65286 59.44368
#
# Poissons Ratio (x) = 0.32261 0.33533
# Poissons Ratio (y) = 0.40690 0.42487
# Poissons Ratio (z) = 0.35328 0.35489
#
# Static dielectric constant tensor:
#      x y z
#    x 3.565350 0.000000 0.000000 
#    y 0.000000 3.401400 0.000000 
#    z 0.000000 0.000000 3.437430 
# 
# 
# High freq. dielectric constant tensor:
#      x y z
#    x 1.745480 0.000000 0.000000 
#    y 0.000000 1.735560 0.000000 
#    z 0.000000 0.000000 1.744770 
# 
# From -- ./inp_files/12835.got.cif
#   From: 2010.03.12/outbox.cif.g09.slc.cpg/sg38_7_cif.got.tgz:12835.got - 2010.04.14 02:38:36.
