data_PCOD8179233
_publ_section_title
;
Structure prediction by ZEFSAII (Michael W. Deem and Ramdas Pophale) SiO2 
 PCOD8179233
Probable space group: A M M 2
;
_chemical_formula_sum "Si O2"
_cell_formula_units_Z 48
_cell_length_a 8.859354
_cell_length_b 16.436843
_cell_length_c 18.152599
_cell_angle_alpha 90.000000
_cell_angle_beta 90.000000
_cell_angle_gamma 90.000000
_cell_volume 2643.378032
_symmetry_space_group_name_H-M "A M M 2"
_symmetry_group_IT_number 38
_symmetry_cell_setting 'orthorhombic'
loop_
_space_group_symop_operation_xyz
x,y,z
-x,-y,z
-x,y,z
x,-y,z
x,1/2+y,1/2+z
-x,1/2-y,1/2+z
-x,1/2+y,1/2+z
x,1/2-y,1/2+z
loop_
_atom_site_type_symbol
_atom_site_label
_atom_site_fract_x
_atom_site_fract_y
_atom_site_fract_z
Si Si1 0.326641 0.838583 0.371950
Si Si2 0.677256 0.092848 0.816119
Si Si3 0.327725 0.316694 0.464249
Si Si4 0.676951 0.000000 0.189880
Si Si5 0.826129 0.261720 0.246013
Si Si6 0.173178 0.649607 0.614339
Si Si7 0.178096 0.000000 0.349527
O O1 0.500000 0.859874 0.356740
O O2 0.308656 0.776505 0.439301
O O3 0.262035 0.801186 0.297185
O O4 0.238228 0.920725 0.392329
O O5 0.500000 0.102974 0.803123
O O6 0.719885 0.123652 0.897717
O O7 0.760982 0.147161 0.754658
O O8 0.730447 0.000000 0.807123
O O9 0.500000 0.334247 0.488317
O O10 0.214745 0.331183 0.530699
O O11 0.719221 0.078937 0.143122
O O12 0.500000 0.000000 0.206195
O O13 0.766393 0.000000 0.265873
O O14 0.804392 0.231746 0.162205
O O15 0.000000 0.261409 0.270002
O O16 0.000000 0.620208 0.618286
O O17 0.000000 0.000000 0.350391
#
# Coordination Sequence:
#
# PCOD8179233 Si02
#       7
#     8   8   8   4   8   8   4
#     4  10  20  36  57  81 108 146 188 226 268 325
#     4   9  19  36  57  81 108 139 182 230 271 323
#     4   9  20  36  56  81 110 145 184 222 269 329
#     4  12  24  36  56  82 112 149 184 223 272 326
#     4  10  20  34  54  79 110 144 180 228 275 325
#     4  11  23  37  54  81 116 146 180 225 275 330
#     4  12  22  34  56  86 116 141 178 231 278 326
#
# _framework density 18.158584000000001
#
# number of rings (size 3 to 8) (size 9 to 14) (size 15 to 20)
#    0.000    1.833    1.667    4.000    1.167    5.667 
#    0.000    0.000    1.833    0.000    0.000    0.000 
#    0.000    0.000    0.000    0.000    0.000    0.000 
#
# Total GULP energy -297672.701821 kJ/mol
# GULP energy per Si atom -12403.029243 kJ/mol
# Density = 1.811725 g / cm^3
# Si number density = 18.158584 Si / 1000 Ang^3
#
#
#
# Elastic Constant Matrix: (Units=GPa)
#
#
# Indices 1 2 3 4 5 6 
#
# 1 107.4050 54.4610 26.7663 0.0000 0.0000 0.0000
# 2 54.4610 138.8476 32.3871 0.0000 0.0000 0.0000
# 3 26.7663 32.3871 57.4642 0.0000 0.0000 0.0000
# 4 0.0000 0.0000 0.0000 17.0782 0.0000 0.0000
# 5 0.0000 0.0000 0.0000 0.0000 30.4545 0.0000
# 6 0.0000 0.0000 0.0000 0.0000 0.0000 28.6287
#
#
#
# Elastic Compliance Matrix: (Units=1/GPa)
#
#
# Indices 1 2 3 4 5 6 
#
# 1 0.012183 -0.003978 -0.003433 0.000000 0.000000 0.000000
# 2 -0.003978 0.009591 -0.003553 0.000000 0.000000 0.000000
# 3 -0.003433 -0.003553 0.021003 0.000000 0.000000 0.000000
# 4 0.000000 0.000000 0.000000 0.058554 0.000000 0.000000
# 5 0.000000 0.000000 0.000000 0.000000 0.032836 0.000000
# 6 0.000000 0.000000 0.000000 0.000000 0.000000 0.034930
#
#
# Mechanical properties :
#
#
# Convention : Reuss Voigt Hill
#
# Bulk Modulus (GPa) = 47.95990 58.99397 53.47693
# Shear Modulus (GPa) = 25.25572 27.90576 26.58074
#
# Velocity S-wave (km/s) = 3.73345 3.92443 3.83013
# Velocity P-wave (km/s) = 6.71222 7.28654 7.00526
#
# Compressibility (1/GPa) = 0.02085075
#
# Stress axis : x y z
#
# Youngs Moduli (GPa) = 82.08090 104.26306 47.61128
#
# Poissons Ratio (x) = 0.41475 0.16344
# Poissons Ratio (y) = 0.32651 0.16915
# Poissons Ratio (z) = 0.28177 0.37042
#
# Static dielectric constant tensor:
#      x y z
#    x 3.418870 0.000000 0.000000 
#    y 0.000000 3.772000 0.000000 
#    z 0.000000 0.000000 3.110230 
# 
# 
# High freq. dielectric constant tensor:
#      x y z
#    x 1.714960 0.000000 0.000000 
#    y 0.000000 1.710220 0.000000 
#    z 0.000000 0.000000 1.677900 
# 
# From -- ./inp_files/16674.got.cif
#   From: 2010.03.12/outbox.cif.g09.slc.cpg/sg38_9_cif.got.tgz:16674.got - 2010.04.14 02:38:36.
