data_PCOD8179377
_publ_section_title
;
Structure prediction by ZEFSAII (Michael W. Deem and Ramdas Pophale) SiO2 
 PCOD8179377
Probable space group: A M M 2
;
_chemical_formula_sum "Si O2"
_cell_formula_units_Z 64
_cell_length_a 13.608901
_cell_length_b 26.066462
_cell_length_c 9.804759
_cell_angle_alpha 90.000000
_cell_angle_beta 90.000000
_cell_angle_gamma 90.000000
_cell_volume 3478.100016
_symmetry_space_group_name_H-M "A M M 2"
_symmetry_group_IT_number 38
_symmetry_cell_setting 'orthorhombic'
loop_
_space_group_symop_operation_xyz
x,y,z
-x,-y,z
-x,y,z
x,-y,z
x,1/2+y,1/2+z
-x,1/2-y,1/2+z
-x,1/2+y,1/2+z
x,1/2-y,1/2+z
loop_
_atom_site_type_symbol
_atom_site_label
_atom_site_fract_x
_atom_site_fract_y
_atom_site_fract_z
Si Si1 0.612531 0.712001 0.607200
Si Si2 0.109986 0.941353 0.454357
Si Si3 0.778575 0.940399 0.921686
Si Si4 0.388488 0.133016 0.876932
Si Si5 0.612049 0.141854 0.355893
Si Si6 0.701227 0.680673 0.124200
Si Si7 0.737852 0.441044 0.732154
Si Si8 0.887632 0.126083 0.715940
O O1 0.500000 0.728100 0.573027
O O2 0.648277 0.668494 0.501773
O O3 0.620871 0.692155 0.761766
O O4 0.685491 0.759783 0.589615
O O5 0.178739 0.921111 0.334471
O O6 0.129425 0.912758 0.593812
O O7 0.000000 0.932805 0.401176
O O8 0.132797 0.000000 0.487085
O O9 0.673883 0.919362 0.868729
O O10 0.863618 0.905364 0.854106
O O11 0.790413 0.000000 0.880036
O O12 0.783313 0.932965 0.083339
O O13 0.500000 0.116138 0.899853
O O14 0.378372 0.164192 0.736712
O O15 0.500000 0.133925 0.403867
O O16 0.682102 0.147790 0.487281
O O17 0.642084 0.092902 0.263662
O O18 0.811234 0.672468 0.186110
O O19 0.707683 0.500000 0.754730
O O20 0.000000 0.146791 0.723819
#
# Coordination Sequence:
#
# PCOD8179377 Si02
#       8
#     8   8   8   8   8   8   8   8
#     4  10  20  35  57  82 110 148 193 233 274 324
#     4   9  17  32  55  79 104 136 176 222 270 323
#     4  10  21  35  55  81 111 148 186 228 278 333
#     4  10  20  35  53  80 113 146 188 231 274 330
#     4  11  21  35  55  84 115 148 188 224 268 327
#     4  11  21  35  57  81 110 145 183 236 282 328
#     4  10  20  35  53  80 113 145 182 223 275 330
#     4  10  21  37  58  82 109 142 183 232 283 336
#
# _framework density 18.400850999999999
#
# number of rings (size 3 to 8) (size 9 to 14) (size 15 to 20)
#    0.000    1.875    2.500    2.250    0.000    3.750 
#    0.000    2.500    0.000    9.000    0.000    0.000 
#    0.000    0.000    0.000    0.000    0.000    0.000 
#
# Total GULP energy -396791.253990 kJ/mol
# GULP energy per Si atom -12399.726687 kJ/mol
# Density = 1.835897 g / cm^3
# Si number density = 18.400851 Si / 1000 Ang^3
#
#
#
# Elastic Constant Matrix: (Units=GPa)
#
#
# Indices 1 2 3 4 5 6 
#
# 1 96.5868 44.0423 28.8096 0.0000 0.0000 0.0000
# 2 44.0423 69.2342 20.9564 0.0000 0.0000 0.0000
# 3 28.8096 20.9564 87.9814 0.0000 0.0000 0.0000
# 4 0.0000 0.0000 0.0000 25.0708 0.0000 0.0000
# 5 0.0000 0.0000 0.0000 0.0000 25.5663 0.0000
# 6 0.0000 0.0000 0.0000 0.0000 0.0000 23.2809
#
#
#
# Elastic Compliance Matrix: (Units=1/GPa)
#
#
# Indices 1 2 3 4 5 6 
#
# 1 0.015236 -0.008818 -0.002889 0.000000 0.000000 0.000000
# 2 -0.008818 0.020669 -0.002036 0.000000 0.000000 0.000000
# 3 -0.002889 -0.002036 0.012797 0.000000 0.000000 0.000000
# 4 0.000000 0.000000 0.000000 0.039887 0.000000 0.000000
# 5 0.000000 0.000000 0.000000 0.000000 0.039114 0.000000
# 6 0.000000 0.000000 0.000000 0.000000 0.000000 0.042954
#
#
# Mechanical properties :
#
#
# Convention : Reuss Voigt Hill
#
# Bulk Modulus (GPa) = 47.13108 49.04656 48.08882
# Shear Modulus (GPa) = 24.36489 25.44987 24.90738
#
# Velocity S-wave (km/s) = 3.64279 3.72301 3.68312
# Velocity P-wave (km/s) = 6.58501 6.72261 6.65417
#
# Compressibility (1/GPa) = 0.02121742
#
# Stress axis : x y z
#
# Youngs Moduli (GPa) = 65.63522 48.38124 78.14415
#
# Poissons Ratio (x) = 0.42661 0.22573
# Poissons Ratio (y) = 0.57875 0.15909
# Poissons Ratio (z) = 0.18960 0.09850
#
# Static dielectric constant tensor:
#      x y z
#    x 3.308040 0.000000 0.000000 
#    y 0.000000 3.263870 0.000000 
#    z 0.000000 0.000000 3.545910 
# 
# 
# High freq. dielectric constant tensor:
#      x y z
#    x 1.700350 0.000000 0.000000 
#    y 0.000000 1.700320 0.000000 
#    z 0.000000 0.000000 1.728860 
# 
# From -- ./inp_files/5882.got.cif
#   From: 2010.03.12/outbox.cif.g09.slc.cpg/sg38_3_cif.got.tgz:5882.got - 2010.04.14 02:38:36.
