data_PCOD8179849
_publ_section_title
;
Structure prediction by ZEFSAII (Michael W. Deem and Ramdas Pophale) SiO2 
 PCOD8179849
Probable space group: A M M 2
;
_chemical_formula_sum "Si O2"
_cell_formula_units_Z 48
_cell_length_a 8.899988
_cell_length_b 16.654182
_cell_length_c 18.553064
_cell_angle_alpha 90.000000
_cell_angle_beta 90.000000
_cell_angle_gamma 90.000000
_cell_volume 2749.972622
_symmetry_space_group_name_H-M "A M M 2"
_symmetry_group_IT_number 38
_symmetry_cell_setting 'orthorhombic'
loop_
_space_group_symop_operation_xyz
x,y,z
-x,-y,z
-x,y,z
x,-y,z
x,1/2+y,1/2+z
-x,1/2-y,1/2+z
-x,1/2+y,1/2+z
x,1/2-y,1/2+z
loop_
_atom_site_type_symbol
_atom_site_label
_atom_site_fract_x
_atom_site_fract_y
_atom_site_fract_z
Si Si1 0.677076 0.328664 0.878070
Si Si2 0.678030 0.179112 0.966410
Si Si3 0.678226 0.000000 0.354198
Si Si4 0.827078 0.757193 0.751124
Si Si5 0.824329 0.846187 0.119480
Si Si6 0.174937 0.590749 0.337490
Si Si7 0.678548 0.000000 0.190653
O O1 0.500000 0.326905 0.872766
O O2 0.731003 0.267142 0.939221
O O3 0.735687 0.419330 0.894891
O O4 0.733947 0.303639 0.799791
O O5 0.500000 0.172148 0.976856
O O6 0.729820 0.113086 0.908294
O O7 0.761017 0.167877 0.040779
O O8 0.500000 0.000000 0.352518
O O9 0.737498 0.000000 0.272444
O O10 0.793552 0.733929 0.667991
O O11 0.784082 0.849775 0.770551
O O12 0.000000 0.742272 0.769743
O O13 0.000000 0.865252 0.114696
O O14 0.740649 0.921725 0.152122
O O15 0.216270 0.500000 0.313944
O O16 0.000000 0.597927 0.357779
O O17 0.500000 0.000000 0.184783
#
# Coordination Sequence:
#
# PCOD8179849 Si02
#       7
#     8   8   4   8   8   8   4
#     4   9  17  32  52  75  99 130 167 207 251 299
#     4  10  21  34  51  74 103 136 170 205 249 302
#     4   9  16  29  53  79 101 124 159 208 255 297
#     4   9  18  32  51  74  98 130 167 206 249 299
#     4  11  22  35  51  73 107 139 167 202 251 306
#     4   9  18  34  55  76  98 127 167 212 257 299
#     4  11  21  33  53  79 105 130 165 206 251 301
#
# _framework density 17.454719999999998
#
# number of rings (size 3 to 8) (size 9 to 14) (size 15 to 20)
#    0.000    2.333    1.667    1.250    1.167    1.667 
#    0.000    0.417    1.833    0.000    0.000    0.000 
#    0.000    0.000    0.000    0.000    0.000    0.000 
#
# Total GULP energy -297468.026556 kJ/mol
# GULP energy per Si atom -12394.501106 kJ/mol
# Density = 1.741499 g / cm^3
# Si number density = 17.454720 Si / 1000 Ang^3
#
#
#
# Elastic Constant Matrix: (Units=GPa)
#
#
# Indices 1 2 3 4 5 6 
#
# 1 44.7476 26.1007 28.7842 0.0000 0.0000 0.0000
# 2 26.1007 146.0976 48.3458 0.0000 0.0000 0.0000
# 3 28.7842 48.3458 81.5475 0.0000 0.0000 0.0000
# 4 0.0000 0.0000 0.0000 13.7974 0.0000 0.0000
# 5 0.0000 0.0000 0.0000 0.0000 19.7352 0.0000
# 6 0.0000 0.0000 0.0000 0.0000 0.0000 20.0152
#
#
#
# Elastic Compliance Matrix: (Units=1/GPa)
#
#
# Indices 1 2 3 4 5 6 
#
# 1 0.029505 -0.002270 -0.009069 0.000000 0.000000 0.000000
# 2 -0.002270 0.008690 -0.004351 0.000000 0.000000 0.000000
# 3 -0.009069 -0.004351 0.018043 0.000000 0.000000 0.000000
# 4 0.000000 0.000000 0.000000 0.072477 0.000000 0.000000
# 5 0.000000 0.000000 0.000000 0.000000 0.050671 0.000000
# 6 0.000000 0.000000 0.000000 0.000000 0.000000 0.049962
#
#
# Mechanical properties :
#
#
# Convention : Reuss Voigt Hill
#
# Bulk Modulus (GPa) = 40.22632 53.20602 46.71617
# Shear Modulus (GPa) = 18.58641 21.98704 20.28673
#
# Velocity S-wave (km/s) = 3.26672 3.55302 3.41288
# Velocity P-wave (km/s) = 6.10940 6.88334 6.50789
#
# Compressibility (1/GPa) = 0.02485935
#
# Stress axis : x y z
#
# Youngs Moduli (GPa) = 33.89228 115.07497 55.42301
#
# Poissons Ratio (x) = 0.26125 0.50261
# Poissons Ratio (y) = 0.07694 0.24112
# Poissons Ratio (z) = 0.30736 0.50064
#
# Static dielectric constant tensor:
#      x y z
#    x 3.246000 0.000000 0.000000 
#    y 0.000000 4.392020 0.000000 
#    z 0.000000 0.000000 3.175170 
# 
# 
# High freq. dielectric constant tensor:
#      x y z
#    x 1.673070 0.000000 0.000000 
#    y 0.000000 1.685140 0.000000 
#    z 0.000000 0.000000 1.653430 
# 
# From -- ./inp_files/12153.got.cif
#   From: 2010.03.12/outbox.cif.g09.slc.cpg/sg38_7_cif.got.tgz:12153.got - 2010.04.14 02:38:36.
