data_PCOD8179324
_publ_section_title
;
Structure prediction by ZEFSAII (Michael W. Deem and Ramdas Pophale) SiO2 
 PCOD8179324
Probable space group: A M M 2
;
_chemical_formula_sum "Si O2"
_cell_formula_units_Z 64
_cell_length_a 8.531129
_cell_length_b 19.673288
_cell_length_c 20.629318
_cell_angle_alpha 90.000000
_cell_angle_beta 90.000000
_cell_angle_gamma 90.000000
_cell_volume 3462.328967
_symmetry_space_group_name_H-M "A M M 2"
_symmetry_group_IT_number 38
_symmetry_cell_setting 'orthorhombic'
loop_
_space_group_symop_operation_xyz
x,y,z
-x,-y,z
-x,y,z
x,-y,z
x,1/2+y,1/2+z
-x,1/2-y,1/2+z
-x,1/2+y,1/2+z
x,1/2-y,1/2+z
loop_
_atom_site_type_symbol
_atom_site_label
_atom_site_fract_x
_atom_site_fract_y
_atom_site_fract_z
Si Si1 0.316046 0.715708 0.824290
Si Si2 0.317987 0.923496 0.906578
Si Si3 0.316782 0.214750 0.568024
Si Si4 0.181532 0.789609 0.947626
Si Si5 0.819801 0.075652 0.769074
Si Si6 0.313981 0.426462 0.017711
Si Si7 0.314198 0.426083 0.872353
Si Si8 0.819053 0.289963 0.202127
O O1 0.500000 0.721403 0.809659
O O2 0.282703 0.753204 0.892016
O O3 0.257839 0.637086 0.828648
O O4 0.219550 0.747629 0.766007
O O5 0.500000 0.912796 0.921400
O O6 0.219004 0.870064 0.948575
O O7 0.289599 0.910422 0.830563
O O8 0.264193 0.000000 0.925207
O O9 0.500000 0.222005 0.553281
O O10 0.224257 0.261869 0.518232
O O11 0.255546 0.136768 0.560713
O O12 0.280599 0.237376 0.641410
O O13 0.000000 0.777324 0.932938
O O14 0.777259 0.130672 0.714342
O O15 0.000000 0.084597 0.791647
O O16 0.789818 0.000000 0.740769
O O17 0.500000 0.426486 0.015659
O O18 0.254884 0.500000 0.045182
O O19 0.247454 0.416699 0.944988
O O20 0.500000 0.424205 0.876165
O O21 0.258702 0.500000 0.844368
O O22 0.000000 0.280424 0.185091
#
# Coordination Sequence:
#
# PCOD8179324 Si02
#       8
#     8   8   8   8   8   8   8   8
#     4  11  20  34  58  84 108 142 187 231 270 322
#     4  10  20  34  56  85 112 139 180 231 275 324
#     4  11  22  37  56  79 108 147 191 235 274 325
#     4  12  23  36  56  82 113 148 182 226 280 333
#     4   9  18  33  52  75 109 152 188 220 268 327
#     4   8  14  27  49  78 109 140 176 220 269 318
#     4   8  14  27  51  82 110 135 170 221 275 320
#     4  11  23  37  52  77 113 151 185 228 281 334
#
# _framework density 18.484667999999999
#
# number of rings (size 3 to 8) (size 9 to 14) (size 15 to 20)
#    0.000    2.000    2.500    3.375    0.000    1.750 
#    0.000    0.000    0.000    4.125    0.000    1.750 
#    0.000    0.000    0.000    0.000    0.000    0.000 
#
# Total GULP energy -396701.670552 kJ/mol
# GULP energy per Si atom -12396.927205 kJ/mol
# Density = 1.844260 g / cm^3
# Si number density = 18.484668 Si / 1000 Ang^3
#
#
#
# Elastic Constant Matrix: (Units=GPa)
#
#
# Indices 1 2 3 4 5 6 
#
# 1 43.9438 21.8548 7.9410 0.0000 0.0000 0.0000
# 2 21.8548 114.3848 43.6869 0.0000 0.0000 0.0000
# 3 7.9410 43.6869 82.4509 0.0000 0.0000 0.0000
# 4 0.0000 0.0000 0.0000 22.2194 0.0000 0.0000
# 5 0.0000 0.0000 0.0000 0.0000 24.4215 0.0000
# 6 0.0000 0.0000 0.0000 0.0000 0.0000 19.6867
#
#
#
# Elastic Compliance Matrix: (Units=1/GPa)
#
#
# Indices 1 2 3 4 5 6 
#
# 1 0.025147 -0.004864 0.000155 0.000000 0.000000 0.000000
# 2 -0.004864 0.011901 -0.005837 0.000000 0.000000 0.000000
# 3 0.000155 -0.005837 0.015206 0.000000 0.000000 0.000000
# 4 0.000000 0.000000 0.000000 0.045006 0.000000 0.000000
# 5 0.000000 0.000000 0.000000 0.000000 0.040947 0.000000
# 6 0.000000 0.000000 0.000000 0.000000 0.000000 0.050796
#
#
# Mechanical properties :
#
#
# Convention : Reuss Voigt Hill
#
# Bulk Modulus (GPa) = 32.08978 43.08277 37.58627
# Shear Modulus (GPa) = 22.67738 24.41865 23.54802
#
# Velocity S-wave (km/s) = 3.50640 3.63853 3.57308
# Velocity P-wave (km/s) = 5.81301 6.40389 6.11559
#
# Compressibility (1/GPa) = 0.03116257
#
# Stress axis : x y z
#
# Youngs Moduli (GPa) = 39.76562 84.02466 65.76144
#
# Poissons Ratio (x) = 0.40870 -0.01021
# Poissons Ratio (y) = 0.19342 0.38388
# Poissons Ratio (z) = -0.00617 0.49049
#
# Static dielectric constant tensor:
#      x y z
#    x 3.162690 0.000000 0.000000 
#    y 0.000000 3.928030 0.000000 
#    z 0.000000 0.000000 3.063140 
# 
# 
# High freq. dielectric constant tensor:
#      x y z
#    x 1.702320 0.000000 0.000000 
#    y 0.000000 1.728490 0.000000 
#    z 0.000000 0.000000 1.683170 
# 
# From -- ./inp_files/17163.got.cif
#   From: 2010.03.12/outbox.cif.g09.slc.cpg/sg38_9_cif.got.tgz:17163.got - 2010.04.14 02:38:36.
