data_PCOD8179614
_publ_section_title
;
Structure prediction by ZEFSAII (Michael W. Deem and Ramdas Pophale) SiO2 
 PCOD8179614
Probable space group: A M M 2
;
_chemical_formula_sum "Si O2"
_cell_formula_units_Z 64
_cell_length_a 8.833102
_cell_length_b 15.421106
_cell_length_c 23.970883
_cell_angle_alpha 90.000000
_cell_angle_beta 90.000000
_cell_angle_gamma 90.000000
_cell_volume 3265.222647
_symmetry_space_group_name_H-M "A M M 2"
_symmetry_group_IT_number 38
_symmetry_cell_setting 'orthorhombic'
loop_
_space_group_symop_operation_xyz
x,y,z
-x,-y,z
-x,y,z
x,-y,z
x,1/2+y,1/2+z
-x,1/2-y,1/2+z
-x,1/2+y,1/2+z
x,1/2-y,1/2+z
loop_
_atom_site_type_symbol
_atom_site_label
_atom_site_fract_x
_atom_site_fract_y
_atom_site_fract_z
Si Si1 0.174392 0.402019 0.586150
Si Si2 0.820085 0.746567 0.668938
Si Si3 0.326359 0.597617 0.357018
Si Si4 0.821199 0.753968 0.294209
Si Si5 0.326692 0.597635 0.865941
Si Si6 0.674486 0.663600 0.477877
Si Si7 0.178496 0.846865 0.475786
Si Si8 0.179947 0.095786 0.596604
O O1 0.191928 0.500000 0.608475
O O2 0.233962 0.337810 0.634501
O O3 0.274365 0.391691 0.531019
O O4 0.000000 0.380481 0.571335
O O5 0.754790 0.743054 0.731453
O O6 0.754019 0.832974 0.639265
O O7 0.000000 0.750323 0.670582
O O8 0.500000 0.617091 0.341751
O O9 0.280514 0.500000 0.339484
O O10 0.223883 0.664447 0.323297
O O11 0.301536 0.605494 0.423215
O O12 0.760660 0.837424 0.326010
O O13 0.000000 0.759973 0.293959
O O14 0.500000 0.628034 0.868750
O O15 0.311387 0.500000 0.842336
O O16 0.259167 0.598773 0.927783
O O17 0.500000 0.691705 0.484775
O O18 0.780013 0.746631 0.471109
O O19 0.238043 0.883616 0.534520
O O20 0.000000 0.858097 0.469011
O O21 0.000000 0.100346 0.596808
O O22 0.236547 0.000000 0.614571
#
# Coordination Sequence:
#
# PCOD8179614 Si02
#       8
#     8   8   8   8   8   8   8   8
#     4  10  20  36  59  85 114 149 189 237 289 341
#     4   9  19  36  55  82 115 147 190 241 293 337
#     4  10  22  40  60  82 116 159 194 231 288 353
#     4  11  23  38  61  88 114 150 199 252 294 338
#     4  11  24  41  60  84 119 159 193 234 292 353
#     4  11  21  35  58  86 118 155 189 227 287 351
#     4  11  20  34  60  90 118 149 189 235 286 342
#     4   9  17  31  55  85 116 146 177 223 283 340
#
# _framework density 19.600501000000001
#
# number of rings (size 3 to 8) (size 9 to 14) (size 15 to 20)
#    0.000    1.750    2.500    2.250    0.000    4.000 
#    0.000    3.750    0.000    0.000    0.000    0.000 
#    0.000    0.000    0.000    0.000    0.000    0.000 
#
# Total GULP energy -396859.768683 kJ/mol
# GULP energy per Si atom -12401.867771 kJ/mol
# Density = 1.955589 g / cm^3
# Si number density = 19.600501 Si / 1000 Ang^3
#
#
#
# Elastic Constant Matrix: (Units=GPa)
#
#
# Indices 1 2 3 4 5 6 
#
# 1 56.3155 32.5584 39.8463 0.0000 0.0000 0.0000
# 2 32.5584 142.1401 63.3273 0.0000 0.0000 0.0000
# 3 39.8463 63.3273 151.0749 0.0000 0.0000 0.0000
# 4 0.0000 0.0000 0.0000 10.9439 0.0000 0.0000
# 5 0.0000 0.0000 0.0000 0.0000 6.0343 0.0000
# 6 0.0000 0.0000 0.0000 0.0000 0.0000 18.8048
#
#
#
# Elastic Compliance Matrix: (Units=1/GPa)
#
#
# Indices 1 2 3 4 5 6 
#
# 1 0.022919 -0.003144 -0.004727 0.000000 0.000000 0.000000
# 2 -0.003144 0.009082 -0.002978 0.000000 0.000000 0.000000
# 3 -0.004727 -0.002978 0.009114 0.000000 0.000000 0.000000
# 4 0.000000 0.000000 0.000000 0.091375 0.000000 0.000000
# 5 0.000000 0.000000 0.000000 0.000000 0.165719 0.000000
# 6 0.000000 0.000000 0.000000 0.000000 0.000000 0.053178
#
#
# Mechanical properties :
#
#
# Convention : Reuss Voigt Hill
#
# Bulk Modulus (GPa) = 51.49825 68.99938 60.24882
# Shear Modulus (GPa) = 13.17319 21.40984 17.29152
#
# Velocity S-wave (km/s) = 2.59527 3.30860 2.97340
# Velocity P-wave (km/s) = 5.94235 7.06223 6.52635
#
# Compressibility (1/GPa) = 0.01941813
#
# Stress axis : x y z
#
# Youngs Moduli (GPa) = 43.63105 110.10626 109.71766
#
# Poissons Ratio (x) = 0.34615 0.51866
# Poissons Ratio (y) = 0.13717 0.32672
# Poissons Ratio (z) = 0.20625 0.32788
#
# Static dielectric constant tensor:
#      x y z
#    x 3.383030 0.000000 0.000000 
#    y 0.000000 3.701830 0.000000 
#    z 0.000000 0.000000 3.741230 
# 
# 
# High freq. dielectric constant tensor:
#      x y z
#    x 1.740400 0.000000 0.000000 
#    y 0.000000 1.778620 0.000000 
#    z 0.000000 0.000000 1.761780 
# 
# From -- ./inp_files/22178.got.cif
#   From: 2010.03.12/outbox.cif.g09.slc.cpg/sg38_12_cif.got.tgz:22178.got - 2010.04.14 02:38:36.
