data_PCOD8179339
_publ_section_title
;
Structure prediction by ZEFSAII (Michael W. Deem and Ramdas Pophale) SiO2 
 PCOD8179339
Probable space group: A M M 2
;
_chemical_formula_sum "Si O2"
_cell_formula_units_Z 40
_cell_length_a 14.370607
_cell_length_b 8.868682
_cell_length_c 15.592020
_cell_angle_alpha 90.000000
_cell_angle_beta 90.000000
_cell_angle_gamma 90.000000
_cell_volume 1987.177123
_symmetry_space_group_name_H-M "A M M 2"
_symmetry_group_IT_number 38
_symmetry_cell_setting 'orthorhombic'
loop_
_space_group_symop_operation_xyz
x,y,z
-x,-y,z
-x,y,z
x,-y,z
x,1/2+y,1/2+z
-x,1/2-y,1/2+z
-x,1/2+y,1/2+z
x,1/2-y,1/2+z
loop_
_atom_site_type_symbol
_atom_site_label
_atom_site_fract_x
_atom_site_fract_y
_atom_site_fract_z
Si Si1 0.227649 0.674322 0.052840
Si Si2 0.104521 0.178575 0.394267
Si Si3 0.605125 0.823958 0.300988
Si Si4 0.217070 0.173210 0.743485
Si Si5 0.395667 0.826654 0.981213
O O1 0.253138 0.500000 0.037298
O O2 0.180037 0.695034 0.146146
O O3 0.157960 0.735202 0.979412
O O4 0.322257 0.772251 0.052036
O O5 0.153613 0.233661 0.308031
O O6 0.000000 0.244038 0.397413
O O7 0.102947 0.000000 0.392135
O O8 0.500000 0.786265 0.271209
O O9 0.676445 0.730225 0.243353
O O10 0.620429 0.777758 0.399092
O O11 0.627110 0.000000 0.292038
O O12 0.213831 0.000000 0.771799
O O13 0.500000 0.806327 0.018160
O O14 0.377676 0.000000 0.955845
#
# Coordination Sequence:
#
# PCOD8179339 Si02
#       5
#     8   8   8   8   8
#     4  10  22  39  60  87 120 158 196 237 291 352
#     4  10  22  42  65  86 113 153 198 245 299 357
#     4  10  20  35  57  84 118 161 202 239 288 349
#     4  11  23  38  60  91 122 154 197 246 292 346
#     4  10  20  34  56  87 121 156 196 242 289 341
#
# _framework density 20.129055999999999
#
# number of rings (size 3 to 8) (size 9 to 14) (size 15 to 20)
#    0.000    1.800    2.000    1.800    0.000    6.000 
#    0.000    6.000    0.000    0.000    0.000    0.000 
#    0.000    0.000    0.000    0.000    0.000    0.000 
#
# Total GULP energy -248024.673727 kJ/mol
# GULP energy per Si atom -12401.233686 kJ/mol
# Density = 2.008324 g / cm^3
# Si number density = 20.129056 Si / 1000 Ang^3
#
#
#
# Elastic Constant Matrix: (Units=GPa)
#
#
# Indices 1 2 3 4 5 6 
#
# 1 126.2871 23.6841 53.9786 0.0000 0.0000 0.0000
# 2 23.6841 25.9940 15.2532 0.0000 0.0000 0.0000
# 3 53.9786 15.2532 109.3109 0.0000 0.0000 0.0000
# 4 0.0000 0.0000 0.0000 28.6761 0.0000 0.0000
# 5 0.0000 0.0000 0.0000 0.0000 13.4210 0.0000
# 6 0.0000 0.0000 0.0000 0.0000 0.0000 24.6942
#
#
#
# Elastic Compliance Matrix: (Units=1/GPa)
#
#
# Indices 1 2 3 4 5 6 
#
# 1 0.011274 -0.007630 -0.004502 0.000000 0.000000 0.000000
# 2 -0.007630 0.047065 -0.002800 0.000000 0.000000 0.000000
# 3 -0.004502 -0.002800 0.011762 0.000000 0.000000 0.000000
# 4 0.000000 0.000000 0.000000 0.034872 0.000000 0.000000
# 5 0.000000 0.000000 0.000000 0.000000 0.074510 0.000000
# 6 0.000000 0.000000 0.000000 0.000000 0.000000 0.040495
#
#
# Mechanical properties :
#
#
# Convention : Reuss Voigt Hill
#
# Bulk Modulus (GPa) = 24.85276 49.71377 37.28326
# Shear Modulus (GPa) = 18.99294 24.60333 21.79814
#
# Velocity S-wave (km/s) = 3.07507 3.49990 3.29434
# Velocity P-wave (km/s) = 4.99816 6.40965 5.74740
#
# Compressibility (1/GPa) = 0.04023698
#
# Stress axis : x y z
#
# Youngs Moduli (GPa) = 88.70063 21.24713 85.01789
#
# Poissons Ratio (x) = 0.16212 0.38279
# Poissons Ratio (y) = 0.67679 0.23802
# Poissons Ratio (z) = 0.39937 0.05949
#
# Static dielectric constant tensor:
#      x y z
#    x 3.848360 0.000000 0.000000 
#    y 0.000000 3.587760 0.000000 
#    z 0.000000 0.000000 3.527640 
# 
# 
# High freq. dielectric constant tensor:
#      x y z
#    x 1.782990 0.000000 0.000000 
#    y 0.000000 1.785030 0.000000 
#    z 0.000000 0.000000 1.780740 
# 
# From -- ./inp_files/14265.got.cif
#   From: 2010.03.12/outbox.cif.g09.slc.cpg/sg38_8_cif.got.tgz:14265.got - 2010.04.14 02:38:36.
