data_PCOD8179044
_publ_section_title
;
Structure prediction by ZEFSAII (Michael W. Deem and Ramdas Pophale) SiO2 
 PCOD8179044
Probable space group: A M M 2
;
_chemical_formula_sum "Si O2"
_cell_formula_units_Z 56
_cell_length_a 15.602311
_cell_length_b 9.002466
_cell_length_c 20.328592
_cell_angle_alpha 90.000000
_cell_angle_beta 90.000000
_cell_angle_gamma 90.000000
_cell_volume 2855.339280
_symmetry_space_group_name_H-M "A M M 2"
_symmetry_group_IT_number 38
_symmetry_cell_setting 'orthorhombic'
loop_
_space_group_symop_operation_xyz
x,y,z
-x,-y,z
-x,y,z
x,-y,z
x,1/2+y,1/2+z
-x,1/2-y,1/2+z
-x,1/2+y,1/2+z
x,1/2-y,1/2+z
loop_
_atom_site_type_symbol
_atom_site_label
_atom_site_fract_x
_atom_site_fract_y
_atom_site_fract_z
Si Si1 0.738603 0.324434 0.315120
Si Si2 0.094461 0.168757 0.352445
Si Si3 0.147014 0.333626 0.995374
Si Si4 0.733603 0.176305 0.183302
Si Si5 0.405577 0.676696 0.578991
Si Si6 0.309830 0.325852 0.455778
Si Si7 0.904863 0.828660 0.638700
O O1 0.729264 0.500000 0.306090
O O2 0.839100 0.283308 0.320549
O O3 0.698927 0.241647 0.252278
O O4 0.688967 0.263088 0.380762
O O5 0.088666 0.188296 0.431192
O O6 0.000000 0.204190 0.324166
O O7 0.122072 0.000000 0.334380
O O8 0.185835 0.500000 0.996667
O O9 0.091868 0.303063 0.060255
O O10 0.224454 0.218396 0.994221
O O11 0.667579 0.238359 0.128154
O O12 0.830753 0.229977 0.171207
O O13 0.733307 0.000000 0.186185
O O14 0.500000 0.737540 0.598478
O O15 0.404150 0.500000 0.582955
O O16 0.387429 0.727071 0.503106
O O17 0.309496 0.500000 0.448355
O O18 0.000000 0.783516 0.664918
O O19 0.885131 0.000000 0.655733
#
# Coordination Sequence:
#
# PCOD8179044 Si02
#       7
#     8   8   8   8   8   8   8
#     4  10  21  35  53  76 108 146 180 221 275 325
#     4   9  17  30  49  74 104 140 186 231 269 319
#     4   9  16  28  49  76 107 140 174 220 274 321
#     4  11  22  37  57  80 110 147 187 228 270 322
#     4   9  18  35  61  88 110 137 177 224 275 330
#     4   9  17  33  56  81 106 135 175 220 266 321
#     4  10  20  33  51  77 111 150 187 225 274 325
#
# _framework density 19.612380999999999
#
# number of rings (size 3 to 8) (size 9 to 14) (size 15 to 20)
#    0.000    2.429    1.429    1.286    0.000    3.429 
#    0.000    0.714    0.000    7.286    0.000    0.000 
#    0.000    0.000    0.000    0.000    0.000    0.000 
#
# Total GULP energy -346988.156541 kJ/mol
# GULP energy per Si atom -12392.434162 kJ/mol
# Density = 1.956774 g / cm^3
# Si number density = 19.612381 Si / 1000 Ang^3
#
#
#
# Elastic Constant Matrix: (Units=GPa)
#
#
# Indices 1 2 3 4 5 6 
#
# 1 105.2381 20.8816 52.8749 0.0000 0.0000 0.0000
# 2 20.8816 37.6205 37.1461 0.0000 0.0000 0.0000
# 3 52.8749 37.1461 120.2272 0.0000 0.0000 0.0000
# 4 0.0000 0.0000 0.0000 26.5901 0.0000 0.0000
# 5 0.0000 0.0000 0.0000 0.0000 12.4893 0.0000
# 6 0.0000 0.0000 0.0000 0.0000 0.0000 13.9807
#
#
#
# Elastic Compliance Matrix: (Units=1/GPa)
#
#
# Indices 1 2 3 4 5 6 
#
# 1 0.012316 -0.002141 -0.004755 0.000000 0.000000 0.000000
# 2 -0.002141 0.038623 -0.010991 0.000000 0.000000 0.000000
# 3 -0.004755 -0.010991 0.013805 0.000000 0.000000 0.000000
# 4 0.000000 0.000000 0.000000 0.037608 0.000000 0.000000
# 5 0.000000 0.000000 0.000000 0.000000 0.080069 0.000000
# 6 0.000000 0.000000 0.000000 0.000000 0.000000 0.071527
#
#
# Mechanical properties :
#
#
# Convention : Reuss Voigt Hill
#
# Bulk Modulus (GPa) = 34.52044 53.87678 44.19861
# Shear Modulus (GPa) = 16.70126 20.75755 18.72940
#
# Velocity S-wave (km/s) = 2.92133 3.25682 3.09363
# Velocity P-wave (km/s) = 5.38688 6.45546 5.94522
#
# Compressibility (1/GPa) = 0.02896834
#
# Stress axis : x y z
#
# Youngs Moduli (GPa) = 81.19402 25.89163 72.43879
#
# Poissons Ratio (x) = 0.05544 0.34445
# Poissons Ratio (y) = 0.17385 0.79620
# Poissons Ratio (z) = 0.38608 0.28458
#
# Static dielectric constant tensor:
#      x y z
#    x 3.479100 0.000000 0.000000 
#    y 0.000000 3.353400 0.000000 
#    z 0.000000 0.000000 3.898360 
# 
# 
# High freq. dielectric constant tensor:
#      x y z
#    x 1.737070 0.000000 0.000000 
#    y 0.000000 1.740350 0.000000 
#    z 0.000000 0.000000 1.776660 
# 
# From -- ./inp_files/21029.got.cif
#   From: 2010.03.12/outbox.cif.g09.slc.cpg/sg38_11_cif.got.tgz:21029.got - 2010.04.14 02:38:36.
