data_PCOD8179826
_publ_section_title
;
Structure prediction by ZEFSAII (Michael W. Deem and Ramdas Pophale) SiO2 
 PCOD8179826
Probable space group: A M M 2
;
_chemical_formula_sum "Si O2"
_cell_formula_units_Z 48
_cell_length_a 10.068315
_cell_length_b 8.869372
_cell_length_c 27.343998
_cell_angle_alpha 90.000000
_cell_angle_beta 90.000000
_cell_angle_gamma 90.000000
_cell_volume 2441.808936
_symmetry_space_group_name_H-M "A M M 2"
_symmetry_group_IT_number 38
_symmetry_cell_setting 'orthorhombic'
loop_
_space_group_symop_operation_xyz
x,y,z
-x,-y,z
-x,y,z
x,-y,z
x,1/2+y,1/2+z
-x,1/2-y,1/2+z
-x,1/2+y,1/2+z
x,1/2-y,1/2+z
loop_
_atom_site_type_symbol
_atom_site_label
_atom_site_fract_x
_atom_site_fract_y
_atom_site_fract_z
Si Si1 0.000000 0.820932 0.327981
Si Si2 0.348842 0.825355 0.684246
Si Si3 0.732137 0.322482 0.294062
Si Si4 0.763768 0.322625 0.504859
Si Si5 0.500000 0.176070 0.467529
Si Si6 0.852540 0.178378 0.110702
Si Si7 0.500000 0.677851 0.854169
Si Si8 0.000000 0.176221 0.932865
O O1 0.873876 0.754441 0.300100
O O2 0.000000 0.775382 0.384471
O O3 0.000000 0.000000 0.323648
O O4 0.500000 0.779986 0.671886
O O5 0.321474 0.786384 0.740395
O O6 0.251364 0.731298 0.650719
O O7 0.323465 0.000000 0.673870
O O8 0.743397 0.500000 0.304105
O O9 0.631678 0.251606 0.332647
O O10 0.740126 0.500000 0.506451
O O11 0.627389 0.242352 0.493664
O O12 0.813984 0.261493 0.557088
O O13 0.870690 0.279878 0.463762
O O14 0.500000 0.218716 0.410907
O O15 0.500000 0.000000 0.475923
O O16 0.000000 0.239003 0.123916
O O17 0.852787 0.000000 0.110151
O O18 0.500000 0.500000 0.844016
O O19 0.000000 0.000000 0.918927
#
# Coordination Sequence:
#
# PCOD8179826 Si02
#       8
#     4   8   8   8   4   8   4   4
#     4  12  26  40  59  94 131 161 202 261 313 362
#     4  10  23  43  64  90 122 157 201 250 299 359
#     4  11  23  43  66  89 122 167 212 252 300 369
#     4  10  21  40  64  89 120 159 205 251 295 356
#     4  11  25  39  56  89 128 161 198 249 302 359
#     4  10  22  41  64  92 123 155 198 251 304 359
#     4  11  23  41  64  93 128 161 202 259 316 363
#     4  10  20  40  67  90 117 161 208 251 301 364
#
# _framework density 19.657558999999999
#
# number of rings (size 3 to 8) (size 9 to 14) (size 15 to 20)
#    0.000    1.500    1.667    2.750    2.333    7.333 
#    0.000    0.000    0.000    0.000    0.000    0.000 
#    0.000    0.000    0.000    0.000    0.000    0.000 
#
# Total GULP energy -297712.446318 kJ/mol
# GULP energy per Si atom -12404.685263 kJ/mol
# Density = 1.961282 g / cm^3
# Si number density = 19.657559 Si / 1000 Ang^3
#
#
#
# Elastic Constant Matrix: (Units=GPa)
#
#
# Indices 1 2 3 4 5 6 
#
# 1 166.4734 44.4889 48.3528 0.0000 0.0000 0.0000
# 2 44.4889 63.4725 43.2140 0.0000 0.0000 0.0000
# 3 48.3528 43.2140 77.1440 0.0000 0.0000 0.0000
# 4 0.0000 0.0000 0.0000 34.6882 0.0000 0.0000
# 5 0.0000 0.0000 0.0000 0.0000 42.2051 0.0000
# 6 0.0000 0.0000 0.0000 0.0000 0.0000 22.3355
#
#
#
# Elastic Compliance Matrix: (Units=1/GPa)
#
#
# Indices 1 2 3 4 5 6 
#
# 1 0.007785 -0.003450 -0.002947 0.000000 0.000000 0.000000
# 2 -0.003450 0.026997 -0.012960 0.000000 0.000000 0.000000
# 3 -0.002947 -0.012960 0.022070 0.000000 0.000000 0.000000
# 4 0.000000 0.000000 0.000000 0.028828 0.000000 0.000000
# 5 0.000000 0.000000 0.000000 0.000000 0.023694 0.000000
# 6 0.000000 0.000000 0.000000 0.000000 0.000000 0.044772
#
#
# Mechanical properties :
#
#
# Convention : Reuss Voigt Hill
#
# Bulk Modulus (GPa) = 55.13625 64.35571 59.74598
# Shear Modulus (GPa) = 25.13747 31.24804 28.19275
#
# Velocity S-wave (km/s) = 3.57987 3.99133 3.79118
# Velocity P-wave (km/s) = 6.72284 7.35190 7.04439
#
# Compressibility (1/GPa) = 0.01813689
#
# Stress axis : x y z
#
# Youngs Moduli (GPa) = 128.45325 37.04096 45.31086
#
# Poissons Ratio (x) = 0.12781 0.13352
# Poissons Ratio (y) = 0.44322 0.58725
# Poissons Ratio (z) = 0.37851 0.48007
#
# Static dielectric constant tensor:
#      x y z
#    x 3.725650 0.000000 0.000000 
#    y 0.000000 3.542980 0.000000 
#    z 0.000000 0.000000 3.715830 
# 
# 
# High freq. dielectric constant tensor:
#      x y z
#    x 1.787920 0.000000 0.000000 
#    y 0.000000 1.761380 0.000000 
#    z 0.000000 0.000000 1.777550 
# 
# From -- ./inp_files/24466.got.cif
#   From: 2010.03.12/outbox.cif.g09.slc.cpg/sg38_13_cif.got.tgz:24466.got - 2010.04.14 02:38:36.
