data_PCOD8179152
_publ_section_title
;
Structure prediction by ZEFSAII (Michael W. Deem and Ramdas Pophale) SiO2 
 PCOD8179152
Probable space group: A M M 2
;
_chemical_formula_sum "Si O2"
_cell_formula_units_Z 48
_cell_length_a 15.231666
_cell_length_b 8.900472
_cell_length_c 18.618066
_cell_angle_alpha 90.000000
_cell_angle_beta 90.000000
_cell_angle_gamma 90.000000
_cell_volume 2524.032901
_symmetry_space_group_name_H-M "A M M 2"
_symmetry_group_IT_number 38
_symmetry_cell_setting 'orthorhombic'
loop_
_space_group_symop_operation_xyz
x,y,z
-x,-y,z
-x,y,z
x,-y,z
x,1/2+y,1/2+z
-x,1/2-y,1/2+z
-x,1/2+y,1/2+z
x,1/2-y,1/2+z
loop_
_atom_site_type_symbol
_atom_site_label
_atom_site_fract_x
_atom_site_fract_y
_atom_site_fract_z
Si Si1 0.852294 0.164396 0.072820
Si Si2 0.262118 0.822396 0.678366
Si Si3 0.197331 0.821005 0.315146
Si Si4 0.599989 0.324354 0.057538
Si Si5 0.000000 0.178026 0.335567
Si Si6 0.000000 0.325435 0.993113
Si Si7 0.284729 0.333826 0.449817
O O1 0.823773 0.242839 0.146222
O O2 0.916824 0.279762 0.037402
O O3 0.894189 0.000000 0.089576
O O4 0.771935 0.143427 0.020359
O O5 0.264761 0.754408 0.758542
O O6 0.346322 0.777925 0.629738
O O7 0.249653 0.000000 0.682288
O O8 0.094227 0.771062 0.300947
O O9 0.231888 0.765961 0.392502
O O10 0.205833 0.000000 0.312235
O O11 0.500000 0.278523 0.073014
O O12 0.612058 0.500000 0.044324
O O13 0.629018 0.247177 0.982275
O O14 0.000000 0.251431 0.414982
O O15 0.000000 0.000000 0.338713
O O16 0.000000 0.500000 0.980910
O O17 0.307523 0.500000 0.418001
#
# Coordination Sequence:
#
# PCOD8179152 Si02
#       7
#     8   8   8   8   4   4   8
#     4  10  20  34  52  77 107 142 184 228 277 331
#     4  10  21  37  56  81 112 147 186 232 285 339
#     4  11  21  37  57  80 113 154 194 235 282 333
#     4   9  19  38  63  86 109 142 184 230 283 342
#     4   9  20  34  53  78 107 147 193 236 278 321
#     4  11  19  32  53  78 105 141 191 238 280 323
#     4  10  20  34  55  83 112 142 180 227 278 334
#
# _framework density 19.017185000000001
#
# number of rings (size 3 to 8) (size 9 to 14) (size 15 to 20)
#    0.000    2.000    1.667    2.250    0.000    3.000 
#    0.000    5.000    0.000    3.000    0.000    0.000 
#    0.000    0.000    0.000    0.000    0.000    0.000 
#
# Total GULP energy -297348.438125 kJ/mol
# GULP energy per Si atom -12389.518255 kJ/mol
# Density = 1.897390 g / cm^3
# Si number density = 19.017185 Si / 1000 Ang^3
#
#
#
# Elastic Constant Matrix: (Units=GPa)
#
#
# Indices 1 2 3 4 5 6 
#
# 1 98.5685 34.9096 36.1011 0.0000 0.0000 0.0000
# 2 34.9096 89.3042 35.4060 0.0000 0.0000 0.0000
# 3 36.1011 35.4060 81.6616 0.0000 0.0000 0.0000
# 4 0.0000 0.0000 0.0000 34.5148 0.0000 0.0000
# 5 0.0000 0.0000 0.0000 0.0000 -9.8341 0.0000
# 6 0.0000 0.0000 0.0000 0.0000 0.0000 23.0106
#
#
#
# Elastic Compliance Matrix: (Units=1/GPa)
#
#
# Indices 1 2 3 4 5 6 
#
# 1 0.012888 -0.003356 -0.004242 0.000000 0.000000 0.000000
# 2 -0.003356 0.014396 -0.004758 0.000000 0.000000 0.000000
# 3 -0.004242 -0.004758 0.016184 0.000000 0.000000 0.000000
# 4 0.000000 0.000000 0.000000 0.028973 0.000000 0.000000
# 5 0.000000 0.000000 0.000000 0.000000 -0.101687 0.000000
# 6 0.000000 0.000000 0.000000 0.000000 0.000000 0.043458
#
#
# Mechanical properties :
#
#
# Convention : Reuss Voigt Hill
#
# Bulk Modulus (GPa) = 53.31922 53.59642 53.45782
# Shear Modulus (GPa) = 110.67711 20.41276 65.54493
#
# Velocity S-wave (km/s) = 7.63707 3.27981 5.87716
# Velocity P-wave (km/s) = 10.28906 6.52589 8.61545
#
# Compressibility (1/GPa) = 0.01875496
#
# Stress axis : x y z
#
# Youngs Moduli (GPa) = 77.59439 69.46407 61.78919
#
# Poissons Ratio (x) = 0.23311 0.26213
# Poissons Ratio (y) = 0.26040 0.29400
# Poissons Ratio (z) = 0.32918 0.33051
#
# Static dielectric constant tensor:
#      x y z
#    x 3.374930 0.000000 0.000000 
#    y 0.000000 3.683130 0.000000 
#    z 0.000000 0.000000 3.442160 
# 
# 
# High freq. dielectric constant tensor:
#      x y z
#    x 1.721980 0.000000 0.000000 
#    y 0.000000 1.743970 0.000000 
#    z 0.000000 0.000000 1.734750 
# 
# From -- ./inp_files/18171.got.cif
#   From: 2010.03.12/outbox.cif.g09.slc.cpg/sg38_10_cif.got.tgz:18171.got - 2010.04.14 02:38:36.
