data_PCOD8179810
_publ_section_title
;
Structure prediction by ZEFSAII (Michael W. Deem and Ramdas Pophale) SiO2 
 PCOD8179810
Probable space group: A M M 2
;
_chemical_formula_sum "Si O2"
_cell_formula_units_Z 56
_cell_length_a 21.296571
_cell_length_b 8.944818
_cell_length_c 15.321896
_cell_angle_alpha 90.000000
_cell_angle_beta 90.000000
_cell_angle_gamma 90.000000
_cell_volume 2918.728515
_symmetry_space_group_name_H-M "A M M 2"
_symmetry_group_IT_number 38
_symmetry_cell_setting 'orthorhombic'
loop_
_space_group_symop_operation_xyz
x,y,z
-x,-y,z
-x,y,z
x,-y,z
x,1/2+y,1/2+z
-x,1/2-y,1/2+z
-x,1/2+y,1/2+z
x,1/2-y,1/2+z
loop_
_atom_site_type_symbol
_atom_site_label
_atom_site_fract_x
_atom_site_fract_y
_atom_site_fract_z
Si Si1 0.634616 0.672838 0.465090
Si Si2 0.500000 0.323498 0.719817
Si Si3 0.073647 0.827916 0.478802
Si Si4 0.500000 0.323259 0.523634
Si Si5 0.287443 0.676592 0.112834
Si Si6 0.847161 0.176853 0.124843
Si Si7 0.624253 0.172008 0.769718
Si Si8 0.930630 0.323007 0.782707
O O1 0.639560 0.500000 0.494682
O O2 0.562978 0.732656 0.475281
O O3 0.680504 0.770827 0.523692
O O4 0.655817 0.692744 0.364741
O O5 0.500000 0.500000 0.720222
O O6 0.500000 0.258769 0.621616
O O7 0.561126 0.266972 0.769428
O O8 0.112241 0.719758 0.541004
O O9 0.091285 0.779356 0.380093
O O10 0.000000 0.804808 0.495481
O O11 0.092596 0.000000 0.495815
O O12 0.500000 0.500000 0.524631
O O13 0.279962 0.500000 0.110877
O O14 0.220033 0.748898 0.120817
O O15 0.328138 0.730361 0.195897
O O16 0.881739 0.239203 0.211653
O O17 0.839029 0.000000 0.127359
O O18 0.606297 0.000000 0.753239
O O19 0.935206 0.500000 0.775634
O O20 0.000000 0.255488 0.763659
#
# Coordination Sequence:
#
# PCOD8179810 Si02
#       8
#     8   4   8   4   8   8   8   8
#     4  10  20  39  62  83 110 146 185 224 279 339
#     4  11  20  33  59  90 115 143 182 228 275 334
#     4   9  18  35  59  86 116 147 180 226 281 329
#     4   9  17  31  57  86 111 139 174 222 271 326
#     4  11  24  40  55  79 113 148 188 235 281 327
#     4  11  22  36  57  82 111 150 191 229 272 327
#     4  10  22  39  60  83 111 147 185 232 285 333
#     4   8  16  33  57  84 113 145 181 221 270 328
#
# _framework density 19.186436
#
# number of rings (size 3 to 8) (size 9 to 14) (size 15 to 20)
#    0.000    2.143    1.429    2.786    0.000    4.286 
#    0.000    4.643    0.000    1.714    0.000    0.000 
#    0.000    0.000    0.000    0.000    0.000    0.000 
#
# Total GULP energy -347227.306685 kJ/mol
# GULP energy per Si atom -12400.975239 kJ/mol
# Density = 1.914277 g / cm^3
# Si number density = 19.186436 Si / 1000 Ang^3
#
#
#
# Elastic Constant Matrix: (Units=GPa)
#
#
# Indices 1 2 3 4 5 6 
#
# 1 120.8448 41.8926 66.5804 0.0000 0.0000 0.0000
# 2 41.8926 56.7483 38.4117 0.0000 0.0000 0.0000
# 3 66.5804 38.4117 134.0452 0.0000 0.0000 0.0000
# 4 0.0000 0.0000 0.0000 27.8059 0.0000 0.0000
# 5 0.0000 0.0000 0.0000 0.0000 23.2385 0.0000
# 6 0.0000 0.0000 0.0000 0.0000 0.0000 -9.6223
#
#
#
# Elastic Compliance Matrix: (Units=1/GPa)
#
#
# Indices 1 2 3 4 5 6 
#
# 1 0.013090 -0.006528 -0.004631 0.000000 0.000000 0.000000
# 2 -0.006528 0.025118 -0.003955 0.000000 0.000000 0.000000
# 3 -0.004631 -0.003955 0.010894 0.000000 0.000000 0.000000
# 4 0.000000 0.000000 0.000000 0.035964 0.000000 0.000000
# 5 0.000000 0.000000 0.000000 0.000000 0.043032 0.000000
# 6 0.000000 0.000000 0.000000 0.000000 0.000000 -0.103925
#
#
# Mechanical properties :
#
#
# Convention : Reuss Voigt Hill
#
# Bulk Modulus (GPa) = 52.98665 67.26751 60.12708
# Shear Modulus (GPa) = 82.38274 19.26799 50.82536
#
# Velocity S-wave (km/s) = 6.55982 3.17243 5.15245
# Velocity P-wave (km/s) = 9.22234 6.96815 8.17333
#
# Compressibility (1/GPa) = 0.01887268
#
# Stress axis : x y z
#
# Youngs Moduli (GPa) = 76.39601 39.81165 91.79613
#
# Poissons Ratio (x) = 0.25991 0.42510
# Poissons Ratio (y) = 0.49875 0.36306
# Poissons Ratio (z) = 0.35378 0.15746
#
# Static dielectric constant tensor:
#      x y z
#    x 1.393960 0.000000 0.000000 
#    y 0.000000 3.260970 0.000000 
#    z 0.000000 0.000000 3.738110 
# 
# 
# High freq. dielectric constant tensor:
#      x y z
#    x 1.744190 0.000000 0.000000 
#    y 0.000000 1.724150 0.000000 
#    z 0.000000 0.000000 1.760640 
# 
# From -- ./inp_files/15580.got.cif
#   From: 2010.03.12/outbox.cif.g09.slc.cpg/sg38_8_cif.got.tgz:15580.got - 2010.04.14 02:38:36.
