data_PCOD8179061
_publ_section_title
;
Structure prediction by ZEFSAII (Michael W. Deem and Ramdas Pophale) SiO2 
 PCOD8179061
Probable space group: A M M 2
;
_chemical_formula_sum "Si O2"
_cell_formula_units_Z 48
_cell_length_a 9.974560
_cell_length_b 13.572255
_cell_length_c 17.183189
_cell_angle_alpha 90.000000
_cell_angle_beta 90.000000
_cell_angle_gamma 90.000000
_cell_volume 2326.213248
_symmetry_space_group_name_H-M "A M M 2"
_symmetry_group_IT_number 38
_symmetry_cell_setting 'orthorhombic'
loop_
_space_group_symop_operation_xyz
x,y,z
-x,-y,z
-x,y,z
x,-y,z
x,1/2+y,1/2+z
-x,1/2-y,1/2+z
-x,1/2+y,1/2+z
x,1/2-y,1/2+z
loop_
_atom_site_type_symbol
_atom_site_label
_atom_site_fract_x
_atom_site_fract_y
_atom_site_fract_z
Si Si1 0.647428 0.111097 0.275700
Si Si2 0.348168 0.691712 0.451171
Si Si3 0.844280 0.725502 0.322415
Si Si4 0.145050 0.687353 0.147850
Si Si5 0.348664 0.609005 0.030590
Si Si6 0.250390 0.890059 0.109361
O O1 0.500000 0.150637 0.302304
O O2 0.767953 0.170549 0.315031
O O3 0.647737 0.116417 0.181734
O O4 0.666423 0.000000 0.304664
O O5 0.500000 0.673893 0.421113
O O6 0.237292 0.660744 0.386502
O O7 0.320608 0.808245 0.466033
O O8 0.329569 0.628490 0.529231
O O9 0.835067 0.671074 0.239849
O O10 0.000000 0.740877 0.347540
O O11 0.257789 0.624377 0.106097
O O12 0.142994 0.803225 0.123299
O O13 0.000000 0.645844 0.123270
O O14 0.500000 0.619352 0.061169
O O15 0.322354 0.500000 0.995205
O O16 0.184143 0.000000 0.106460
#
# Coordination Sequence:
#
# PCOD8179061 Si02
#       6
#     8   8   8   8   8   8
#     4   9  17  31  54  80 102 128 166 213 264 314
#     4  10  20  33  52  78 108 140 172 211 259 311
#     4  10  21  35  49  70 105 142 174 211 254 304
#     4   9  19  35  55  79 105 136 175 216 258 306
#     4   9  19  36  57  80 104 132 171 219 266 310
#     4   9  18  33  55  82 108 133 168 216 264 311
#
# _framework density 20.634394
#
# number of rings (size 3 to 8) (size 9 to 14) (size 15 to 20)
#    0.000    2.667    0.000    1.000    0.000   10.000 
#    0.000    5.833    0.000    1.000    0.000    0.000 
#    0.000    0.000    0.000    0.000    0.000    0.000 
#
# Total GULP energy -297396.220212 kJ/mol
# GULP energy per Si atom -12391.509175 kJ/mol
# Density = 2.058743 g / cm^3
# Si number density = 20.634394 Si / 1000 Ang^3
#
#
#
# Elastic Constant Matrix: (Units=GPa)
#
#
# Indices 1 2 3 4 5 6 
#
# 1 129.9253 -3.4729 48.2762 0.0000 0.0000 0.0000
# 2 -3.4729 45.6191 3.6664 0.0000 0.0000 0.0000
# 3 48.2762 3.6664 81.1521 0.0000 0.0000 0.0000
# 4 0.0000 0.0000 0.0000 16.1860 0.0000 0.0000
# 5 0.0000 0.0000 0.0000 0.0000 26.9299 0.0000
# 6 0.0000 0.0000 0.0000 0.0000 0.0000 19.6207
#
#
#
# Elastic Compliance Matrix: (Units=1/GPa)
#
#
# Indices 1 2 3 4 5 6 
#
# 1 0.009950 0.001238 -0.005975 0.000000 0.000000 0.000000
# 2 0.001238 0.022154 -0.001737 0.000000 0.000000 0.000000
# 3 -0.005975 -0.001737 0.015955 0.000000 0.000000 0.000000
# 4 0.000000 0.000000 0.000000 0.061782 0.000000 0.000000
# 5 0.000000 0.000000 0.000000 0.000000 0.037134 0.000000
# 6 0.000000 0.000000 0.000000 0.000000 0.000000 0.050967
#
#
# Mechanical properties :
#
#
# Convention : Reuss Voigt Hill
#
# Bulk Modulus (GPa) = 28.48123 39.29287 33.88705
# Shear Modulus (GPa) = 22.46236 26.42909 24.44572
#
# Velocity S-wave (km/s) = 3.30296 3.58275 3.44569
# Velocity P-wave (km/s) = 5.32717 6.01652 5.68231
#
# Compressibility (1/GPa) = 0.03511084
#
# Stress axis : x y z
#
# Youngs Moduli (GPa) = 100.50324 45.13762 62.67448
#
# Poissons Ratio (x) = -0.05587 0.37448
# Poissons Ratio (y) = -0.12439 0.10888
# Poissons Ratio (z) = 0.60051 0.07841
#
# Static dielectric constant tensor:
#      x y z
#    x 3.702970 0.000000 0.000000 
#    y 0.000000 3.633280 0.000000 
#    z 0.000000 0.000000 3.705710 
# 
# 
# High freq. dielectric constant tensor:
#      x y z
#    x 1.802330 0.000000 0.000000 
#    y 0.000000 1.781140 0.000000 
#    z 0.000000 0.000000 1.805820 
# 
# From -- ./inp_files/16653.got.cif
#   From: 2010.03.12/outbox.cif.g09.slc.cpg/sg38_9_cif.got.tgz:16653.got - 2010.04.14 02:38:36.
