data_PCOD8179656
_publ_section_title
;
Structure prediction by ZEFSAII (Michael W. Deem and Ramdas Pophale) SiO2 
 PCOD8179656
Probable space group: A M M 2
;
_chemical_formula_sum "Si O2"
_cell_formula_units_Z 48
_cell_length_a 9.031531
_cell_length_b 10.014666
_cell_length_c 27.596119
_cell_angle_alpha 90.000000
_cell_angle_beta 90.000000
_cell_angle_gamma 90.000000
_cell_volume 2496.007326
_symmetry_space_group_name_H-M "A M M 2"
_symmetry_group_IT_number 38
_symmetry_cell_setting 'orthorhombic'
loop_
_space_group_symop_operation_xyz
x,y,z
-x,-y,z
-x,y,z
x,-y,z
x,1/2+y,1/2+z
-x,1/2-y,1/2+z
-x,1/2+y,1/2+z
x,1/2-y,1/2+z
loop_
_atom_site_type_symbol
_atom_site_label
_atom_site_fract_x
_atom_site_fract_y
_atom_site_fract_z
Si Si1 0.173844 0.654844 0.629540
Si Si2 0.174944 0.000000 0.472687
Si Si3 0.675574 0.154701 0.706466
Si Si4 0.168688 0.250624 0.801369
Si Si5 0.823853 0.000000 0.362972
Si Si6 0.173723 0.771534 0.020598
Si Si7 0.328021 0.000000 0.963699
Si Si8 0.162518 0.500000 0.369191
O O1 0.219713 0.500000 0.638819
O O2 0.261513 0.757378 0.662892
O O3 0.218194 0.697093 0.575454
O O4 0.000000 0.673268 0.638749
O O5 0.227806 0.125615 0.504332
O O6 0.242419 0.000000 0.417901
O O7 0.000000 0.000000 0.467610
O O8 0.500000 0.159510 0.704823
O O9 0.729715 0.225195 0.755225
O O10 0.730897 0.000000 0.702984
O O11 0.232578 0.373099 0.832647
O O12 0.000000 0.277622 0.783906
O O13 0.178412 0.126194 0.835815
O O14 0.000000 0.000000 0.366746
O O15 0.000000 0.791866 0.012816
O O16 0.257915 0.869186 0.985565
O O17 0.295417 0.000000 0.906842
O O18 0.500000 0.000000 0.973846
O O19 0.000000 0.500000 0.394833
#
# Coordination Sequence:
#
# PCOD8179656 Si02
#       8
#     8   4   8   8   4   8   4   4
#     4  10  22  40  64  92 119 151 198 256 303 351
#     4   9  18  34  62  93 120 152 193 246 298 347
#     4  11  25  42  60  86 122 161 197 243 302 366
#     4  10  20  37  61  87 116 153 199 250 297 346
#     4   9  18  32  54  89 122 147 185 239 296 345
#     4  10  20  39  64  90 119 153 200 252 300 349
#     4  12  24  36  57  88 123 164 199 238 299 364
#     4  10  20  36  61  86 113 155 203 251 297 344
#
# _framework density 19.230713000000002
#
# number of rings (size 3 to 8) (size 9 to 14) (size 15 to 20)
#    0.000    1.833    1.667    2.250    2.333    5.333 
#    0.000    0.417    0.000    1.000    0.000    0.000 
#    0.000    0.000    0.000    0.000    0.000    0.000 
#
# Total GULP energy -297590.107244 kJ/mol
# GULP energy per Si atom -12399.587802 kJ/mol
# Density = 1.918694 g / cm^3
# Si number density = 19.230713 Si / 1000 Ang^3
#
#
#
# Elastic Constant Matrix: (Units=GPa)
#
#
# Indices 1 2 3 4 5 6 
#
# 1 31.8199 18.6323 24.8846 0.0000 0.0000 0.0000
# 2 18.6323 131.0778 38.5989 0.0000 0.0000 0.0000
# 3 24.8846 38.5989 98.5119 0.0000 0.0000 0.0000
# 4 0.0000 0.0000 0.0000 -19.7420 0.0000 0.0000
# 5 0.0000 0.0000 0.0000 0.0000 -24.0145 0.0000
# 6 0.0000 0.0000 0.0000 0.0000 0.0000 27.5403
#
#
#
# Elastic Compliance Matrix: (Units=1/GPa)
#
#
# Indices 1 2 3 4 5 6 
#
# 1 0.040236 -0.003082 -0.008956 0.000000 0.000000 0.000000
# 2 -0.003082 0.008860 -0.002693 0.000000 0.000000 0.000000
# 3 -0.008956 -0.002693 0.013469 0.000000 0.000000 0.000000
# 4 0.000000 0.000000 0.000000 -0.050654 0.000000 0.000000
# 5 0.000000 0.000000 0.000000 0.000000 -0.041641 0.000000
# 6 0.000000 0.000000 0.000000 0.000000 0.000000 0.036310
#
#
# Mechanical properties :
#
#
# Convention : Reuss Voigt Hill
#
# Bulk Modulus (GPa) = 30.20964 47.29347 38.75155
# Shear Modulus (GPa) = 106.21062 8.70968 57.46015
#
# Velocity S-wave (km/s) = 7.43973 2.13046 5.47213
# Velocity P-wave (km/s) = 9.46270 5.54057 7.75373
#
# Compressibility (1/GPa) = 0.03310202
#
# Stress axis : x y z
#
# Youngs Moduli (GPa) = 24.85360 112.86428 74.24672
#
# Poissons Ratio (x) = 0.34785 0.66496
# Poissons Ratio (y) = 0.07660 0.19995
# Poissons Ratio (z) = 0.22259 0.30395
#
# Static dielectric constant tensor:
#      x y z
#    x 3.331500 0.000000 0.000000 
#    y 0.000000 3.812940 0.000000 
#    z 0.000000 0.000000 3.730160 
# 
# 
# High freq. dielectric constant tensor:
#      x y z
#    x 1.716260 0.000000 0.000000 
#    y 0.000000 1.769170 0.000000 
#    z 0.000000 0.000000 1.760980 
# 
# From -- ./inp_files/24497.got.cif
#   From: 2010.03.12/outbox.cif.g09.slc.cpg/sg38_13_cif.got.tgz:24497.got - 2010.04.14 02:38:36.
