data_PCOD8179511
_publ_section_title
;
Structure prediction by ZEFSAII (Michael W. Deem and Ramdas Pophale) SiO2 
 PCOD8179511
Probable space group: A M M 2
;
_chemical_formula_sum "Si O2"
_cell_formula_units_Z 48
_cell_length_a 13.957683
_cell_length_b 8.658044
_cell_length_c 20.308811
_cell_angle_alpha 90.000000
_cell_angle_beta 90.000000
_cell_angle_gamma 90.000000
_cell_volume 2454.243317
_symmetry_space_group_name_H-M "A M M 2"
_symmetry_group_IT_number 38
_symmetry_cell_setting 'orthorhombic'
loop_
_space_group_symop_operation_xyz
x,y,z
-x,-y,z
-x,y,z
x,-y,z
x,1/2+y,1/2+z
-x,1/2-y,1/2+z
-x,1/2+y,1/2+z
x,1/2-y,1/2+z
loop_
_atom_site_type_symbol
_atom_site_label
_atom_site_fract_x
_atom_site_fract_y
_atom_site_fract_z
Si Si1 0.789993 0.320636 0.940710
Si Si2 0.110614 0.319546 0.317512
Si Si3 0.218103 0.320647 0.695980
Si Si4 0.607970 0.821620 0.632497
Si Si5 0.110356 0.677764 0.077344
Si Si6 0.391217 0.319512 0.492056
O O1 0.800505 0.500000 0.922554
O O2 0.847113 0.219065 0.888592
O O3 0.833679 0.280315 0.011407
O O4 0.678220 0.272672 0.942486
O O5 0.121371 0.500000 0.302967
O O6 0.169240 0.225240 0.263863
O O7 0.000000 0.268247 0.314940
O O8 0.241559 0.500000 0.697128
O O9 0.318790 0.230221 0.689134
O O10 0.147216 0.283411 0.636190
O O11 0.500000 0.791799 0.657921
O O12 0.630584 0.724567 0.567303
O O13 0.624355 0.000000 0.614618
O O14 0.126875 0.500000 0.097451
O O15 0.000000 0.714418 0.064755
O O16 0.500000 0.274154 0.473579
O O17 0.372603 0.500000 0.483399
#
# Coordination Sequence:
#
# PCOD8179511 Si02
#       6
#     8   8   8   8   8   8
#     4  11  22  38  62  90 121 158 201 248 300 357
#     4  11  25  44  64  85 118 163 205 248 302 362
#     4  12  24  38  60  89 121 157 200 249 301 358
#     4  10  20  36  60  89 121 158 199 244 298 357
#     4  10  21  37  58  85 118 155 197 246 298 353
#     4  10  20  35  58  90 125 159 198 245 297 353
#
# _framework density 19.557963999999998
#
# number of rings (size 3 to 8) (size 9 to 14) (size 15 to 20)
#    0.000    1.333    1.667    4.500    0.000    7.000 
#    0.000    0.833    0.000    5.000    0.000    0.000 
#    0.000    0.000    0.000    0.000    0.000    0.000 
#
# Total GULP energy -297737.432202 kJ/mol
# GULP energy per Si atom -12405.726342 kJ/mol
# Density = 1.951345 g / cm^3
# Si number density = 19.557964 Si / 1000 Ang^3
#
#
#
# Elastic Constant Matrix: (Units=GPa)
#
#
# Indices 1 2 3 4 5 6 
#
# 1 126.9156 25.8538 21.8751 0.0000 0.0000 0.0000
# 2 25.8538 54.5258 15.3476 0.0000 0.0000 0.0000
# 3 21.8751 15.3476 43.7479 0.0000 0.0000 0.0000
# 4 0.0000 0.0000 0.0000 34.0635 0.0000 0.0000
# 5 0.0000 0.0000 0.0000 0.0000 33.9080 0.0000
# 6 0.0000 0.0000 0.0000 0.0000 0.0000 29.9520
#
#
#
# Elastic Compliance Matrix: (Units=1/GPa)
#
#
# Indices 1 2 3 4 5 6 
#
# 1 0.009153 -0.003386 -0.003389 0.000000 0.000000 0.000000
# 2 -0.003386 0.021602 -0.005885 0.000000 0.000000 0.000000
# 3 -0.003389 -0.005885 0.026617 0.000000 0.000000 0.000000
# 4 0.000000 0.000000 0.000000 0.029357 0.000000 0.000000
# 5 0.000000 0.000000 0.000000 0.000000 0.029492 0.000000
# 6 0.000000 0.000000 0.000000 0.000000 0.000000 0.033387
#
#
# Mechanical properties :
#
#
# Convention : Reuss Voigt Hill
#
# Bulk Modulus (GPa) = 31.19922 39.03803 35.11863
# Shear Modulus (GPa) = 26.93782 30.39220 28.66501
#
# Velocity S-wave (km/s) = 3.71527 3.94630 3.83253
# Velocity P-wave (km/s) = 5.86439 6.38497 6.13021
#
# Compressibility (1/GPa) = 0.03205208
#
# Stress axis : x y z
#
# Youngs Moduli (GPa) = 109.25207 46.29189 37.56931
#
# Poissons Ratio (x) = 0.15675 0.12732
# Poissons Ratio (y) = 0.36994 0.22110
# Poissons Ratio (z) = 0.37024 0.27244
#
# Static dielectric constant tensor:
#      x y z
#    x 3.861440 0.000000 0.000000 
#    y 0.000000 3.580170 0.000000 
#    z 0.000000 0.000000 3.359180 
# 
# 
# High freq. dielectric constant tensor:
#      x y z
#    x 1.782150 0.000000 0.000000 
#    y 0.000000 1.770080 0.000000 
#    z 0.000000 0.000000 1.741030 
# 
# From -- ./inp_files/18161.got.cif
#   From: 2010.03.12/outbox.cif.g09.slc.cpg/sg38_10_cif.got.tgz:18161.got - 2010.04.14 02:38:36.
