data_PCOD8179042
_publ_section_title
;
Structure prediction by ZEFSAII (Michael W. Deem and Ramdas Pophale) SiO2 
 PCOD8179042
Probable space group: A M M 2
;
_chemical_formula_sum "Si O2"
_cell_formula_units_Z 56
_cell_length_a 8.991845
_cell_length_b 23.516499
_cell_length_c 13.721426
_cell_angle_alpha 90.000000
_cell_angle_beta 90.000000
_cell_angle_gamma 90.000000
_cell_volume 2901.487653
_symmetry_space_group_name_H-M "A M M 2"
_symmetry_group_IT_number 38
_symmetry_cell_setting 'orthorhombic'
loop_
_space_group_symop_operation_xyz
x,y,z
-x,-y,z
-x,y,z
x,-y,z
x,1/2+y,1/2+z
-x,1/2-y,1/2+z
-x,1/2+y,1/2+z
x,1/2-y,1/2+z
loop_
_atom_site_type_symbol
_atom_site_label
_atom_site_fract_x
_atom_site_fract_y
_atom_site_fract_z
Si Si1 0.175668 0.827752 0.907790
Si Si2 0.671463 0.613111 0.898277
Si Si3 0.171716 0.434803 0.716424
Si Si4 0.674543 0.836464 0.108209
Si Si5 0.669486 0.769276 0.299592
Si Si6 0.170273 0.934064 0.577716
Si Si7 0.823360 0.062408 0.796240
O O1 0.219953 0.781322 0.827355
O O2 0.232154 0.889483 0.870732
O O3 0.000000 0.826752 0.923266
O O4 0.256329 0.813292 0.008583
O O5 0.500000 0.595544 0.888650
O O6 0.763051 0.573974 0.824037
O O7 0.694146 0.679196 0.874436
O O8 0.728013 0.603418 0.007299
O O9 0.191835 0.500000 0.684994
O O10 0.255093 0.396991 0.636251
O O11 0.000000 0.416881 0.717985
O O12 0.500000 0.845589 0.096261
O O13 0.709880 0.789916 0.190914
O O14 0.500000 0.747421 0.304650
O O15 0.231753 0.923710 0.686852
O O16 0.000000 0.913817 0.567520
O O17 0.184365 0.000000 0.549283
O O18 0.000000 0.060799 0.792709
O O19 0.763647 0.000000 0.829365
#
# Coordination Sequence:
#
# PCOD8179042 Si02
#       7
#     8   8   8   8   8   8   8
#     4  11  22  36  60  88 108 136 179 224 272 323
#     4  10  20  33  51  77 110 148 186 225 276 332
#     4  10  20  34  54  81 112 146 186 232 278 323
#     4  10  22  40  59  80 111 148 183 222 272 330
#     4   9  21  40  56  74 106 146 182 219 267 321
#     4   9  17  31  52  77 107 144 182 222 271 323
#     4   8  17  35  55  77 108 141 174 216 266 320
#
# _framework density 19.300443999999999
#
# number of rings (size 3 to 8) (size 9 to 14) (size 15 to 20)
#    0.000    2.429    0.000    3.857    0.000    8.286 
#    0.000    5.714    0.000    3.000    0.000    0.000 
#    0.000    0.000    0.000    0.000    0.000    0.000 
#
# Total GULP energy -347251.251821 kJ/mol
# GULP energy per Si atom -12401.830422 kJ/mol
# Density = 1.925652 g / cm^3
# Si number density = 19.300444 Si / 1000 Ang^3
#
#
#
# Elastic Constant Matrix: (Units=GPa)
#
#
# Indices 1 2 3 4 5 6 
#
# 1 98.3800 54.7402 48.2347 0.0000 0.0000 0.0000
# 2 54.7402 98.1225 58.5732 0.0000 0.0000 0.0000
# 3 48.2347 58.5732 112.9961 0.0000 0.0000 0.0000
# 4 0.0000 0.0000 0.0000 24.4150 0.0000 0.0000
# 5 0.0000 0.0000 0.0000 0.0000 28.6246 0.0000
# 6 0.0000 0.0000 0.0000 0.0000 0.0000 26.7046
#
#
#
# Elastic Compliance Matrix: (Units=1/GPa)
#
#
# Indices 1 2 3 4 5 6 
#
# 1 0.015446 -0.006779 -0.003080 0.000000 0.000000 0.000000
# 2 -0.006779 0.017733 -0.006298 0.000000 0.000000 0.000000
# 3 -0.003080 -0.006298 0.013429 0.000000 0.000000 0.000000
# 4 0.000000 0.000000 0.000000 0.040958 0.000000 0.000000
# 5 0.000000 0.000000 0.000000 0.000000 0.034935 0.000000
# 6 0.000000 0.000000 0.000000 0.000000 0.000000 0.037447
#
#
# Mechanical properties :
#
#
# Convention : Reuss Voigt Hill
#
# Bulk Modulus (GPa) = 69.95555 70.28828 70.12191
# Shear Modulus (GPa) = 25.37714 25.81221 25.59467
#
# Velocity S-wave (km/s) = 3.63002 3.66100 3.64554
# Velocity P-wave (km/s) = 7.34123 7.37344 7.35735
#
# Compressibility (1/GPa) = 0.01429479
#
# Stress axis : x y z
#
# Youngs Moduli (GPa) = 64.73977 56.39257 74.46359
#
# Poissons Ratio (x) = 0.38227 0.22933
# Poissons Ratio (y) = 0.43886 0.46900
# Poissons Ratio (z) = 0.19938 0.35518
#
# Static dielectric constant tensor:
#      x y z
#    x 3.396310 0.000000 0.000000 
#    y 0.000000 3.525790 0.000000 
#    z 0.000000 0.000000 3.518080 
# 
# 
# High freq. dielectric constant tensor:
#      x y z
#    x 1.742920 0.000000 0.000000 
#    y 0.000000 1.746510 0.000000 
#    z 0.000000 0.000000 1.751740 
# 
# From -- ./inp_files/12439.got.cif
#   From: 2010.03.12/outbox.cif.g09.slc.cpg/sg38_7_cif.got.tgz:12439.got - 2010.04.14 02:38:36.
