data_PCOD8179604
_publ_section_title
;
Structure prediction by ZEFSAII (Michael W. Deem and Ramdas Pophale) SiO2 
 PCOD8179604
Probable space group: A M M 2
;
_chemical_formula_sum "Si O2"
_cell_formula_units_Z 32
_cell_length_a 13.942332
_cell_length_b 7.716103
_cell_length_c 14.680187
_cell_angle_alpha 90.000000
_cell_angle_beta 90.000000
_cell_angle_gamma 90.000000
_cell_volume 1579.301414
_symmetry_space_group_name_H-M "A M M 2"
_symmetry_group_IT_number 38
_symmetry_cell_setting 'orthorhombic'
loop_
_space_group_symop_operation_xyz
x,y,z
-x,-y,z
-x,y,z
x,-y,z
x,1/2+y,1/2+z
-x,1/2-y,1/2+z
-x,1/2+y,1/2+z
x,1/2-y,1/2+z
loop_
_atom_site_type_symbol
_atom_site_label
_atom_site_fract_x
_atom_site_fract_y
_atom_site_fract_z
Si Si1 0.106628 0.500000 0.853801
Si Si2 0.106943 0.000000 0.137522
Si Si3 0.243871 0.802591 0.851832
Si Si4 0.241058 0.192663 0.642560
Si Si5 0.392198 0.701245 0.503971
O O1 0.099694 0.500000 0.745536
O O2 0.161274 0.672898 0.887454
O O3 0.000000 0.500000 0.896343
O O4 0.163629 0.829256 0.103496
O O5 0.000000 0.000000 0.095013
O O6 0.268223 0.764582 0.746714
O O7 0.207793 0.000000 0.866803
O O8 0.340536 0.764946 0.907607
O O9 0.338238 0.199521 0.584781
O O10 0.196221 0.000000 0.635051
O O11 0.500000 0.774410 0.496350
O O12 0.392399 0.500000 0.528925
#
# Coordination Sequence:
#
# PCOD8179604 Si02
#       5
#     4   4   8   8   8
#     4   9  18  34  59  85 110 145 187 231 279 331
#     4   9  18  36  59  83 114 149 185 231 283 331
#     4   9  20  37  57  81 114 149 184 230 278 333
#     4  10  20  36  59  84 113 148 188 232 278 333
#     4  10  21  38  59  81 113 152 188 233 286 337
#
# _framework density 20.262122999999999
#
# number of rings (size 3 to 8) (size 9 to 14) (size 15 to 20)
#    0.000    2.500    1.250    0.000    1.750    2.500 
#    0.000    8.750    0.000    0.000    0.000    0.000 
#    0.000    0.000    0.000    0.000    0.000    0.000 
#
# Total GULP energy -198403.612541 kJ/mol
# GULP energy per Si atom -12400.225784 kJ/mol
# Density = 2.021601 g / cm^3
# Si number density = 20.262123 Si / 1000 Ang^3
#
#
#
# Elastic Constant Matrix: (Units=GPa)
#
#
# Indices 1 2 3 4 5 6 
#
# 1 176.7740 82.1664 48.4309 0.0000 0.0000 0.0000
# 2 82.1664 129.7839 40.9945 0.0000 0.0000 0.0000
# 3 48.4309 40.9945 63.6775 0.0000 0.0000 0.0000
# 4 0.0000 0.0000 0.0000 21.6859 0.0000 0.0000
# 5 0.0000 0.0000 0.0000 0.0000 25.8035 0.0000
# 6 0.0000 0.0000 0.0000 0.0000 0.0000 25.9179
#
#
#
# Elastic Compliance Matrix: (Units=1/GPa)
#
#
# Indices 1 2 3 4 5 6 
#
# 1 0.008711 -0.004296 -0.003860 0.000000 0.000000 0.000000
# 2 -0.004296 0.011790 -0.004323 0.000000 0.000000 0.000000
# 3 -0.003860 -0.004323 0.021423 0.000000 0.000000 0.000000
# 4 0.000000 0.000000 0.000000 0.046113 0.000000 0.000000
# 5 0.000000 0.000000 0.000000 0.000000 0.038754 0.000000
# 6 0.000000 0.000000 0.000000 0.000000 0.000000 0.038583
#
#
# Mechanical properties :
#
#
# Convention : Reuss Voigt Hill
#
# Bulk Modulus (GPa) = 58.93849 79.26877 69.10363
# Shear Modulus (GPa) = 25.51170 27.92438 26.71804
#
# Velocity S-wave (km/s) = 3.55221 3.71638 3.63522
# Velocity P-wave (km/s) = 6.78052 7.59091 7.19713
#
# Compressibility (1/GPa) = 0.01696684
#
# Stress axis : x y z
#
# Youngs Moduli (GPa) = 114.79492 84.81486 46.67887
#
# Poissons Ratio (x) = 0.36435 0.18017
# Poissons Ratio (y) = 0.49314 0.20180
# Poissons Ratio (z) = 0.44309 0.36667
#
# Static dielectric constant tensor:
#      x y z
#    x 3.761430 0.000000 0.000000 
#    y 0.000000 3.830270 0.000000 
#    z 0.000000 0.000000 3.493110 
# 
# 
# High freq. dielectric constant tensor:
#      x y z
#    x 1.775160 0.000000 0.000000 
#    y 0.000000 1.801840 0.000000 
#    z 0.000000 0.000000 1.781220 
# 
# From -- ./inp_files/13303.got.cif
#   From: 2010.03.12/outbox.cif.g09.slc.cpg/sg38_7_cif.got.tgz:13303.got - 2010.04.14 02:38:36.
