data_PCOD8179047
_publ_section_title
;
Structure prediction by ZEFSAII (Michael W. Deem and Ramdas Pophale) SiO2 
 PCOD8179047
Probable space group: A M M 2
;
_chemical_formula_sum "Si O2"
_cell_formula_units_Z 56
_cell_length_a 13.953447
_cell_length_b 19.206397
_cell_length_c 10.465147
_cell_angle_alpha 90.000000
_cell_angle_beta 90.000000
_cell_angle_gamma 90.000000
_cell_volume 2804.611702
_symmetry_space_group_name_H-M "A M M 2"
_symmetry_group_IT_number 38
_symmetry_cell_setting 'orthorhombic'
loop_
_space_group_symop_operation_xyz
x,y,z
-x,-y,z
-x,y,z
x,-y,z
x,1/2+y,1/2+z
-x,1/2-y,1/2+z
-x,1/2+y,1/2+z
x,1/2-y,1/2+z
loop_
_atom_site_type_symbol
_atom_site_label
_atom_site_fract_x
_atom_site_fract_y
_atom_site_fract_z
Si Si1 0.272536 0.082342 0.889340
Si Si2 0.110204 0.214935 0.137795
Si Si3 0.608599 0.082979 0.133077
Si Si4 0.107506 0.921812 0.275955
Si Si5 0.886357 0.688803 0.360430
Si Si6 0.299878 0.080400 0.392788
Si Si7 0.607568 0.917094 0.647177
O O1 0.168155 0.115563 0.868031
O O2 0.339117 0.108192 0.773565
O O3 0.258072 0.000000 0.890499
O O4 0.324297 0.109919 0.017933
O O5 0.130769 0.132949 0.164001
O O6 0.157953 0.265798 0.243402
O O7 0.000000 0.230079 0.160645
O O8 0.138236 0.231474 0.991546
O O9 0.500000 0.110523 0.115428
O O10 0.651609 0.113220 0.265737
O O11 0.609469 0.000000 0.132500
O O12 0.184186 0.910540 0.389487
O O13 0.000000 0.911176 0.332104
O O14 0.119508 0.000000 0.218003
O O15 0.000000 0.673129 0.352549
O O16 0.339935 0.115170 0.521948
O O17 0.329161 0.000000 0.394890
O O18 0.500000 0.887776 0.650139
O O19 0.607944 0.000000 0.642150
#
# Coordination Sequence:
#
# PCOD8179047 Si02
#       7
#     8   8   8   8   8   8   8
#     4  10  20  33  51  78 109 139 171 210 265 322
#     4   9  19  35  54  75 102 140 180 213 251 303
#     4   9  16  27  45  71 102 134 173 221 263 302
#     4   9  17  30  50  79 112 139 167 212 265 312
#     4  10  21  37  55  76 104 139 179 218 254 304
#     4   9  16  26  44  73 105 137 173 209 251 306
#     4   9  17  30  47  70 103 138 171 211 260 313
#
# _framework density 19.967113000000001
#
# number of rings (size 3 to 8) (size 9 to 14) (size 15 to 20)
#    0.000    2.714    0.000    1.714    0.000    6.571 
#    0.000    3.571    0.000    2.571    0.000   18.000 
#    0.000    0.000    0.000    0.000    0.000    0.000 
#
# Total GULP energy -346974.199240 kJ/mol
# GULP energy per Si atom -12391.935687 kJ/mol
# Density = 1.992167 g / cm^3
# Si number density = 19.967113 Si / 1000 Ang^3
#
#
#
# Elastic Constant Matrix: (Units=GPa)
#
#
# Indices 1 2 3 4 5 6 
#
# 1 112.4868 24.0773 51.2657 0.0000 0.0000 0.0000
# 2 24.0773 37.7684 20.3375 0.0000 0.0000 0.0000
# 3 51.2657 20.3375 146.2338 0.0000 0.0000 0.0000
# 4 0.0000 0.0000 0.0000 12.9909 0.0000 0.0000
# 5 0.0000 0.0000 0.0000 0.0000 27.6874 0.0000
# 6 0.0000 0.0000 0.0000 0.0000 0.0000 11.6706
#
#
#
# Elastic Compliance Matrix: (Units=1/GPa)
#
#
# Indices 1 2 3 4 5 6 
#
# 1 0.011588 -0.005621 -0.003281 0.000000 0.000000 0.000000
# 2 -0.005621 0.031347 -0.002389 0.000000 0.000000 0.000000
# 3 -0.003281 -0.002389 0.008321 0.000000 0.000000 0.000000
# 4 0.000000 0.000000 0.000000 0.076977 0.000000 0.000000
# 5 0.000000 0.000000 0.000000 0.000000 0.036117 0.000000
# 6 0.000000 0.000000 0.000000 0.000000 0.000000 0.085685
#
#
# Mechanical properties :
#
#
# Convention : Reuss Voigt Hill
#
# Bulk Modulus (GPa) = 34.87415 54.20555 44.53985
# Shear Modulus (GPa) = 17.71950 23.85703 20.78826
#
# Velocity S-wave (km/s) = 2.98221 3.46036 3.23015
# Velocity P-wave (km/s) = 5.41866 6.57053 6.02220
#
# Compressibility (1/GPa) = 0.02867453
#
# Stress axis : x y z
#
# Youngs Moduli (GPa) = 86.29403 31.90104 120.18092
#
# Poissons Ratio (x) = 0.17931 0.39429
# Poissons Ratio (y) = 0.48505 0.28712
# Poissons Ratio (z) = 0.28312 0.07621
#
# Static dielectric constant tensor:
#      x y z
#    x 3.709530 0.000000 0.000000 
#    y 0.000000 3.114860 0.000000 
#    z 0.000000 0.000000 3.896400 
# 
# 
# High freq. dielectric constant tensor:
#      x y z
#    x 1.781450 0.000000 0.000000 
#    y 0.000000 1.719760 0.000000 
#    z 0.000000 0.000000 1.783790 
# 
# From -- ./inp_files/5689.got.cif
#   From: 2010.03.12/outbox.cif.g09.slc.cpg/sg38_3_cif.got.tgz:5689.got - 2010.04.14 02:38:36.
