data_PCOD8179140
_publ_section_title
;
Structure prediction by ZEFSAII (Michael W. Deem and Ramdas Pophale) SiO2 
 PCOD8179140
Probable space group: A M M 2
;
_chemical_formula_sum "Si O2"
_cell_formula_units_Z 56
_cell_length_a 13.941725
_cell_length_b 21.289153
_cell_length_c 10.048597
_cell_angle_alpha 90.000000
_cell_angle_beta 90.000000
_cell_angle_gamma 90.000000
_cell_volume 2982.499121
_symmetry_space_group_name_H-M "A M M 2"
_symmetry_group_IT_number 38
_symmetry_cell_setting 'orthorhombic'
loop_
_space_group_symop_operation_xyz
x,y,z
-x,-y,z
-x,y,z
x,-y,z
x,1/2+y,1/2+z
-x,1/2-y,1/2+z
-x,1/2+y,1/2+z
x,1/2-y,1/2+z
loop_
_atom_site_type_symbol
_atom_site_label
_atom_site_fract_x
_atom_site_fract_y
_atom_site_fract_z
Si Si1 0.887637 0.201765 0.829590
Si Si2 0.776541 0.245494 0.573005
Si Si3 0.274460 0.392530 0.061982
Si Si4 0.612223 0.571725 0.317814
Si Si5 0.387456 0.154639 0.072573
Si Si6 0.107457 0.568818 0.221254
Si Si7 0.392913 0.430209 0.817309
O O1 0.827558 0.238392 0.716324
O O2 0.868722 0.126323 0.821220
O O3 0.000000 0.217584 0.813194
O O4 0.852744 0.223182 0.973913
O O5 0.744672 0.178384 0.516871
O O6 0.677728 0.283940 0.577967
O O7 0.338647 0.394250 0.194267
O O8 0.174087 0.427002 0.091304
O O9 0.324166 0.428900 0.943199
O O10 0.500000 0.571857 0.291852
O O11 0.649668 0.500000 0.333377
O O12 0.639367 0.611486 0.447463
O O13 0.500000 0.173702 0.069951
O O14 0.359157 0.116509 0.203527
O O15 0.121589 0.500000 0.290780
O O16 0.000000 0.576074 0.167136
O O17 0.500000 0.412711 0.865414
O O18 0.390848 0.500000 0.756136
#
# Coordination Sequence:
#
# PCOD8179140 Si02
#       7
#     8   8   8   8   8   8   8
#     4  10  21  38  60  81 106 139 176 223 269 314
#     4  11  22  37  54  80 110 141 182 215 258 322
#     4  11  21  33  52  78 107 137 172 219 264 307
#     4  10  20  35  56  80 104 136 182 228 267 308
#     4  10  21  36  53  75 108 146 177 214 262 313
#     4   9  18  33  54  80 105 131 169 219 274 321
#     4  10  20  34  52  75 104 139 177 214 258 311
#
# _framework density 18.776198999999998
#
# number of rings (size 3 to 8) (size 9 to 14) (size 15 to 20)
#    0.000    1.857    0.000    5.143    0.000    4.571 
#    0.000    4.286    0.000    0.000    0.000    0.000 
#    0.000   10.286    0.000    0.000    0.000    0.000 
#
# Total GULP energy -347152.204711 kJ/mol
# GULP energy per Si atom -12398.293025 kJ/mol
# Density = 1.873346 g / cm^3
# Si number density = 18.776199 Si / 1000 Ang^3
#
#
#
# Elastic Constant Matrix: (Units=GPa)
#
#
# Indices 1 2 3 4 5 6 
#
# 1 79.5828 41.4938 35.1876 0.0000 0.0000 0.0000
# 2 41.4938 120.1511 34.1360 0.0000 0.0000 0.0000
# 3 35.1876 34.1360 88.4912 0.0000 0.0000 0.0000
# 4 0.0000 0.0000 0.0000 22.2686 0.0000 0.0000
# 5 0.0000 0.0000 0.0000 0.0000 23.0746 0.0000
# 6 0.0000 0.0000 0.0000 0.0000 0.0000 32.0749
#
#
#
# Elastic Compliance Matrix: (Units=1/GPa)
#
#
# Indices 1 2 3 4 5 6 
#
# 1 0.017151 -0.004476 -0.005093 0.000000 0.000000 0.000000
# 2 -0.004476 0.010515 -0.002277 0.000000 0.000000 0.000000
# 3 -0.005093 -0.002277 0.014204 0.000000 0.000000 0.000000
# 4 0.000000 0.000000 0.000000 0.044906 0.000000 0.000000
# 5 0.000000 0.000000 0.000000 0.000000 0.043338 0.000000
# 6 0.000000 0.000000 0.000000 0.000000 0.000000 0.031177
#
#
# Mechanical properties :
#
#
# Convention : Reuss Voigt Hill
#
# Bulk Modulus (GPa) = 55.00889 56.65111 55.83000
# Shear Modulus (GPa) = 26.17204 27.31080 26.74142
#
# Velocity S-wave (km/s) = 3.73754 3.81799 3.77798
# Velocity P-wave (km/s) = 6.92722 7.04793 6.98783
#
# Compressibility (1/GPa) = 0.01817888
#
# Stress axis : x y z
#
# Youngs Moduli (GPa) = 58.30436 95.09832 70.40227
#
# Poissons Ratio (x) = 0.42567 0.35859
# Poissons Ratio (y) = 0.26098 0.16027
# Poissons Ratio (z) = 0.29697 0.21649
#
# Static dielectric constant tensor:
#      x y z
#    x 3.620270 0.000000 0.000000 
#    y 0.000000 3.604150 0.000000 
#    z 0.000000 0.000000 3.282040 
# 
# 
# High freq. dielectric constant tensor:
#      x y z
#    x 1.742190 0.000000 0.000000 
#    y 0.000000 1.740770 0.000000 
#    z 0.000000 0.000000 1.711870 
# 
# From -- ./inp_files/5736.got.cif
#   From: 2010.03.12/outbox.cif.g09.slc.cpg/sg38_3_cif.got.tgz:5736.got - 2010.04.14 02:38:36.
