data_PCOD8179608
_publ_section_title
;
Structure prediction by ZEFSAII (Michael W. Deem and Ramdas Pophale) SiO2 
 PCOD8179608
Probable space group: A M M 2
;
_chemical_formula_sum "Si O2"
_cell_formula_units_Z 48
_cell_length_a 8.620383
_cell_length_b 15.265606
_cell_length_c 18.936972
_cell_angle_alpha 90.000000
_cell_angle_beta 90.000000
_cell_angle_gamma 90.000000
_cell_volume 2492.017845
_symmetry_space_group_name_H-M "A M M 2"
_symmetry_group_IT_number 38
_symmetry_cell_setting 'orthorhombic'
loop_
_space_group_symop_operation_xyz
x,y,z
-x,-y,z
-x,y,z
x,-y,z
x,1/2+y,1/2+z
-x,1/2-y,1/2+z
-x,1/2+y,1/2+z
x,1/2-y,1/2+z
loop_
_atom_site_type_symbol
_atom_site_label
_atom_site_fract_x
_atom_site_fract_y
_atom_site_fract_z
Si Si1 0.816649 0.652541 0.059460
Si Si2 0.682811 0.158708 0.065437
Si Si3 0.684087 0.000000 0.651333
Si Si4 0.315026 0.000000 0.812412
Si Si5 0.682568 0.155212 0.906286
Si Si6 0.684150 0.649740 0.908337
Si Si7 0.179804 0.000000 0.316006
Si Si8 0.180267 0.000000 0.150192
O O1 0.763934 0.749284 0.082056
O O2 0.752625 0.587067 0.117729
O O3 0.000000 0.647496 0.056740
O O4 0.750633 0.621792 0.984075
O O5 0.500000 0.172003 0.073939
O O6 0.741139 0.086607 0.119728
O O7 0.726206 0.128016 0.986247
O O8 0.739947 0.000000 0.732275
O O9 0.500000 0.000000 0.644077
O O10 0.244724 0.085565 0.851841
O O11 0.500000 0.000000 0.818526
O O12 0.500000 0.155781 0.897150
O O13 0.745158 0.252682 0.889529
O O14 0.500000 0.645896 0.913732
O O15 0.742305 0.586309 0.847471
O O16 0.209856 0.000000 0.233188
O O17 0.000000 0.000000 0.335512
O O18 0.000000 0.000000 0.130768
#
# Coordination Sequence:
#
# PCOD8179608 Si02
#       8
#     8   8   4   4   8   8   4   4
#     4  11  22  38  59  82 113 150 187 233 289 341
#     4  10  20  37  62  87 111 144 191 240 281 333
#     4  11  22  35  54  82 114 149 190 231 272 332
#     4   9  17  31  53  82 113 141 172 217 272 326
#     4   8  16  32  56  85 110 135 174 227 279 323
#     4  10  20  36  59  85 110 140 186 236 278 332
#     4  11  24  39  54  78 114 153 188 229 288 346
#     4  11  24  39  55  82 121 157 188 229 286 348
#
# _framework density 19.261499000000001
#
# number of rings (size 3 to 8) (size 9 to 14) (size 15 to 20)
#    0.000    2.000    0.000    5.250    0.000    4.000 
#    0.000    1.667    0.000   13.000    0.000    0.000 
#    0.000    0.000    0.000    0.000    0.000    0.000 
#
# Total GULP energy -297636.576206 kJ/mol
# GULP energy per Si atom -12401.524009 kJ/mol
# Density = 1.921766 g / cm^3
# Si number density = 19.261499 Si / 1000 Ang^3
#
#
#
# Elastic Constant Matrix: (Units=GPa)
#
#
# Indices 1 2 3 4 5 6 
#
# 1 101.2260 40.6389 49.9053 0.0000 0.0000 0.0000
# 2 40.6389 119.0573 76.5207 0.0000 0.0000 0.0000
# 3 49.9053 76.5207 124.5364 0.0000 0.0000 0.0000
# 4 0.0000 0.0000 0.0000 13.2984 0.0000 0.0000
# 5 0.0000 0.0000 0.0000 0.0000 23.1972 0.0000
# 6 0.0000 0.0000 0.0000 0.0000 0.0000 22.3547
#
#
#
# Elastic Compliance Matrix: (Units=1/GPa)
#
#
# Indices 1 2 3 4 5 6 
#
# 1 0.012524 -0.001734 -0.003953 0.000000 0.000000 0.000000
# 2 -0.001734 0.014121 -0.007982 0.000000 0.000000 0.000000
# 3 -0.003953 -0.007982 0.014518 0.000000 0.000000 0.000000
# 4 0.000000 0.000000 0.000000 0.075197 0.000000 0.000000
# 5 0.000000 0.000000 0.000000 0.000000 0.043109 0.000000
# 6 0.000000 0.000000 0.000000 0.000000 0.000000 0.044733
#
#
# Mechanical properties :
#
#
# Convention : Reuss Voigt Hill
#
# Bulk Modulus (GPa) = 72.33099 75.43883 73.88491
# Shear Modulus (GPa) = 21.17300 23.62036 22.39668
#
# Velocity S-wave (km/s) = 3.31907 3.50565 3.41364
# Velocity P-wave (km/s) = 7.23339 7.45901 7.34707
#
# Compressibility (1/GPa) = 0.01382533
#
# Stress axis : x y z
#
# Youngs Moduli (GPa) = 79.84634 70.81469 68.87826
#
# Poissons Ratio (x) = 0.12280 0.27229
# Poissons Ratio (y) = 0.13846 0.54978
# Poissons Ratio (z) = 0.31565 0.56523
#
# Static dielectric constant tensor:
#      x y z
#    x 3.421700 0.000000 0.000000 
#    y 0.000000 3.819990 0.000000 
#    z 0.000000 0.000000 3.564870 
# 
# 
# High freq. dielectric constant tensor:
#      x y z
#    x 1.739520 0.000000 0.000000 
#    y 0.000000 1.766500 0.000000 
#    z 0.000000 0.000000 1.747340 
# 
# From -- ./inp_files/16758.got.cif
#   From: 2010.03.12/outbox.cif.g09.slc.cpg/sg38_9_cif.got.tgz:16758.got - 2010.04.14 02:38:36.
