data_PCOD8179556
_publ_section_title
;
Structure prediction by ZEFSAII (Michael W. Deem and Ramdas Pophale) SiO2 
 PCOD8179556
Probable space group: A M M 2
;
_chemical_formula_sum "Si O2"
_cell_formula_units_Z 64
_cell_length_a 8.607825
_cell_length_b 28.496337
_cell_length_c 14.195803
_cell_angle_alpha 90.000000
_cell_angle_beta 90.000000
_cell_angle_gamma 90.000000
_cell_volume 3482.109557
_symmetry_space_group_name_H-M "A M M 2"
_symmetry_group_IT_number 38
_symmetry_cell_setting 'orthorhombic'
loop_
_space_group_symop_operation_xyz
x,y,z
-x,-y,z
-x,y,z
x,-y,z
x,1/2+y,1/2+z
-x,1/2-y,1/2+z
-x,1/2+y,1/2+z
x,1/2-y,1/2+z
loop_
_atom_site_type_symbol
_atom_site_label
_atom_site_fract_x
_atom_site_fract_y
_atom_site_fract_z
Si Si1 0.818557 0.445285 0.998100
Si Si2 0.180832 0.627167 0.648172
Si Si3 0.314538 0.120001 0.648082
Si Si4 0.317966 0.876346 0.351558
Si Si5 0.682874 0.374931 0.358722
Si Si6 0.682958 0.553246 0.513881
Si Si7 0.315329 0.801659 0.008228
Si Si8 0.682816 0.302642 0.004769
O O1 0.780227 0.500000 0.997397
O O2 0.724145 0.421909 0.912727
O O3 0.000000 0.435129 0.984382
O O4 0.761641 0.424817 0.097933
O O5 0.218939 0.624024 0.757511
O O6 0.233597 0.578745 0.600235
O O7 0.266186 0.672048 0.603445
O O8 0.000000 0.634063 0.633028
O O9 0.500000 0.114052 0.644633
O O10 0.246487 0.122966 0.753993
O O11 0.260218 0.167392 0.594730
O O12 0.500000 0.877503 0.327865
O O13 0.271069 0.829546 0.409215
O O14 0.500000 0.369715 0.348983
O O15 0.727298 0.422201 0.415024
O O16 0.747962 0.330199 0.417070
O O17 0.500000 0.556570 0.531984
O O18 0.741994 0.500000 0.509240
O O19 0.500000 0.800191 0.006238
O O20 0.242265 0.749343 0.006221
O O21 0.500000 0.297246 0.010665
#
# Coordination Sequence:
#
# PCOD8179556 Si02
#       8
#     8   8   8   8   8   8   8   8
#     4  10  21  36  52  73 103 136 168 205 253 309
#     4  11  22  35  51  75 107 139 169 204 253 310
#     4   9  17  31  51  76 103 131 169 213 256 302
#     4  10  20  36  57  79 101 130 171 215 258 301
#     4   8  15  28  49  75 100 128 164 209 253 292
#     4   9  18  34  54  74  97 130 174 219 260 302
#     4   9  17  33  54  75 102 135 172 213 252 292
#     4   8  16  30  52  79 101 126 165 211 251 291
#
# _framework density 18.379662
#
# number of rings (size 3 to 8) (size 9 to 14) (size 15 to 20)
#    0.000    2.750    0.000    3.375    0.000    3.250 
#    0.000   10.625    0.000    0.000    0.000    0.000 
#    0.000    0.000    0.000    0.000    0.000    0.000 
#
# Total GULP energy -396749.771286 kJ/mol
# GULP energy per Si atom -12398.430353 kJ/mol
# Density = 1.833783 g / cm^3
# Si number density = 18.379662 Si / 1000 Ang^3
#
#
#
# Elastic Constant Matrix: (Units=GPa)
#
#
# Indices 1 2 3 4 5 6 
#
# 1 28.3494 22.2357 8.8654 0.0000 0.0000 0.0000
# 2 22.2357 154.2778 54.9226 0.0000 0.0000 0.0000
# 3 8.8654 54.9226 128.0324 0.0000 0.0000 0.0000
# 4 0.0000 0.0000 0.0000 13.6136 0.0000 0.0000
# 5 0.0000 0.0000 0.0000 0.0000 12.4149 0.0000
# 6 0.0000 0.0000 0.0000 0.0000 0.0000 10.7272
#
#
#
# Elastic Compliance Matrix: (Units=1/GPa)
#
#
# Indices 1 2 3 4 5 6 
#
# 1 0.039783 -0.005610 -0.000348 0.000000 0.000000 0.000000
# 2 -0.005610 0.008441 -0.003233 0.000000 0.000000 0.000000
# 3 -0.000348 -0.003233 0.009221 0.000000 0.000000 0.000000
# 4 0.000000 0.000000 0.000000 0.073456 0.000000 0.000000
# 5 0.000000 0.000000 0.000000 0.000000 0.080548 0.000000
# 6 0.000000 0.000000 0.000000 0.000000 0.000000 0.093221
#
#
# Mechanical properties :
#
#
# Convention : Reuss Voigt Hill
#
# Bulk Modulus (GPa) = 25.59885 53.63411 39.61648
# Shear Modulus (GPa) = 14.87769 22.32686 18.60227
#
# Velocity S-wave (km/s) = 2.84820 3.48912 3.18482
# Velocity P-wave (km/s) = 4.97738 6.74363 5.92667
#
# Compressibility (1/GPa) = 0.03906425
#
# Stress axis : x y z
#
# Youngs Moduli (GPa) = 25.13625 118.46722 108.44415
#
# Poissons Ratio (x) = 0.66459 0.03776
# Poissons Ratio (y) = 0.14101 0.35056
# Poissons Ratio (z) = 0.00875 0.38296
#
# Static dielectric constant tensor:
#      x y z
#    x 3.098350 0.000000 0.000000 
#    y 0.000000 3.694910 0.000000 
#    z 0.000000 0.000000 3.514760 
# 
# 
# High freq. dielectric constant tensor:
#      x y z
#    x 1.685800 0.000000 0.000000 
#    y 0.000000 1.717160 0.000000 
#    z 0.000000 0.000000 1.716210 
# 
# From -- ./inp_files/13125.got.cif
#   From: 2010.03.12/outbox.cif.g09.slc.cpg/sg38_7_cif.got.tgz:13125.got - 2010.04.14 02:38:36.
