data_PCOD8179158
_publ_section_title
;
Structure prediction by ZEFSAII (Michael W. Deem and Ramdas Pophale) SiO2 
 PCOD8179158
Probable space group: A M M 2
;
_chemical_formula_sum "Si O2"
_cell_formula_units_Z 40
_cell_length_a 7.588546
_cell_length_b 9.405571
_cell_length_c 29.359398
_cell_angle_alpha 90.000000
_cell_angle_beta 90.000000
_cell_angle_gamma 90.000000
_cell_volume 2095.515529
_symmetry_space_group_name_H-M "A M M 2"
_symmetry_group_IT_number 38
_symmetry_cell_setting 'orthorhombic'
loop_
_space_group_symop_operation_xyz
x,y,z
-x,-y,z
-x,y,z
x,-y,z
x,1/2+y,1/2+z
-x,1/2-y,1/2+z
-x,1/2+y,1/2+z
x,1/2-y,1/2+z
loop_
_atom_site_type_symbol
_atom_site_label
_atom_site_fract_x
_atom_site_fract_y
_atom_site_fract_z
Si Si1 0.209413 0.340544 0.804280
Si Si2 0.209251 0.841784 0.887374
Si Si3 0.195260 0.830760 0.987729
Si Si4 0.500000 0.163877 0.645968
Si Si5 0.201986 0.164124 0.717150
Si Si6 0.500000 0.169304 0.053299
O O1 0.285977 0.500000 0.802464
O O2 0.287819 0.262232 0.848841
O O3 0.270342 0.257293 0.759313
O O4 0.000000 0.342465 0.806882
O O5 0.000000 0.850099 0.883541
O O6 0.288138 0.000000 0.880009
O O7 0.259887 0.781385 0.937457
O O8 0.328602 0.775210 0.026093
O O9 0.000000 0.770148 0.998764
O O10 0.189280 0.000000 0.987057
O O11 0.324295 0.199891 0.674284
O O12 0.500000 0.264001 0.602680
O O13 0.500000 0.000000 0.630631
O O14 0.000000 0.200648 0.704023
O O15 0.220892 0.000000 0.731632
O O16 0.500000 0.000000 0.057930
#
# Coordination Sequence:
#
# PCOD8179158 Si02
#       6
#     8   8   8   4   8   4
#     4   9  16  26  44  73 105 131 158 196 239 282
#     4   8  13  24  44  67  94 131 167 195 229 277
#     4   8  15  29  49  73  99 127 162 200 234 277
#     4  10  22  38  53  72  97 123 158 205 249 290
#     4   9  18  34  54  72  94 128 165 197 234 285
#     4  10  20  34  53  74  95 123 160 203 249 290
#
# _framework density 19.088383
#
# number of rings (size 3 to 8) (size 9 to 14) (size 15 to 20)
#    0.000    3.200    0.000    1.800    0.000    4.000 
#    0.000    2.000    0.000    4.800    0.000    0.000 
#    0.000    0.000    0.000    0.000    0.000    0.000 
#
# Total GULP energy -247920.881518 kJ/mol
# GULP energy per Si atom -12396.044076 kJ/mol
# Density = 1.904494 g / cm^3
# Si number density = 19.088383 Si / 1000 Ang^3
#
#
#
# Elastic Constant Matrix: (Units=GPa)
#
#
# Indices 1 2 3 4 5 6 
#
# 1 82.4657 30.9041 63.7124 0.0000 0.0000 0.0000
# 2 30.9041 85.3564 75.1723 0.0000 0.0000 0.0000
# 3 63.7124 75.1723 172.0768 0.0000 0.0000 0.0000
# 4 0.0000 0.0000 0.0000 35.0710 0.0000 0.0000
# 5 0.0000 0.0000 0.0000 0.0000 -2.9586 0.0000
# 6 0.0000 0.0000 0.0000 0.0000 0.0000 9.3256
#
#
#
# Elastic Compliance Matrix: (Units=1/GPa)
#
#
# Indices 1 2 3 4 5 6 
#
# 1 0.017037 -0.000996 -0.005873 0.000000 0.000000 0.000000
# 2 -0.000996 0.019100 -0.007975 0.000000 0.000000 0.000000
# 3 -0.005873 -0.007975 0.011470 0.000000 0.000000 0.000000
# 4 0.000000 0.000000 0.000000 0.028514 0.000000 0.000000
# 5 0.000000 0.000000 0.000000 0.000000 -0.338000 0.000000
# 6 0.000000 0.000000 0.000000 0.000000 0.000000 0.107232
#
#
# Mechanical properties :
#
#
# Convention : Reuss Voigt Hill
#
# Bulk Modulus (GPa) = 55.80882 75.49742 65.65312
# Shear Modulus (GPa) = -42.02130 19.62826 -11.19652
#
# Velocity S-wave (km/s) = -4.69701 3.21016 -2.42453
# Velocity P-wave (km/s) = 0.33954 7.30600 5.16054
#
# Compressibility (1/GPa) = 0.01791832
#
# Stress axis : x y z
#
# Youngs Moduli (GPa) = 58.69618 52.35690 87.18674
#
# Poissons Ratio (x) = 0.05216 0.51203
# Poissons Ratio (y) = 0.05848 0.69530
# Poissons Ratio (z) = 0.34471 0.41754
#
# Static dielectric constant tensor:
#      x y z
#    x 3.511260 0.000000 0.000000 
#    y 0.000000 3.409040 0.000000 
#    z 0.000000 0.000000 3.513660 
# 
# 
# High freq. dielectric constant tensor:
#      x y z
#    x 1.732000 0.000000 0.000000 
#    y 0.000000 1.711690 0.000000 
#    z 0.000000 0.000000 1.740410 
# 
# From -- ./inp_files/23222.got.cif
#   From: 2010.03.12/outbox.cif.g09.slc.cpg/sg38_12_cif.got.tgz:23222.got - 2010.04.14 02:38:36.
