data_PCOD8179668
_publ_section_title
;
Structure prediction by ZEFSAII (Michael W. Deem and Ramdas Pophale) SiO2 
 PCOD8179668
Probable space group: A M M 2
;
_chemical_formula_sum "Si O2"
_cell_formula_units_Z 48
_cell_length_a 7.696286
_cell_length_b 17.714249
_cell_length_c 17.225580
_cell_angle_alpha 90.000000
_cell_angle_beta 90.000000
_cell_angle_gamma 90.000000
_cell_volume 2348.430959
_symmetry_space_group_name_H-M "A M M 2"
_symmetry_group_IT_number 38
_symmetry_cell_setting 'orthorhombic'
loop_
_space_group_symop_operation_xyz
x,y,z
-x,-y,z
-x,y,z
x,-y,z
x,1/2+y,1/2+z
-x,1/2-y,1/2+z
-x,1/2+y,1/2+z
x,1/2-y,1/2+z
loop_
_atom_site_type_symbol
_atom_site_label
_atom_site_fract_x
_atom_site_fract_y
_atom_site_fract_z
Si Si1 0.000000 0.410619 0.041371
Si Si2 0.202515 0.323841 0.608557
Si Si3 0.704236 0.584837 0.297196
Si Si4 0.000000 0.410194 0.866299
Si Si5 0.305018 0.589474 0.757937
Si Si6 0.800123 0.083894 0.964880
Si Si7 0.302981 0.841330 0.639707
O O1 0.176271 0.380870 0.079201
O O2 0.000000 0.500000 0.045482
O O3 0.000000 0.379555 0.953645
O O4 0.235999 0.384622 0.674912
O O5 0.280140 0.359087 0.528567
O O6 0.305318 0.248137 0.628856
O O7 0.000000 0.303387 0.601282
O O8 0.500000 0.583887 0.304915
O O9 0.776196 0.500000 0.282207
O O10 0.779031 0.617398 0.378118
O O11 0.763722 0.638234 0.226456
O O12 0.826224 0.379509 0.823785
O O13 0.000000 0.500000 0.865025
O O14 0.500000 0.620009 0.775047
O O15 0.304267 0.500000 0.756711
O O16 0.000000 0.075665 0.986681
O O17 0.712777 0.000000 0.968946
O O18 0.500000 0.871789 0.627136
#
# Coordination Sequence:
#
# PCOD8179668 Si02
#       7
#     4   8   8   4   8   8   8
#     4  11  24  43  68  91 114 157 208 255 310 361
#     4  11  21  38  59  86 128 166 202 249 304 364
#     4   9  19  37  60  86 117 153 197 251 304 358
#     4   9  20  39  60  87 119 147 196 259 301 353
#     4  10  20  36  62  91 120 161 205 247 301 362
#     4   9  19  34  58  90 120 157 202 248 298 355
#     4  11  24  42  61  90 126 159 202 253 310 369
#
# _framework density 20.43918
#
# number of rings (size 3 to 8) (size 9 to 14) (size 15 to 20)
#    0.000    2.000    1.667    1.500    1.167    3.667 
#    3.000    3.333    0.000    0.000    0.000    0.000 
#    0.000    0.000    0.000    0.000    0.000    0.000 
#
# Total GULP energy -297583.961752 kJ/mol
# GULP energy per Si atom -12399.331740 kJ/mol
# Density = 2.039266 g / cm^3
# Si number density = 20.439180 Si / 1000 Ang^3
#
#
#
# Elastic Constant Matrix: (Units=GPa)
#
#
# Indices 1 2 3 4 5 6 
#
# 1 93.3954 16.3758 52.4630 0.0000 0.0000 0.0000
# 2 16.3758 67.6571 61.6868 0.0000 0.0000 0.0000
# 3 52.4630 61.6868 198.1321 0.0000 0.0000 0.0000
# 4 0.0000 0.0000 0.0000 23.7677 0.0000 0.0000
# 5 0.0000 0.0000 0.0000 0.0000 8.3794 0.0000
# 6 0.0000 0.0000 0.0000 0.0000 0.0000 22.7826
#
#
#
# Elastic Compliance Matrix: (Units=1/GPa)
#
#
# Indices 1 2 3 4 5 6 
#
# 1 0.012578 -0.000011 -0.003327 0.000000 0.000000 0.000000
# 2 -0.000011 0.020639 -0.006423 0.000000 0.000000 0.000000
# 3 -0.003327 -0.006423 0.007928 0.000000 0.000000 0.000000
# 4 0.000000 0.000000 0.000000 0.042074 0.000000 0.000000
# 5 0.000000 0.000000 0.000000 0.000000 0.119341 0.000000
# 6 0.000000 0.000000 0.000000 0.000000 0.000000 0.043893
#
#
# Mechanical properties :
#
#
# Convention : Reuss Voigt Hill
#
# Bulk Modulus (GPa) = 46.24669 68.91510 57.58090
# Shear Modulus (GPa) = 18.30278 26.22986 22.26632
#
# Velocity S-wave (km/s) = 2.99570 3.58622 3.30418
# Velocity P-wave (km/s) = 5.88568 7.13711 6.54139
#
# Compressibility (1/GPa) = 0.02162317
#
# Stress axis : x y z
#
# Youngs Moduli (GPa) = 79.50381 48.45134 126.13740
#
# Poissons Ratio (x) = 0.00053 0.41967
# Poissons Ratio (y) = 0.00087 0.81018
# Poissons Ratio (z) = 0.26452 0.31120
#
# Static dielectric constant tensor:
#      x y z
#    x 3.798040 0.000000 0.000000 
#    y 0.000000 3.658900 0.000000 
#    z 0.000000 0.000000 3.915030 
# 
# 
# High freq. dielectric constant tensor:
#      x y z
#    x 1.802320 0.000000 0.000000 
#    y 0.000000 1.778120 0.000000 
#    z 0.000000 0.000000 1.805090 
# 
# From -- ./inp_files/12125.got.cif
#   From: 2010.03.12/outbox.cif.g09.slc.cpg/sg38_7_cif.got.tgz:12125.got - 2010.04.14 02:38:36.
