data_PCOD8179199
_publ_section_title
;
Structure prediction by ZEFSAII (Michael W. Deem and Ramdas Pophale) SiO2 
 PCOD8179199
Probable space group: A M M 2
;
_chemical_formula_sum "Si O2"
_cell_formula_units_Z 56
_cell_length_a 14.679757
_cell_length_b 10.088220
_cell_length_c 20.541904
_cell_angle_alpha 90.000000
_cell_angle_beta 90.000000
_cell_angle_gamma 90.000000
_cell_volume 3042.104345
_symmetry_space_group_name_H-M "A M M 2"
_symmetry_group_IT_number 38
_symmetry_cell_setting 'orthorhombic'
loop_
_space_group_symop_operation_xyz
x,y,z
-x,-y,z
-x,y,z
x,-y,z
x,1/2+y,1/2+z
-x,1/2-y,1/2+z
-x,1/2+y,1/2+z
x,1/2-y,1/2+z
loop_
_atom_site_type_symbol
_atom_site_label
_atom_site_fract_x
_atom_site_fract_y
_atom_site_fract_z
Si Si1 0.747619 0.152328 0.514530
Si Si2 0.899102 0.251228 0.180140
Si Si3 0.283750 0.654990 0.874374
Si Si4 0.901609 0.346853 0.821721
Si Si5 0.708241 0.147504 0.657506
Si Si6 0.394006 0.155902 0.252231
Si Si7 0.897659 0.646191 0.541637
O O1 0.687474 0.184067 0.449473
O O2 0.691549 0.180277 0.580647
O O3 0.836816 0.241983 0.508583
O O4 0.780614 0.000000 0.513310
O O5 0.883500 0.167010 0.244966
O O6 0.816651 0.356158 0.172747
O O7 0.892963 0.150895 0.119874
O O8 0.000000 0.320968 0.180758
O O9 0.275197 0.500000 0.861599
O O10 0.183696 0.719396 0.859804
O O11 0.358581 0.706963 0.822918
O O12 0.907220 0.500000 0.839433
O O13 0.000000 0.280548 0.840425
O O14 0.655832 0.260327 0.696613
O O15 0.670530 0.000000 0.673713
O O16 0.500000 0.187912 0.249067
O O17 0.374729 0.000000 0.240443
O O18 0.863629 0.500000 0.520605
O O19 0.000000 0.670934 0.516895
#
# Coordination Sequence:
#
# PCOD8179199 Si02
#       7
#     8   8   8   8   8   8   8
#     4   9  19  33  50  74 105 140 174 210 257 314
#     4   9  16  27  46  73 105 140 178 215 253 299
#     4   9  17  32  52  76 105 134 171 216 258 306
#     4   9  15  23  42  73 103 131 168 215 260 296
#     4  10  20  34  53  80 112 142 172 208 258 316
#     4  10  21  38  61  84 102 127 170 223 272 315
#     4   9  17  28  44  69 103 142 182 220 257 300
#
# _framework density 18.408311000000001
#
# number of rings (size 3 to 8) (size 9 to 14) (size 15 to 20)
#    0.000    2.714    1.429    0.429    0.000    5.429 
#    0.000    5.714    0.000    2.571    0.000    0.000 
#    0.000    0.000    0.000    0.000    0.000    0.000 
#
# Total GULP energy -346868.615827 kJ/mol
# GULP energy per Si atom -12388.164851 kJ/mol
# Density = 1.836641 g / cm^3
# Si number density = 18.408311 Si / 1000 Ang^3
#
#
#
# Elastic Constant Matrix: (Units=GPa)
#
#
# Indices 1 2 3 4 5 6 
#
# 1 94.1658 36.6092 58.0038 0.0000 0.0000 0.0000
# 2 36.6092 72.1943 39.8512 0.0000 0.0000 0.0000
# 3 58.0038 39.8512 124.3394 0.0000 0.0000 0.0000
# 4 0.0000 0.0000 0.0000 20.0925 0.0000 0.0000
# 5 0.0000 0.0000 0.0000 0.0000 14.3869 0.0000
# 6 0.0000 0.0000 0.0000 0.0000 0.0000 17.5502
#
#
#
# Elastic Compliance Matrix: (Units=1/GPa)
#
#
# Indices 1 2 3 4 5 6 
#
# 1 0.016222 -0.004919 -0.005991 0.000000 0.000000 0.000000
# 2 -0.004919 0.018320 -0.003577 0.000000 0.000000 0.000000
# 3 -0.005991 -0.003577 0.011984 0.000000 0.000000 0.000000
# 4 0.000000 0.000000 0.000000 0.049770 0.000000 0.000000
# 5 0.000000 0.000000 0.000000 0.000000 0.069507 0.000000
# 6 0.000000 0.000000 0.000000 0.000000 0.000000 0.056979
#
#
# Mechanical properties :
#
#
# Convention : Reuss Voigt Hill
#
# Bulk Modulus (GPa) = 56.97317 62.18090 59.57703
# Shear Modulus (GPa) = 19.40930 20.82161 20.11546
#
# Velocity S-wave (km/s) = 3.25064 3.36683 3.30924
# Velocity P-wave (km/s) = 6.71608 6.99758 6.85827
#
# Compressibility (1/GPa) = 0.01755212
#
# Stress axis : x y z
#
# Youngs Moduli (GPa) = 61.64328 54.58367 83.44643
#
# Poissons Ratio (x) = 0.26851 0.49993
# Poissons Ratio (y) = 0.30324 0.29849
# Poissons Ratio (z) = 0.36931 0.19525
#
# Static dielectric constant tensor:
#      x y z
#    x 3.395060 0.000000 0.000000 
#    y 0.000000 3.025920 0.000000 
#    z 0.000000 0.000000 3.513020 
# 
# 
# High freq. dielectric constant tensor:
#      x y z
#    x 1.692390 0.000000 0.000000 
#    y 0.000000 1.677120 0.000000 
#    z 0.000000 0.000000 1.718520 
# 
# From -- ./inp_files/21074.got.cif
#   From: 2010.03.12/outbox.cif.g09.slc.cpg/sg38_11_cif.got.tgz:21074.got - 2010.04.14 02:38:36.
