data_PCOD8179262
_publ_section_title
;
Structure prediction by ZEFSAII (Michael W. Deem and Ramdas Pophale) SiO2 
 PCOD8179262
Probable space group: A M M 2
;
_chemical_formula_sum "Si O2"
_cell_formula_units_Z 64
_cell_length_a 12.504870
_cell_length_b 31.253067
_cell_length_c 8.715359
_cell_angle_alpha 90.000000
_cell_angle_beta 90.000000
_cell_angle_gamma 90.000000
_cell_volume 3406.097733
_symmetry_space_group_name_H-M "A M M 2"
_symmetry_group_IT_number 38
_symmetry_cell_setting 'orthorhombic'
loop_
_space_group_symop_operation_xyz
x,y,z
-x,-y,z
-x,y,z
x,-y,z
x,1/2+y,1/2+z
-x,1/2-y,1/2+z
-x,1/2+y,1/2+z
x,1/2-y,1/2+z
loop_
_atom_site_type_symbol
_atom_site_label
_atom_site_fract_x
_atom_site_fract_y
_atom_site_fract_z
Si Si1 0.259281 0.748376 0.360970
Si Si2 0.884605 0.875017 0.288534
Si Si3 0.123557 0.293796 0.612503
Si Si4 0.186241 0.951531 0.112739
Si Si5 0.619397 0.048782 0.317742
Si Si6 0.731411 0.608366 0.049150
Si Si7 0.626634 0.194872 0.609579
Si Si8 0.126065 0.049764 0.768146
O O1 0.198192 0.714993 0.468321
O O2 0.165387 0.768563 0.260327
O O3 0.322121 0.784323 0.457198
O O4 0.344470 0.722727 0.258517
O O5 0.862104 0.844020 0.145217
O O6 0.887488 0.922964 0.221871
O O7 0.800566 0.867355 0.421715
O O8 0.000000 0.864803 0.361074
O O9 0.000000 0.281148 0.581603
O O10 0.308308 0.943083 0.166952
O O11 0.149640 0.000000 0.142302
O O12 0.172417 0.939875 0.935671
O O13 0.500000 0.060368 0.265256
O O14 0.648726 0.077081 0.465016
O O15 0.629703 0.000000 0.373204
O O16 0.668956 0.646270 0.136459
O O17 0.809405 0.580589 0.155516
O O18 0.500000 0.193803 0.588973
O O19 0.000000 0.060520 0.760656
O O20 0.145592 0.000000 0.724961
#
# Coordination Sequence:
#
# PCOD8179262 Si02
#       8
#     8   8   8   8   8   8   8   8
#     4  10  22  40  61  84 113 149 186 233 283 344
#     4  10  20  34  54  82 114 147 185 225 272 332
#     4  10  20  37  59  88 116 146 179 223 280 343
#     4   9  19  35  56  80 111 150 192 232 272 327
#     4   9  18  35  58  81 110 149 191 234 280 326
#     4  11  21  36  56  85 116 149 186 236 279 335
#     4  11  23  41  62  83 112 149 194 241 288 339
#     4  10  21  37  57  85 121 156 187 227 283 342
#
# _framework density 18.789831
#
# number of rings (size 3 to 8) (size 9 to 14) (size 15 to 20)
#    0.000    2.000    1.250    2.250    1.750    1.250 
#    0.000    2.500    0.000    3.000    0.000    0.000 
#    0.000    0.000    0.000    0.000    0.000    0.000 
#
# Total GULP energy -396731.456854 kJ/mol
# GULP energy per Si atom -12397.858027 kJ/mol
# Density = 1.874706 g / cm^3
# Si number density = 18.789831 Si / 1000 Ang^3
#
#
#
# Elastic Constant Matrix: (Units=GPa)
#
#
# Indices 1 2 3 4 5 6 
#
# 1 113.1259 48.9372 39.4416 0.0000 0.0000 0.0000
# 2 48.9372 81.5868 34.0904 0.0000 0.0000 0.0000
# 3 39.4416 34.0904 80.6476 0.0000 0.0000 0.0000
# 4 0.0000 0.0000 0.0000 27.2187 0.0000 0.0000
# 5 0.0000 0.0000 0.0000 0.0000 10.7660 0.0000
# 6 0.0000 0.0000 0.0000 0.0000 0.0000 25.7541
#
#
#
# Elastic Compliance Matrix: (Units=1/GPa)
#
#
# Indices 1 2 3 4 5 6 
#
# 1 0.012765 -0.006131 -0.003651 0.000000 0.000000 0.000000
# 2 -0.006131 0.017831 -0.004539 0.000000 0.000000 0.000000
# 3 -0.003651 -0.004539 0.016104 0.000000 0.000000 0.000000
# 4 0.000000 0.000000 0.000000 0.036739 0.000000 0.000000
# 5 0.000000 0.000000 0.000000 0.000000 0.092885 0.000000
# 6 0.000000 0.000000 0.000000 0.000000 0.000000 0.038829
#
#
# Mechanical properties :
#
#
# Convention : Reuss Voigt Hill
#
# Bulk Modulus (GPa) = 55.37825 57.81097 56.59461
# Shear Modulus (GPa) = 20.01490 22.94050 21.47770
#
# Velocity S-wave (km/s) = 3.26728 3.49793 3.38457
# Velocity P-wave (km/s) = 6.61588 6.86644 6.74232
#
# Compressibility (1/GPa) = 0.01805763
#
# Stress axis : x y z
#
# Youngs Moduli (GPa) = 78.33974 56.08247 62.09685
#
# Poissons Ratio (x) = 0.34384 0.22673
# Poissons Ratio (y) = 0.48030 0.28185
# Poissons Ratio (z) = 0.28603 0.25455
#
# Static dielectric constant tensor:
#      x y z
#    x 3.498360 0.000000 0.000000 
#    y 0.000000 3.565870 0.000000 
#    z 0.000000 0.000000 3.372440 
# 
# 
# High freq. dielectric constant tensor:
#      x y z
#    x 1.735020 0.000000 0.000000 
#    y 0.000000 1.738950 0.000000 
#    z 0.000000 0.000000 1.720810 
# 
# From -- ./inp_files/4936.got.cif
#   From: 2010.03.12/outbox.cif.g09.slc.cpg/sg38_3_cif.got.tgz:4936.got - 2010.04.14 02:38:36.
