data_PCOD8179065
_publ_section_title
;
Structure prediction by ZEFSAII (Michael W. Deem and Ramdas Pophale) SiO2 
 PCOD8179065
Probable space group: A M M 2
;
_chemical_formula_sum "Si O2"
_cell_formula_units_Z 64
_cell_length_a 9.323860
_cell_length_b 28.351790
_cell_length_c 12.632725
_cell_angle_alpha 90.000000
_cell_angle_beta 90.000000
_cell_angle_gamma 90.000000
_cell_volume 3339.437113
_symmetry_space_group_name_H-M "A M M 2"
_symmetry_group_IT_number 38
_symmetry_cell_setting 'orthorhombic'
loop_
_space_group_symop_operation_xyz
x,y,z
-x,-y,z
-x,y,z
x,-y,z
x,1/2+y,1/2+z
-x,1/2-y,1/2+z
-x,1/2+y,1/2+z
x,1/2-y,1/2+z
loop_
_atom_site_type_symbol
_atom_site_label
_atom_site_fract_x
_atom_site_fract_y
_atom_site_fract_z
Si Si1 0.664737 0.694875 0.995030
Si Si2 0.168808 0.607275 0.918479
Si Si3 0.667690 0.610331 0.522501
Si Si4 0.168769 0.054747 0.203070
Si Si5 0.658107 0.051640 0.828191
Si Si6 0.338289 0.201671 0.905874
Si Si7 0.160157 0.182861 0.700362
Si Si8 0.156807 0.424311 0.142753
O O1 0.500000 0.679220 0.012041
O O2 0.743401 0.656283 0.920626
O O3 0.674795 0.744695 0.938921
O O4 0.740644 0.702640 0.107306
O O5 0.208434 0.575460 0.818008
O O6 0.000000 0.620009 0.923153
O O7 0.213125 0.576905 0.021941
O O8 0.500000 0.598888 0.540675
O O9 0.753950 0.589011 0.620348
O O10 0.727570 0.585960 0.415132
O O11 0.695632 0.666351 0.505173
O O12 0.000000 0.057688 0.182256
O O13 0.220134 0.000000 0.195304
O O14 0.500000 0.070652 0.800453
O O15 0.740525 0.046162 0.717736
O O16 0.652910 0.000000 0.880622
O O17 0.500000 0.190380 0.866198
O O18 0.226624 0.194987 0.812668
O O19 0.150538 0.127326 0.691054
O O20 0.000000 0.204926 0.692521
O O21 0.000000 0.447970 0.145256
#
# Coordination Sequence:
#
# PCOD8179065 Si02
#       8
#     8   8   8   8   8   8   8   8
#     4  10  21  36  57  86 117 151 193 240 292 349
#     4   9  20  39  59  82 114 150 193 239 291 347
#     4  10  21  38  58  80 112 151 192 240 291 344
#     4  10  22  40  61  84 115 157 201 247 297 352
#     4  10  20  33  52  79 109 141 177 223 280 335
#     4  10  21  37  58  83 112 152 196 239 290 347
#     4  10  20  35  56  80 110 146 184 231 286 341
#     4   9  18  33  54  79 105 138 179 225 278 336
#
# _framework density 19.164905000000001
#
# number of rings (size 3 to 8) (size 9 to 14) (size 15 to 20)
#    0.000    2.250    1.250    1.875    0.000    7.000 
#    0.000    5.000    0.000    0.000    0.000    0.000 
#    0.000    0.000    0.000    0.000    0.000    0.000 
#
# Total GULP energy -396663.141490 kJ/mol
# GULP energy per Si atom -12395.723172 kJ/mol
# Density = 1.912129 g / cm^3
# Si number density = 19.164905 Si / 1000 Ang^3
#
#
#
# Elastic Constant Matrix: (Units=GPa)
#
#
# Indices 1 2 3 4 5 6 
#
# 1 87.6718 33.4397 53.2337 0.0000 0.0000 0.0000
# 2 33.4397 68.3476 37.3394 0.0000 0.0000 0.0000
# 3 53.2337 37.3394 111.1915 0.0000 0.0000 0.0000
# 4 0.0000 0.0000 0.0000 21.2746 0.0000 0.0000
# 5 0.0000 0.0000 0.0000 0.0000 33.5466 0.0000
# 6 0.0000 0.0000 0.0000 0.0000 0.0000 -128.4104
#
#
#
# Elastic Compliance Matrix: (Units=1/GPa)
#
#
# Indices 1 2 3 4 5 6 
#
# 1 0.017287 -0.004821 -0.006658 0.000000 0.000000 0.000000
# 2 -0.004821 0.019263 -0.004161 0.000000 0.000000 0.000000
# 3 -0.006658 -0.004161 0.013578 0.000000 0.000000 0.000000
# 4 0.000000 0.000000 0.000000 0.047004 0.000000 0.000000
# 5 0.000000 0.000000 0.000000 0.000000 0.029809 0.000000
# 6 0.000000 0.000000 0.000000 0.000000 0.000000 -0.007788
#
#
# Mechanical properties :
#
#
# Convention : Reuss Voigt Hill
#
# Bulk Modulus (GPa) = 53.05023 57.24849 55.14936
# Shear Modulus (GPa) = 31.90488 -5.17132 13.36678
#
# Velocity S-wave (km/s) = 4.08457 -1.64444 2.64381
# Velocity P-wave (km/s) = 7.07007 5.13135 6.17725
#
# Compressibility (1/GPa) = 0.01885006
#
# Stress axis : x y z
#
# Youngs Moduli (GPa) = 57.84577 51.91360 73.64843
#
# Poissons Ratio (x) = 0.25027 0.49032
# Poissons Ratio (y) = 0.27887 0.30642
# Poissons Ratio (z) = 0.38511 0.21599
#
# Static dielectric constant tensor:
#      x y z
#    x 3.709640 0.000000 0.000000 
#    y 0.000000 3.485850 0.000000 
#    z 0.000000 0.000000 3.550110 
# 
# 
# High freq. dielectric constant tensor:
#      x y z
#    x 1.743450 0.000000 0.000000 
#    y 0.000000 1.746250 0.000000 
#    z 0.000000 0.000000 1.741940 
# 
# From -- ./inp_files/8607.got.cif
#   From: 2010.03.12/outbox.cif.g09.slc.cpg/sg38_5_cif.got.tgz:8607.got - 2010.04.14 02:38:36.
