data_PCOD8179476
_publ_section_title
;
Structure prediction by ZEFSAII (Michael W. Deem and Ramdas Pophale) SiO2 
 PCOD8179476
Probable space group: A M M 2
;
_chemical_formula_sum "Si O2"
_cell_formula_units_Z 64
_cell_length_a 13.927307
_cell_length_b 18.948670
_cell_length_c 12.504426
_cell_angle_alpha 90.000000
_cell_angle_beta 90.000000
_cell_angle_gamma 90.000000
_cell_volume 3299.967343
_symmetry_space_group_name_H-M "A M M 2"
_symmetry_group_IT_number 38
_symmetry_cell_setting 'orthorhombic'
loop_
_space_group_symop_operation_xyz
x,y,z
-x,-y,z
-x,y,z
x,-y,z
x,1/2+y,1/2+z
-x,1/2-y,1/2+z
-x,1/2+y,1/2+z
x,1/2-y,1/2+z
loop_
_atom_site_type_symbol
_atom_site_label
_atom_site_fract_x
_atom_site_fract_y
_atom_site_fract_z
Si Si1 0.608157 0.357546 0.022440
Si Si2 0.609686 0.699921 0.437454
Si Si3 0.889033 0.916014 0.674058
Si Si4 0.613288 0.921149 0.310429
Si Si5 0.108656 0.915902 0.209172
Si Si6 0.112980 0.423590 0.939838
Si Si7 0.275184 0.821501 0.720414
Si Si8 0.276408 0.833551 0.139179
O O1 0.500000 0.378975 0.051571
O O2 0.666373 0.365319 0.131636
O O3 0.611677 0.280908 0.969616
O O4 0.652492 0.409268 0.931675
O O5 0.500000 0.672407 0.430328
O O6 0.660767 0.687113 0.324958
O O7 0.666951 0.657632 0.528460
O O8 0.865865 0.885975 0.553206
O O9 0.820062 0.868122 0.748550
O O10 0.000000 0.901534 0.704429
O O11 0.868200 0.000000 0.684296
O O12 0.500000 0.907808 0.312225
O O13 0.656556 0.865017 0.230405
O O14 0.640156 0.000000 0.273106
O O15 0.144030 0.886988 0.327536
O O16 0.178172 0.878021 0.124949
O O17 0.000000 0.893004 0.183218
O O18 0.119369 0.000000 0.203389
O O19 0.162713 0.500000 0.944226
O O20 0.000000 0.434777 0.929171
O O21 0.248202 0.745984 0.670524
#
# Coordination Sequence:
#
# PCOD8179476 Si02
#       8
#     8   8   8   8   8   8   8   8
#     4   9  19  35  56  84 115 146 186 239 297 349
#     4  10  21  39  59  80 114 156 195 238 288 355
#     4   9  19  36  56  80 113 152 195 242 294 351
#     4  10  20  35  57  86 118 149 189 243 295 344
#     4   9  18  33  54  81 115 154 192 234 288 344
#     4   7  12  26  50  78 105 136 176 225 284 342
#     4  11  22  35  59  86 113 151 201 240 292 349
#     4  11  22  35  56  86 119 151 197 238 291 350
#
# _framework density 19.394131000000002
#
# number of rings (size 3 to 8) (size 9 to 14) (size 15 to 20)
#    0.000    2.500    1.250    2.625    1.750    2.000 
#    0.000    1.875    0.000    4.875    0.000    0.000 
#    0.000    0.000    0.000    0.000    0.000    0.000 
#
# Total GULP energy -396528.447456 kJ/mol
# GULP energy per Si atom -12391.513983 kJ/mol
# Density = 1.934999 g / cm^3
# Si number density = 19.394131 Si / 1000 Ang^3
#
#
#
# Elastic Constant Matrix: (Units=GPa)
#
#
# Indices 1 2 3 4 5 6 
#
# 1 92.5014 31.5980 50.3051 0.0000 0.0000 0.0000
# 2 31.5980 48.6683 16.3568 0.0000 0.0000 0.0000
# 3 50.3051 16.3568 76.4957 0.0000 0.0000 0.0000
# 4 0.0000 0.0000 0.0000 20.4225 0.0000 0.0000
# 5 0.0000 0.0000 0.0000 0.0000 30.8572 0.0000
# 6 0.0000 0.0000 0.0000 0.0000 0.0000 31.9436
#
#
#
# Elastic Compliance Matrix: (Units=1/GPa)
#
#
# Indices 1 2 3 4 5 6 
#
# 1 0.020079 -0.009264 -0.011223 0.000000 0.000000 0.000000
# 2 -0.009264 0.026413 0.000445 0.000000 0.000000 0.000000
# 3 -0.011223 0.000445 0.020358 0.000000 0.000000 0.000000
# 4 0.000000 0.000000 0.000000 0.048966 0.000000 0.000000
# 5 0.000000 0.000000 0.000000 0.000000 0.032407 0.000000
# 6 0.000000 0.000000 0.000000 0.000000 0.000000 0.031305
#
#
# Mechanical properties :
#
#
# Convention : Reuss Voigt Hill
#
# Bulk Modulus (GPa) = 37.36376 46.02057 41.69217
# Shear Modulus (GPa) = 21.87849 24.60503 23.24176
#
# Velocity S-wave (km/s) = 3.36236 3.56572 3.46553
# Velocity P-wave (km/s) = 5.86356 6.38225 6.12839
#
# Compressibility (1/GPa) = 0.02676390
#
# Stress axis : x y z
#
# Youngs Moduli (GPa) = 49.80370 37.86066 49.12018
#
# Poissons Ratio (x) = 0.35075 0.55129
# Poissons Ratio (y) = 0.46139 -0.02184
# Poissons Ratio (z) = 0.55896 -0.01683
#
# Static dielectric constant tensor:
#      x y z
#    x 3.648840 0.000000 0.000000 
#    y 0.000000 3.305760 0.000000 
#    z 0.000000 0.000000 3.561090 
# 
# 
# High freq. dielectric constant tensor:
#      x y z
#    x 1.769280 0.000000 0.000000 
#    y 0.000000 1.728230 0.000000 
#    z 0.000000 0.000000 1.739110 
# 
# From -- ./inp_files/10242.got.cif
#   From: 2010.03.12/outbox.cif.g09.slc.cpg/sg38_6_cif.got.tgz:10242.got - 2010.04.14 02:38:36.
