data_PCOD8179271
_publ_section_title
;
Structure prediction by ZEFSAII (Michael W. Deem and Ramdas Pophale) SiO2 
 PCOD8179271
Probable space group: A M M 2
;
_chemical_formula_sum "Si O2"
_cell_formula_units_Z 64
_cell_length_a 20.099189
_cell_length_b 9.027843
_cell_length_c 18.591439
_cell_angle_alpha 90.000000
_cell_angle_beta 90.000000
_cell_angle_gamma 90.000000
_cell_volume 3373.459789
_symmetry_space_group_name_H-M "A M M 2"
_symmetry_group_IT_number 38
_symmetry_cell_setting 'orthorhombic'
loop_
_space_group_symop_operation_xyz
x,y,z
-x,-y,z
-x,y,z
x,-y,z
x,1/2+y,1/2+z
-x,1/2-y,1/2+z
-x,1/2+y,1/2+z
x,1/2-y,1/2+z
loop_
_atom_site_type_symbol
_atom_site_label
_atom_site_fract_x
_atom_site_fract_y
_atom_site_fract_z
Si Si1 0.318309 0.172914 0.080340
Si Si2 0.682283 0.326629 0.747445
Si Si3 0.577085 0.172882 0.486250
Si Si4 0.926924 0.675908 0.239505
Si Si5 0.810429 0.674007 0.493825
Si Si6 0.076500 0.828361 0.578421
Si Si7 0.422278 0.828526 0.839322
Si Si8 0.802214 0.824652 0.829186
O O1 0.308442 0.207714 0.163774
O O2 0.381733 0.264132 0.053047
O O3 0.331155 0.000000 0.065685
O O4 0.252619 0.230381 0.039446
O O5 0.678220 0.500000 0.763191
O O6 0.614376 0.250611 0.773521
O O7 0.743497 0.258072 0.789493
O O8 0.500000 0.205222 0.502438
O O9 0.600589 0.255452 0.414065
O O10 0.591070 0.000000 0.476222
O O11 0.929464 0.500000 0.237664
O O12 0.909698 0.732194 0.159102
O O13 0.871763 0.732181 0.295424
O O14 0.000000 0.736164 0.262924
O O15 0.818030 0.500000 0.500576
O O16 0.878314 0.742447 0.522341
O O17 0.800439 0.723533 0.411850
O O18 0.000000 0.800437 0.557205
O O19 0.094846 0.000000 0.573678
O O20 0.500000 0.805691 0.825814
O O21 0.401981 0.000000 0.842413
O O22 0.793062 0.000000 0.819293
#
# Coordination Sequence:
#
# PCOD8179271 Si02
#       8
#     8   8   8   8   8   8   8   8
#     4  10  22  38  54  77 112 150 186 226 272 320
#     4  11  23  37  55  79 109 146 186 229 274 321
#     4  10  21  37  59  87 115 143 179 221 265 321
#     4   8  15  30  52  77 104 135 175 221 265 314
#     4  10  21  35  52  77 107 138 175 220 269 322
#     4   9  18  33  53  76 103 137 175 215 263 320
#     4  10  21  38  60  83 109 142 178 221 275 330
#     4  10  20  34  55  80 105 138 180 225 273 326
#
# _framework density 18.971620000000001
#
# number of rings (size 3 to 8) (size 9 to 14) (size 15 to 20)
#    0.000    2.250    0.000    3.375    0.000    5.750 
#    0.000    3.750    0.000    1.125    0.000    0.000 
#    0.000    0.000    0.000    0.000    0.000    0.000 
#
# Total GULP energy -396896.829697 kJ/mol
# GULP energy per Si atom -12403.025928 kJ/mol
# Density = 1.892844 g / cm^3
# Si number density = 18.971620 Si / 1000 Ang^3
#
#
#
# Elastic Constant Matrix: (Units=GPa)
#
#
# Indices 1 2 3 4 5 6 
#
# 1 113.5241 49.4471 83.3592 0.0000 0.0000 0.0000
# 2 49.4471 62.4296 61.1393 0.0000 0.0000 0.0000
# 3 83.3592 61.1393 146.4067 0.0000 0.0000 0.0000
# 4 0.0000 0.0000 0.0000 23.9305 0.0000 0.0000
# 5 0.0000 0.0000 0.0000 0.0000 42.5897 0.0000
# 6 0.0000 0.0000 0.0000 0.0000 0.0000 32.1531
#
#
#
# Elastic Compliance Matrix: (Units=1/GPa)
#
#
# Indices 1 2 3 4 5 6 
#
# 1 0.016596 -0.006583 -0.006700 0.000000 0.000000 0.000000
# 2 -0.006583 0.029713 -0.008660 0.000000 0.000000 0.000000
# 3 -0.006700 -0.008660 0.014261 0.000000 0.000000 0.000000
# 4 0.000000 0.000000 0.000000 0.041788 0.000000 0.000000
# 5 0.000000 0.000000 0.000000 0.000000 0.023480 0.000000
# 6 0.000000 0.000000 0.000000 0.000000 0.000000 0.031101
#
#
# Mechanical properties :
#
#
# Convention : Reuss Voigt Hill
#
# Bulk Modulus (GPa) = 59.93685 78.91685 69.42685
# Shear Modulus (GPa) = 24.22636 28.29566 26.26101
#
# Velocity S-wave (km/s) = 3.57736 3.86615 3.72456
# Velocity P-wave (km/s) = 6.98032 7.84966 7.42772
#
# Compressibility (1/GPa) = 0.01668423
#
# Stress axis : x y z
#
# Youngs Moduli (GPa) = 60.25620 33.65510 70.11898
#
# Poissons Ratio (x) = 0.22155 0.46980
# Poissons Ratio (y) = 0.39667 0.60723
# Poissons Ratio (z) = 0.40372 0.29145
#
# Static dielectric constant tensor:
#      x y z
#    x 3.756930 0.000000 0.000000 
#    y 0.000000 3.323230 0.000000 
#    z 0.000000 0.000000 3.557400 
# 
# 
# High freq. dielectric constant tensor:
#      x y z
#    x 1.749410 0.000000 0.000000 
#    y 0.000000 1.723570 0.000000 
#    z 0.000000 0.000000 1.741030 
# 
# From -- ./inp_files/18857.got.cif
#   From: 2010.03.12/outbox.cif.g09.slc.cpg/sg38_10_cif.got.tgz:18857.got - 2010.04.14 02:38:36.
