data_PCOD8179584
_publ_section_title
;
Structure prediction by ZEFSAII (Michael W. Deem and Ramdas Pophale) SiO2 
 PCOD8179584
Probable space group: A M M 2
;
_chemical_formula_sum "Si O2"
_cell_formula_units_Z 40
_cell_length_a 8.824599
_cell_length_b 10.326227
_cell_length_c 22.945381
_cell_angle_alpha 90.000000
_cell_angle_beta 90.000000
_cell_angle_gamma 90.000000
_cell_volume 2090.893540
_symmetry_space_group_name_H-M "A M M 2"
_symmetry_group_IT_number 38
_symmetry_cell_setting 'orthorhombic'
loop_
_space_group_symop_operation_xyz
x,y,z
-x,-y,z
-x,y,z
x,-y,z
x,1/2+y,1/2+z
-x,1/2-y,1/2+z
-x,1/2+y,1/2+z
x,1/2-y,1/2+z
loop_
_atom_site_type_symbol
_atom_site_label
_atom_site_fract_x
_atom_site_fract_y
_atom_site_fract_z
Si Si1 0.177894 0.766633 0.239760
Si Si2 0.179523 0.500000 0.185729
Si Si3 0.179888 0.000000 0.553725
Si Si4 0.679496 0.000000 0.039438
Si Si5 0.678781 0.233993 0.483896
Si Si6 0.175745 0.849380 0.368339
Si Si7 0.320697 0.500000 0.670876
O O1 0.238428 0.626693 0.219489
O O2 0.216437 0.781608 0.307597
O O3 0.000000 0.785162 0.228543
O O4 0.263945 0.872646 0.202618
O O5 0.241529 0.500000 0.119791
O O6 0.000000 0.500000 0.185190
O O7 0.239125 0.873327 0.522031
O O8 0.000000 0.000000 0.550910
O O9 0.738050 0.126833 0.005691
O O10 0.500000 0.000000 0.040812
O O11 0.743760 0.000000 0.105098
O O12 0.500000 0.217890 0.491510
O O13 0.722250 0.219903 0.416492
O O14 0.000000 0.831510 0.384473
O O15 0.218285 0.000000 0.364260
O O16 0.500000 0.500000 0.671323
#
# Coordination Sequence:
#
# PCOD8179584 Si02
#       7
#     8   4   4   4   8   8   4
#     4  10  20  38  60  84 113 148 183 226 279 331
#     4   9  20  36  59  87 114 144 184 227 276 333
#     4  11  21  36  57  86 118 145 182 233 272 323
#     4   9  22  40  55  81 118 146 182 233 282 323
#     4  11  22  38  60  82 109 151 190 227 275 332
#     4  10  20  36  58  84 114 143 181 234 279 324
#     4  11  21  36  59  84 112 149 188 229 270 327
#
# _framework density 19.130576999999999
#
# number of rings (size 3 to 8) (size 9 to 14) (size 15 to 20)
#    0.000    1.800    2.000    2.400    0.000    1.600 
#    0.000    7.500    0.000    0.000    0.000    0.000 
#    0.000    0.000    0.000    0.000    0.000    0.000 
#
# Total GULP energy -248073.531144 kJ/mol
# GULP energy per Si atom -12403.676557 kJ/mol
# Density = 1.908703 g / cm^3
# Si number density = 19.130577 Si / 1000 Ang^3
#
#
#
# Elastic Constant Matrix: (Units=GPa)
#
#
# Indices 1 2 3 4 5 6 
#
# 1 55.7620 44.1004 45.8151 0.0000 0.0000 0.0000
# 2 44.1004 185.0892 94.4776 0.0000 0.0000 0.0000
# 3 45.8151 94.4776 164.8404 0.0000 0.0000 0.0000
# 4 0.0000 0.0000 0.0000 41.0285 0.0000 0.0000
# 5 0.0000 0.0000 0.0000 0.0000 27.7007 0.0000
# 6 0.0000 0.0000 0.0000 0.0000 0.0000 -89.9932
#
#
#
# Elastic Compliance Matrix: (Units=1/GPa)
#
#
# Indices 1 2 3 4 5 6 
#
# 1 0.024632 -0.003356 -0.004923 0.000000 0.000000 0.000000
# 2 -0.003356 0.008094 -0.003706 0.000000 0.000000 0.000000
# 3 -0.004923 -0.003706 0.009559 0.000000 0.000000 0.000000
# 4 0.000000 0.000000 0.000000 0.024373 0.000000 0.000000
# 5 0.000000 0.000000 0.000000 0.000000 0.036100 0.000000
# 6 0.000000 0.000000 0.000000 0.000000 0.000000 -0.011112
#
#
# Mechanical properties :
#
#
# Convention : Reuss Voigt Hill
#
# Bulk Modulus (GPa) = 54.60003 86.05308 70.32656
# Shear Modulus (GPa) = 41.07698 10.50045 25.78872
#
# Velocity S-wave (km/s) = 4.63881 2.34537 3.67554
# Velocity P-wave (km/s) = 7.56928 7.23975 7.40635
#
# Compressibility (1/GPa) = 0.01831501
#
# Stress axis : x y z
#
# Youngs Moduli (GPa) = 40.59723 123.54176 104.61411
#
# Poissons Ratio (x) = 0.41465 0.51496
# Poissons Ratio (y) = 0.13626 0.38775
# Poissons Ratio (z) = 0.19984 0.45790
#
# Static dielectric constant tensor:
#      x y z
#    x 3.297930 0.000000 0.000000 
#    y 0.000000 4.100740 0.000000 
#    z 0.000000 0.000000 3.734160 
# 
# 
# High freq. dielectric constant tensor:
#      x y z
#    x 1.725290 0.000000 0.000000 
#    y 0.000000 1.754600 0.000000 
#    z 0.000000 0.000000 1.760990 
# 
# From -- ./inp_files/19538.got.cif
#   From: 2010.03.12/outbox.cif.g09.slc.cpg/sg38_10_cif.got.tgz:19538.got - 2010.04.14 02:38:36.
