data_PCOD8179486
_publ_section_title
;
Structure prediction by ZEFSAII (Michael W. Deem and Ramdas Pophale) SiO2 
 PCOD8179486
Probable space group: A M M 2
;
_chemical_formula_sum "Si O2"
_cell_formula_units_Z 48
_cell_length_a 7.774598
_cell_length_b 9.468247
_cell_length_c 34.108029
_cell_angle_alpha 90.000000
_cell_angle_beta 90.000000
_cell_angle_gamma 90.000000
_cell_volume 2510.753893
_symmetry_space_group_name_H-M "A M M 2"
_symmetry_group_IT_number 38
_symmetry_cell_setting 'orthorhombic'
loop_
_space_group_symop_operation_xyz
x,y,z
-x,-y,z
-x,y,z
x,-y,z
x,1/2+y,1/2+z
-x,1/2-y,1/2+z
-x,1/2+y,1/2+z
x,1/2-y,1/2+z
loop_
_atom_site_type_symbol
_atom_site_label
_atom_site_fract_x
_atom_site_fract_y
_atom_site_fract_z
Si Si1 0.197519 0.833366 0.768230
Si Si2 0.300723 0.156285 0.114047
Si Si3 0.000000 0.166970 0.392849
Si Si4 0.000000 0.670144 0.982169
Si Si5 0.197043 0.348261 0.183349
Si Si6 0.699156 0.666422 0.525025
Si Si7 0.309046 0.337707 0.839878
O O1 0.270597 0.789343 0.724791
O O2 0.308474 0.750024 0.799876
O O3 0.000000 0.787726 0.774159
O O4 0.221982 0.000000 0.774364
O O5 0.500000 0.155906 0.124134
O O6 0.207781 0.249334 0.146065
O O7 0.268891 0.211607 0.070115
O O8 0.223293 0.000000 0.117689
O O9 0.000000 0.220783 0.437274
O O10 0.829144 0.223839 0.370900
O O11 0.000000 0.000000 0.393465
O O12 0.000000 0.500000 0.987516
O O13 0.826645 0.735989 0.000254
O O14 0.283639 0.500000 0.173044
O O15 0.000000 0.375169 0.193234
O O16 0.500000 0.696820 0.513439
O O17 0.739365 0.500000 0.519114
O O18 0.500000 0.324173 0.858446
O O19 0.265199 0.500000 0.829939
#
# Coordination Sequence:
#
# PCOD8179486 Si02
#       7
#     8   8   4   4   8   8   8
#     4   9  18  34  53  74 107 148 183 222 272 322
#     4   9  19  35  53  74 103 141 184 227 268 315
#     4   9  20  39  57  80 115 144 171 218 279 333
#     4  11  23  37  61  92 115 144 185 232 287 343
#     4   9  19  33  49  74 108 143 180 221 267 319
#     4   9  20  40  61  82 115 155 191 231 281 338
#     4  10  20  35  58  83 106 140 183 223 267 323
#
# _framework density 19.117763
#
# number of rings (size 3 to 8) (size 9 to 14) (size 15 to 20)
#    0.000    2.667    0.833    2.250    1.167    4.000 
#    0.000   10.000    0.000    0.000    0.000    0.000 
#    0.000    0.000    0.000    0.000    0.000    0.000 
#
# Total GULP energy -297428.622998 kJ/mol
# GULP energy per Si atom -12392.859292 kJ/mol
# Density = 1.907425 g / cm^3
# Si number density = 19.117763 Si / 1000 Ang^3
#
#
#
# Elastic Constant Matrix: (Units=GPa)
#
#
# Indices 1 2 3 4 5 6 
#
# 1 98.2510 39.3533 59.6861 0.0000 0.0000 0.0000
# 2 39.3533 66.8426 56.5436 0.0000 0.0000 0.0000
# 3 59.6861 56.5436 142.2312 0.0000 0.0000 0.0000
# 4 0.0000 0.0000 0.0000 30.7829 0.0000 0.0000
# 5 0.0000 0.0000 0.0000 0.0000 12.9456 0.0000
# 6 0.0000 0.0000 0.0000 0.0000 0.0000 17.3702
#
#
#
# Elastic Compliance Matrix: (Units=1/GPa)
#
#
# Indices 1 2 3 4 5 6 
#
# 1 0.014771 -0.005202 -0.004130 0.000000 0.000000 0.000000
# 2 -0.005202 0.024373 -0.007506 0.000000 0.000000 0.000000
# 3 -0.004130 -0.007506 0.011748 0.000000 0.000000 0.000000
# 4 0.000000 0.000000 0.000000 0.032486 0.000000 0.000000
# 5 0.000000 0.000000 0.000000 0.000000 0.077247 0.000000
# 6 0.000000 0.000000 0.000000 0.000000 0.000000 0.057570
#
#
# Mechanical properties :
#
#
# Convention : Reuss Voigt Hill
#
# Bulk Modulus (GPa) = 58.09163 68.72121 63.40642
# Shear Modulus (GPa) = 19.40916 22.33585 20.87250
#
# Velocity S-wave (km/s) = 3.18974 3.42179 3.30780
# Velocity P-wave (km/s) = 6.63462 7.18581 6.91571
#
# Compressibility (1/GPa) = 0.01721418
#
# Stress axis : x y z
#
# Youngs Moduli (GPa) = 67.70083 41.02868 85.11974
#
# Poissons Ratio (x) = 0.21345 0.35157
# Poissons Ratio (y) = 0.35221 0.63894
# Poissons Ratio (z) = 0.27962 0.30798
#
# Static dielectric constant tensor:
#      x y z
#    x 3.454440 0.000000 0.000000 
#    y 0.000000 3.369300 0.000000 
#    z 0.000000 0.000000 3.557100 
# 
# 
# High freq. dielectric constant tensor:
#      x y z
#    x 1.744880 0.000000 0.000000 
#    y 0.000000 1.726260 0.000000 
#    z 0.000000 0.000000 1.742540 
# 
# From -- ./inp_files/24407.got.cif
#   From: 2010.03.12/outbox.cif.g09.slc.cpg/sg38_13_cif.got.tgz:24407.got - 2010.04.14 02:38:36.
