data_PCOD8179005
_publ_section_title
;
Structure prediction by ZEFSAII (Michael W. Deem and Ramdas Pophale) SiO2 
 PCOD8179005
Probable space group: A M M 2
;
_chemical_formula_sum "Si O2"
_cell_formula_units_Z 48
_cell_length_a 9.040069
_cell_length_b 9.340534
_cell_length_c 30.911681
_cell_angle_alpha 90.000000
_cell_angle_beta 90.000000
_cell_angle_gamma 90.000000
_cell_volume 2610.153653
_symmetry_space_group_name_H-M "A M M 2"
_symmetry_group_IT_number 38
_symmetry_cell_setting 'orthorhombic'
loop_
_space_group_symop_operation_xyz
x,y,z
-x,-y,z
-x,y,z
x,-y,z
x,1/2+y,1/2+z
-x,1/2-y,1/2+z
-x,1/2+y,1/2+z
x,1/2-y,1/2+z
loop_
_atom_site_type_symbol
_atom_site_label
_atom_site_fract_x
_atom_site_fract_y
_atom_site_fract_z
Si Si1 0.326619 0.333301 0.047230
Si Si2 0.666763 0.170138 0.209762
Si Si3 0.331244 0.668682 0.369315
Si Si4 0.827554 0.165872 0.295134
Si Si5 0.324698 0.841921 0.965557
Si Si6 0.826047 0.834325 0.123624
O O1 0.500000 0.303057 0.054180
O O2 0.289873 0.500000 0.047402
O O3 0.236097 0.257892 0.084666
O O4 0.269882 0.270110 0.001491
O O5 0.500000 0.229710 0.208044
O O6 0.744626 0.228710 0.253016
O O7 0.753870 0.225286 0.167697
O O8 0.670171 0.000000 0.210441
O O9 0.500000 0.720346 0.362019
O O10 0.319413 0.500000 0.361666
O O11 0.223436 0.749057 0.337012
O O12 0.275005 0.708014 0.417715
O O13 0.000000 0.189729 0.287600
O O14 0.788637 0.000000 0.302219
O O15 0.500000 0.852117 0.965276
O O16 0.259699 0.000000 0.976226
O O17 0.000000 0.812728 0.127326
O O18 0.784055 0.000000 0.115814
#
# Coordination Sequence:
#
# PCOD8179005 Si02
#       6
#     8   8   8   8   8   8
#     4  10  20  33  51  77 106 134 167 209 256 304
#     4   9  17  31  53  78 101 129 168 212 254 296
#     4   9  18  33  53  77 103 132 170 214 256 300
#     4  10  20  33  50  75 107 139 170 206 250 301
#     4   8  15  30  52  75  99 130 170 214 255 296
#     4  10  20  34  53  76 102 134 171 209 251 301
#
# _framework density 18.389721999999999
#
# number of rings (size 3 to 8) (size 9 to 14) (size 15 to 20)
#    0.000    2.667    0.000    3.000    0.000    6.000 
#    0.000    3.333    0.000    6.000    0.000    0.000 
#    0.000    0.000    0.000    0.000    0.000    0.000 
#
# Total GULP energy -297591.278213 kJ/mol
# GULP energy per Si atom -12399.636592 kJ/mol
# Density = 1.834787 g / cm^3
# Si number density = 18.389722 Si / 1000 Ang^3
#
#
#
# Elastic Constant Matrix: (Units=GPa)
#
#
# Indices 1 2 3 4 5 6 
#
# 1 79.4956 40.8373 64.1537 0.0000 0.0000 0.0000
# 2 40.8373 64.2344 65.3549 0.0000 0.0000 0.0000
# 3 64.1537 65.3549 175.4885 0.0000 0.0000 0.0000
# 4 0.0000 0.0000 0.0000 28.6268 0.0000 0.0000
# 5 0.0000 0.0000 0.0000 0.0000 7.6898 0.0000
# 6 0.0000 0.0000 0.0000 0.0000 0.0000 23.4428
#
#
#
# Elastic Compliance Matrix: (Units=1/GPa)
#
#
# Indices 1 2 3 4 5 6 
#
# 1 0.020473 -0.008696 -0.004246 0.000000 0.000000 0.000000
# 2 -0.008696 0.028759 -0.007531 0.000000 0.000000 0.000000
# 3 -0.004246 -0.007531 0.010055 0.000000 0.000000 0.000000
# 4 0.000000 0.000000 0.000000 0.034932 0.000000 0.000000
# 5 0.000000 0.000000 0.000000 0.000000 0.130042 0.000000
# 6 0.000000 0.000000 0.000000 0.000000 0.000000 0.042657
#
#
# Mechanical properties :
#
#
# Convention : Reuss Voigt Hill
#
# Bulk Modulus (GPa) = 54.52197 73.32336 63.92266
# Shear Modulus (GPa) = 15.92464 21.87674 18.90069
#
# Velocity S-wave (km/s) = 2.94590 3.45283 3.20939
# Velocity P-wave (km/s) = 6.42523 7.47359 6.96915
#
# Compressibility (1/GPa) = 0.01834123
#
# Stress axis : x y z
#
# Youngs Moduli (GPa) = 48.84534 34.77148 99.44907
#
# Poissons Ratio (x) = 0.30236 0.42224
# Poissons Ratio (y) = 0.42475 0.74900
# Poissons Ratio (z) = 0.20739 0.26188
#
# Static dielectric constant tensor:
#      x y z
#    x 3.245070 0.000000 0.000000 
#    y 0.000000 3.203560 0.000000 
#    z 0.000000 0.000000 3.663360 
# 
# 
# High freq. dielectric constant tensor:
#      x y z
#    x 1.699240 0.000000 0.000000 
#    y 0.000000 1.687920 0.000000 
#    z 0.000000 0.000000 1.730480 
# 
# From -- ./inp_files/24277.got.cif
#   From: 2010.03.12/outbox.cif.g09.slc.cpg/sg38_13_cif.got.tgz:24277.got - 2010.04.14 02:38:36.
