data_PCOD8179110
_publ_section_title
;
Structure prediction by ZEFSAII (Michael W. Deem and Ramdas Pophale) SiO2 
 PCOD8179110
Probable space group: A M M 2
;
_chemical_formula_sum "Si O2"
_cell_formula_units_Z 64
_cell_length_a 23.856963
_cell_length_b 9.247659
_cell_length_c 15.353456
_cell_angle_alpha 90.000000
_cell_angle_beta 90.000000
_cell_angle_gamma 90.000000
_cell_volume 3387.295716
_symmetry_space_group_name_H-M "A M M 2"
_symmetry_group_IT_number 38
_symmetry_cell_setting 'orthorhombic'
loop_
_space_group_symop_operation_xyz
x,y,z
-x,-y,z
-x,y,z
x,-y,z
x,1/2+y,1/2+z
-x,1/2-y,1/2+z
-x,1/2+y,1/2+z
x,1/2-y,1/2+z
loop_
_atom_site_type_symbol
_atom_site_label
_atom_site_fract_x
_atom_site_fract_y
_atom_site_fract_z
Si Si1 0.866934 0.328756 0.905610
Si Si2 0.741397 0.662089 0.889578
Si Si3 0.747104 0.836274 0.591316
Si Si4 0.563654 0.828343 0.000922
Si Si5 0.373353 0.166031 0.649152
Si Si6 0.637494 0.333456 0.342029
Si Si7 0.062750 0.328496 0.741523
Si Si8 0.141127 0.827751 0.084285
O O1 0.870672 0.500000 0.925405
O O2 0.805069 0.289107 0.870346
O O3 0.910200 0.275151 0.832276
O O4 0.879732 0.243533 0.994444
O O5 0.731823 0.500000 0.856117
O O6 0.698421 0.761610 0.838134
O O7 0.729067 0.675966 0.991432
O O8 0.692287 0.790660 0.645296
O O9 0.797513 0.727282 0.612861
O O10 0.766618 0.000000 0.612942
O O11 0.500000 0.774795 0.990957
O O12 0.588675 0.766404 0.089671
O O13 0.566852 0.000000 0.005812
O O14 0.597918 0.767948 0.917563
O O15 0.392851 0.188579 0.748969
O O16 0.380868 0.000000 0.619169
O O17 0.648604 0.500000 0.361374
O O18 0.061735 0.500000 0.742393
O O19 0.098091 0.275577 0.658592
O O20 0.000000 0.264659 0.734816
O O21 0.142840 0.000000 0.073957
#
# Coordination Sequence:
#
# PCOD8179110 Si02
#       8
#     8   8   8   8   8   8   8   8
#     4   9  19  36  55  77 108 147 183 221 272 327
#     4   9  17  31  53  78 109 142 177 221 267 320
#     4   9  18  34  54  78 113 147 178 220 272 328
#     4  10  22  40  58  79 112 148 182 225 271 319
#     4  10  21  37  57  83 110 144 185 223 268 324
#     4  10  21  35  55  83 111 141 177 220 273 323
#     4   9  19  36  56  78 108 148 190 225 267 331
#     4  10  20  33  54  83 109 139 182 230 277 321
#
# _framework density 18.894127999999998
#
# number of rings (size 3 to 8) (size 9 to 14) (size 15 to 20)
#    0.000    2.500    1.250    1.125    1.750    4.250 
#    0.000    2.500    0.000    2.625    0.000    0.000 
#    0.000    0.000    0.000    0.000    0.000    0.000 
#
# Total GULP energy -396787.220038 kJ/mol
# GULP energy per Si atom -12399.600626 kJ/mol
# Density = 1.885112 g / cm^3
# Si number density = 18.894128 Si / 1000 Ang^3
#
#
#
# Elastic Constant Matrix: (Units=GPa)
#
#
# Indices 1 2 3 4 5 6 
#
# 1 118.5088 37.8319 66.1064 0.0000 0.0000 0.0000
# 2 37.8319 45.2205 35.7582 0.0000 0.0000 0.0000
# 3 66.1064 35.7582 104.3115 0.0000 0.0000 0.0000
# 4 0.0000 0.0000 0.0000 25.3289 0.0000 0.0000
# 5 0.0000 0.0000 0.0000 0.0000 24.0109 0.0000
# 6 0.0000 0.0000 0.0000 0.0000 0.0000 23.8763
#
#
#
# Elastic Compliance Matrix: (Units=1/GPa)
#
#
# Indices 1 2 3 4 5 6 
#
# 1 0.014361 -0.006609 -0.006835 0.000000 0.000000 0.000000
# 2 -0.006609 0.033379 -0.007254 0.000000 0.000000 0.000000
# 3 -0.006835 -0.007254 0.016405 0.000000 0.000000 0.000000
# 4 0.000000 0.000000 0.000000 0.039481 0.000000 0.000000
# 5 0.000000 0.000000 0.000000 0.000000 0.041648 0.000000
# 6 0.000000 0.000000 0.000000 0.000000 0.000000 0.041883
#
#
# Mechanical properties :
#
#
# Convention : Reuss Voigt Hill
#
# Bulk Modulus (GPa) = 43.95961 60.82597 52.39279
# Shear Modulus (GPa) = 21.17415 23.19950 22.18683
#
# Velocity S-wave (km/s) = 3.35128 3.50790 3.43048
# Velocity P-wave (km/s) = 6.18802 6.97639 6.59400
#
# Compressibility (1/GPa) = 0.02274816
#
# Stress axis : x y z
#
# Youngs Moduli (GPa) = 69.63250 29.95861 60.95631
#
# Poissons Ratio (x) = 0.19801 0.41666
# Poissons Ratio (y) = 0.46024 0.44217
# Poissons Ratio (z) = 0.47597 0.21731
#
# Static dielectric constant tensor:
#      x y z
#    x 3.532290 0.000000 0.000000 
#    y 0.000000 3.239450 0.000000 
#    z 0.000000 0.000000 3.480310 
# 
# 
# High freq. dielectric constant tensor:
#      x y z
#    x 1.730750 0.000000 0.000000 
#    y 0.000000 1.712720 0.000000 
#    z 0.000000 0.000000 1.739490 
# 
# From -- ./inp_files/15767.got.cif
#   From: 2010.03.12/outbox.cif.g09.slc.cpg/sg38_8_cif.got.tgz:15767.got - 2010.04.14 02:38:36.
