data_PCOD8179915
_publ_section_title
;
Structure prediction by ZEFSAII (Michael W. Deem and Ramdas Pophale) SiO2 
 PCOD8179915
Probable space group: A M M 2
;
_chemical_formula_sum "Si O2"
_cell_formula_units_Z 48
_cell_length_a 16.378377
_cell_length_b 7.950894
_cell_length_c 19.198674
_cell_angle_alpha 90.000000
_cell_angle_beta 90.000000
_cell_angle_gamma 90.000000
_cell_volume 2500.103921
_symmetry_space_group_name_H-M "A M M 2"
_symmetry_group_IT_number 38
_symmetry_cell_setting 'orthorhombic'
loop_
_space_group_symop_operation_xyz
x,y,z
-x,-y,z
-x,y,z
x,-y,z
x,1/2+y,1/2+z
-x,1/2-y,1/2+z
-x,1/2+y,1/2+z
x,1/2-y,1/2+z
loop_
_atom_site_type_symbol
_atom_site_label
_atom_site_fract_x
_atom_site_fract_y
_atom_site_fract_z
Si Si1 0.091079 0.808045 0.772790
Si Si2 0.221899 0.810926 0.379724
Si Si3 0.599966 0.000000 0.544109
Si Si4 0.411593 0.500000 0.196823
Si Si5 0.655722 0.316701 0.760169
Si Si6 0.714757 0.694446 0.517584
Si Si7 0.197991 0.185994 0.154772
O O1 0.141439 0.716716 0.833397
O O2 0.131480 0.796762 0.695838
O O3 0.000000 0.730647 0.770128
O O4 0.087863 0.000000 0.794733
O O5 0.301381 0.778938 0.333003
O O6 0.231595 0.692954 0.446891
O O7 0.219045 0.000000 0.407599
O O8 0.636422 0.000000 0.623672
O O9 0.638652 0.172756 0.511300
O O10 0.500000 0.000000 0.533338
O O11 0.500000 0.500000 0.164656
O O12 0.404353 0.336184 0.245147
O O13 0.611161 0.500000 0.762429
O O14 0.719737 0.318056 0.698377
O O15 0.684389 0.500000 0.531005
O O16 0.777544 0.753293 0.578376
O O17 0.160073 0.000000 0.149086
#
# Coordination Sequence:
#
# PCOD8179915 Si02
#       7
#     8   8   4   4   8   8   8
#     4  10  21  35  56  89 122 153 192 242 297 351
#     4  10  21  36  60  84 111 155 202 238 291 350
#     4  11  24  40  60  88 120 153 194 251 307 352
#     4  11  22  34  58  86 108 149 188 235 303 344
#     4   9  19  35  54  80 109 142 189 240 279 342
#     4  11  22  38  61  88 115 155 205 246 288 355
#     4   9  19  34  56  83 107 147 195 236 285 341
#
# _framework density 19.199203000000001
#
# number of rings (size 3 to 8) (size 9 to 14) (size 15 to 20)
#    0.000    2.000    2.500    2.000    7.000    2.000 
#    0.000    3.333    0.000    1.000    0.000    0.000 
#    0.000    0.000    0.000    0.000    0.000    0.000 
#
# Total GULP energy -297314.303104 kJ/mol
# GULP energy per Si atom -12388.095963 kJ/mol
# Density = 1.915550 g / cm^3
# Si number density = 19.199203 Si / 1000 Ang^3
#
#
#
# Elastic Constant Matrix: (Units=GPa)
#
#
# Indices 1 2 3 4 5 6 
#
# 1 81.3118 37.0613 34.8104 0.0000 0.0000 0.0000
# 2 37.0613 94.8728 31.3475 0.0000 0.0000 0.0000
# 3 34.8104 31.3475 122.2135 0.0000 0.0000 0.0000
# 4 0.0000 0.0000 0.0000 24.2975 0.0000 0.0000
# 5 0.0000 0.0000 0.0000 0.0000 15.3435 0.0000
# 6 0.0000 0.0000 0.0000 0.0000 0.0000 -228.9125
#
#
#
# Elastic Compliance Matrix: (Units=1/GPa)
#
#
# Indices 1 2 3 4 5 6 
#
# 1 0.016056 -0.005202 -0.003239 0.000000 0.000000 0.000000
# 2 -0.005202 0.013202 -0.001905 0.000000 0.000000 0.000000
# 3 -0.003239 -0.001905 0.009593 0.000000 0.000000 0.000000
# 4 0.000000 0.000000 0.000000 0.041157 0.000000 0.000000
# 5 0.000000 0.000000 0.000000 0.000000 0.065174 0.000000
# 6 0.000000 0.000000 0.000000 0.000000 0.000000 -0.004368
#
#
# Mechanical properties :
#
#
# Convention : Reuss Voigt Hill
#
# Bulk Modulus (GPa) = 55.06505 56.09294 55.57899
# Shear Modulus (GPa) = 29.84040 -24.84239 2.49900
#
# Velocity S-wave (km/s) = 3.94668 -3.60102 1.14212
# Velocity P-wave (km/s) = 7.03644 3.46264 5.54533
#
# Compressibility (1/GPa) = 0.01816034
#
# Stress axis : x y z
#
# Youngs Moduli (GPa) = 62.28207 75.74713 104.23734
#
# Poissons Ratio (x) = 0.39403 0.33762
# Poissons Ratio (y) = 0.32399 0.19853
# Poissons Ratio (z) = 0.20173 0.14426
#
# Static dielectric constant tensor:
#      x y z
#    x 3.311230 0.000000 0.000000 
#    y 0.000000 3.761130 0.000000 
#    z 0.000000 0.000000 3.530220 
# 
# 
# High freq. dielectric constant tensor:
#      x y z
#    x 1.710260 0.000000 0.000000 
#    y 0.000000 1.758920 0.000000 
#    z 0.000000 0.000000 1.748130 
# 
# From -- ./inp_files/18198.got.cif
#   From: 2010.03.12/outbox.cif.g09.slc.cpg/sg38_10_cif.got.tgz:18198.got - 2010.04.14 02:38:36.
