data_PCOD8179848
_publ_section_title
;
Structure prediction by ZEFSAII (Michael W. Deem and Ramdas Pophale) SiO2 
 PCOD8179848
Probable space group: A M M 2
;
_chemical_formula_sum "Si O2"
_cell_formula_units_Z 40
_cell_length_a 9.296135
_cell_length_b 7.578068
_cell_length_c 28.867241
_cell_angle_alpha 90.000000
_cell_angle_beta 90.000000
_cell_angle_gamma 90.000000
_cell_volume 2033.603113
_symmetry_space_group_name_H-M "A M M 2"
_symmetry_group_IT_number 38
_symmetry_cell_setting 'orthorhombic'
loop_
_space_group_symop_operation_xyz
x,y,z
-x,-y,z
-x,y,z
x,-y,z
x,1/2+y,1/2+z
-x,1/2-y,1/2+z
-x,1/2+y,1/2+z
x,1/2-y,1/2+z
loop_
_atom_site_type_symbol
_atom_site_label
_atom_site_fract_x
_atom_site_fract_y
_atom_site_fract_z
Si Si1 0.341125 0.706952 0.258440
Si Si2 0.172031 0.500000 0.919401
Si Si3 0.156568 0.201661 0.173071
Si Si4 0.665814 0.297071 0.587127
Si Si5 0.667729 0.295255 0.363694
Si Si6 0.666825 0.500000 0.014318
O O1 0.500000 0.785643 0.248838
O O2 0.345217 0.500000 0.251222
O O3 0.229193 0.788872 0.223101
O O4 0.294150 0.752650 0.310677
O O5 0.231967 0.323685 0.895577
O O6 0.000000 0.500000 0.917349
O O7 0.224865 0.500000 0.971879
O O8 0.250498 0.283482 0.131535
O O9 0.000000 0.295229 0.175103
O O10 0.136235 0.000000 0.160145
O O11 0.500000 0.281270 0.600827
O O12 0.706487 0.500000 0.575126
O O13 0.701877 0.176501 0.543168
O O14 0.500000 0.255386 0.373667
O O15 0.701369 0.500000 0.374127
O O16 0.500000 0.500000 0.998131
#
# Coordination Sequence:
#
# PCOD8179848 Si02
#       6
#     8   4   8   8   8   4
#     4   9  19  35  56  82 110 146 194 241 285 334
#     4  12  26  40  60  92 126 158 194 242 309 378
#     4  10  21  34  50  79 118 155 188 225 282 351
#     4   9  19  37  59  82 110 146 192 245 292 334
#     4   9  20  41  65  87 115 155 205 255 297 345
#     4  10  22  40  62  86 110 146 202 252 291 348
#
# _framework density 19.669521
#
# number of rings (size 3 to 8) (size 9 to 14) (size 15 to 20)
#    0.000    2.400    0.000    2.700    2.800    4.400 
#    0.000    4.000    0.000    0.000    0.000    0.000 
#    0.000    0.000    0.000    0.000    0.000    0.000 
#
# Total GULP energy -247950.609855 kJ/mol
# GULP energy per Si atom -12397.530493 kJ/mol
# Density = 1.962475 g / cm^3
# Si number density = 19.669521 Si / 1000 Ang^3
#
#
#
# Elastic Constant Matrix: (Units=GPa)
#
#
# Indices 1 2 3 4 5 6 
#
# 1 140.5270 54.8296 93.8628 0.0000 0.0000 0.0000
# 2 54.8296 85.6146 57.9148 0.0000 0.0000 0.0000
# 3 93.8628 57.9148 142.5825 0.0000 0.0000 0.0000
# 4 0.0000 0.0000 0.0000 43.2285 0.0000 0.0000
# 5 0.0000 0.0000 0.0000 0.0000 -25.2183 0.0000
# 6 0.0000 0.0000 0.0000 0.0000 0.0000 13.8441
#
#
#
# Elastic Compliance Matrix: (Units=1/GPa)
#
#
# Indices 1 2 3 4 5 6 
#
# 1 0.013469 -0.003624 -0.007395 0.000000 0.000000 0.000000
# 2 -0.003624 0.017080 -0.004552 0.000000 0.000000 0.000000
# 3 -0.007395 -0.004552 0.013731 0.000000 0.000000 0.000000
# 4 0.000000 0.000000 0.000000 0.023133 0.000000 0.000000
# 5 0.000000 0.000000 0.000000 0.000000 -0.039654 0.000000
# 6 0.000000 0.000000 0.000000 0.000000 0.000000 0.072233
#
#
# Mechanical properties :
#
#
# Convention : Reuss Voigt Hill
#
# Bulk Modulus (GPa) = 76.11253 86.88205 81.49729
# Shear Modulus (GPa) = 36.89647 17.17865 27.03756
#
# Velocity S-wave (km/s) = 4.33577 2.95848 3.71157
# Velocity P-wave (km/s) = 7.99030 7.47910 7.73892
#
# Compressibility (1/GPa) = 0.01313844
#
# Stress axis : x y z
#
# Youngs Moduli (GPa) = 74.24273 58.54673 72.82891
#
# Poissons Ratio (x) = 0.21215 0.53858
# Poissons Ratio (y) = 0.26903 0.33154
# Poissons Ratio (z) = 0.54903 0.26653
#
# Static dielectric constant tensor:
#      x y z
#    x 4.258840 0.000000 0.000000 
#    y 0.000000 3.469880 0.000000 
#    z 0.000000 0.000000 3.585510 
# 
# 
# High freq. dielectric constant tensor:
#      x y z
#    x 1.758340 0.000000 0.000000 
#    y 0.000000 1.769560 0.000000 
#    z 0.000000 0.000000 1.763800 
# 
# From -- ./inp_files/23242.got.cif
#   From: 2010.03.12/outbox.cif.g09.slc.cpg/sg38_12_cif.got.tgz:23242.got - 2010.04.14 02:38:36.
