data_PCOD8179010
_publ_section_title
;
Structure prediction by ZEFSAII (Michael W. Deem and Ramdas Pophale) SiO2 
 PCOD8179010
Probable space group: A M M 2
;
_chemical_formula_sum "Si O2"
_cell_formula_units_Z 56
_cell_length_a 8.814791
_cell_length_b 16.705175
_cell_length_c 19.758285
_cell_angle_alpha 90.000000
_cell_angle_beta 90.000000
_cell_angle_gamma 90.000000
_cell_volume 2909.459356
_symmetry_space_group_name_H-M "A M M 2"
_symmetry_group_IT_number 38
_symmetry_cell_setting 'orthorhombic'
loop_
_space_group_symop_operation_xyz
x,y,z
-x,-y,z
-x,y,z
x,-y,z
x,1/2+y,1/2+z
-x,1/2-y,1/2+z
-x,1/2+y,1/2+z
x,1/2-y,1/2+z
loop_
_atom_site_type_symbol
_atom_site_label
_atom_site_fract_x
_atom_site_fract_y
_atom_site_fract_z
Si Si1 0.672238 0.087010 0.414910
Si Si2 0.680355 0.000000 0.875848
Si Si3 0.176981 0.340718 0.318013
Si Si4 0.323250 0.000000 0.029403
Si Si5 0.322706 0.172343 0.065216
Si Si6 0.825216 0.737446 0.947933
Si Si7 0.323816 0.765310 0.208929
Si Si8 0.172532 0.410596 0.774569
O O1 0.500000 0.101816 0.390359
O O2 0.725477 0.158232 0.463898
O O3 0.788300 0.088768 0.353190
O O4 0.684028 0.000000 0.451428
O O5 0.736271 0.078133 0.835673
O O6 0.500000 0.000000 0.874695
O O7 0.747275 0.000000 0.952810
O O8 0.211884 0.272549 0.373699
O O9 0.230969 0.305387 0.245571
O O10 0.000000 0.360611 0.314146
O O11 0.278022 0.921689 0.073427
O O12 0.500000 0.000000 0.015807
O O13 0.500000 0.181194 0.047756
O O14 0.220980 0.197808 0.002617
O O15 0.280588 0.227084 0.129717
O O16 0.000000 0.715611 0.955597
O O17 0.500000 0.746806 0.219130
O O18 0.288415 0.852850 0.237464
O O19 0.190330 0.500000 0.744512
O O20 0.000000 0.379252 0.766343
#
# Coordination Sequence:
#
# PCOD8179010 Si02
#       8
#     8   4   8   4   8   8   8   8
#     4  10  20  34  56  84 111 143 188 240 288 339
#     4  11  21  37  67  95 119 152 203 258 309 363
#     4  11  23  39  60  88 124 158 198 249 304 363
#     4   9  18  35  59  89 123 158 193 244 305 357
#     4  10  22  39  59  85 120 158 200 247 299 363
#     4  11  22  36  58  86 117 155 194 241 298 360
#     4  11  23  37  59  86 116 158 203 246 293 354
#     4  10  20  33  50  77 115 152 186 227 277 334
#
# _framework density 19.247563
#
# number of rings (size 3 to 8) (size 9 to 14) (size 15 to 20)
#    0.000    1.571    2.857    2.357    1.000    4.000 
#    0.000    0.357    1.571    0.000    0.000    0.000 
#    0.000    0.000    0.000    0.000    0.000    0.000 
#
# Total GULP energy -347131.623795 kJ/mol
# GULP energy per Si atom -12397.557993 kJ/mol
# Density = 1.920375 g / cm^3
# Si number density = 19.247563 Si / 1000 Ang^3
#
#
#
# Elastic Constant Matrix: (Units=GPa)
#
#
# Indices 1 2 3 4 5 6 
#
# 1 72.2956 46.7879 31.4422 0.0000 0.0000 0.0000
# 2 46.7879 110.1679 30.0810 0.0000 0.0000 0.0000
# 3 31.4422 30.0810 74.4698 0.0000 0.0000 0.0000
# 4 0.0000 0.0000 0.0000 27.4865 0.0000 0.0000
# 5 0.0000 0.0000 0.0000 0.0000 21.2770 0.0000
# 6 0.0000 0.0000 0.0000 0.0000 0.0000 31.3012
#
#
#
# Elastic Compliance Matrix: (Units=1/GPa)
#
#
# Indices 1 2 3 4 5 6 
#
# 1 0.021202 -0.007373 -0.005973 0.000000 0.000000 0.000000
# 2 -0.007373 0.012767 -0.002044 0.000000 0.000000 0.000000
# 3 -0.005973 -0.002044 0.016776 0.000000 0.000000 0.000000
# 4 0.000000 0.000000 0.000000 0.036381 0.000000 0.000000
# 5 0.000000 0.000000 0.000000 0.000000 0.046999 0.000000
# 6 0.000000 0.000000 0.000000 0.000000 0.000000 0.031948
#
#
# Mechanical properties :
#
#
# Convention : Reuss Voigt Hill
#
# Bulk Modulus (GPa) = 50.09182 52.61728 51.35455
# Shear Modulus (GPa) = 24.56910 25.92109 25.24509
#
# Velocity S-wave (km/s) = 3.57666 3.67375 3.62553
# Velocity P-wave (km/s) = 6.56797 6.73734 6.65319
#
# Compressibility (1/GPa) = 0.01996334
#
# Stress axis : x y z
#
# Youngs Moduli (GPa) = 47.16579 78.32992 59.60955
#
# Poissons Ratio (x) = 0.57755 0.35607
# Poissons Ratio (y) = 0.34777 0.12183
# Poissons Ratio (z) = 0.28174 0.16008
#
# Static dielectric constant tensor:
#      x y z
#    x 3.483110 0.000000 0.000000 
#    y 0.000000 3.739610 0.000000 
#    z 0.000000 0.000000 3.288270 
# 
# 
# High freq. dielectric constant tensor:
#      x y z
#    x 1.752870 0.000000 0.000000 
#    y 0.000000 1.756850 0.000000 
#    z 0.000000 0.000000 1.717680 
# 
# From -- ./inp_files/19844.got.cif
#   From: 2010.03.12/outbox.cif.g09.slc.cpg/sg38_10_cif.got.tgz:19844.got - 2010.04.14 02:38:36.
