data_PCOD8179682
_publ_section_title
;
Structure prediction by ZEFSAII (Michael W. Deem and Ramdas Pophale) SiO2 
 PCOD8179682
Probable space group: A M M 2
;
_chemical_formula_sum "Si O2"
_cell_formula_units_Z 64
_cell_length_a 14.694304
_cell_length_b 9.294020
_cell_length_c 24.928111
_cell_angle_alpha 90.000000
_cell_angle_beta 90.000000
_cell_angle_gamma 90.000000
_cell_volume 3404.411062
_symmetry_space_group_name_H-M "A M M 2"
_symmetry_group_IT_number 38
_symmetry_cell_setting 'orthorhombic'
loop_
_space_group_symop_operation_xyz
x,y,z
-x,-y,z
-x,y,z
x,-y,z
x,1/2+y,1/2+z
-x,1/2-y,1/2+z
-x,1/2+y,1/2+z
x,1/2-y,1/2+z
loop_
_atom_site_type_symbol
_atom_site_label
_atom_site_fract_x
_atom_site_fract_y
_atom_site_fract_z
Si Si1 0.638514 0.160578 0.929970
Si Si2 0.599037 0.170584 0.044745
Si Si3 0.210108 0.170234 0.777637
Si Si4 0.101721 0.661953 0.866061
Si Si5 0.791913 0.831058 0.078844
Si Si6 0.843339 0.659415 0.459184
Si Si7 0.401341 0.670703 0.314637
Si Si8 0.894591 0.169678 0.671999
O O1 0.746581 0.157716 0.930320
O O2 0.607211 0.238339 0.874828
O O3 0.598181 0.000000 0.929335
O O4 0.602172 0.237797 0.984380
O O5 0.500000 0.209966 0.070782
O O6 0.685564 0.223587 0.079936
O O7 0.611901 0.000000 0.038746
O O8 0.163821 0.241361 0.828597
O O9 0.316901 0.219055 0.776868
O O10 0.161255 0.224386 0.723727
O O11 0.198817 0.000000 0.784003
O O12 0.140761 0.500000 0.868337
O O13 0.096891 0.726305 0.926415
O O14 0.000000 0.662041 0.842536
O O15 0.850981 0.744932 0.121014
O O16 0.797801 0.000000 0.091760
O O17 0.834710 0.794753 0.021095
O O18 0.887267 0.500000 0.455699
O O19 0.500000 0.718302 0.290327
O O20 0.395718 0.500000 0.319835
O O21 0.000000 0.214990 0.678095
O O22 0.884847 0.000000 0.664572
#
# Coordination Sequence:
#
# PCOD8179682 Si02
#       8
#     8   8   8   8   8   8   8   8
#     4   8  12  21  41  72 105 135 167 203 241 289
#     4   8  13  23  43  74 110 141 169 204 249 304
#     4  10  20  37  58  78 103 136 177 221 261 310
#     4  11  23  35  50  77 109 140 173 213 267 322
#     4   9  19  34  55  82 107 133 175 225 265 303
#     4   9  17  32  52  76 107 141 174 211 257 310
#     4   9  15  24  46  80 109 132 165 210 255 300
#     4  10  22  39  57  75  98 136 182 224 272 324
#
# _framework density 18.799140000000001
#
# number of rings (size 3 to 8) (size 9 to 14) (size 15 to 20)
#    0.000    2.750    1.250    2.625    0.000    4.750 
#    0.000    3.125    0.000    1.500    0.000    0.000 
#    0.000    0.000    0.000    0.000    0.000    0.000 
#
# Total GULP energy -396461.803763 kJ/mol
# GULP energy per Si atom -12389.431368 kJ/mol
# Density = 1.875635 g / cm^3
# Si number density = 18.799140 Si / 1000 Ang^3
#
#
#
# Elastic Constant Matrix: (Units=GPa)
#
#
# Indices 1 2 3 4 5 6 
#
# 1 143.7756 25.9183 67.1307 0.0000 0.0000 0.0000
# 2 25.9183 33.1762 32.0578 0.0000 0.0000 0.0000
# 3 67.1307 32.0578 105.4934 0.0000 0.0000 0.0000
# 4 0.0000 0.0000 0.0000 23.1912 0.0000 0.0000
# 5 0.0000 0.0000 0.0000 0.0000 24.7245 0.0000
# 6 0.0000 0.0000 0.0000 0.0000 0.0000 14.4699
#
#
#
# Elastic Compliance Matrix: (Units=1/GPa)
#
#
# Indices 1 2 3 4 5 6 
#
# 1 0.010024 -0.002361 -0.005662 0.000000 0.000000 0.000000
# 2 -0.002361 0.043228 -0.011634 0.000000 0.000000 0.000000
# 3 -0.005662 -0.011634 0.016618 0.000000 0.000000 0.000000
# 4 0.000000 0.000000 0.000000 0.043120 0.000000 0.000000
# 5 0.000000 0.000000 0.000000 0.000000 0.040446 0.000000
# 6 0.000000 0.000000 0.000000 0.000000 0.000000 0.069109
#
#
# Mechanical properties :
#
#
# Convention : Reuss Voigt Hill
#
# Bulk Modulus (GPa) = 32.72553 59.18432 45.95492
# Shear Modulus (GPa) = 18.37943 22.96633 20.67288
#
# Velocity S-wave (km/s) = 3.13017 3.49903 3.31973
# Velocity P-wave (km/s) = 5.52356 6.91918 6.26038
#
# Compressibility (1/GPa) = 0.03055719
#
# Stress axis : x y z
#
# Youngs Moduli (GPa) = 99.75749 23.13306 60.17748
#
# Poissons Ratio (x) = 0.05461 0.34070
# Poissons Ratio (y) = 0.23548 0.70012
# Poissons Ratio (z) = 0.56479 0.26914
#
# Static dielectric constant tensor:
#      x y z
#    x 3.766020 0.000000 0.000000 
#    y 0.000000 2.988410 0.000000 
#    z 0.000000 0.000000 3.349090 
# 
# 
# High freq. dielectric constant tensor:
#      x y z
#    x 1.746060 0.000000 0.000000 
#    y 0.000000 1.673650 0.000000 
#    z 0.000000 0.000000 1.713640 
# 
# From -- ./inp_files/22887.got.cif
#   From: 2010.03.12/outbox.cif.g09.slc.cpg/sg38_12_cif.got.tgz:22887.got - 2010.04.14 02:38:36.
