data_PCOD8179245
_publ_section_title
;
Structure prediction by ZEFSAII (Michael W. Deem and Ramdas Pophale) SiO2 
 PCOD8179245
Probable space group: A M M 2
;
_chemical_formula_sum "Si O2"
_cell_formula_units_Z 48
_cell_length_a 8.947165
_cell_length_b 23.135553
_cell_length_c 11.829610
_cell_angle_alpha 90.000000
_cell_angle_beta 90.000000
_cell_angle_gamma 90.000000
_cell_volume 2448.700998
_symmetry_space_group_name_H-M "A M M 2"
_symmetry_group_IT_number 38
_symmetry_cell_setting 'orthorhombic'
loop_
_space_group_symop_operation_xyz
x,y,z
-x,-y,z
-x,y,z
x,-y,z
x,1/2+y,1/2+z
-x,1/2-y,1/2+z
-x,1/2+y,1/2+z
x,1/2-y,1/2+z
loop_
_atom_site_type_symbol
_atom_site_label
_atom_site_fract_x
_atom_site_fract_y
_atom_site_fract_z
Si Si1 0.171636 0.142252 0.170280
Si Si2 0.664281 0.933561 0.331127
Si Si3 0.174890 0.852984 0.907868
Si Si4 0.825514 0.272728 0.864719
Si Si5 0.677318 0.932826 0.735815
Si Si6 0.823496 0.374440 0.023353
O O1 0.276241 0.091265 0.213451
O O2 0.210822 0.199620 0.242850
O O3 0.000000 0.125190 0.191732
O O4 0.206559 0.150990 0.040311
O O5 0.500000 0.907599 0.360889
O O6 0.780766 0.922800 0.431896
O O7 0.648683 0.000000 0.309540
O O8 0.241265 0.791926 0.862436
O O9 0.263918 0.906805 0.854182
O O10 0.000000 0.861432 0.880445
O O11 0.000000 0.266073 0.885880
O O12 0.767186 0.313206 0.968952
O O13 0.500000 0.929798 0.731172
O O14 0.743175 0.890759 0.639689
O O15 0.729704 0.000000 0.723129
O O16 0.000000 0.374413 0.044877
#
# Coordination Sequence:
#
# PCOD8179245 Si02
#       6
#     8   8   8   8   8   8
#     4   9  19  35  55  83 113 144 188 237 283 339
#     4  10  20  34  54  80 113 152 188 229 285 340
#     4  10  21  37  61  86 112 150 195 241 287 346
#     4   8  17  34  59  88 115 142 180 235 297 346
#     4  11  25  42  57  80 120 163 199 239 292 349
#     4  10  20  36  62  90 114 146 190 241 290 342
#
# _framework density 19.602229999999999
#
# number of rings (size 3 to 8) (size 9 to 14) (size 15 to 20)
#    0.000    2.333    0.000    3.000    2.333    6.000 
#    0.000    7.500    0.000    0.000    0.000    0.000 
#    0.000    0.000    0.000    0.000    0.000    0.000 
#
# Total GULP energy -297469.950606 kJ/mol
# GULP energy per Si atom -12394.581275 kJ/mol
# Density = 1.955761 g / cm^3
# Si number density = 19.602230 Si / 1000 Ang^3
#
#
#
# Elastic Constant Matrix: (Units=GPa)
#
#
# Indices 1 2 3 4 5 6 
#
# 1 57.9442 34.4755 33.5625 0.0000 0.0000 0.0000
# 2 34.4755 95.1026 44.0670 0.0000 0.0000 0.0000
# 3 33.5625 44.0670 107.6018 0.0000 0.0000 0.0000
# 4 0.0000 0.0000 0.0000 20.7488 0.0000 0.0000
# 5 0.0000 0.0000 0.0000 0.0000 21.2690 0.0000
# 6 0.0000 0.0000 0.0000 0.0000 0.0000 11.6949
#
#
#
# Elastic Compliance Matrix: (Units=1/GPa)
#
#
# Indices 1 2 3 4 5 6 
#
# 1 0.023867 -0.006421 -0.004815 0.000000 0.000000 0.000000
# 2 -0.006421 0.014705 -0.004019 0.000000 0.000000 0.000000
# 3 -0.004815 -0.004019 0.012441 0.000000 0.000000 0.000000
# 4 0.000000 0.000000 0.000000 0.048196 0.000000 0.000000
# 5 0.000000 0.000000 0.000000 0.000000 0.047017 0.000000
# 6 0.000000 0.000000 0.000000 0.000000 0.000000 0.085507
#
#
# Mechanical properties :
#
#
# Convention : Reuss Voigt Hill
#
# Bulk Modulus (GPa) = 48.77324 53.87318 51.32321
# Shear Modulus (GPa) = 18.58192 20.64544 19.61368
#
# Velocity S-wave (km/s) = 3.08222 3.24885 3.16663
# Velocity P-wave (km/s) = 6.13207 6.45107 6.29359
#
# Compressibility (1/GPa) = 0.02050304
#
# Stress axis : x y z
#
# Youngs Moduli (GPa) = 41.89840 68.00349 80.37628
#
# Poissons Ratio (x) = 0.43665 0.38700
# Poissons Ratio (y) = 0.26903 0.32307
# Poissons Ratio (z) = 0.20174 0.27334
#
# Static dielectric constant tensor:
#      x y z
#    x 3.580390 0.000000 0.000000 
#    y 0.000000 3.779770 0.000000 
#    z 0.000000 0.000000 3.621450 
# 
# 
# High freq. dielectric constant tensor:
#      x y z
#    x 1.746720 0.000000 0.000000 
#    y 0.000000 1.764850 0.000000 
#    z 0.000000 0.000000 1.766120 
# 
# From -- ./inp_files/8140.got.cif
#   From: 2010.03.12/outbox.cif.g09.slc.cpg/sg38_5_cif.got.tgz:8140.got - 2010.04.14 02:38:36.
