data_PCOD8179740
_publ_section_title
;
Structure prediction by ZEFSAII (Michael W. Deem and Ramdas Pophale) SiO2 
 PCOD8179740
Probable space group: A M M 2
;
_chemical_formula_sum "Si O2"
_cell_formula_units_Z 40
_cell_length_a 7.752026
_cell_length_b 9.257284
_cell_length_c 28.652150
_cell_angle_alpha 90.000000
_cell_angle_beta 90.000000
_cell_angle_gamma 90.000000
_cell_volume 2056.155824
_symmetry_space_group_name_H-M "A M M 2"
_symmetry_group_IT_number 38
_symmetry_cell_setting 'orthorhombic'
loop_
_space_group_symop_operation_xyz
x,y,z
-x,-y,z
-x,y,z
x,-y,z
x,1/2+y,1/2+z
-x,1/2-y,1/2+z
-x,1/2+y,1/2+z
x,1/2-y,1/2+z
loop_
_atom_site_type_symbol
_atom_site_label
_atom_site_fract_x
_atom_site_fract_y
_atom_site_fract_z
Si Si1 0.000000 0.672652 0.344851
Si Si2 0.698825 0.331168 0.791922
Si Si3 0.308624 0.834080 0.013950
Si Si4 0.000000 0.671341 0.450742
Si Si5 0.700825 0.661925 0.685024
Si Si6 0.804454 0.161986 0.599666
O O1 0.825880 0.733894 0.322272
O O2 0.000000 0.728421 0.398106
O O3 0.000000 0.500000 0.340555
O O4 0.500000 0.294940 0.804762
O O5 0.735873 0.500000 0.800908
O O6 0.735722 0.291795 0.738176
O O7 0.500000 0.818169 0.992097
O O8 0.307439 0.751028 0.062899
O O9 0.264413 0.000000 0.025175
O O10 0.170896 0.770211 0.977154
O O11 0.000000 0.500000 0.450081
O O12 0.500000 0.668636 0.673507
O O13 0.770633 0.500000 0.676683
O O14 0.799295 0.770280 0.651137
O O15 0.000000 0.162772 0.581836
O O16 0.730677 0.000000 0.602389
#
# Coordination Sequence:
#
# PCOD8179740 Si02
#       6
#     4   8   8   4   8   8
#     4  11  23  37  60  91 120 149 186 239 302 355
#     4   9  20  40  62  85 116 155 199 241 282 337
#     4  10  20  37  62  84 105 143 192 233 274 329
#     4   9  20  39  58  83 114 143 182 235 286 335
#     4   9  19  36  57  80 107 146 195 235 269 321
#     4  11  23  35  50  80 120 153 182 223 280 339
#
# _framework density 19.453779000000001
#
# number of rings (size 3 to 8) (size 9 to 14) (size 15 to 20)
#    0.000    2.200    1.000    2.700    1.400    6.400 
#    0.000    6.000    0.000    0.000    0.000    0.000 
#    0.000    0.000    0.000    0.000    0.000    0.000 
#
# Total GULP energy -248009.697372 kJ/mol
# GULP energy per Si atom -12400.484869 kJ/mol
# Density = 1.940950 g / cm^3
# Si number density = 19.453779 Si / 1000 Ang^3
#
#
#
# Elastic Constant Matrix: (Units=GPa)
#
#
# Indices 1 2 3 4 5 6 
#
# 1 116.7060 48.3881 64.1002 0.0000 0.0000 0.0000
# 2 48.3881 92.0540 60.1773 0.0000 0.0000 0.0000
# 3 64.1002 60.1773 132.7576 0.0000 0.0000 0.0000
# 4 0.0000 0.0000 0.0000 26.5870 0.0000 0.0000
# 5 0.0000 0.0000 0.0000 0.0000 24.6705 0.0000
# 6 0.0000 0.0000 0.0000 0.0000 0.0000 24.8663
#
#
#
# Elastic Compliance Matrix: (Units=1/GPa)
#
#
# Indices 1 2 3 4 5 6 
#
# 1 0.012502 -0.003731 -0.004345 0.000000 0.000000 0.000000
# 2 -0.003731 0.016551 -0.005701 0.000000 0.000000 0.000000
# 3 -0.004345 -0.005701 0.012215 0.000000 0.000000 0.000000
# 4 0.000000 0.000000 0.000000 0.037612 0.000000 0.000000
# 5 0.000000 0.000000 0.000000 0.000000 0.040534 0.000000
# 6 0.000000 0.000000 0.000000 0.000000 0.000000 0.040215
#
#
# Mechanical properties :
#
#
# Convention : Reuss Voigt Hill
#
# Bulk Modulus (GPa) = 72.92088 76.31652 74.61870
# Shear Modulus (GPa) = 26.07488 26.48157 26.27823
#
# Velocity S-wave (km/s) = 3.66505 3.69352 3.67931
# Velocity P-wave (km/s) = 7.44820 7.58316 7.51598
#
# Compressibility (1/GPa) = 0.01371349
#
# Stress axis : x y z
#
# Youngs Moduli (GPa) = 79.98639 60.41834 81.86875
#
# Poissons Ratio (x) = 0.22543 0.35573
# Poissons Ratio (y) = 0.29845 0.46673
# Poissons Ratio (z) = 0.34755 0.34444
#
# Static dielectric constant tensor:
#      x y z
#    x 3.572610 0.000000 0.000000 
#    y 0.000000 3.405890 0.000000 
#    z 0.000000 0.000000 3.515600 
# 
# 
# High freq. dielectric constant tensor:
#      x y z
#    x 1.768280 0.000000 0.000000 
#    y 0.000000 1.741430 0.000000 
#    z 0.000000 0.000000 1.750240 
# 
# From -- ./inp_files/23264.got.cif
#   From: 2010.03.12/outbox.cif.g09.slc.cpg/sg38_12_cif.got.tgz:23264.got - 2010.04.14 02:38:36.
