data_PCOD8179076
_publ_section_title
;
Structure prediction by ZEFSAII (Michael W. Deem and Ramdas Pophale) SiO2 
 PCOD8179076
Probable space group: A M M 2
;
_chemical_formula_sum "Si O2"
_cell_formula_units_Z 40
_cell_length_a 7.730583
_cell_length_b 9.689439
_cell_length_c 28.513903
_cell_angle_alpha 90.000000
_cell_angle_beta 90.000000
_cell_angle_gamma 90.000000
_cell_volume 2135.834258
_symmetry_space_group_name_H-M "A M M 2"
_symmetry_group_IT_number 38
_symmetry_cell_setting 'orthorhombic'
loop_
_space_group_symop_operation_xyz
x,y,z
-x,-y,z
-x,y,z
x,-y,z
x,1/2+y,1/2+z
-x,1/2-y,1/2+z
-x,1/2+y,1/2+z
x,1/2-y,1/2+z
loop_
_atom_site_type_symbol
_atom_site_label
_atom_site_fract_x
_atom_site_fract_y
_atom_site_fract_z
Si Si1 0.000000 0.659589 0.897730
Si Si2 0.692326 0.156697 0.738215
Si Si3 0.802986 0.843567 0.157207
Si Si4 0.000000 0.662593 0.305063
Si Si5 0.296703 0.844271 0.055498
Si Si6 0.301463 0.159432 0.469042
O O1 0.000000 0.756012 0.853063
O O2 0.825699 0.694482 0.926334
O O3 0.000000 0.500000 0.882251
O O4 0.500000 0.167018 0.760245
O O5 0.693344 0.247489 0.691354
O O6 0.829630 0.208803 0.776493
O O7 0.737509 0.000000 0.723696
O O8 0.788267 0.791073 0.103722
O O9 0.000000 0.835894 0.173783
O O10 0.731098 0.000000 0.160456
O O11 0.000000 0.500000 0.315834
O O12 0.500000 0.836471 0.062212
O O13 0.235368 0.000000 0.044061
O O14 0.235749 0.746787 0.013383
O O15 0.500000 0.197053 0.455062
O O16 0.286173 0.000000 0.483300
#
# Coordination Sequence:
#
# PCOD8179076 Si02
#       6
#     4   8   8   4   8   8
#     4  10  22  38  57  80 105 135 174 221 271 322
#     4  10  21  38  59  81 108 143 181 222 270 322
#     4  10  20  33  52  81 115 148 183 222 264 315
#     4  10  22  40  57  80 109 135 172 225 275 324
#     4   9  18  32  50  76 110 144 179 218 258 306
#     4   9  19  36  55  77 107 140 176 218 262 312
#
# _framework density 18.728045000000002
#
# number of rings (size 3 to 8) (size 9 to 14) (size 15 to 20)
#    0.000    2.400    1.000    0.600    1.400    4.400 
#    0.000    2.000    0.000    0.000    0.000    0.000 
#    0.000    0.000    0.000    0.000    0.000    0.000 
#
# Total GULP energy -248019.462437 kJ/mol
# GULP energy per Si atom -12400.973122 kJ/mol
# Density = 1.868542 g / cm^3
# Si number density = 18.728045 Si / 1000 Ang^3
#
#
#
# Elastic Constant Matrix: (Units=GPa)
#
#
# Indices 1 2 3 4 5 6 
#
# 1 100.2579 38.1951 60.4128 0.0000 0.0000 0.0000
# 2 38.1951 75.8267 77.3942 0.0000 0.0000 0.0000
# 3 60.4128 77.3942 141.0201 0.0000 0.0000 0.0000
# 4 0.0000 0.0000 0.0000 41.3998 0.0000 0.0000
# 5 0.0000 0.0000 0.0000 0.0000 24.0704 0.0000
# 6 0.0000 0.0000 0.0000 0.0000 0.0000 4.9480
#
#
#
# Elastic Compliance Matrix: (Units=1/GPa)
#
#
# Indices 1 2 3 4 5 6 
#
# 1 0.013584 -0.002053 -0.004693 0.000000 0.000000 0.000000
# 2 -0.002053 0.030294 -0.015746 0.000000 0.000000 0.000000
# 3 -0.004693 -0.015746 0.017744 0.000000 0.000000 0.000000
# 4 0.000000 0.000000 0.000000 0.024155 0.000000 0.000000
# 5 0.000000 0.000000 0.000000 0.000000 0.041545 0.000000
# 6 0.000000 0.000000 0.000000 0.000000 0.000000 0.202101
#
#
# Mechanical properties :
#
#
# Convention : Reuss Voigt Hill
#
# Bulk Modulus (GPa) = 60.10494 74.34545 67.22520
# Shear Modulus (GPa) = 13.15955 23.49048 18.32502
#
# Velocity S-wave (km/s) = 2.65366 3.54544 3.13146
# Velocity P-wave (km/s) = 6.44612 7.51956 7.00344
#
# Compressibility (1/GPa) = 0.01663757
#
# Stress axis : x y z
#
# Youngs Moduli (GPa) = 73.61564 33.00999 56.35854
#
# Poissons Ratio (x) = 0.06776 0.26448
# Poissons Ratio (y) = 0.15110 0.88745
# Poissons Ratio (z) = 0.34547 0.51979
#
# Static dielectric constant tensor:
#      x y z
#    x 3.616560 0.000000 0.000000 
#    y 0.000000 3.478500 0.000000 
#    z 0.000000 0.000000 3.229600 
# 
# 
# High freq. dielectric constant tensor:
#      x y z
#    x 1.740450 0.000000 0.000000 
#    y 0.000000 1.721770 0.000000 
#    z 0.000000 0.000000 1.712290 
# 
# From -- ./inp_files/23187.got.cif
#   From: 2010.03.12/outbox.cif.g09.slc.cpg/sg38_12_cif.got.tgz:23187.got - 2010.04.14 02:38:36.
