data_PCOD8179117
_publ_section_title
;
Structure prediction by ZEFSAII (Michael W. Deem and Ramdas Pophale) SiO2 
 PCOD8179117
Probable space group: A M M 2
;
_chemical_formula_sum "Si O2"
_cell_formula_units_Z 56
_cell_length_a 15.509030
_cell_length_b 21.021140
_cell_length_c 9.052400
_cell_angle_alpha 90.000000
_cell_angle_beta 90.000000
_cell_angle_gamma 90.000000
_cell_volume 2951.240735
_symmetry_space_group_name_H-M "A M M 2"
_symmetry_group_IT_number 38
_symmetry_cell_setting 'orthorhombic'
loop_
_space_group_symop_operation_xyz
x,y,z
-x,-y,z
-x,y,z
x,-y,z
x,1/2+y,1/2+z
-x,1/2-y,1/2+z
-x,1/2+y,1/2+z
x,1/2-y,1/2+z
loop_
_atom_site_type_symbol
_atom_site_label
_atom_site_fract_x
_atom_site_fract_y
_atom_site_fract_z
Si Si1 0.268796 0.376438 0.608510
Si Si2 0.401317 0.927424 0.343780
Si Si3 0.402516 0.309330 0.039859
Si Si4 0.182973 0.747595 0.182492
Si Si5 0.905490 0.684109 0.916516
Si Si6 0.674200 0.304557 0.354669
Si Si7 0.902214 0.427190 0.715642
O O1 0.333391 0.413945 0.714287
O O2 0.251868 0.303989 0.658081
O O3 0.320172 0.369326 0.452832
O O4 0.174259 0.410797 0.598307
O O5 0.500000 0.917318 0.286906
O O6 0.381288 0.879812 0.478726
O O7 0.388415 0.000000 0.398366
O O8 0.500000 0.289835 0.007452
O O9 0.390262 0.310723 0.216813
O O10 0.345950 0.256887 0.956151
O O11 0.098449 0.774779 0.264476
O O12 0.228770 0.699254 0.292965
O O13 0.162738 0.709477 0.033763
O O14 0.884895 0.611663 0.867813
O O15 0.000000 0.690116 0.985856
O O16 0.895760 0.500000 0.760933
O O17 0.000000 0.411633 0.654483
#
# Coordination Sequence:
#
# PCOD8179117 Si02
#       7
#     8   8   8   8   8   8   8
#     4  11  21  36  59  86 118 155 192 243 298 349
#     4  10  22  41  63  86 115 154 201 244 288 352
#     4  11  22  37  59  86 118 156 195 240 297 353
#     4  11  19  34  52  82 119 149 183 234 293 345
#     4  10  20  33  55  85 116 151 190 237 293 349
#     4  12  21  36  56  85 122 150 189 240 296 356
#     4   9  20  39  62  86 113 153 206 250 287 346
#
# _framework density 18.975069999999999
#
# number of rings (size 3 to 8) (size 9 to 14) (size 15 to 20)
#    0.000    1.429    4.286    1.286    2.000    2.857 
#    0.000    1.429    0.000    3.429    0.000    2.000 
#    0.000    0.000    0.000    0.000    0.000    0.000 
#
# Total GULP energy -346908.888737 kJ/mol
# GULP energy per Si atom -12389.603169 kJ/mol
# Density = 1.893188 g / cm^3
# Si number density = 18.975070 Si / 1000 Ang^3
#
#
#
# Elastic Constant Matrix: (Units=GPa)
#
#
# Indices 1 2 3 4 5 6 
#
# 1 93.5145 42.4154 35.9428 0.0000 0.0000 0.0000
# 2 42.4154 105.5657 46.0794 0.0000 0.0000 0.0000
# 3 35.9428 46.0794 97.5865 0.0000 0.0000 0.0000
# 4 0.0000 0.0000 0.0000 23.6180 0.0000 0.0000
# 5 0.0000 0.0000 0.0000 0.0000 30.0735 0.0000
# 6 0.0000 0.0000 0.0000 0.0000 0.0000 28.1829
#
#
#
# Elastic Compliance Matrix: (Units=1/GPa)
#
#
# Indices 1 2 3 4 5 6 
#
# 1 0.013783 -0.004185 -0.003101 0.000000 0.000000 0.000000
# 2 -0.004185 0.013203 -0.004693 0.000000 0.000000 0.000000
# 3 -0.003101 -0.004693 0.013605 0.000000 0.000000 0.000000
# 4 0.000000 0.000000 0.000000 0.042341 0.000000 0.000000
# 5 0.000000 0.000000 0.000000 0.000000 0.033252 0.000000
# 6 0.000000 0.000000 0.000000 0.000000 0.000000 0.035482
#
#
# Mechanical properties :
#
#
# Convention : Reuss Voigt Hill
#
# Bulk Modulus (GPa) = 60.11477 60.61576 60.36526
# Shear Modulus (GPa) = 27.59882 27.85684 27.72783
#
# Velocity S-wave (km/s) = 3.81790 3.83570 3.82681
# Velocity P-wave (km/s) = 7.15436 7.18548 7.16994
#
# Compressibility (1/GPa) = 0.01663485
#
# Stress axis : x y z
#
# Youngs Moduli (GPa) = 72.55161 75.74308 73.50080
#
# Poissons Ratio (x) = 0.31695 0.22791
# Poissons Ratio (y) = 0.30360 0.34493
# Poissons Ratio (z) = 0.22496 0.35545
#
# Static dielectric constant tensor:
#      x y z
#    x 3.697850 0.000000 0.000000 
#    y 0.000000 3.463430 0.000000 
#    z 0.000000 0.000000 3.438320 
# 
# 
# High freq. dielectric constant tensor:
#      x y z
#    x 1.755360 0.000000 0.000000 
#    y 0.000000 1.723370 0.000000 
#    z 0.000000 0.000000 1.716440 
# 
# From -- ./inp_files/5698.got.cif
#   From: 2010.03.12/outbox.cif.g09.slc.cpg/sg38_3_cif.got.tgz:5698.got - 2010.04.14 02:38:36.
