data_PCOD8179808
_publ_section_title
;
Structure prediction by ZEFSAII (Michael W. Deem and Ramdas Pophale) SiO2 
 PCOD8179808
Probable space group: A M M 2
;
_chemical_formula_sum "Si O2"
_cell_formula_units_Z 56
_cell_length_a 21.117670
_cell_length_b 9.166487
_cell_length_c 15.355572
_cell_angle_alpha 90.000000
_cell_angle_beta 90.000000
_cell_angle_gamma 90.000000
_cell_volume 2972.452509
_symmetry_space_group_name_H-M "A M M 2"
_symmetry_group_IT_number 38
_symmetry_cell_setting 'orthorhombic'
loop_
_space_group_symop_operation_xyz
x,y,z
-x,-y,z
-x,y,z
x,-y,z
x,1/2+y,1/2+z
-x,1/2-y,1/2+z
-x,1/2+y,1/2+z
x,1/2-y,1/2+z
loop_
_atom_site_type_symbol
_atom_site_label
_atom_site_fract_x
_atom_site_fract_y
_atom_site_fract_z
Si Si1 0.844742 0.171927 0.470690
Si Si2 0.377000 0.667501 0.618168
Si Si3 0.500000 0.172909 0.569566
Si Si4 0.712247 0.672481 0.459205
Si Si5 0.927876 0.670970 0.807170
Si Si6 0.072223 0.829666 0.634944
Si Si7 0.500000 0.172271 0.372746
Si Si8 0.364433 0.331238 0.813162
O O1 0.780559 0.260539 0.473479
O O2 0.884228 0.221097 0.386559
O O3 0.885065 0.218597 0.554358
O O4 0.830502 0.000000 0.469385
O O5 0.397926 0.500000 0.604833
O O6 0.438464 0.767887 0.617752
O O7 0.329119 0.717835 0.542994
O O8 0.344069 0.687598 0.712485
O O9 0.500000 0.232652 0.470913
O O10 0.500000 0.000000 0.574032
O O11 0.717711 0.500000 0.449554
O O12 0.682240 0.736204 0.371490
O O13 0.923222 0.500000 0.791768
O O14 0.902374 0.748351 0.720444
O O15 0.000000 0.718180 0.827761
O O16 0.000000 0.784535 0.614011
O O17 0.077672 0.000000 0.652858
O O18 0.563443 0.227450 0.324604
O O19 0.500000 0.000000 0.372706
O O20 0.359114 0.500000 0.842617
#
# Coordination Sequence:
#
# PCOD8179808 Si02
#       8
#     8   8   4   8   8   8   4   8
#     4  10  21  37  57  78 107 151 190 219 265 329
#     4  10  22  39  59  81 109 146 183 224 276 330
#     4  11  20  33  59  90 113 137 176 228 275 322
#     4  11  24  39  54  80 113 144 184 235 278 314
#     4   9  18  34  57  84 111 140 179 225 271 323
#     4   9  18  34  57  85 114 143 179 224 273 324
#     4   9  17  31  57  86 107 133 174 222 265 318
#     4  10  20  39  62  81 107 146 186 219 268 336
#
# _framework density 18.839661
#
# number of rings (size 3 to 8) (size 9 to 14) (size 15 to 20)
#    0.000    2.143    1.429    1.500    0.000    6.286 
#    0.000    4.643    0.000    4.286    0.000    0.000 
#    0.000    0.000    0.000    0.000    0.000    0.000 
#
# Total GULP energy -347272.454120 kJ/mol
# GULP energy per Si atom -12402.587647 kJ/mol
# Density = 1.879678 g / cm^3
# Si number density = 18.839661 Si / 1000 Ang^3
#
#
#
# Elastic Constant Matrix: (Units=GPa)
#
#
# Indices 1 2 3 4 5 6 
#
# 1 125.6223 55.4859 74.9241 0.0000 0.0000 0.0000
# 2 55.4859 59.0019 54.8827 0.0000 0.0000 0.0000
# 3 74.9241 54.8827 151.2209 0.0000 0.0000 0.0000
# 4 0.0000 0.0000 0.0000 31.8701 0.0000 0.0000
# 5 0.0000 0.0000 0.0000 0.0000 32.5552 0.0000
# 6 0.0000 0.0000 0.0000 0.0000 0.0000 31.8547
#
#
#
# Elastic Compliance Matrix: (Units=1/GPa)
#
#
# Indices 1 2 3 4 5 6 
#
# 1 0.014702 -0.010643 -0.003422 0.000000 0.000000 0.000000
# 2 -0.010643 0.033291 -0.006809 0.000000 0.000000 0.000000
# 3 -0.003422 -0.006809 0.010779 0.000000 0.000000 0.000000
# 4 0.000000 0.000000 0.000000 0.031377 0.000000 0.000000
# 5 0.000000 0.000000 0.000000 0.000000 0.030717 0.000000
# 6 0.000000 0.000000 0.000000 0.000000 0.000000 0.031393
#
#
# Mechanical properties :
#
#
# Convention : Reuss Voigt Hill
#
# Bulk Modulus (GPa) = 58.73754 78.49226 68.61490
# Shear Modulus (GPa) = 25.03976 29.29285 27.16630
#
# Velocity S-wave (km/s) = 3.64963 3.94744 3.80145
# Velocity P-wave (km/s) = 7.00036 7.90760 7.46777
#
# Compressibility (1/GPa) = 0.01702489
#
# Stress axis : x y z
#
# Youngs Moduli (GPa) = 68.01763 30.03781 92.77031
#
# Poissons Ratio (x) = 0.31970 0.31742
# Poissons Ratio (y) = 0.72393 0.63168
# Poissons Ratio (z) = 0.23272 0.20453
#
# Static dielectric constant tensor:
#      x y z
#    x 3.434590 0.000000 0.000000 
#    y 0.000000 3.302980 0.000000 
#    z 0.000000 0.000000 3.629690 
# 
# 
# High freq. dielectric constant tensor:
#      x y z
#    x 1.727970 0.000000 0.000000 
#    y 0.000000 1.718950 0.000000 
#    z 0.000000 0.000000 1.745520 
# 
# From -- ./inp_files/15592.got.cif
#   From: 2010.03.12/outbox.cif.g09.slc.cpg/sg38_8_cif.got.tgz:15592.got - 2010.04.14 02:38:36.
