data_PCOD8179970
_publ_section_title
;
Structure prediction by ZEFSAII (Michael W. Deem and Ramdas Pophale) SiO2 
 PCOD8179970
Probable space group: A M M 2
;
_chemical_formula_sum "Si O2"
_cell_formula_units_Z 64
_cell_length_a 8.861718
_cell_length_b 32.919468
_cell_length_c 11.770756
_cell_angle_alpha 90.000000
_cell_angle_beta 90.000000
_cell_angle_gamma 90.000000
_cell_volume 3433.800748
_symmetry_space_group_name_H-M "A M M 2"
_symmetry_group_IT_number 38
_symmetry_cell_setting 'orthorhombic'
loop_
_space_group_symop_operation_xyz
x,y,z
-x,-y,z
-x,y,z
x,-y,z
x,1/2+y,1/2+z
-x,1/2-y,1/2+z
-x,1/2+y,1/2+z
x,1/2-y,1/2+z
loop_
_atom_site_type_symbol
_atom_site_label
_atom_site_fract_x
_atom_site_fract_y
_atom_site_fract_z
Si Si1 0.321992 0.379912 0.132640
Si Si2 0.677288 0.192499 0.797068
Si Si3 0.821630 0.453272 0.253070
Si Si4 0.823901 0.777392 0.258065
Si Si5 0.319926 0.150560 0.385527
Si Si6 0.676953 0.546801 0.488459
Si Si7 0.334731 0.897636 0.177364
Si Si8 0.334008 0.315033 0.554170
O O1 0.500000 0.387027 0.134858
O O2 0.270511 0.346239 0.223490
O O3 0.243778 0.423218 0.157053
O O4 0.268759 0.363705 0.009491
O O5 0.500000 0.200183 0.780625
O O6 0.767703 0.231627 0.758404
O O7 0.724005 0.184549 0.926072
O O8 0.770789 0.500000 0.227860
O O9 0.759095 0.438201 0.374523
O O10 0.000000 0.449880 0.253961
O O11 0.744060 0.804874 0.355157
O O12 0.787706 0.792584 0.131615
O O13 0.000000 0.779432 0.281323
O O14 0.500000 0.153746 0.372909
O O15 0.254133 0.117532 0.293729
O O16 0.500000 0.557494 0.475864
O O17 0.707845 0.500000 0.506445
O O18 0.748108 0.567733 0.602220
O O19 0.500000 0.914272 0.211989
O O20 0.350373 0.861048 0.090250
O O21 0.500000 0.293868 0.564179
#
# Coordination Sequence:
#
# PCOD8179970 Si02
#       8
#     8   8   8   8   8   8   8   8
#     4  10  21  37  59  84 106 139 188 235 274 321
#     4  10  21  36  56  80 105 137 180 227 273 323
#     4  10  21  36  54  79 114 150 179 218 277 335
#     4  11  23  36  52  77 109 140 175 221 274 328
#     4   9  19  37  57  76 104 144 186 224 271 329
#     4   9  16  28  51  80 107 136 174 221 269 319
#     4   8  14  29  52  76 102 131 168 214 261 311
#     4   9  18  34  54  71  95 134 177 217 259 315
#
# _framework density 18.63824
#
# number of rings (size 3 to 8) (size 9 to 14) (size 15 to 20)
#    0.000    2.500    0.000    3.000    1.750    4.250 
#    0.000    5.625    0.000    2.250    0.000    1.750 
#    0.000    0.000    0.000    0.000    0.000    0.000 
#
# Total GULP energy -396630.532983 kJ/mol
# GULP energy per Si atom -12394.704156 kJ/mol
# Density = 1.859582 g / cm^3
# Si number density = 18.638240 Si / 1000 Ang^3
#
#
#
# Elastic Constant Matrix: (Units=GPa)
#
#
# Indices 1 2 3 4 5 6 
#
# 1 48.8207 34.0342 27.4696 0.0000 0.0000 0.0000
# 2 34.0342 95.4634 64.1581 0.0000 0.0000 0.0000
# 3 27.4696 64.1581 121.3275 0.0000 0.0000 0.0000
# 4 0.0000 0.0000 0.0000 25.4274 0.0000 0.0000
# 5 0.0000 0.0000 0.0000 0.0000 8.8628 0.0000
# 6 0.0000 0.0000 0.0000 0.0000 0.0000 17.8063
#
#
#
# Elastic Compliance Matrix: (Units=1/GPa)
#
#
# Indices 1 2 3 4 5 6 
#
# 1 0.027460 -0.008705 -0.001614 0.000000 0.000000 0.000000
# 2 -0.008705 0.019010 -0.008082 0.000000 0.000000 0.000000
# 3 -0.001614 -0.008082 0.012881 0.000000 0.000000 0.000000
# 4 0.000000 0.000000 0.000000 0.039328 0.000000 0.000000
# 5 0.000000 0.000000 0.000000 0.000000 0.112831 0.000000
# 6 0.000000 0.000000 0.000000 0.000000 0.000000 0.056160
#
#
# Mechanical properties :
#
#
# Convention : Reuss Voigt Hill
#
# Bulk Modulus (GPa) = 44.34649 57.43727 50.89188
# Shear Modulus (GPa) = 16.02627 19.74929 17.88778
#
# Velocity S-wave (km/s) = 2.93552 3.25870 3.10132
# Velocity P-wave (km/s) = 5.94429 6.71138 6.33945
#
# Compressibility (1/GPa) = 0.02254970
#
# Stress axis : x y z
#
# Youngs Moduli (GPa) = 36.41685 52.60325 77.63295
#
# Poissons Ratio (x) = 0.45793 0.12528
# Poissons Ratio (y) = 0.31702 0.62740
# Poissons Ratio (z) = 0.05877 0.42512
#
# Static dielectric constant tensor:
#      x y z
#    x 3.161150 0.000000 0.000000 
#    y 0.000000 3.491100 0.000000 
#    z 0.000000 0.000000 3.610750 
# 
# 
# High freq. dielectric constant tensor:
#      x y z
#    x 1.693770 0.000000 0.000000 
#    y 0.000000 1.723140 0.000000 
#    z 0.000000 0.000000 1.727160 
# 
# From -- ./inp_files/8584.got.cif
#   From: 2010.03.12/outbox.cif.g09.slc.cpg/sg38_5_cif.got.tgz:8584.got - 2010.04.14 02:38:36.
