data_PCOD8179780
_publ_section_title
;
Structure prediction by ZEFSAII (Michael W. Deem and Ramdas Pophale) SiO2 
 PCOD8179780
Probable space group: A M M 2
;
_chemical_formula_sum "Si O2"
_cell_formula_units_Z 64
_cell_length_a 9.157757
_cell_length_b 26.968917
_cell_length_c 13.064689
_cell_angle_alpha 90.000000
_cell_angle_beta 90.000000
_cell_angle_gamma 90.000000
_cell_volume 3226.648802
_symmetry_space_group_name_H-M "A M M 2"
_symmetry_group_IT_number 38
_symmetry_cell_setting 'orthorhombic'
loop_
_space_group_symop_operation_xyz
x,y,z
-x,-y,z
-x,y,z
x,-y,z
x,1/2+y,1/2+z
-x,1/2-y,1/2+z
-x,1/2+y,1/2+z
x,1/2-y,1/2+z
loop_
_atom_site_type_symbol
_atom_site_label
_atom_site_fract_x
_atom_site_fract_y
_atom_site_fract_z
Si Si1 0.663511 0.227963 0.520130
Si Si2 0.829182 0.771488 0.850648
Si Si3 0.671891 0.903527 0.155357
Si Si4 0.167536 0.057393 0.353268
Si Si5 0.662356 0.205705 0.209298
Si Si6 0.830012 0.057559 0.954896
Si Si7 0.827794 0.626600 0.040650
Si Si8 0.828296 0.122739 0.768408
O O1 0.500000 0.220174 0.477924
O O2 0.745763 0.271519 0.458223
O O3 0.660551 0.247610 0.634535
O O4 0.749529 0.177016 0.510150
O O5 0.778134 0.720535 0.795888
O O6 0.782425 0.820512 0.789308
O O7 0.000000 0.769199 0.869809
O O8 0.500000 0.913370 0.148774
O O9 0.731220 0.927970 0.258832
O O10 0.711193 0.845239 0.155707
O O11 0.745716 0.927893 0.057212
O O12 0.215084 0.085847 0.456517
O O13 0.000000 0.069592 0.324592
O O14 0.188926 0.000000 0.378253
O O15 0.500000 0.198579 0.256497
O O16 0.000000 0.070291 0.972119
O O17 0.806321 0.000000 0.931732
O O18 0.763222 0.087044 0.856839
O O19 0.773827 0.608551 0.153823
O O20 0.000000 0.637155 0.043492
O O21 0.000000 0.116294 0.773388
#
# Coordination Sequence:
#
# PCOD8179780 Si02
#       8
#     8   8   8   8   8   8   8   8
#     4  11  22  36  55  81 116 153 190 232 281 341
#     4  11  21  34  56  83 114 150 189 235 281 335
#     4  11  23  39  59  84 116 152 194 245 295 347
#     4  10  22  39  60  86 115 151 194 242 296 349
#     4  10  22  38  55  80 113 150 189 227 280 342
#     4  10  21  38  61  87 116 152 193 240 295 351
#     4  10  20  38  61  86 118 153 195 240 287 346
#     4   9  19  36  58  87 119 149 189 239 287 341
#
# _framework density 19.834821999999999
#
# number of rings (size 3 to 8) (size 9 to 14) (size 15 to 20)
#    0.000    1.750    1.250    3.000    0.000    6.500 
#    0.000    3.750    0.000    0.000    0.000    1.750 
#    0.000    0.000    0.000    0.000    0.000    0.000 
#
# Total GULP energy -396766.901533 kJ/mol
# GULP energy per Si atom -12398.965673 kJ/mol
# Density = 1.978968 g / cm^3
# Si number density = 19.834822 Si / 1000 Ang^3
#
#
#
# Elastic Constant Matrix: (Units=GPa)
#
#
# Indices 1 2 3 4 5 6 
#
# 1 65.3786 35.7101 44.3602 0.0000 0.0000 0.0000
# 2 35.7101 89.7579 45.6291 0.0000 0.0000 0.0000
# 3 44.3602 45.6291 140.9167 0.0000 0.0000 0.0000
# 4 0.0000 0.0000 0.0000 36.9673 0.0000 0.0000
# 5 0.0000 0.0000 0.0000 0.0000 14.7818 0.0000
# 6 0.0000 0.0000 0.0000 0.0000 0.0000 19.4705
#
#
#
# Elastic Compliance Matrix: (Units=1/GPa)
#
#
# Indices 1 2 3 4 5 6 
#
# 1 0.022057 -0.006279 -0.004910 0.000000 0.000000 0.000000
# 2 -0.006279 0.015124 -0.002920 0.000000 0.000000 0.000000
# 3 -0.004910 -0.002920 0.009588 0.000000 0.000000 0.000000
# 4 0.000000 0.000000 0.000000 0.027051 0.000000 0.000000
# 5 0.000000 0.000000 0.000000 0.000000 0.067651 0.000000
# 6 0.000000 0.000000 0.000000 0.000000 0.000000 0.051360
#
#
# Mechanical properties :
#
#
# Convention : Reuss Voigt Hill
#
# Bulk Modulus (GPa) = 53.91185 60.82799 57.36992
# Shear Modulus (GPa) = 22.00387 25.60084 23.80235
#
# Velocity S-wave (km/s) = 3.33431 3.59653 3.46790
# Velocity P-wave (km/s) = 6.48559 6.92680 6.70982
#
# Compressibility (1/GPa) = 0.01854880
#
# Stress axis : x y z
#
# Youngs Moduli (GPa) = 45.33727 66.12061 104.29936
#
# Poissons Ratio (x) = 0.41518 0.51214
# Poissons Ratio (y) = 0.28468 0.30460
# Poissons Ratio (z) = 0.22262 0.19310
#
# Static dielectric constant tensor:
#      x y z
#    x 3.544250 0.000000 0.000000 
#    y 0.000000 3.654810 0.000000 
#    z 0.000000 0.000000 3.841050 
# 
# 
# High freq. dielectric constant tensor:
#      x y z
#    x 1.758220 0.000000 0.000000 
#    y 0.000000 1.774340 0.000000 
#    z 0.000000 0.000000 1.787040 
# 
# From -- ./inp_files/12782.got.cif
#   From: 2010.03.12/outbox.cif.g09.slc.cpg/sg38_7_cif.got.tgz:12782.got - 2010.04.14 02:38:36.
