data_PCOD8179328
_publ_section_title
;
Structure prediction by ZEFSAII (Michael W. Deem and Ramdas Pophale) SiO2 
 PCOD8179328
Probable space group: A M M 2
;
_chemical_formula_sum "Si O2"
_cell_formula_units_Z 48
_cell_length_a 17.414897
_cell_length_b 9.167450
_cell_length_c 15.563935
_cell_angle_alpha 90.000000
_cell_angle_beta 90.000000
_cell_angle_gamma 90.000000
_cell_volume 2484.785297
_symmetry_space_group_name_H-M "A M M 2"
_symmetry_group_IT_number 38
_symmetry_cell_setting 'orthorhombic'
loop_
_space_group_symop_operation_xyz
x,y,z
-x,-y,z
-x,y,z
x,-y,z
x,1/2+y,1/2+z
-x,1/2-y,1/2+z
-x,1/2+y,1/2+z
x,1/2-y,1/2+z
loop_
_atom_site_type_symbol
_atom_site_label
_atom_site_fract_x
_atom_site_fract_y
_atom_site_fract_z
Si Si1 0.000000 0.159872 0.947310
Si Si2 0.000000 0.337590 0.246409
Si Si3 0.853596 0.342465 0.990267
Si Si4 0.689830 0.173531 0.174288
Si Si5 0.313896 0.326353 0.992805
Si Si6 0.413830 0.827102 0.333000
Si Si7 0.839940 0.161773 0.689509
O O1 0.000000 0.154819 0.846869
O O2 0.077647 0.233267 0.977331
O O3 0.000000 0.000000 0.988461
O O4 0.920911 0.260656 0.216234
O O5 0.000000 0.500000 0.204862
O O6 0.875409 0.500000 0.949364
O O7 0.771231 0.286661 0.954992
O O8 0.838291 0.363052 0.089516
O O9 0.668120 0.244601 0.082525
O O10 0.626660 0.221788 0.244444
O O11 0.770303 0.231557 0.213731
O O12 0.695007 0.000000 0.162900
O O13 0.320274 0.500000 0.009178
O O14 0.371825 0.269324 0.919270
O O15 0.500000 0.763338 0.332471
O O16 0.414123 0.000000 0.337161
O O17 0.831780 0.000000 0.733777
#
# Coordination Sequence:
#
# PCOD8179328 Si02
#       7
#     4   4   8   8   8   8   8
#     4  11  22  31  45  75 108 135 168 218 271 310
#     4   9  19  33  49  73 102 137 178 216 259 310
#     4   9  18  33  53  72  95 135 181 219 254 308
#     4  10  20  34  56  86 114 139 176 229 280 317
#     4   9  19  37  59  80 106 147 190 219 259 327
#     4   9  19  36  58  83 112 146 180 218 269 329
#     4   9  18  36  57  72  97 141 184 216 257 318
#
# _framework density 19.317564999999998
#
# number of rings (size 3 to 8) (size 9 to 14) (size 15 to 20)
#    0.000    2.667    0.000    2.250    2.333    4.667 
#    0.000    2.917    0.000    3.500    0.000    0.000 
#    0.000    0.000    0.000    0.000    0.000    0.000 
#
# Total GULP energy -297386.420032 kJ/mol
# GULP energy per Si atom -12391.100835 kJ/mol
# Density = 1.927360 g / cm^3
# Si number density = 19.317565 Si / 1000 Ang^3
#
#
#
# Elastic Constant Matrix: (Units=GPa)
#
#
# Indices 1 2 3 4 5 6 
#
# 1 190.0331 57.6348 70.0714 0.0000 0.0000 0.0000
# 2 57.6348 71.9997 36.4818 0.0000 0.0000 0.0000
# 3 70.0714 36.4818 80.6557 0.0000 0.0000 0.0000
# 4 0.0000 0.0000 0.0000 33.2036 0.0000 0.0000
# 5 0.0000 0.0000 0.0000 0.0000 36.8948 0.0000
# 6 0.0000 0.0000 0.0000 0.0000 0.0000 21.0093
#
#
#
# Elastic Compliance Matrix: (Units=1/GPa)
#
#
# Indices 1 2 3 4 5 6 
#
# 1 0.008545 -0.003994 -0.005617 0.000000 0.000000 0.000000
# 2 -0.003994 0.019885 -0.005525 0.000000 0.000000 0.000000
# 3 -0.005617 -0.005525 0.019777 0.000000 0.000000 0.000000
# 4 0.000000 0.000000 0.000000 0.030117 0.000000 0.000000
# 5 0.000000 0.000000 0.000000 0.000000 0.027104 0.000000
# 6 0.000000 0.000000 0.000000 0.000000 0.000000 0.047598
#
#
# Mechanical properties :
#
#
# Convention : Reuss Voigt Hill
#
# Bulk Modulus (GPa) = 55.75313 74.56269 65.15791
# Shear Modulus (GPa) = 26.41647 30.12157 28.26902
#
# Velocity S-wave (km/s) = 3.70196 3.95306 3.82957
# Velocity P-wave (km/s) = 6.86999 7.71478 7.30460
#
# Compressibility (1/GPa) = 0.01793621
#
# Stress axis : x y z
#
# Youngs Moduli (GPa) = 117.03224 50.28842 50.56365
#
# Poissons Ratio (x) = 0.20084 0.28401
# Poissons Ratio (y) = 0.46741 0.27935
# Poissons Ratio (z) = 0.65736 0.27783
#
# Static dielectric constant tensor:
#      x y z
#    x 3.801290 0.000000 0.000000 
#    y 0.000000 3.498600 0.000000 
#    z 0.000000 0.000000 3.444480 
# 
# 
# High freq. dielectric constant tensor:
#      x y z
#    x 1.762220 0.000000 0.000000 
#    y 0.000000 1.722490 0.000000 
#    z 0.000000 0.000000 1.746050 
# 
# From -- ./inp_files/15057.got.cif
#   From: 2010.03.12/outbox.cif.g09.slc.cpg/sg38_8_cif.got.tgz:15057.got - 2010.04.14 02:38:36.
