data_PCOD8179844
_publ_section_title
;
Structure prediction by ZEFSAII (Michael W. Deem and Ramdas Pophale) SiO2 
 PCOD8179844
Probable space group: A M M 2
;
_chemical_formula_sum "Si O2"
_cell_formula_units_Z 56
_cell_length_a 18.084466
_cell_length_b 13.045356
_cell_length_c 12.714342
_cell_angle_alpha 90.000000
_cell_angle_beta 90.000000
_cell_angle_gamma 90.000000
_cell_volume 2999.545913
_symmetry_space_group_name_H-M "A M M 2"
_symmetry_group_IT_number 38
_symmetry_cell_setting 'orthorhombic'
loop_
_space_group_symop_operation_xyz
x,y,z
-x,-y,z
-x,y,z
x,-y,z
x,1/2+y,1/2+z
-x,1/2-y,1/2+z
-x,1/2+y,1/2+z
x,1/2-y,1/2+z
loop_
_atom_site_type_symbol
_atom_site_label
_atom_site_fract_x
_atom_site_fract_y
_atom_site_fract_z
Si Si1 0.415732 0.784577 0.792130
Si Si2 0.085667 0.380368 0.365874
Si Si3 0.919329 0.379621 0.600370
Si Si4 0.416258 0.617356 0.510302
Si Si5 0.690317 0.379998 0.878333
Si Si6 0.809732 0.269500 0.744525
Si Si7 0.321859 0.792226 0.603531
O O1 0.500000 0.759994 0.765278
O O2 0.406791 0.865002 0.886129
O O3 0.378288 0.675521 0.821395
O O4 0.377237 0.838161 0.691468
O O5 0.103303 0.500000 0.352747
O O6 0.103297 0.340754 0.483987
O O7 0.140301 0.321298 0.288767
O O8 0.000000 0.358101 0.337708
O O9 0.925624 0.500000 0.593157
O O10 0.861175 0.352144 0.689019
O O11 0.000000 0.333887 0.630201
O O12 0.500000 0.648112 0.543876
O O13 0.399772 0.500000 0.536279
O O14 0.355572 0.681956 0.572408
O O15 0.688875 0.500000 0.850248
O O16 0.765382 0.327027 0.837017
O O17 0.684296 0.367222 0.004237
O O18 0.757878 0.221617 0.655079
#
# Coordination Sequence:
#
# PCOD8179844 Si02
#       7
#     8   8   8   8   8   8   8
#     4   9  19  36  55  76 102 134 177 224 268 314
#     4   9  19  36  57  81 107 135 172 217 261 307
#     4   9  18  33  54  78 101 130 170 212 254 302
#     4   9  18  34  55  77 101 131 173 225 272 312
#     4  10  22  37  51  74 108 142 176 215 261 312
#     4  11  20  34  53  77 106 140 172 209 257 310
#     4  10  21  34  50  75 105 139 174 211 258 312
#
# _framework density 18.669492999999999
#
# number of rings (size 3 to 8) (size 9 to 14) (size 15 to 20)
#    0.000    2.429    0.000    3.000    0.000    4.857 
#    0.000    8.571    0.000    0.000    0.000    6.000 
#    0.000    0.000    0.000    0.000    0.000    0.000 
#
# Total GULP energy -347144.900639 kJ/mol
# GULP energy per Si atom -12398.032166 kJ/mol
# Density = 1.862700 g / cm^3
# Si number density = 18.669493 Si / 1000 Ang^3
#
#
#
# Elastic Constant Matrix: (Units=GPa)
#
#
# Indices 1 2 3 4 5 6 
#
# 1 117.3104 28.0903 49.3647 0.0000 0.0000 0.0000
# 2 28.0903 52.9786 8.5757 0.0000 0.0000 0.0000
# 3 49.3647 8.5757 88.6390 0.0000 0.0000 0.0000
# 4 0.0000 0.0000 0.0000 23.5613 0.0000 0.0000
# 5 0.0000 0.0000 0.0000 0.0000 40.1480 0.0000
# 6 0.0000 0.0000 0.0000 0.0000 0.0000 24.2335
#
#
#
# Elastic Compliance Matrix: (Units=1/GPa)
#
#
# Indices 1 2 3 4 5 6 
#
# 1 0.012595 -0.005631 -0.006470 0.000000 0.000000 0.000000
# 2 -0.005631 0.021693 0.001037 0.000000 0.000000 0.000000
# 3 -0.006470 0.001037 0.014784 0.000000 0.000000 0.000000
# 4 0.000000 0.000000 0.000000 0.042442 0.000000 0.000000
# 5 0.000000 0.000000 0.000000 0.000000 0.024908 0.000000
# 6 0.000000 0.000000 0.000000 0.000000 0.000000 0.041265
#
#
# Mechanical properties :
#
#
# Convention : Reuss Voigt Hill
#
# Bulk Modulus (GPa) = 37.11127 47.88770 42.49949
# Shear Modulus (GPa) = 26.48340 29.11506 27.79923
#
# Velocity S-wave (km/s) = 3.77044 3.95333 3.86297
# Velocity P-wave (km/s) = 6.23507 6.82234 6.53531
#
# Compressibility (1/GPa) = 0.02694599
#
# Stress axis : x y z
#
# Youngs Moduli (GPa) = 79.39511 46.09719 67.63850
#
# Poissons Ratio (x) = 0.25957 0.43760
# Poissons Ratio (y) = 0.44707 -0.07015
# Poissons Ratio (z) = 0.51366 -0.04781
#
# Static dielectric constant tensor:
#      x y z
#    x 3.584960 0.000000 0.000000 
#    y 0.000000 3.090420 0.000000 
#    z 0.000000 0.000000 3.612460 
# 
# 
# High freq. dielectric constant tensor:
#      x y z
#    x 1.734820 0.000000 0.000000 
#    y 0.000000 1.701180 0.000000 
#    z 0.000000 0.000000 1.735670 
# 
# From -- ./inp_files/10763.got.cif
#   From: 2010.03.12/outbox.cif.g09.slc.cpg/sg38_6_cif.got.tgz:10763.got - 2010.04.14 02:38:36.
