data_PCOD8179445
_publ_section_title
;
Structure prediction by ZEFSAII (Michael W. Deem and Ramdas Pophale) SiO2 
 PCOD8179445
Probable space group: A M M 2
;
_chemical_formula_sum "Si O2"
_cell_formula_units_Z 56
_cell_length_a 20.080059
_cell_length_b 10.461418
_cell_length_c 13.694671
_cell_angle_alpha 90.000000
_cell_angle_beta 90.000000
_cell_angle_gamma 90.000000
_cell_volume 2876.783261
_symmetry_space_group_name_H-M "A M M 2"
_symmetry_group_IT_number 38
_symmetry_cell_setting 'orthorhombic'
loop_
_space_group_symop_operation_xyz
x,y,z
-x,-y,z
-x,y,z
x,-y,z
x,1/2+y,1/2+z
-x,1/2-y,1/2+z
-x,1/2+y,1/2+z
x,1/2-y,1/2+z
loop_
_atom_site_type_symbol
_atom_site_label
_atom_site_fract_x
_atom_site_fract_y
_atom_site_fract_z
Si Si1 0.000000 0.355565 0.363670
Si Si2 0.000000 0.850933 0.080359
Si Si3 0.322088 0.357132 0.597270
Si Si4 0.357960 0.645361 0.812875
Si Si5 0.787175 0.142296 0.575450
Si Si6 0.786398 0.854527 0.357773
Si Si7 0.424330 0.145065 0.928825
Si Si8 0.890673 0.735006 0.216695
O O1 0.935028 0.331235 0.298995
O O2 0.000000 0.500000 0.394381
O O3 0.000000 0.284995 0.470824
O O4 0.065314 0.815347 0.141473
O O5 0.000000 0.000000 0.068285
O O6 0.291858 0.500000 0.577967
O O7 0.362837 0.358456 0.696894
O O8 0.264108 0.252308 0.604609
O O9 0.375061 0.318514 0.516109
O O10 0.370007 0.500000 0.854186
O O11 0.286642 0.708131 0.845526
O O12 0.413553 0.746468 0.847046
O O13 0.814542 0.172778 0.466320
O O14 0.849009 0.136499 0.650421
O O15 0.754155 0.000000 0.576935
O O16 0.838859 0.819818 0.275481
O O17 0.770716 0.000000 0.337690
O O18 0.500000 0.154498 0.966185
O O19 0.410204 0.000000 0.890119
#
# Coordination Sequence:
#
# PCOD8179445 Si02
#       8
#     4   4   8   8   8   8   8   8
#     4  10  22  40  54  78 116 148 192 243 288 347
#     4  10  22  38  60  84 112 152 199 243 286 347
#     4  10  21  38  60  86 117 156 195 241 294 348
#     4  10  20  37  60  87 118 155 194 241 293 347
#     4  11  22  36  57  87 119 154 192 239 297 353
#     4  10  20  35  56  85 119 147 187 242 292 347
#     4  10  22  40  60  86 121 158 198 243 291 347
#     4  11  21  37  59  83 113 154 193 239 299 352
#
# _framework density 19.466184999999999
#
# number of rings (size 3 to 8) (size 9 to 14) (size 15 to 20)
#    0.000    1.714    2.857    1.714    0.000    2.000 
#    0.000    2.857    0.000    6.857    0.000    0.000 
#    0.000    0.000    0.000    0.000    0.000    0.000 
#
# Total GULP energy -346961.892148 kJ/mol
# GULP energy per Si atom -12391.496148 kJ/mol
# Density = 1.942188 g / cm^3
# Si number density = 19.466185 Si / 1000 Ang^3
#
#
#
# Elastic Constant Matrix: (Units=GPa)
#
#
# Indices 1 2 3 4 5 6 
#
# 1 90.1358 43.5994 34.6379 0.0000 0.0000 0.0000
# 2 43.5994 98.2064 40.1102 0.0000 0.0000 0.0000
# 3 34.6379 40.1102 115.2908 0.0000 0.0000 0.0000
# 4 0.0000 0.0000 0.0000 27.7331 0.0000 0.0000
# 5 0.0000 0.0000 0.0000 0.0000 27.3079 0.0000
# 6 0.0000 0.0000 0.0000 0.0000 0.0000 20.4727
#
#
#
# Elastic Compliance Matrix: (Units=1/GPa)
#
#
# Indices 1 2 3 4 5 6 
#
# 1 0.014724 -0.005514 -0.002506 0.000000 0.000000 0.000000
# 2 -0.005514 0.013934 -0.003191 0.000000 0.000000 0.000000
# 3 -0.002506 -0.003191 0.010537 0.000000 0.000000 0.000000
# 4 0.000000 0.000000 0.000000 0.036058 0.000000 0.000000
# 5 0.000000 0.000000 0.000000 0.000000 0.036619 0.000000
# 6 0.000000 0.000000 0.000000 0.000000 0.000000 0.048846
#
#
# Mechanical properties :
#
#
# Convention : Reuss Voigt Hill
#
# Bulk Modulus (GPa) = 59.61547 60.03647 59.82597
# Shear Modulus (GPa) = 26.49294 27.45510 26.97402
#
# Velocity S-wave (km/s) = 3.69314 3.75960 3.72652
# Velocity P-wave (km/s) = 6.99123 7.05369 7.02253
#
# Compressibility (1/GPa) = 0.01677417
#
# Stress axis : x y z
#
# Youngs Moduli (GPa) = 67.91556 71.76807 94.90650
#
# Poissons Ratio (x) = 0.39570 0.23779
# Poissons Ratio (y) = 0.37446 0.30286
# Poissons Ratio (z) = 0.17016 0.22902
#
# Static dielectric constant tensor:
#      x y z
#    x 3.528440 0.000000 0.000000 
#    y 0.000000 3.526720 0.000000 
#    z 0.000000 0.000000 3.781560 
# 
# 
# High freq. dielectric constant tensor:
#      x y z
#    x 1.747940 0.000000 0.000000 
#    y 0.000000 1.751130 0.000000 
#    z 0.000000 0.000000 1.772520 
# 
# From -- ./inp_files/15559.got.cif
#   From: 2010.03.12/outbox.cif.g09.slc.cpg/sg38_8_cif.got.tgz:15559.got - 2010.04.14 02:38:36.
