data_PCOD8179122
_publ_section_title
;
Structure prediction by ZEFSAII (Michael W. Deem and Ramdas Pophale) SiO2 
 PCOD8179122
Probable space group: A M M 2
;
_chemical_formula_sum "Si O2"
_cell_formula_units_Z 56
_cell_length_a 9.531182
_cell_length_b 14.166215
_cell_length_c 22.989897
_cell_angle_alpha 90.000000
_cell_angle_beta 90.000000
_cell_angle_gamma 90.000000
_cell_volume 3104.113674
_symmetry_space_group_name_H-M "A M M 2"
_symmetry_group_IT_number 38
_symmetry_cell_setting 'orthorhombic'
loop_
_space_group_symop_operation_xyz
x,y,z
-x,-y,z
-x,y,z
x,-y,z
x,1/2+y,1/2+z
-x,1/2-y,1/2+z
-x,1/2+y,1/2+z
x,1/2-y,1/2+z
loop_
_atom_site_type_symbol
_atom_site_label
_atom_site_fract_x
_atom_site_fract_y
_atom_site_fract_z
Si Si1 0.159933 0.610353 0.693830
Si Si2 0.340074 0.608552 0.243304
Si Si3 0.833799 0.109861 0.962563
Si Si4 0.338744 0.708012 0.362518
Si Si5 0.836131 0.293218 0.578457
Si Si6 0.338451 0.106007 0.304991
Si Si7 0.163108 0.605365 0.132465
O O1 0.169032 0.500000 0.682103
O O2 0.226081 0.660127 0.636915
O O3 0.249164 0.639692 0.749796
O O4 0.000000 0.643086 0.704768
O O5 0.500000 0.627136 0.224625
O O6 0.313773 0.500000 0.259133
O O7 0.298770 0.667707 0.299622
O O8 0.243129 0.639978 0.189888
O O9 0.762855 0.161893 0.908914
O O10 0.000000 0.122985 0.956653
O O11 0.791901 0.000000 0.963597
O O12 0.771836 0.159923 0.020577
O O13 0.500000 0.684458 0.378630
O O14 0.313203 0.821394 0.358458
O O15 0.805642 0.180149 0.580637
O O16 0.000000 0.316034 0.577347
O O17 0.500000 0.109856 0.285364
O O18 0.296006 0.000000 0.325281
O O19 0.211209 0.500000 0.112792
O O20 0.000000 0.606408 0.148548
#
# Coordination Sequence:
#
# PCOD8179122 Si02
#       7
#     8   8   8   8   8   8   8
#     4   9  16  27  47  73  97 123 156 193 235 285
#     4   9  17  29  46  69  97 126 154 189 237 288
#     4  10  21  36  53  72  94 123 161 202 241 285
#     4  10  20  34  51  70  96 131 165 198 240 286
#     4   9  17  31  49  68  94 126 156 191 238 285
#     4   9  18  32  49  71 100 130 159 195 240 287
#     4   9  17  29  47  71  96 122 154 191 231 280
#
# _framework density 18.040576999999999
#
# number of rings (size 3 to 8) (size 9 to 14) (size 15 to 20)
#    0.000    2.714    0.000    1.714    0.000    3.714 
#    0.000    3.571    0.000    2.571    0.000    0.000 
#    0.000    0.000    0.000    0.000    0.000    0.000 
#
# Total GULP energy -347112.335183 kJ/mol
# GULP energy per Si atom -12396.869114 kJ/mol
# Density = 1.799952 g / cm^3
# Si number density = 18.040577 Si / 1000 Ang^3
#
#
#
# Elastic Constant Matrix: (Units=GPa)
#
#
# Indices 1 2 3 4 5 6 
#
# 1 45.5708 38.1180 43.5984 0.0000 0.0000 0.0000
# 2 38.1180 113.8712 75.6971 0.0000 0.0000 0.0000
# 3 43.5984 75.6971 94.4899 0.0000 0.0000 0.0000
# 4 0.0000 0.0000 0.0000 30.2024 0.0000 0.0000
# 5 0.0000 0.0000 0.0000 0.0000 4.4255 0.0000
# 6 0.0000 0.0000 0.0000 0.0000 0.0000 21.1326
#
#
#
# Elastic Compliance Matrix: (Units=1/GPa)
#
#
# Indices 1 2 3 4 5 6 
#
# 1 0.039584 -0.002373 -0.016363 0.000000 0.000000 0.000000
# 2 -0.002373 0.018929 -0.014069 0.000000 0.000000 0.000000
# 3 -0.016363 -0.014069 0.029404 0.000000 0.000000 0.000000
# 4 0.000000 0.000000 0.000000 0.033110 0.000000 0.000000
# 5 0.000000 0.000000 0.000000 0.000000 0.225966 0.000000
# 6 0.000000 0.000000 0.000000 0.000000 0.000000 0.047320
#
#
# Mechanical properties :
#
#
# Convention : Reuss Voigt Hill
#
# Bulk Modulus (GPa) = 44.83089 63.19542 54.01316
# Shear Modulus (GPa) = 10.69841 17.58666 14.14254
#
# Velocity S-wave (km/s) = 2.43784 3.12563 2.80291
# Velocity P-wave (km/s) = 5.72958 6.93770 6.36238
#
# Compressibility (1/GPa) = 0.02230605
#
# Stress axis : x y z
#
# Youngs Moduli (GPa) = 25.26296 52.82935 34.00853
#
# Poissons Ratio (x) = 0.12535 0.55649
# Poissons Ratio (y) = 0.05994 0.47848
# Poissons Ratio (z) = 0.41339 0.74327
#
# Static dielectric constant tensor:
#      x y z
#    x 3.200260 0.000000 0.000000 
#    y 0.000000 3.670150 0.000000 
#    z 0.000000 0.000000 3.204430 
# 
# 
# High freq. dielectric constant tensor:
#      x y z
#    x 1.677680 0.000000 0.000000 
#    y 0.000000 1.720280 0.000000 
#    z 0.000000 0.000000 1.673350 
# 
# From -- ./inp_files/19745.got.cif
#   From: 2010.03.12/outbox.cif.g09.slc.cpg/sg38_10_cif.got.tgz:19745.got - 2010.04.14 02:38:36.
