data_PCOD8179292
_publ_section_title
;
Structure prediction by ZEFSAII (Michael W. Deem and Ramdas Pophale) SiO2 
 PCOD8179292
Probable space group: A M M 2
;
_chemical_formula_sum "Si O2"
_cell_formula_units_Z 64
_cell_length_a 17.920252
_cell_length_b 8.906188
_cell_length_c 20.674979
_cell_angle_alpha 90.000000
_cell_angle_beta 90.000000
_cell_angle_gamma 90.000000
_cell_volume 3299.750080
_symmetry_space_group_name_H-M "A M M 2"
_symmetry_group_IT_number 38
_symmetry_cell_setting 'orthorhombic'
loop_
_space_group_symop_operation_xyz
x,y,z
-x,-y,z
-x,y,z
x,-y,z
x,1/2+y,1/2+z
-x,1/2-y,1/2+z
-x,1/2+y,1/2+z
x,1/2-y,1/2+z
loop_
_atom_site_type_symbol
_atom_site_label
_atom_site_fract_x
_atom_site_fract_y
_atom_site_fract_z
Si Si1 0.336585 0.676415 0.094680
Si Si2 0.085487 0.322644 0.470941
Si Si3 0.415922 0.678637 0.964776
Si Si4 0.164150 0.323989 0.092442
Si Si5 0.329322 0.678652 0.840386
Si Si6 0.840244 0.323378 0.847401
Si Si7 0.087554 0.326959 0.711679
Si Si8 0.415250 0.821855 0.215302
O O1 0.348028 0.500000 0.103953
O O2 0.250383 0.721861 0.095162
O O3 0.378603 0.760706 0.151068
O O4 0.372323 0.734051 0.027967
O O5 0.092613 0.500000 0.470683
O O6 0.127136 0.261335 0.533331
O O7 0.121032 0.259952 0.406048
O O8 0.000000 0.270074 0.474516
O O9 0.500000 0.742780 0.965565
O O10 0.417360 0.500000 0.961920
O O11 0.372642 0.743443 0.902588
O O12 0.153779 0.500000 0.081213
O O13 0.126568 0.277759 0.159446
O O14 0.331747 0.500000 0.840563
O O15 0.244354 0.735201 0.841409
O O16 0.369625 0.741839 0.776521
O O17 0.843354 0.500000 0.861334
O O18 0.883288 0.280503 0.782096
O O19 0.107268 0.500000 0.696673
O O20 0.000000 0.297972 0.709022
O O21 0.500000 0.764247 0.220615
O O22 0.412094 0.000000 0.213726
#
# Coordination Sequence:
#
# PCOD8179292 Si02
#       8
#     8   8   8   8   8   8   8   8
#     4  10  21  36  54  78 108 142 180 223 272 325
#     4  11  24  40  58  82 113 147 183 229 286 343
#     4   9  16  28  49  75 102 134 172 213 256 303
#     4  11  23  38  58  83 110 144 189 236 280 333
#     4   9  17  31  52  79 109 138 174 221 266 310
#     4  10  20  36  59  83 110 147 187 227 273 328
#     4  10  21  37  57  82 112 146 184 227 279 336
#     4  10  20  34  55  83 112 144 183 225 270 323
#
# _framework density 19.395406999999999
#
# number of rings (size 3 to 8) (size 9 to 14) (size 15 to 20)
#    0.000    2.000    0.000    3.750    0.000   10.000 
#    0.000    0.625    0.000    0.750    0.000    0.000 
#    0.000    0.000    0.000    0.000    0.000    0.000 
#
# Total GULP energy -396915.378726 kJ/mol
# GULP energy per Si atom -12403.605585 kJ/mol
# Density = 1.935126 g / cm^3
# Si number density = 19.395407 Si / 1000 Ang^3
#
#
#
# Elastic Constant Matrix: (Units=GPa)
#
#
# Indices 1 2 3 4 5 6 
#
# 1 152.5555 32.5413 77.8588 0.0000 0.0000 0.0000
# 2 32.5413 28.9016 27.2826 0.0000 0.0000 0.0000
# 3 77.8588 27.2826 166.8347 0.0000 0.0000 0.0000
# 4 0.0000 0.0000 0.0000 35.1821 0.0000 0.0000
# 5 0.0000 0.0000 0.0000 0.0000 45.6081 0.0000
# 6 0.0000 0.0000 0.0000 0.0000 0.0000 24.0328
#
#
#
# Elastic Compliance Matrix: (Units=1/GPa)
#
#
# Indices 1 2 3 4 5 6 
#
# 1 0.009984 -0.008092 -0.003336 0.000000 0.000000 0.000000
# 2 -0.008092 0.047475 -0.003987 0.000000 0.000000 0.000000
# 3 -0.003336 -0.003987 0.008203 0.000000 0.000000 0.000000
# 4 0.000000 0.000000 0.000000 0.028424 0.000000 0.000000
# 5 0.000000 0.000000 0.000000 0.000000 0.021926 0.000000
# 6 0.000000 0.000000 0.000000 0.000000 0.000000 0.041610
#
#
# Mechanical properties :
#
#
# Convention : Reuss Voigt Hill
#
# Bulk Modulus (GPa) = 28.70976 69.29521 49.00249
# Shear Modulus (GPa) = 24.99236 35.00521 29.99878
#
# Velocity S-wave (km/s) = 3.59356 4.25293 3.93707
# Velocity P-wave (km/s) = 5.66151 7.74091 6.78139
#
# Compressibility (1/GPa) = 0.03483136
#
# Stress axis : x y z
#
# Youngs Moduli (GPa) = 100.16475 21.06371 121.90950
#
# Poissons Ratio (x) = 0.17044 0.40668
# Poissons Ratio (y) = 0.81051 0.48609
# Poissons Ratio (z) = 0.33414 0.08399
#
# Static dielectric constant tensor:
#      x y z
#    x 3.702820 0.000000 0.000000 
#    y 0.000000 3.231490 0.000000 
#    z 0.000000 0.000000 3.621380 
# 
# 
# High freq. dielectric constant tensor:
#      x y z
#    x 1.777620 0.000000 0.000000 
#    y 0.000000 1.720810 0.000000 
#    z 0.000000 0.000000 1.775260 
# 
# From -- ./inp_files/21438.got.cif
#   From: 2010.03.12/outbox.cif.g09.slc.cpg/sg38_11_cif.got.tgz:21438.got - 2010.04.14 02:38:36.
