data_PCOD8179316
_publ_section_title
;
Structure prediction by ZEFSAII (Michael W. Deem and Ramdas Pophale) SiO2 
 PCOD8179316
Probable space group: A M M 2
;
_chemical_formula_sum "Si O2"
_cell_formula_units_Z 64
_cell_length_a 23.809937
_cell_length_b 8.951765
_cell_length_c 15.500338
_cell_angle_alpha 90.000000
_cell_angle_beta 90.000000
_cell_angle_gamma 90.000000
_cell_volume 3303.756932
_symmetry_space_group_name_H-M "A M M 2"
_symmetry_group_IT_number 38
_symmetry_cell_setting 'orthorhombic'
loop_
_space_group_symop_operation_xyz
x,y,z
-x,-y,z
-x,y,z
x,-y,z
x,1/2+y,1/2+z
-x,1/2-y,1/2+z
-x,1/2+y,1/2+z
x,1/2-y,1/2+z
loop_
_atom_site_type_symbol
_atom_site_label
_atom_site_fract_x
_atom_site_fract_y
_atom_site_fract_z
Si Si1 0.738657 0.176777 0.254320
Si Si2 0.134664 0.177413 0.258226
Si Si3 0.937667 0.322543 0.600076
Si Si4 0.562942 0.671767 0.342941
Si Si5 0.336409 0.171854 0.413527
Si Si6 0.329947 0.671370 0.104990
Si Si7 0.563432 0.325528 0.662324
Si Si8 0.934596 0.826534 0.906805
O O1 0.801913 0.239098 0.259603
O O2 0.706333 0.230187 0.340292
O O3 0.709813 0.238805 0.168798
O O4 0.738416 0.000000 0.247046
O O5 0.104874 0.241571 0.171835
O O6 0.102634 0.230556 0.342745
O O7 0.133779 0.000000 0.257896
O O8 0.939822 0.500000 0.603818
O O9 0.918651 0.274499 0.503985
O O10 0.000000 0.259116 0.619860
O O11 0.500000 0.690548 0.380465
O O12 0.574343 0.500000 0.317942
O O13 0.607375 0.727523 0.413488
O O14 0.572065 0.775163 0.260284
O O15 0.307254 0.189610 0.507133
O O16 0.353117 0.000000 0.397097
O O17 0.330723 0.500000 0.134360
O O18 0.393417 0.733993 0.103951
O O19 0.500000 0.291218 0.631039
O O20 0.577375 0.500000 0.656155
O O21 0.000000 0.794796 0.889015
O O22 0.920776 0.000000 0.893237
#
# Coordination Sequence:
#
# PCOD8179316 Si02
#       8
#     8   8   8   8   8   8   8   8
#     4  10  22  40  57  77 109 147 186 231 282 331
#     4  10  20  34  56  82 107 142 189 232 271 320
#     4   8  15  30  52  78 110 145 178 217 269 327
#     4  10  20  34  56  86 114 140 179 228 272 327
#     4  10  22  39  57  78 110 149 184 226 285 338
#     4  11  23  38  58  82 107 143 190 233 276 332
#     4  10  20  35  57  83 112 144 174 216 282 343
#     4   9  18  33  53  79 112 146 178 217 271 330
#
# _framework density 19.371884999999999
#
# number of rings (size 3 to 8) (size 9 to 14) (size 15 to 20)
#    0.000    2.250    1.250    2.250    0.000    5.250 
#    0.000    3.125    0.000    0.750    0.000    0.000 
#    0.000    0.000    0.000    0.000    0.000    0.000 
#
# Total GULP energy -396785.461564 kJ/mol
# GULP energy per Si atom -12399.545674 kJ/mol
# Density = 1.932779 g / cm^3
# Si number density = 19.371885 Si / 1000 Ang^3
#
#
#
# Elastic Constant Matrix: (Units=GPa)
#
#
# Indices 1 2 3 4 5 6 
#
# 1 123.0578 23.0928 69.4699 0.0000 0.0000 0.0000
# 2 23.0928 22.4081 17.9050 0.0000 0.0000 0.0000
# 3 69.4699 17.9050 126.4065 0.0000 0.0000 0.0000
# 4 0.0000 0.0000 0.0000 27.3342 0.0000 0.0000
# 5 0.0000 0.0000 0.0000 0.0000 13.2575 0.0000
# 6 0.0000 0.0000 0.0000 0.0000 0.0000 24.0767
#
#
#
# Elastic Compliance Matrix: (Units=1/GPa)
#
#
# Indices 1 2 3 4 5 6 
#
# 1 0.013151 -0.008770 -0.005985 0.000000 0.000000 0.000000
# 2 -0.008770 0.056171 -0.003136 0.000000 0.000000 0.000000
# 3 -0.005985 -0.003136 0.011645 0.000000 0.000000 0.000000
# 4 0.000000 0.000000 0.000000 0.036584 0.000000 0.000000
# 5 0.000000 0.000000 0.000000 0.000000 0.075429 0.000000
# 6 0.000000 0.000000 0.000000 0.000000 0.000000 0.041534
#
#
# Mechanical properties :
#
#
# Convention : Reuss Voigt Hill
#
# Bulk Modulus (GPa) = 22.13233 54.75641 38.44437
# Shear Modulus (GPa) = 17.52183 23.69401 20.60792
#
# Velocity S-wave (km/s) = 3.01075 3.50110 3.26514
# Velocity P-wave (km/s) = 4.85138 6.68363 5.83981
#
# Compressibility (1/GPa) = 0.04518278
#
# Stress axis : x y z
#
# Youngs Moduli (GPa) = 76.04058 17.80270 85.87730
#
# Poissons Ratio (x) = 0.15614 0.51398
# Poissons Ratio (y) = 0.66690 0.26935
# Poissons Ratio (z) = 0.45511 0.05584
#
# Static dielectric constant tensor:
#      x y z
#    x 3.759110 0.000000 0.000000 
#    y 0.000000 3.325300 0.000000 
#    z 0.000000 0.000000 3.555510 
# 
# 
# High freq. dielectric constant tensor:
#      x y z
#    x 1.750820 0.000000 0.000000 
#    y 0.000000 1.737450 0.000000 
#    z 0.000000 0.000000 1.757860 
# 
# From -- ./inp_files/15771.got.cif
#   From: 2010.03.12/outbox.cif.g09.slc.cpg/sg38_8_cif.got.tgz:15771.got - 2010.04.14 02:38:36.
