data_PCOD8179313
_publ_section_title
;
Structure prediction by ZEFSAII (Michael W. Deem and Ramdas Pophale) SiO2 
 PCOD8179313
Probable space group: A M M 2
;
_chemical_formula_sum "Si O2"
_cell_formula_units_Z 32
_cell_length_a 8.639867
_cell_length_b 7.759213
_cell_length_c 24.201946
_cell_angle_alpha 90.000000
_cell_angle_beta 90.000000
_cell_angle_gamma 90.000000
_cell_volume 1622.463811
_symmetry_space_group_name_H-M "A M M 2"
_symmetry_group_IT_number 38
_symmetry_cell_setting 'orthorhombic'
loop_
_space_group_symop_operation_xyz
x,y,z
-x,-y,z
-x,y,z
x,-y,z
x,1/2+y,1/2+z
-x,1/2-y,1/2+z
-x,1/2+y,1/2+z
x,1/2-y,1/2+z
loop_
_atom_site_type_symbol
_atom_site_label
_atom_site_fract_x
_atom_site_fract_y
_atom_site_fract_z
Si Si1 0.184462 0.305743 0.535500
Si Si2 0.819480 0.807778 0.298144
Si Si3 0.183403 0.500000 0.110356
Si Si4 0.679967 0.000000 0.730483
Si Si5 0.817040 0.308210 0.414195
O O1 0.243651 0.500000 0.548944
O O2 0.250970 0.171031 0.580260
O O3 0.244512 0.246489 0.474323
O O4 0.000000 0.304462 0.536774
O O5 0.721766 0.672222 0.263530
O O6 0.763928 0.808073 0.362414
O O7 0.000000 0.756528 0.293906
O O8 0.790820 0.000000 0.274661
O O9 0.229272 0.500000 0.173522
O O10 0.000000 0.500000 0.105838
O O11 0.500000 0.000000 0.717705
O O12 0.755272 0.500000 0.402123
O O13 0.000000 0.308159 0.417912
#
# Coordination Sequence:
#
# PCOD8179313 Si02
#       5
#     8   8   4   4   8
#     4   8  15  27  47  82 116 138 166 218 283 338
#     4  10  20  35  60  90 115 144 186 238 291 340
#     4  10  20  34  56  80 106 142 191 238 279 328
#     4  12  26  42  56  74 114 162 203 238 277 334
#     4   8  13  25  49  83 119 141 165 217 285 344
#
# _framework density 19.723091
#
# number of rings (size 3 to 8) (size 9 to 14) (size 15 to 20)
#    0.000    2.750    1.250    2.625    1.750    1.500 
#    0.000    2.500    0.000    1.500    0.000    0.000 
#    0.000    0.000    0.000    0.000    0.000    0.000 
#
# Total GULP energy -198248.843365 kJ/mol
# GULP energy per Si atom -12390.552710 kJ/mol
# Density = 1.967820 g / cm^3
# Si number density = 19.723091 Si / 1000 Ang^3
#
#
#
# Elastic Constant Matrix: (Units=GPa)
#
#
# Indices 1 2 3 4 5 6 
#
# 1 12.0745 11.1794 0.5105 0.0000 0.0000 0.0000
# 2 11.1794 120.4145 58.5135 0.0000 0.0000 0.0000
# 3 0.5105 58.5135 119.4367 0.0000 0.0000 0.0000
# 4 0.0000 0.0000 0.0000 8.4541 0.0000 0.0000
# 5 0.0000 0.0000 0.0000 0.0000 -2.8653 0.0000
# 6 0.0000 0.0000 0.0000 0.0000 0.0000 9.6769
#
#
#
# Elastic Compliance Matrix: (Units=1/GPa)
#
#
# Indices 1 2 3 4 5 6 
#
# 1 0.092847 -0.011060 0.005022 0.000000 0.000000 0.000000
# 2 -0.011060 0.012217 -0.005938 0.000000 0.000000 0.000000
# 3 0.005022 -0.005938 0.011260 0.000000 0.000000 0.000000
# 4 0.000000 0.000000 0.000000 0.118286 0.000000 0.000000
# 5 0.000000 0.000000 0.000000 0.000000 -0.349005 0.000000
# 6 0.000000 0.000000 0.000000 0.000000 0.000000 0.103339
#
#
# Mechanical properties :
#
#
# Convention : Reuss Voigt Hill
#
# Bulk Modulus (GPa) = 10.82588 43.59249 27.20919
# Shear Modulus (GPa) = 114.44965 15.16796 64.80881
#
# Velocity S-wave (km/s) = 7.62589 2.77618 5.73853
# Velocity P-wave (km/s) = 9.11262 5.69442 7.59823
#
# Compressibility (1/GPa) = 0.09237123
#
# Stress axis : x y z
#
# Youngs Moduli (GPa) = 10.77042 81.85351 88.80788
#
# Poissons Ratio (x) = 0.90532 -0.44597
# Poissons Ratio (y) = 0.11912 0.52734
# Poissons Ratio (z) = -0.05409 0.48604
#
# Static dielectric constant tensor:
#      x y z
#    x 2.903140 0.000000 0.000000 
#    y 0.000000 3.804010 0.000000 
#    z 0.000000 0.000000 3.830730 
# 
# 
# High freq. dielectric constant tensor:
#      x y z
#    x 1.694670 0.000000 0.000000 
#    y 0.000000 1.775830 0.000000 
#    z 0.000000 0.000000 1.775480 
# 
# From -- ./inp_files/21605.got.cif
#   From: 2010.03.12/outbox.cif.g09.slc.cpg/sg38_11_cif.got.tgz:21605.got - 2010.04.14 02:38:36.
