data_PCOD8179440
_publ_section_title
;
Structure prediction by ZEFSAII (Michael W. Deem and Ramdas Pophale) SiO2 
 PCOD8179440
Probable space group: A M M 2
;
_chemical_formula_sum "Si O2"
_cell_formula_units_Z 64
_cell_length_a 14.604059
_cell_length_b 8.852662
_cell_length_c 24.671647
_cell_angle_alpha 90.000000
_cell_angle_beta 90.000000
_cell_angle_gamma 90.000000
_cell_volume 3189.668903
_symmetry_space_group_name_H-M "A M M 2"
_symmetry_group_IT_number 38
_symmetry_cell_setting 'orthorhombic'
loop_
_space_group_symop_operation_xyz
x,y,z
-x,-y,z
-x,y,z
x,-y,z
x,1/2+y,1/2+z
-x,1/2-y,1/2+z
-x,1/2+y,1/2+z
x,1/2-y,1/2+z
loop_
_atom_site_type_symbol
_atom_site_label
_atom_site_fract_x
_atom_site_fract_y
_atom_site_fract_z
Si Si1 0.397518 0.326157 0.291790
Si Si2 0.206873 0.173314 0.528806
Si Si3 0.599254 0.825933 0.569105
Si Si4 0.774377 0.821140 0.337975
Si Si5 0.099372 0.329472 0.740873
Si Si6 0.105942 0.322033 0.432110
Si Si7 0.178271 0.828579 0.650895
Si Si8 0.360007 0.323206 0.678884
O O1 0.500000 0.310336 0.316108
O O2 0.367855 0.500000 0.287090
O O3 0.328346 0.243779 0.333539
O O4 0.399387 0.254741 0.232183
O O5 0.314277 0.227193 0.532373
O O6 0.148927 0.280253 0.490043
O O7 0.159338 0.192523 0.587397
O O8 0.201283 0.000000 0.508552
O O9 0.500000 0.807407 0.538996
O O10 0.590176 0.735504 0.624961
O O11 0.618696 0.000000 0.584383
O O12 0.826082 0.770559 0.283482
O O13 0.830127 0.756617 0.388230
O O14 0.769671 0.000000 0.344514
O O15 0.121615 0.500000 0.722806
O O16 0.092936 0.221074 0.687845
O O17 0.000000 0.321007 0.769332
O O18 0.110580 0.500000 0.423946
O O19 0.000000 0.266273 0.428556
O O20 0.253675 0.712912 0.673084
O O21 0.208009 0.000000 0.662585
O O22 0.376949 0.500000 0.684916
#
# Coordination Sequence:
#
# PCOD8179440 Si02
#       8
#     8   8   8   8   8   8   8   8
#     4  11  23  38  58  86 122 162 201 244 295 350
#     4   9  20  38  60  87 117 153 199 249 300 355
#     4   9  18  34  56  84 120 160 200 242 293 354
#     4  11  23  41  65  90 118 155 199 249 302 357
#     4  10  21  36  56  86 121 155 191 237 299 364
#     4  11  25  44  66  90 115 152 202 253 306 362
#     4  10  20  35  56  83 119 161 200 242 298 355
#     4  11  20  31  51  82 120 162 205 245 289 345
#
# _framework density 20.064779999999999
#
# number of rings (size 3 to 8) (size 9 to 14) (size 15 to 20)
#    0.000    1.750    1.250    4.125    0.000    8.000 
#    0.000    3.125    0.000    2.250    0.000    0.000 
#    0.000    0.000    0.000    0.000    0.000    0.000 
#
# Total GULP energy -396654.537125 kJ/mol
# GULP energy per Si atom -12395.454285 kJ/mol
# Density = 2.001911 g / cm^3
# Si number density = 20.064780 Si / 1000 Ang^3
#
#
#
# Elastic Constant Matrix: (Units=GPa)
#
#
# Indices 1 2 3 4 5 6 
#
# 1 127.5769 46.4879 53.2569 0.0000 0.0000 0.0000
# 2 46.4879 95.3718 45.6061 0.0000 0.0000 0.0000
# 3 53.2569 45.6061 91.4362 0.0000 0.0000 0.0000
# 4 0.0000 0.0000 0.0000 33.9343 0.0000 0.0000
# 5 0.0000 0.0000 0.0000 0.0000 14.7515 0.0000
# 6 0.0000 0.0000 0.0000 0.0000 0.0000 28.0184
#
#
#
# Elastic Compliance Matrix: (Units=1/GPa)
#
#
# Indices 1 2 3 4 5 6 
#
# 1 0.010978 -0.003012 -0.004892 0.000000 0.000000 0.000000
# 2 -0.003012 0.014596 -0.005526 0.000000 0.000000 0.000000
# 3 -0.004892 -0.005526 0.016542 0.000000 0.000000 0.000000
# 4 0.000000 0.000000 0.000000 0.029469 0.000000 0.000000
# 5 0.000000 0.000000 0.000000 0.000000 0.067790 0.000000
# 6 0.000000 0.000000 0.000000 0.000000 0.000000 0.035691
#
#
# Mechanical properties :
#
#
# Convention : Reuss Voigt Hill
#
# Bulk Modulus (GPa) = 65.54473 67.23184 66.38828
# Shear Modulus (GPa) = 24.15347 26.60978 25.38163
#
# Velocity S-wave (km/s) = 3.47331 3.64564 3.56052
# Velocity P-wave (km/s) = 6.98732 7.16248 7.07544
#
# Compressibility (1/GPa) = 0.01525676
#
# Stress axis : x y z
#
# Youngs Moduli (GPa) = 91.09107 68.51318 60.45223
#
# Poissons Ratio (x) = 0.20635 0.29573
# Poissons Ratio (y) = 0.27435 0.33404
# Poissons Ratio (z) = 0.44561 0.37859
#
# Static dielectric constant tensor:
#      x y z
#    x 3.874850 0.000000 0.000000 
#    y 0.000000 3.613630 0.000000 
#    z 0.000000 0.000000 3.455660 
# 
# 
# High freq. dielectric constant tensor:
#      x y z
#    x 1.796760 0.000000 0.000000 
#    y 0.000000 1.784930 0.000000 
#    z 0.000000 0.000000 1.758060 
# 
# From -- ./inp_files/22875.got.cif
#   From: 2010.03.12/outbox.cif.g09.slc.cpg/sg38_12_cif.got.tgz:22875.got - 2010.04.14 02:38:36.
