data_PCOD8179372
_publ_section_title
;
Structure prediction by ZEFSAII (Michael W. Deem and Ramdas Pophale) SiO2 
 PCOD8179372
Probable space group: A M M 2
;
_chemical_formula_sum "Si O2"
_cell_formula_units_Z 64
_cell_length_a 8.898351
_cell_length_b 28.313458
_cell_length_c 14.174436
_cell_angle_alpha 90.000000
_cell_angle_beta 90.000000
_cell_angle_gamma 90.000000
_cell_volume 3571.151167
_symmetry_space_group_name_H-M "A M M 2"
_symmetry_group_IT_number 38
_symmetry_cell_setting 'orthorhombic'
loop_
_space_group_symop_operation_xyz
x,y,z
-x,-y,z
-x,y,z
x,-y,z
x,1/2+y,1/2+z
-x,1/2-y,1/2+z
-x,1/2+y,1/2+z
x,1/2-y,1/2+z
loop_
_atom_site_type_symbol
_atom_site_label
_atom_site_fract_x
_atom_site_fract_y
_atom_site_fract_z
Si Si1 0.177834 0.554273 0.590280
Si Si2 0.323681 0.699391 0.095781
Si Si3 0.177230 0.947060 0.610188
Si Si4 0.674468 0.378841 0.246383
Si Si5 0.322290 0.871100 0.961841
Si Si6 0.823794 0.622958 0.749605
Si Si7 0.821341 0.870678 0.459621
Si Si8 0.822331 0.199852 0.100817
O O1 0.226620 0.500000 0.591294
O O2 0.261717 0.579961 0.504715
O O3 0.230655 0.577652 0.689192
O O4 0.000000 0.560932 0.576044
O O5 0.500000 0.706415 0.081256
O O6 0.284936 0.667564 0.186402
O O7 0.255004 0.675931 0.002184
O O8 0.246579 0.749062 0.113743
O O9 0.240010 0.924320 0.705883
O O10 0.227895 0.916603 0.519417
O O11 0.000000 0.947948 0.618890
O O12 0.241410 0.000000 0.598304
O O13 0.500000 0.390709 0.239935
O O14 0.725732 0.369748 0.352888
O O15 0.500000 0.868037 0.975680
O O16 0.246278 0.825812 0.009742
O O17 0.753960 0.622624 0.854364
O O18 0.778445 0.670537 0.694494
O O19 0.000000 0.619776 0.762359
O O20 0.000000 0.863422 0.461150
O O21 0.000000 0.202965 0.087086
#
# Coordination Sequence:
#
# PCOD8179372 Si02
#       8
#     8   8   8   8   8   8   8   8
#     4   9  18  33  52  75 103 134 167 203 245 293
#     4  10  20  35  52  72  99 130 165 204 247 293
#     4   9  18  31  49  75 103 130 164 206 248 290
#     4   9  20  36  52  71  98 133 169 204 245 294
#     4  10  20  35  53  74 100 130 167 208 248 290
#     4   8  16  31  51  74  99 128 163 201 241 290
#     4   9  17  32  52  74 101 131 164 203 247 293
#     4  10  20  35  53  75 101 129 163 201 247 298
#
# _framework density 17.921392000000001
#
# number of rings (size 3 to 8) (size 9 to 14) (size 15 to 20)
#    0.000    2.750    0.000    1.875    0.000    4.000 
#    0.000   10.625    0.000    0.000    0.000    5.250 
#    0.000    0.000    0.000    0.000    0.000    0.000 
#
# Total GULP energy -396799.490834 kJ/mol
# GULP energy per Si atom -12399.984089 kJ/mol
# Density = 1.788060 g / cm^3
# Si number density = 17.921392 Si / 1000 Ang^3
#
#
#
# Elastic Constant Matrix: (Units=GPa)
#
#
# Indices 1 2 3 4 5 6 
#
# 1 44.5362 41.5517 36.8728 0.0000 0.0000 0.0000
# 2 41.5517 150.3830 65.6857 0.0000 0.0000 0.0000
# 3 36.8728 65.6857 152.2672 0.0000 0.0000 0.0000
# 4 0.0000 0.0000 0.0000 13.2914 0.0000 0.0000
# 5 0.0000 0.0000 0.0000 0.0000 23.3898 0.0000
# 6 0.0000 0.0000 0.0000 0.0000 0.0000 23.7960
#
#
#
# Elastic Compliance Matrix: (Units=1/GPa)
#
#
# Indices 1 2 3 4 5 6 
#
# 1 0.033092 -0.006954 -0.005014 0.000000 0.000000 0.000000
# 2 -0.006954 0.009655 -0.002481 0.000000 0.000000 0.000000
# 3 -0.005014 -0.002481 0.008852 0.000000 0.000000 0.000000
# 4 0.000000 0.000000 0.000000 0.075237 0.000000 0.000000
# 5 0.000000 0.000000 0.000000 0.000000 0.042754 0.000000
# 6 0.000000 0.000000 0.000000 0.000000 0.000000 0.042024
#
#
# Mechanical properties :
#
#
# Convention : Reuss Voigt Hill
#
# Bulk Modulus (GPa) = 44.04925 70.60075 57.32500
# Shear Modulus (GPa) = 20.15498 25.63386 22.89442
#
# Velocity S-wave (km/s) = 3.35719 3.78610 3.57808
# Velocity P-wave (km/s) = 6.29763 7.65460 7.00903
#
# Compressibility (1/GPa) = 0.02270186
#
# Stress axis : x y z
#
# Youngs Moduli (GPa) = 30.21842 103.57672 112.97097
#
# Poissons Ratio (x) = 0.72023 0.56643
# Poissons Ratio (y) = 0.21013 0.28028
# Poissons Ratio (z) = 0.15151 0.25697
#
# Static dielectric constant tensor:
#      x y z
#    x 3.189320 0.000000 0.000000 
#    y 0.000000 3.426440 0.000000 
#    z 0.000000 0.000000 3.536510 
# 
# 
# High freq. dielectric constant tensor:
#      x y z
#    x 1.682770 0.000000 0.000000 
#    y 0.000000 1.697470 0.000000 
#    z 0.000000 0.000000 1.697220 
# 
# From -- ./inp_files/13091.got.cif
#   From: 2010.03.12/outbox.cif.g09.slc.cpg/sg38_7_cif.got.tgz:13091.got - 2010.04.14 02:38:36.
