data_PCOD8179351
_publ_section_title
;
Structure prediction by ZEFSAII (Michael W. Deem and Ramdas Pophale) SiO2 
 PCOD8179351
Probable space group: A M M 2
;
_chemical_formula_sum "Si O2"
_cell_formula_units_Z 64
_cell_length_a 13.996435
_cell_length_b 9.004603
_cell_length_c 25.998178
_cell_angle_alpha 90.000000
_cell_angle_beta 90.000000
_cell_angle_gamma 90.000000
_cell_volume 3276.611224
_symmetry_space_group_name_H-M "A M M 2"
_symmetry_group_IT_number 38
_symmetry_cell_setting 'orthorhombic'
loop_
_space_group_symop_operation_xyz
x,y,z
-x,-y,z
-x,y,z
x,-y,z
x,1/2+y,1/2+z
-x,1/2-y,1/2+z
-x,1/2+y,1/2+z
x,1/2-y,1/2+z
loop_
_atom_site_type_symbol
_atom_site_label
_atom_site_fract_x
_atom_site_fract_y
_atom_site_fract_z
Si Si1 0.886813 0.164741 0.165540
Si Si2 0.612727 0.330933 0.608866
Si Si3 0.293529 0.325098 0.503737
Si Si4 0.109523 0.325533 0.267022
Si Si5 0.714748 0.324073 0.805290
Si Si6 0.613332 0.670603 0.210793
Si Si7 0.895228 0.175658 0.053282
Si Si8 0.391667 0.824319 0.407933
O O1 0.854414 0.277605 0.210151
O O2 0.854367 0.226031 0.109438
O O3 0.000000 0.154749 0.163701
O O4 0.844671 0.000000 0.177303
O O5 0.500000 0.317524 0.605347
O O6 0.646261 0.500000 0.617698
O O7 0.653568 0.270001 0.555214
O O8 0.652368 0.234831 0.656618
O O9 0.308304 0.500000 0.495461
O O10 0.181275 0.281364 0.509515
O O11 0.334453 0.239867 0.455587
O O12 0.121476 0.500000 0.272694
O O13 0.178137 0.243869 0.307826
O O14 0.000000 0.276264 0.277112
O O15 0.721445 0.500000 0.802205
O O16 0.657741 0.264322 0.756595
O O17 0.659281 0.270315 0.855980
O O18 0.500000 0.688950 0.213634
O O19 0.645077 0.500000 0.215775
O O20 0.000000 0.245730 0.040574
O O21 0.905870 0.000000 0.056713
O O22 0.500000 0.763393 0.408068
O O23 0.390755 0.000000 0.412113
#
# Coordination Sequence:
#
# PCOD8179351 Si02
#       8
#     8   8   8   8   8   8   8   8
#     4   8  14  27  49  76 108 150 194 229 266 319
#     4   9  18  32  50  77 113 149 186 229 280 341
#     4  10  20  34  57  86 113 146 192 236 279 333
#     4  10  21  36  54  82 120 153 186 233 286 338
#     4  11  23  39  61  83 108 147 196 241 286 345
#     4  10  21  36  55  83 117 149 183 230 292 354
#     4   8  15  29  50  79 115 151 189 230 269 318
#     4  10  23  43  63  83 108 141 185 239 297 349
#
# _framework density 19.532374999999998
#
# number of rings (size 3 to 8) (size 9 to 14) (size 15 to 20)
#    0.000    2.500    0.000    2.625    1.750    4.250 
#    0.000    2.500    0.000    3.375    0.000    0.000 
#    0.000    0.000    0.000    0.000    0.000    0.000 
#
# Total GULP energy -396736.891003 kJ/mol
# GULP energy per Si atom -12398.027844 kJ/mol
# Density = 1.948792 g / cm^3
# Si number density = 19.532375 Si / 1000 Ang^3
#
#
#
# Elastic Constant Matrix: (Units=GPa)
#
#
# Indices 1 2 3 4 5 6 
#
# 1 87.1941 33.3396 73.5117 0.0000 0.0000 0.0000
# 2 33.3396 52.1153 36.6525 0.0000 0.0000 0.0000
# 3 73.5117 36.6525 136.4720 0.0000 0.0000 0.0000
# 4 0.0000 0.0000 0.0000 32.3404 0.0000 0.0000
# 5 0.0000 0.0000 0.0000 0.0000 34.5513 0.0000
# 6 0.0000 0.0000 0.0000 0.0000 0.0000 25.0765
#
#
#
# Elastic Compliance Matrix: (Units=1/GPa)
#
#
# Indices 1 2 3 4 5 6 
#
# 1 0.023136 -0.007442 -0.010464 0.000000 0.000000 0.000000
# 2 -0.007442 0.026050 -0.002988 0.000000 0.000000 0.000000
# 3 -0.010464 -0.002988 0.013766 0.000000 0.000000 0.000000
# 4 0.000000 0.000000 0.000000 0.030921 0.000000 0.000000
# 5 0.000000 0.000000 0.000000 0.000000 0.028943 0.000000
# 6 0.000000 0.000000 0.000000 0.000000 0.000000 0.039878
#
#
# Mechanical properties :
#
#
# Convention : Reuss Voigt Hill
#
# Bulk Modulus (GPa) = 47.24550 62.53212 54.88881
# Shear Modulus (GPa) = 23.63672 27.21214 25.42443
#
# Velocity S-wave (km/s) = 3.48247 3.73658 3.61176
# Velocity P-wave (km/s) = 6.35696 7.12041 6.74948
#
# Compressibility (1/GPa) = 0.02116604
#
# Stress axis : x y z
#
# Youngs Moduli (GPa) = 43.22322 38.38745 72.64114
#
# Poissons Ratio (x) = 0.28566 0.76009
# Poissons Ratio (y) = 0.32165 0.21704
# Poissons Ratio (z) = 0.45227 0.11470
#
# Static dielectric constant tensor:
#      x y z
#    x 3.920190 0.000000 0.000000 
#    y 0.000000 3.389830 0.000000 
#    z 0.000000 0.000000 3.606080 
# 
# 
# High freq. dielectric constant tensor:
#      x y z
#    x 1.779130 0.000000 0.000000 
#    y 0.000000 1.738240 0.000000 
#    z 0.000000 0.000000 1.747120 
# 
# From -- ./inp_files/22991.got.cif
#   From: 2010.03.12/outbox.cif.g09.slc.cpg/sg38_12_cif.got.tgz:22991.got - 2010.04.14 02:38:36.
