data_PCOD8179525
_publ_section_title
;
Structure prediction by ZEFSAII (Michael W. Deem and Ramdas Pophale) SiO2 
 PCOD8179525
Probable space group: A M M 2
;
_chemical_formula_sum "Si O2"
_cell_formula_units_Z 64
_cell_length_a 23.504158
_cell_length_b 8.718581
_cell_length_c 15.515883
_cell_angle_alpha 90.000000
_cell_angle_beta 90.000000
_cell_angle_gamma 90.000000
_cell_volume 3179.559824
_symmetry_space_group_name_H-M "A M M 2"
_symmetry_group_IT_number 38
_symmetry_cell_setting 'orthorhombic'
loop_
_space_group_symop_operation_xyz
x,y,z
-x,-y,z
-x,y,z
x,-y,z
x,1/2+y,1/2+z
-x,1/2-y,1/2+z
-x,1/2+y,1/2+z
x,1/2-y,1/2+z
loop_
_atom_site_type_symbol
_atom_site_label
_atom_site_fract_x
_atom_site_fract_y
_atom_site_fract_z
Si Si1 0.820178 0.822419 0.766610
Si Si2 0.237938 0.680133 0.603201
Si Si3 0.064360 0.676927 0.506761
Si Si4 0.172459 0.179171 0.443427
Si Si5 0.936972 0.674157 0.186394
Si Si6 0.564049 0.181218 0.759428
Si Si7 0.564508 0.319736 0.936539
Si Si8 0.638916 0.681814 0.099109
O O1 0.785991 0.728427 0.695580
O O2 0.801152 0.762659 0.860094
O O3 0.888288 0.795411 0.757006
O O4 0.803678 0.000000 0.757461
O O5 0.230393 0.500000 0.590478
O O6 0.203468 0.765984 0.529165
O O7 0.303220 0.725502 0.596676
O O8 0.079943 0.500000 0.490720
O O9 0.105664 0.781422 0.449841
O O10 0.072852 0.711047 0.607589
O O11 0.000000 0.713538 0.478141
O O12 0.181452 0.000000 0.431833
O O13 0.931740 0.500000 0.150991
O O14 0.000000 0.700348 0.227429
O O15 0.500000 0.244415 0.744208
O O16 0.588688 0.243500 0.849547
O O17 0.604133 0.238033 0.682502
O O18 0.563282 0.000000 0.762374
O O19 0.500000 0.264433 0.954774
O O20 0.566740 0.500000 0.924094
O O21 0.603319 0.267785 0.015678
O O22 0.650522 0.500000 0.100856
#
# Coordination Sequence:
#
# PCOD8179525 Si02
#       8
#     8   8   8   8   8   8   8   8
#     4  11  23  41  65  91 120 157 198 247 305 365
#     4  12  26  44  63  86 119 158 205 257 305 358
#     4  10  20  35  59  90 123 157 195 242 297 358
#     4  12  25  42  64  89 119 159 203 250 303 361
#     4   9  18  34  59  89 120 154 191 237 297 362
#     4   9  18  34  58  88 121 156 193 236 289 349
#     4   9  18  34  58  88 121 156 194 239 292 348
#     4  10  21  38  60  84 116 158 201 243 292 354
#
# _framework density 20.128572999999999
#
# number of rings (size 3 to 8) (size 9 to 14) (size 15 to 20)
#    0.000    1.750    1.250    3.375    0.000    5.250 
#    0.000    3.750    0.000    3.750    0.000    0.000 
#    0.000    0.000    0.000    0.000    0.000    0.000 
#
# Total GULP energy -396884.006553 kJ/mol
# GULP energy per Si atom -12402.625205 kJ/mol
# Density = 2.008276 g / cm^3
# Si number density = 20.128573 Si / 1000 Ang^3
#
#
#
# Elastic Constant Matrix: (Units=GPa)
#
#
# Indices 1 2 3 4 5 6 
#
# 1 95.1166 26.9061 40.5108 0.0000 0.0000 0.0000
# 2 26.9061 55.8755 11.8850 0.0000 0.0000 0.0000
# 3 40.5108 11.8850 103.2767 0.0000 0.0000 0.0000
# 4 0.0000 0.0000 0.0000 35.4325 0.0000 0.0000
# 5 0.0000 0.0000 0.0000 0.0000 -6.0232 0.0000
# 6 0.0000 0.0000 0.0000 0.0000 0.0000 29.5424
#
#
#
# Elastic Compliance Matrix: (Units=1/GPa)
#
#
# Indices 1 2 3 4 5 6 
#
# 1 0.014255 -0.005818 -0.004922 0.000000 0.000000 0.000000
# 2 -0.005818 0.020720 -0.000102 0.000000 0.000000 0.000000
# 3 -0.004922 -0.000102 0.011625 0.000000 0.000000 0.000000
# 4 0.000000 0.000000 0.000000 0.028223 0.000000 0.000000
# 5 0.000000 0.000000 0.000000 0.000000 -0.166024 0.000000
# 6 0.000000 0.000000 0.000000 0.000000 0.000000 0.033850
#
#
# Mechanical properties :
#
#
# Convention : Reuss Voigt Hill
#
# Bulk Modulus (GPa) = 40.13449 45.87472 43.00461
# Shear Modulus (GPa) = -182.74706 23.45479 -79.64613
#
# Velocity S-wave (km/s) = -9.53871 3.41728 -6.29719
# Velocity P-wave (km/s) = 10.06646 6.19764 5.60905
#
# Compressibility (1/GPa) = 0.02491623
#
# Stress axis : x y z
#
# Youngs Moduli (GPa) = 70.14837 48.26229 86.01912
#
# Poissons Ratio (x) = 0.28077 0.42341
# Poissons Ratio (y) = 0.40809 0.00882
# Poissons Ratio (z) = 0.34529 0.00495
#
# Static dielectric constant tensor:
#      x y z
#    x 3.827640 0.000000 0.000000 
#    y 0.000000 3.579690 0.000000 
#    z 0.000000 0.000000 3.661990 
# 
# 
# High freq. dielectric constant tensor:
#      x y z
#    x 1.786070 0.000000 0.000000 
#    y 0.000000 1.781820 0.000000 
#    z 0.000000 0.000000 1.787070 
# 
# From -- ./inp_files/15763.got.cif
#   From: 2010.03.12/outbox.cif.g09.slc.cpg/sg38_8_cif.got.tgz:15763.got - 2010.04.14 02:38:36.
