data_PCOD8179939
_publ_section_title
;
Structure prediction by ZEFSAII (Michael W. Deem and Ramdas Pophale) SiO2 
 PCOD8179939
Probable space group: A M M 2
;
_chemical_formula_sum "Si O2"
_cell_formula_units_Z 48
_cell_length_a 9.280976
_cell_length_b 9.190539
_cell_length_c 30.808170
_cell_angle_alpha 90.000000
_cell_angle_beta 90.000000
_cell_angle_gamma 90.000000
_cell_volume 2627.849772
_symmetry_space_group_name_H-M "A M M 2"
_symmetry_group_IT_number 38
_symmetry_cell_setting 'orthorhombic'
loop_
_space_group_symop_operation_xyz
x,y,z
-x,-y,z
-x,y,z
x,-y,z
x,1/2+y,1/2+z
-x,1/2-y,1/2+z
-x,1/2+y,1/2+z
x,1/2-y,1/2+z
loop_
_atom_site_type_symbol
_atom_site_label
_atom_site_fract_x
_atom_site_fract_y
_atom_site_fract_z
Si Si1 0.166276 0.671434 0.111730
Si Si2 0.333924 0.828974 0.376236
Si Si3 0.834243 0.670347 0.450351
Si Si4 0.831640 0.166419 0.198005
Si Si5 0.668923 0.169031 0.036409
Si Si6 0.659654 0.327134 0.779677
O O1 0.187881 0.500000 0.113735
O O2 0.218667 0.738440 0.157227
O O3 0.266950 0.736162 0.074877
O O4 0.000000 0.713602 0.102434
O O5 0.500000 0.786614 0.385600
O O6 0.227366 0.748870 0.408442
O O7 0.289563 0.777568 0.327618
O O8 0.312097 0.000000 0.381956
O O9 0.816839 0.500000 0.442750
O O10 0.744885 0.720924 0.492290
O O11 0.000000 0.715265 0.457250
O O12 0.761731 0.233040 0.241644
O O13 0.000000 0.177532 0.205265
O O14 0.782816 0.000000 0.189771
O O15 0.500000 0.199981 0.032109
O O16 0.701281 0.000000 0.045815
O O17 0.500000 0.266757 0.770559
O O18 0.658911 0.500000 0.779080
#
# Coordination Sequence:
#
# PCOD8179939 Si02
#       6
#     8   8   8   8   8   8
#     4  10  21  36  53  75 105 138 169 205 253 305
#     4   9  18  33  53  77 105 137 172 210 253 300
#     4  10  21  36  54  77 104 134 169 209 253 302
#     4   9  17  30  50  74  99 131 171 211 250 294
#     4  10  21  37  57  78  99 129 170 212 254 302
#     4   8  15  29  49  73 100 130 167 210 251 293
#
# _framework density 18.265884
#
# number of rings (size 3 to 8) (size 9 to 14) (size 15 to 20)
#    0.000    2.667    0.000    2.500    0.000    5.333 
#    0.000    4.167    0.000    3.000    0.000    0.000 
#    0.000    0.000    0.000    0.000    0.000    0.000 
#
# Total GULP energy -297590.366052 kJ/mol
# GULP energy per Si atom -12399.598585 kJ/mol
# Density = 1.822431 g / cm^3
# Si number density = 18.265884 Si / 1000 Ang^3
#
#
#
# Elastic Constant Matrix: (Units=GPa)
#
#
# Indices 1 2 3 4 5 6 
#
# 1 100.5326 45.3345 87.1228 0.0000 0.0000 0.0000
# 2 45.3345 49.9731 57.2964 0.0000 0.0000 0.0000
# 3 87.1228 57.2964 173.0966 0.0000 0.0000 0.0000
# 4 0.0000 0.0000 0.0000 29.2046 0.0000 0.0000
# 5 0.0000 0.0000 0.0000 0.0000 41.7609 0.0000
# 6 0.0000 0.0000 0.0000 0.0000 0.0000 25.4378
#
#
#
# Elastic Compliance Matrix: (Units=1/GPa)
#
#
# Indices 1 2 3 4 5 6 
#
# 1 0.020874 -0.011105 -0.006830 0.000000 0.000000 0.000000
# 2 -0.011105 0.038158 -0.007041 0.000000 0.000000 0.000000
# 3 -0.006830 -0.007041 0.011546 0.000000 0.000000 0.000000
# 4 0.000000 0.000000 0.000000 0.034241 0.000000 0.000000
# 5 0.000000 0.000000 0.000000 0.000000 0.023946 0.000000
# 6 0.000000 0.000000 0.000000 0.000000 0.000000 0.039312
#
#
# Mechanical properties :
#
#
# Convention : Reuss Voigt Hill
#
# Bulk Modulus (GPa) = 48.48633 78.12329 63.30481
# Shear Modulus (GPa) = 22.23159 28.20391 25.21775
#
# Velocity S-wave (km/s) = 3.49250 3.93374 3.71966
# Velocity P-wave (km/s) = 6.54719 7.96839 7.29250
#
# Compressibility (1/GPa) = 0.02062437
#
# Stress axis : x y z
#
# Youngs Moduli (GPa) = 47.90608 26.20672 86.61214
#
# Poissons Ratio (x) = 0.29103 0.59160
# Poissons Ratio (y) = 0.53200 0.60986
# Poissons Ratio (z) = 0.32722 0.18453
#
# Static dielectric constant tensor:
#      x y z
#    x 3.611830 0.000000 0.000000 
#    y 0.000000 3.134980 0.000000 
#    z 0.000000 0.000000 3.619730 
# 
# 
# High freq. dielectric constant tensor:
#      x y z
#    x 1.708190 0.000000 0.000000 
#    y 0.000000 1.682680 0.000000 
#    z 0.000000 0.000000 1.722820 
# 
# From -- ./inp_files/24274.got.cif
#   From: 2010.03.12/outbox.cif.g09.slc.cpg/sg38_13_cif.got.tgz:24274.got - 2010.04.14 02:38:36.
