data_PCOD8179851
_publ_section_title
;
Structure prediction by ZEFSAII (Michael W. Deem and Ramdas Pophale) SiO2 
 PCOD8179851
Probable space group: A M M 2
;
_chemical_formula_sum "Si O2"
_cell_formula_units_Z 48
_cell_length_a 7.637747
_cell_length_b 9.190489
_cell_length_c 34.051733
_cell_angle_alpha 90.000000
_cell_angle_beta 90.000000
_cell_angle_gamma 90.000000
_cell_volume 2390.248792
_symmetry_space_group_name_H-M "A M M 2"
_symmetry_group_IT_number 38
_symmetry_cell_setting 'orthorhombic'
loop_
_space_group_symop_operation_xyz
x,y,z
-x,-y,z
-x,y,z
x,-y,z
x,1/2+y,1/2+z
-x,1/2-y,1/2+z
-x,1/2+y,1/2+z
x,1/2-y,1/2+z
loop_
_atom_site_type_symbol
_atom_site_label
_atom_site_fract_x
_atom_site_fract_y
_atom_site_fract_z
Si Si1 0.706517 0.664099 0.924770
Si Si2 0.000000 0.173274 0.643792
Si Si3 0.792345 0.335476 0.775997
Si Si4 0.700314 0.667810 0.501825
Si Si5 0.000000 0.331743 0.562760
Si Si6 0.301424 0.831262 0.189930
Si Si7 0.201352 0.659272 0.348974
O O1 0.500000 0.668523 0.921375
O O2 0.778999 0.500000 0.924330
O O3 0.784976 0.748610 0.888278
O O4 0.767689 0.738958 0.965010
O O5 0.000000 0.223937 0.599055
O O6 0.174796 0.232831 0.664075
O O7 0.000000 0.000000 0.646023
O O8 0.733925 0.500000 0.784652
O O9 0.710047 0.280855 0.735182
O O10 0.712442 0.240491 0.811662
O O11 0.000000 0.322869 0.772621
O O12 0.500000 0.706988 0.513435
O O13 0.716565 0.500000 0.489415
O O14 0.824896 0.703235 0.538296
O O15 0.000000 0.500000 0.576579
O O16 0.500000 0.809379 0.174917
O O17 0.243495 0.000000 0.186154
O O18 0.289664 0.500000 0.354429
O O19 0.000000 0.639283 0.338811
#
# Coordination Sequence:
#
# PCOD8179851 Si02
#       7
#     8   4   8   8   4   8   8
#     4  10  21  36  54  78 111 151 193 239 289 341
#     4  12  26  42  62  91 130 161 192 244 301 360
#     4   9  17  33  56  82 116 153 195 247 297 346
#     4   9  19  37  60  86 116 149 189 241 294 344
#     4  10  22  40  64  89 114 151 198 236 285 358
#     4  10  21  40  67  93 119 158 205 249 298 360
#     4  10  21  34  51  79 115 154 196 239 286 339
#
# _framework density 20.081593000000002
#
# number of rings (size 3 to 8) (size 9 to 14) (size 15 to 20)
#    0.000    2.167    0.833    1.750    1.167    5.000 
#    0.000    3.333    0.000    0.000    0.000    0.000 
#    0.000    0.000    0.000    0.000    0.000    0.000 
#
# Total GULP energy -297613.492312 kJ/mol
# GULP energy per Si atom -12400.562180 kJ/mol
# Density = 2.003589 g / cm^3
# Si number density = 20.081593 Si / 1000 Ang^3
#
#
#
# Elastic Constant Matrix: (Units=GPa)
#
#
# Indices 1 2 3 4 5 6 
#
# 1 74.0275 41.5740 53.9811 0.0000 0.0000 0.0000
# 2 41.5740 142.4880 92.8959 0.0000 0.0000 0.0000
# 3 53.9811 92.8959 147.9172 0.0000 0.0000 0.0000
# 4 0.0000 0.0000 0.0000 40.1799 0.0000 0.0000
# 5 0.0000 0.0000 0.0000 0.0000 -34.6115 0.0000
# 6 0.0000 0.0000 0.0000 0.0000 0.0000 15.3422
#
#
#
# Elastic Compliance Matrix: (Units=1/GPa)
#
#
# Indices 1 2 3 4 5 6 
#
# 1 0.018647 -0.001700 -0.005737 0.000000 0.000000 0.000000
# 2 -0.001700 0.012039 -0.006940 0.000000 0.000000 0.000000
# 3 -0.005737 -0.006940 0.013213 0.000000 0.000000 0.000000
# 4 0.000000 0.000000 0.000000 0.024888 0.000000 0.000000
# 5 0.000000 0.000000 0.000000 0.000000 -0.028892 0.000000
# 6 0.000000 0.000000 0.000000 0.000000 0.000000 0.065180
#
#
# Mechanical properties :
#
#
# Convention : Reuss Voigt Hill
#
# Bulk Modulus (GPa) = 66.03558 82.37053 74.20306
# Shear Modulus (GPa) = 36.00278 15.91422 25.95850
#
# Velocity S-wave (km/s) = 4.23877 2.81815 3.59925
# Velocity P-wave (km/s) = 7.54395 7.19001 7.36911
#
# Compressibility (1/GPa) = 0.01514335
#
# Stress axis : x y z
#
# Youngs Moduli (GPa) = 53.62804 83.06337 75.68298
#
# Poissons Ratio (x) = 0.14123 0.43421
# Poissons Ratio (y) = 0.09118 0.52526
# Poissons Ratio (z) = 0.30768 0.57649
#
# Static dielectric constant tensor:
#      x y z
#    x 3.674140 0.000000 0.000000 
#    y 0.000000 3.852790 0.000000 
#    z 0.000000 0.000000 3.603970 
# 
# 
# High freq. dielectric constant tensor:
#      x y z
#    x 1.783090 0.000000 0.000000 
#    y 0.000000 1.779350 0.000000 
#    z 0.000000 0.000000 1.782470 
# 
# From -- ./inp_files/24400.got.cif
#   From: 2010.03.12/outbox.cif.g09.slc.cpg/sg38_13_cif.got.tgz:24400.got - 2010.04.14 02:38:36.
