data_PCOD8179645
_publ_section_title
;
Structure prediction by ZEFSAII (Michael W. Deem and Ramdas Pophale) SiO2 
 PCOD8179645
Probable space group: A M M 2
;
_chemical_formula_sum "Si O2"
_cell_formula_units_Z 48
_cell_length_a 8.783303
_cell_length_b 7.780078
_cell_length_c 33.728270
_cell_angle_alpha 90.000000
_cell_angle_beta 90.000000
_cell_angle_gamma 90.000000
_cell_volume 2304.813992
_symmetry_space_group_name_H-M "A M M 2"
_symmetry_group_IT_number 38
_symmetry_cell_setting 'orthorhombic'
loop_
_space_group_symop_operation_xyz
x,y,z
-x,-y,z
-x,y,z
x,-y,z
x,1/2+y,1/2+z
-x,1/2-y,1/2+z
-x,1/2+y,1/2+z
x,1/2-y,1/2+z
loop_
_atom_site_type_symbol
_atom_site_label
_atom_site_fract_x
_atom_site_fract_y
_atom_site_fract_z
Si Si1 0.179562 0.500000 0.144521
Si Si2 0.678916 0.500000 0.229919
Si Si3 0.172245 0.300340 0.513518
Si Si4 0.175291 0.305961 0.777051
Si Si5 0.326211 0.805034 0.852570
Si Si6 0.678973 0.802179 0.094738
Si Si7 0.668272 0.694968 0.936239
O O1 0.225520 0.500000 0.189965
O O2 0.242082 0.324966 0.125427
O O3 0.000000 0.500000 0.140098
O O4 0.500000 0.500000 0.220802
O O5 0.718836 0.326430 0.253488
O O6 0.189475 0.500000 0.504966
O O7 0.276064 0.243964 0.550436
O O8 0.222281 0.205815 0.473804
O O9 0.000000 0.247686 0.523789
O O10 0.199227 0.500000 0.760689
O O11 0.221355 0.305915 0.823370
O O12 0.000000 0.249702 0.772636
O O13 0.500000 0.736621 0.851101
O O14 0.265658 0.794732 0.897924
O O15 0.317365 0.000000 0.837646
O O16 0.500000 0.783561 0.099749
O O17 0.731636 0.000000 0.102609
O O18 0.500000 0.767032 0.947578
O O19 0.656768 0.500000 0.922628
#
# Coordination Sequence:
#
# PCOD8179645 Si02
#       7
#     4   4   8   8   8   8   8
#     4  12  26  44  70 100 134 170 208 262 324 388
#     4  12  26  46  70  98 130 168 216 266 316 380
#     4  10  21  37  57  83 117 159 208 261 319 376
#     4  11  24  42  66  96 131 170 210 260 322 385
#     4  10  20  36  60  88 119 162 214 266 319 377
#     4  10  22  42  68  96 128 169 216 265 316 379
#     4  10  21  35  53  81 118 161 210 263 314 374
#
# _framework density 20.825976000000001
#
# number of rings (size 3 to 8) (size 9 to 14) (size 15 to 20)
#    0.000    1.500    0.833    4.000    1.167    6.333 
#    0.000    0.000    0.000    0.000    0.000    0.000 
#    0.000    0.000    0.000    0.000    0.000    0.000 
#
# Total GULP energy -297651.989602 kJ/mol
# GULP energy per Si atom -12402.166233 kJ/mol
# Density = 2.077858 g / cm^3
# Si number density = 20.825976 Si / 1000 Ang^3
#
#
#
# Elastic Constant Matrix: (Units=GPa)
#
#
# Indices 1 2 3 4 5 6 
#
# 1 87.9186 36.9334 27.8459 0.0000 0.0000 0.0000
# 2 36.9334 93.2185 39.2899 0.0000 0.0000 0.0000
# 3 27.8459 39.2899 110.3506 0.0000 0.0000 0.0000
# 4 0.0000 0.0000 0.0000 22.9489 0.0000 0.0000
# 5 0.0000 0.0000 0.0000 0.0000 29.3092 0.0000
# 6 0.0000 0.0000 0.0000 0.0000 0.0000 28.3720
#
#
#
# Elastic Compliance Matrix: (Units=1/GPa)
#
#
# Indices 1 2 3 4 5 6 
#
# 1 0.013951 -0.004758 -0.001827 0.000000 0.000000 0.000000
# 2 -0.004758 0.014244 -0.003871 0.000000 0.000000 0.000000
# 3 -0.001827 -0.003871 0.010901 0.000000 0.000000 0.000000
# 4 0.000000 0.000000 0.000000 0.043575 0.000000 0.000000
# 5 0.000000 0.000000 0.000000 0.000000 0.034119 0.000000
# 6 0.000000 0.000000 0.000000 0.000000 0.000000 0.035246
#
#
# Mechanical properties :
#
#
# Convention : Reuss Voigt Hill
#
# Bulk Modulus (GPa) = 54.98692 55.51400 55.25046
# Shear Modulus (GPa) = 27.93155 28.62058 28.27607
#
# Velocity S-wave (km/s) = 3.66620 3.71114 3.68874
# Velocity P-wave (km/s) = 6.66196 6.71397 6.68802
#
# Compressibility (1/GPa) = 0.01818614
#
# Stress axis : x y z
#
# Youngs Moduli (GPa) = 71.67788 70.20482 91.73321
#
# Poissons Ratio (x) = 0.33401 0.16755
# Poissons Ratio (y) = 0.34102 0.35510
# Poissons Ratio (z) = 0.13092 0.27176
#
# Static dielectric constant tensor:
#      x y z
#    x 3.789070 0.000000 0.000000 
#    y 0.000000 3.867680 0.000000 
#    z 0.000000 0.000000 3.698480 
# 
# 
# High freq. dielectric constant tensor:
#      x y z
#    x 1.813310 0.000000 0.000000 
#    y 0.000000 1.822830 0.000000 
#    z 0.000000 0.000000 1.814450 
# 
# From -- ./inp_files/24331.got.cif
#   From: 2010.03.12/outbox.cif.g09.slc.cpg/sg38_13_cif.got.tgz:24331.got - 2010.04.14 02:38:36.
