data_PCOD8179919
_publ_section_title
;
Structure prediction by ZEFSAII (Michael W. Deem and Ramdas Pophale) SiO2 
 PCOD8179919
Probable space group: A M M 2
;
_chemical_formula_sum "Si O2"
_cell_formula_units_Z 64
_cell_length_a 8.598132
_cell_length_b 33.681790
_cell_length_c 11.763494
_cell_angle_alpha 90.000000
_cell_angle_beta 90.000000
_cell_angle_gamma 90.000000
_cell_volume 3406.713467
_symmetry_space_group_name_H-M "A M M 2"
_symmetry_group_IT_number 38
_symmetry_cell_setting 'orthorhombic'
loop_
_space_group_symop_operation_xyz
x,y,z
-x,-y,z
-x,y,z
x,-y,z
x,1/2+y,1/2+z
-x,1/2-y,1/2+z
-x,1/2+y,1/2+z
x,1/2-y,1/2+z
loop_
_atom_site_type_symbol
_atom_site_label
_atom_site_fract_x
_atom_site_fract_y
_atom_site_fract_z
Si Si1 0.821716 0.895092 0.697640
Si Si2 0.815019 0.351982 0.980240
Si Si3 0.677443 0.222045 0.605125
Si Si4 0.324145 0.173109 0.820628
Si Si5 0.185503 0.956098 0.871671
Si Si6 0.184263 0.545577 0.625915
Si Si7 0.684003 0.122085 0.239842
Si Si8 0.682978 0.690665 0.575073
O O1 0.751310 0.884116 0.574016
O O2 0.803775 0.857682 0.779370
O O3 0.740042 0.930813 0.767763
O O4 0.000000 0.905570 0.679356
O O5 0.735518 0.364167 0.863875
O O6 0.000000 0.353917 0.968216
O O7 0.769253 0.307876 0.021755
O O8 0.500000 0.222627 0.560044
O O9 0.684338 0.210665 0.737480
O O10 0.752776 0.266012 0.604390
O O11 0.500000 0.155334 0.819361
O O12 0.271071 0.184471 0.945376
O O13 0.000000 0.953599 0.868996
O O14 0.246204 0.000000 0.848870
O O15 0.240246 0.942713 0.997904
O O16 0.237743 0.500000 0.654608
O O17 0.254965 0.577766 0.712382
O O18 0.000000 0.547679 0.635402
O O19 0.500000 0.120475 0.233783
O O20 0.752835 0.154966 0.151907
O O21 0.500000 0.691515 0.595574
#
# Coordination Sequence:
#
# PCOD8179919 Si02
#       8
#     8   8   8   8   8   8   8   8
#     4   9  17  31  51  72  98 130 165 209 254 304
#     4  10  21  36  51  72 105 141 177 219 265 316
#     4   9  18  33  54  74  96 131 171 212 261 316
#     4   9  17  30  49  72  96 125 161 206 253 304
#     4   8  14  27  51  80 103 127 163 206 256 315
#     4   9  18  34  56  81 110 141 173 215 270 326
#     4  11  22  35  54  79 106 142 185 226 265 317
#     4   9  19  32  51  78 102 129 172 219 262 315
#
# _framework density 18.786435999999998
#
# number of rings (size 3 to 8) (size 9 to 14) (size 15 to 20)
#    0.000    2.750    0.000    2.250    1.750    0.750 
#    0.000    3.125    0.000    3.375    0.000    0.000 
#    0.000    0.000    0.000    0.000    0.000    0.000 
#
# Total GULP energy -396483.234078 kJ/mol
# GULP energy per Si atom -12390.101065 kJ/mol
# Density = 1.874368 g / cm^3
# Si number density = 18.786436 Si / 1000 Ang^3
#
#
#
# Elastic Constant Matrix: (Units=GPa)
#
#
# Indices 1 2 3 4 5 6 
#
# 1 22.8257 17.5188 16.0625 0.0000 0.0000 0.0000
# 2 17.5188 126.1016 78.7897 0.0000 0.0000 0.0000
# 3 16.0625 78.7897 141.5540 0.0000 0.0000 0.0000
# 4 0.0000 0.0000 0.0000 25.5579 0.0000 0.0000
# 5 0.0000 0.0000 0.0000 0.0000 18.9940 0.0000
# 6 0.0000 0.0000 0.0000 0.0000 0.0000 23.1340
#
#
#
# Elastic Compliance Matrix: (Units=1/GPa)
#
#
# Indices 1 2 3 4 5 6 
#
# 1 0.049731 -0.005187 -0.002756 0.000000 0.000000 0.000000
# 2 -0.005187 0.012700 -0.006480 0.000000 0.000000 0.000000
# 3 -0.002756 -0.006480 0.010984 0.000000 0.000000 0.000000
# 4 0.000000 0.000000 0.000000 0.039127 0.000000 0.000000
# 5 0.000000 0.000000 0.000000 0.000000 0.052648 0.000000
# 6 0.000000 0.000000 0.000000 0.000000 0.000000 0.043226
#
#
# Mechanical properties :
#
#
# Convention : Reuss Voigt Hill
#
# Bulk Modulus (GPa) = 22.43747 57.24703 39.84225
# Shear Modulus (GPa) = 19.83200 25.41119 22.62160
#
# Velocity S-wave (km/s) = 3.25261 3.68181 3.47384
# Velocity P-wave (km/s) = 5.10640 6.97230 6.11099
#
# Compressibility (1/GPa) = 0.04456830
#
# Stress axis : x y z
#
# Youngs Moduli (GPa) = 20.10830 78.74307 91.04153
#
# Poissons Ratio (x) = 0.40844 0.25091
# Poissons Ratio (y) = 0.10430 0.58995
# Poissons Ratio (z) = 0.05542 0.51026
#
# Static dielectric constant tensor:
#      x y z
#    x 3.123760 0.000000 0.000000 
#    y 0.000000 3.745880 0.000000 
#    z 0.000000 0.000000 3.632630 
# 
# 
# High freq. dielectric constant tensor:
#      x y z
#    x 1.696760 0.000000 0.000000 
#    y 0.000000 1.731810 0.000000 
#    z 0.000000 0.000000 1.733480 
# 
# From -- ./inp_files/8673.got.cif
#   From: 2010.03.12/outbox.cif.g09.slc.cpg/sg38_5_cif.got.tgz:8673.got - 2010.04.14 02:38:36.
