data_PCOD8179705
_publ_section_title
;
Structure prediction by ZEFSAII (Michael W. Deem and Ramdas Pophale) SiO2 
 PCOD8179705
Probable space group: A M M 2
;
_chemical_formula_sum "Si O2"
_cell_formula_units_Z 64
_cell_length_a 23.830422
_cell_length_b 9.002209
_cell_length_c 15.437241
_cell_angle_alpha 90.000000
_cell_angle_beta 90.000000
_cell_angle_gamma 90.000000
_cell_volume 3311.696346
_symmetry_space_group_name_H-M "A M M 2"
_symmetry_group_IT_number 38
_symmetry_cell_setting 'orthorhombic'
loop_
_space_group_symop_operation_xyz
x,y,z
-x,-y,z
-x,y,z
x,-y,z
x,1/2+y,1/2+z
-x,1/2-y,1/2+z
-x,1/2+y,1/2+z
x,1/2-y,1/2+z
loop_
_atom_site_type_symbol
_atom_site_label
_atom_site_fract_x
_atom_site_fract_y
_atom_site_fract_z
Si Si1 0.864862 0.676143 0.013390
Si Si2 0.320798 0.827449 0.349545
Si Si3 0.330811 0.328748 0.657801
Si Si4 0.937959 0.824221 0.672894
Si Si5 0.066113 0.170480 0.867135
Si Si6 0.560516 0.175851 0.409614
Si Si7 0.562254 0.326195 0.105407
Si Si8 0.744897 0.676478 0.500273
O O1 0.856845 0.500000 0.014113
O O2 0.895110 0.735686 0.100638
O O3 0.805559 0.754255 0.009169
O O4 0.901667 0.719990 0.930773
O O5 0.300593 0.804334 0.250604
O O6 0.385655 0.771167 0.354945
O O7 0.281924 0.728762 0.410352
O O8 0.315982 0.000000 0.377668
O O9 0.342304 0.500000 0.640136
O O10 0.391254 0.252070 0.663602
O O11 0.291983 0.263840 0.581224
O O12 0.917328 0.780798 0.769291
O O13 0.000000 0.756377 0.655288
O O14 0.942505 0.000000 0.666610
O O15 0.000000 0.189577 0.881261
O O16 0.084067 0.000000 0.884450
O O17 0.500000 0.237396 0.373781
O O18 0.568794 0.233033 0.507502
O O19 0.557119 0.000000 0.410084
O O20 0.500000 0.286709 0.140590
O O21 0.573205 0.500000 0.109576
O O22 0.749872 0.500000 0.500456
#
# Coordination Sequence:
#
# PCOD8179705 Si02
#       8
#     8   8   8   8   8   8   8   8
#     4  11  22  36  58  84 110 146 192 234 269 316
#     4  10  20  37  60  82 105 140 184 226 271 332
#     4  10  22  37  56  82 110 139 178 232 287 329
#     4   8  16  33  57  85 117 150 182 216 260 321
#     4   9  18  35  59  87 120 153 182 219 272 327
#     4   8  14  27  51  80 106 135 172 214 260 319
#     4   9  17  31  54  82 110 142 179 218 265 330
#     4  11  24  41  55  75 111 147 183 232 284 329
#
# _framework density 19.325444999999998
#
# number of rings (size 3 to 8) (size 9 to 14) (size 15 to 20)
#    0.000    2.500    1.250    2.625    0.000    3.500 
#    0.000    5.000    0.000    1.875    0.000    0.000 
#    0.000    0.000    0.000    0.000    0.000    0.000 
#
# Total GULP energy -396680.721122 kJ/mol
# GULP energy per Si atom -12396.272535 kJ/mol
# Density = 1.928146 g / cm^3
# Si number density = 19.325445 Si / 1000 Ang^3
#
#
#
# Elastic Constant Matrix: (Units=GPa)
#
#
# Indices 1 2 3 4 5 6 
#
# 1 111.8755 38.3888 63.0956 0.0000 0.0000 0.0000
# 2 38.3888 50.2300 36.9735 0.0000 0.0000 0.0000
# 3 63.0956 36.9735 120.3917 0.0000 0.0000 0.0000
# 4 0.0000 0.0000 0.0000 24.9313 0.0000 0.0000
# 5 0.0000 0.0000 0.0000 0.0000 10.2856 0.0000
# 6 0.0000 0.0000 0.0000 0.0000 0.0000 21.5818
#
#
#
# Elastic Compliance Matrix: (Units=1/GPa)
#
#
# Indices 1 2 3 4 5 6 
#
# 1 0.014386 -0.007035 -0.005379 0.000000 0.000000 0.000000
# 2 -0.007035 0.029164 -0.005269 0.000000 0.000000 0.000000
# 3 -0.005379 -0.005269 0.012744 0.000000 0.000000 0.000000
# 4 0.000000 0.000000 0.000000 0.040110 0.000000 0.000000
# 5 0.000000 0.000000 0.000000 0.000000 0.097223 0.000000
# 6 0.000000 0.000000 0.000000 0.000000 0.000000 0.046335
#
#
# Mechanical properties :
#
#
# Convention : Reuss Voigt Hill
#
# Bulk Modulus (GPa) = 47.78697 62.15699 54.97198
# Shear Modulus (GPa) = 17.71129 20.96237 19.33683
#
# Velocity S-wave (km/s) = 3.03062 3.29706 3.16664
# Velocity P-wave (km/s) = 6.08501 6.83573 6.47127
#
# Compressibility (1/GPa) = 0.02092620
#
# Stress axis : x y z
#
# Youngs Moduli (GPa) = 69.51062 34.28883 78.47115
#
# Poissons Ratio (x) = 0.24124 0.42210
# Poissons Ratio (y) = 0.48904 0.41349
# Poissons Ratio (z) = 0.37390 0.18068
#
# Static dielectric constant tensor:
#      x y z
#    x 3.970780 0.000000 0.000000 
#    y 0.000000 3.190530 0.000000 
#    z 0.000000 0.000000 3.653620 
# 
# 
# High freq. dielectric constant tensor:
#      x y z
#    x 1.753980 0.000000 0.000000 
#    y 0.000000 1.721450 0.000000 
#    z 0.000000 0.000000 1.756820 
# 
# From -- ./inp_files/15756.got.cif
#   From: 2010.03.12/outbox.cif.g09.slc.cpg/sg38_8_cif.got.tgz:15756.got - 2010.04.14 02:38:36.
