data_PCOD8179332
_publ_section_title
;
Structure prediction by ZEFSAII (Michael W. Deem and Ramdas Pophale) SiO2 
 PCOD8179332
Probable space group: A M M 2
;
_chemical_formula_sum "Si O2"
_cell_formula_units_Z 40
_cell_length_a 11.472090
_cell_length_b 8.752828
_cell_length_c 20.271191
_cell_angle_alpha 90.000000
_cell_angle_beta 90.000000
_cell_angle_gamma 90.000000
_cell_volume 2035.495776
_symmetry_space_group_name_H-M "A M M 2"
_symmetry_group_IT_number 38
_symmetry_cell_setting 'orthorhombic'
loop_
_space_group_symop_operation_xyz
x,y,z
-x,-y,z
-x,y,z
x,-y,z
x,1/2+y,1/2+z
-x,1/2-y,1/2+z
-x,1/2+y,1/2+z
x,1/2-y,1/2+z
loop_
_atom_site_type_symbol
_atom_site_label
_atom_site_fract_x
_atom_site_fract_y
_atom_site_fract_z
Si Si1 0.500000 0.820442 0.755461
Si Si2 0.500000 0.679098 0.609986
Si Si3 0.268527 0.321774 0.799969
Si Si4 0.727260 0.823745 0.554477
Si Si5 0.131490 0.181626 0.428401
Si Si6 0.134759 0.326641 0.185991
O O1 0.500000 0.754695 0.681795
O O2 0.610797 0.768671 0.797585
O O3 0.500000 0.000000 0.747098
O O4 0.500000 0.500000 0.621454
O O5 0.612236 0.726408 0.567946
O O6 0.296391 0.500000 0.806243
O O7 0.192988 0.261419 0.861489
O O8 0.197491 0.292352 0.733451
O O9 0.791063 0.759055 0.489402
O O10 0.819002 0.803263 0.612785
O O11 0.690248 0.000000 0.545712
O O12 0.000000 0.249359 0.431587
O O13 0.124202 0.000000 0.430343
O O14 0.158558 0.500000 0.210175
O O15 0.000000 0.286513 0.185479
#
# Coordination Sequence:
#
# PCOD8179332 Si02
#       6
#     4   4   8   8   8   8
#     4  12  24  41  62  85 117 157 203 251 300 362
#     4  12  24  39  60  89 123 153 193 251 308 358
#     4  11  22  37  60  89 121 157 198 250 303 348
#     4  10  20  37  62  87 117 159 203 243 288 349
#     4   9  19  37  61  90 123 159 199 242 289 348
#     4  10  20  34  56  86 117 154 202 249 294 351
#
# _framework density 19.651232
#
# number of rings (size 3 to 8) (size 9 to 14) (size 15 to 20)
#    0.000    1.600    2.000    3.600    0.000    4.400 
#    0.000    6.000    0.000    4.200    0.000    0.000 
#    0.000    0.000    0.000    0.000    0.000    0.000 
#
# Total GULP energy -248076.988451 kJ/mol
# GULP energy per Si atom -12403.849423 kJ/mol
# Density = 1.960650 g / cm^3
# Si number density = 19.651232 Si / 1000 Ang^3
#
#
#
# Elastic Constant Matrix: (Units=GPa)
#
#
# Indices 1 2 3 4 5 6 
#
# 1 154.6792 45.7648 43.2614 0.0000 0.0000 0.0000
# 2 45.7648 83.3995 31.4144 0.0000 0.0000 0.0000
# 3 43.2614 31.4144 96.6977 0.0000 0.0000 0.0000
# 4 0.0000 0.0000 0.0000 23.8951 0.0000 0.0000
# 5 0.0000 0.0000 0.0000 0.0000 38.5468 0.0000
# 6 0.0000 0.0000 0.0000 0.0000 0.0000 29.1833
#
#
#
# Elastic Compliance Matrix: (Units=1/GPa)
#
#
# Indices 1 2 3 4 5 6 
#
# 1 0.008225 -0.003563 -0.002522 0.000000 0.000000 0.000000
# 2 -0.003563 0.015206 -0.003346 0.000000 0.000000 0.000000
# 3 -0.002522 -0.003346 0.012557 0.000000 0.000000 0.000000
# 4 0.000000 0.000000 0.000000 0.041850 0.000000 0.000000
# 5 0.000000 0.000000 0.000000 0.000000 0.025942 0.000000
# 6 0.000000 0.000000 0.000000 0.000000 0.000000 0.034266
#
#
# Mechanical properties :
#
#
# Convention : Reuss Voigt Hill
#
# Bulk Modulus (GPa) = 58.39322 63.96195 61.17758
# Shear Modulus (GPa) = 30.74722 32.61410 31.68066
#
# Velocity S-wave (km/s) = 3.95985 4.07830 4.01951
# Velocity P-wave (km/s) = 7.11945 7.40242 7.26231
#
# Compressibility (1/GPa) = 0.01712528
#
# Stress axis : x y z
#
# Youngs Moduli (GPa) = 121.58640 65.76320 79.63808
#
# Poissons Ratio (x) = 0.23433 0.20085
# Poissons Ratio (y) = 0.43324 0.26646
# Poissons Ratio (z) = 0.30664 0.22004
#
# Static dielectric constant tensor:
#      x y z
#    x 3.856600 0.000000 0.000000 
#    y 0.000000 3.372940 0.000000 
#    z 0.000000 0.000000 3.656450 
# 
# 
# High freq. dielectric constant tensor:
#      x y z
#    x 1.785370 0.000000 0.000000 
#    y 0.000000 1.741500 0.000000 
#    z 0.000000 0.000000 1.769390 
# 
# From -- ./inp_files/20462.got.cif
#   From: 2010.03.12/outbox.cif.g09.slc.cpg/sg38_11_cif.got.tgz:20462.got - 2010.04.14 02:38:36.
