data_PCOD8179563
_publ_section_title
;
Structure prediction by ZEFSAII (Michael W. Deem and Ramdas Pophale) SiO2 
 PCOD8179563
Probable space group: A M M 2
;
_chemical_formula_sum "Si O2"
_cell_formula_units_Z 48
_cell_length_a 8.534869
_cell_length_b 29.833840
_cell_length_c 9.989351
_cell_angle_alpha 90.000000
_cell_angle_beta 90.000000
_cell_angle_gamma 90.000000
_cell_volume 2543.567629
_symmetry_space_group_name_H-M "A M M 2"
_symmetry_group_IT_number 38
_symmetry_cell_setting 'orthorhombic'
loop_
_space_group_symop_operation_xyz
x,y,z
-x,-y,z
-x,y,z
x,-y,z
x,1/2+y,1/2+z
-x,1/2-y,1/2+z
-x,1/2+y,1/2+z
x,1/2-y,1/2+z
loop_
_atom_site_type_symbol
_atom_site_label
_atom_site_fract_x
_atom_site_fract_y
_atom_site_fract_z
Si Si1 0.315117 0.785384 0.586210
Si Si2 0.818079 0.115977 0.865179
Si Si3 0.319749 0.052321 0.079081
Si Si4 0.683586 0.885910 0.578434
Si Si5 0.818624 0.948949 0.357986
Si Si6 0.313358 0.789333 0.886867
O O1 0.500000 0.782780 0.577003
O O2 0.261337 0.835232 0.543912
O O3 0.260787 0.775153 0.737531
O O4 0.243673 0.748276 0.486695
O O5 0.720594 0.103561 0.732769
O O6 0.762582 0.163360 0.926121
O O7 0.000000 0.117845 0.828252
O O8 0.788942 0.078183 0.975225
O O9 0.500000 0.063724 0.050083
O O10 0.279423 0.067686 0.229826
O O11 0.282736 0.000000 0.062117
O O12 0.500000 0.892692 0.553794
O O13 0.779374 0.919197 0.485689
O O14 0.000000 0.944258 0.321763
O O15 0.774469 0.000000 0.394327
O O16 0.500000 0.794278 0.897145
#
# Coordination Sequence:
#
# PCOD8179563 Si02
#       6
#     8   8   8   8   8   8
#     4   8  16  30  51  76 101 133 174 220 263 307
#     4  11  22  36  54  79 111 144 178 221 274 321
#     4  10  21  38  59  81 105 138 181 224 265 316
#     4  10  20  36  57  81 108 142 185 225 263 313
#     4  10  21  37  56  81 113 144 174 215 269 322
#     4   9  17  33  53  74 102 136 176 218 262 315
#
# _framework density 18.871133
#
# number of rings (size 3 to 8) (size 9 to 14) (size 15 to 20)
#    0.000    2.333    0.000    4.000    0.000    4.000 
#    0.000    7.500    0.000    0.000    0.000    0.000 
#    0.000    0.000    0.000    0.000    0.000    0.000 
#
# Total GULP energy -297648.222575 kJ/mol
# GULP energy per Si atom -12402.009274 kJ/mol
# Density = 1.882818 g / cm^3
# Si number density = 18.871133 Si / 1000 Ang^3
#
#
#
# Elastic Constant Matrix: (Units=GPa)
#
#
# Indices 1 2 3 4 5 6 
#
# 1 49.6676 22.3978 12.5421 0.0000 0.0000 0.0000
# 2 22.3978 98.1366 70.0952 0.0000 0.0000 0.0000
# 3 12.5421 70.0952 93.6749 0.0000 0.0000 0.0000
# 4 0.0000 0.0000 0.0000 42.7969 0.0000 0.0000
# 5 0.0000 0.0000 0.0000 0.0000 26.8087 0.0000
# 6 0.0000 0.0000 0.0000 0.0000 0.0000 23.0268
#
#
#
# Elastic Compliance Matrix: (Units=1/GPa)
#
#
# Indices 1 2 3 4 5 6 
#
# 1 0.022583 -0.006432 0.001790 0.000000 0.000000 0.000000
# 2 -0.006432 0.023721 -0.016889 0.000000 0.000000 0.000000
# 3 0.001790 -0.016889 0.023073 0.000000 0.000000 0.000000
# 4 0.000000 0.000000 0.000000 0.023366 0.000000 0.000000
# 5 0.000000 0.000000 0.000000 0.000000 0.037301 0.000000
# 6 0.000000 0.000000 0.000000 0.000000 0.000000 0.043428
#
#
# Mechanical properties :
#
#
# Convention : Reuss Voigt Hill
#
# Bulk Modulus (GPa) = 38.00284 50.17216 44.08750
# Shear Modulus (GPa) = 22.19207 27.62274 24.90741
#
# Velocity S-wave (km/s) = 3.43298 3.83006 3.63694
# Velocity P-wave (km/s) = 5.99129 6.79732 6.40699
#
# Compressibility (1/GPa) = 0.02631382
#
# Stress axis : x y z
#
# Youngs Moduli (GPa) = 44.28185 42.15701 43.34048
#
# Poissons Ratio (x) = 0.27116 -0.07756
# Poissons Ratio (y) = 0.28483 0.73196
# Poissons Ratio (z) = -0.07925 0.71198
#
# Static dielectric constant tensor:
#      x y z
#    x 3.281500 0.000000 0.000000 
#    y 0.000000 3.558670 0.000000 
#    z 0.000000 0.000000 3.521360 
# 
# 
# High freq. dielectric constant tensor:
#      x y z
#    x 1.723340 0.000000 0.000000 
#    y 0.000000 1.734300 0.000000 
#    z 0.000000 0.000000 1.734480 
# 
# From -- ./inp_files/3717.got.cif
#   From: 2010.03.12/outbox.cif.g09.slc.cpg/sg38_2_cif.got.tgz:3717.got - 2010.04.14 02:38:36.
