data_PCOD8179585
_publ_section_title
;
Structure prediction by ZEFSAII (Michael W. Deem and Ramdas Pophale) SiO2 
 PCOD8179585
Probable space group: A M M 2
;
_chemical_formula_sum "Si O2"
_cell_formula_units_Z 48
_cell_length_a 9.177584
_cell_length_b 7.839428
_cell_length_c 33.986741
_cell_angle_alpha 90.000000
_cell_angle_beta 90.000000
_cell_angle_gamma 90.000000
_cell_volume 2445.244360
_symmetry_space_group_name_H-M "A M M 2"
_symmetry_group_IT_number 38
_symmetry_cell_setting 'orthorhombic'
loop_
_space_group_symop_operation_xyz
x,y,z
-x,-y,z
-x,y,z
x,-y,z
x,1/2+y,1/2+z
-x,1/2-y,1/2+z
-x,1/2+y,1/2+z
x,1/2-y,1/2+z
loop_
_atom_site_type_symbol
_atom_site_label
_atom_site_fract_x
_atom_site_fract_y
_atom_site_fract_z
Si Si1 0.335240 0.305582 0.579270
Si Si2 0.672566 0.189011 0.842307
Si Si3 0.833350 0.190037 0.652421
Si Si4 0.171499 0.000000 0.207211
Si Si5 0.832520 0.298877 0.003447
Si Si6 0.334596 0.298480 0.926462
Si Si7 0.673889 0.000000 0.289955
O O1 0.500000 0.239895 0.573203
O O2 0.332293 0.500000 0.593639
O O3 0.260104 0.193353 0.612766
O O4 0.250549 0.292611 0.538534
O O5 0.500000 0.208451 0.843925
O O6 0.731047 0.217572 0.886578
O O7 0.733507 0.331944 0.812565
O O8 0.719732 0.000000 0.827696
O O9 0.780061 0.330492 0.683642
O O10 0.000000 0.228419 0.640585
O O11 0.817006 0.000000 0.670857
O O12 0.259946 0.000000 0.247053
O O13 0.000000 0.000000 0.216088
O O14 0.813199 0.500000 0.008320
O O15 0.763958 0.235002 0.962509
O O16 0.000000 0.242953 0.004354
O O17 0.500000 0.237198 0.934218
O O18 0.328569 0.500000 0.921397
O O19 0.500000 0.000000 0.286814
#
# Coordination Sequence:
#
# PCOD8179585 Si02
#       7
#     8   8   8   4   8   8   4
#     4  11  23  37  55  81 113 148 190 237 285 336
#     4   9  17  31  54  82 110 144 186 232 283 336
#     4  10  21  39  63  86 111 149 191 230 281 344
#     4  10  22  40  60  86 118 150 184 230 286 342
#     4  10  21  35  52  78 112 151 192 233 282 340
#     4   9  16  30  52  75 104 144 188 234 283 332
#     4  10  20  36  58  84 114 146 186 234 282 338
#
# _framework density 19.629940999999999
#
# number of rings (size 3 to 8) (size 9 to 14) (size 15 to 20)
#    0.000    2.167    1.667    1.500    0.000    6.333 
#    0.000    2.500    0.000    1.000    0.000    0.000 
#    0.000    0.000    0.000    0.000    0.000    0.000 
#
# Total GULP energy -297626.142473 kJ/mol
# GULP energy per Si atom -12401.089270 kJ/mol
# Density = 1.958526 g / cm^3
# Si number density = 19.629941 Si / 1000 Ang^3
#
#
#
# Elastic Constant Matrix: (Units=GPa)
#
#
# Indices 1 2 3 4 5 6 
#
# 1 83.6985 33.1973 53.6812 0.0000 0.0000 0.0000
# 2 33.1973 115.7415 67.3695 0.0000 0.0000 0.0000
# 3 53.6812 67.3695 146.9661 0.0000 0.0000 0.0000
# 4 0.0000 0.0000 0.0000 27.0158 0.0000 0.0000
# 5 0.0000 0.0000 0.0000 0.0000 -50.5855 0.0000
# 6 0.0000 0.0000 0.0000 0.0000 0.0000 15.8599
#
#
#
# Elastic Compliance Matrix: (Units=1/GPa)
#
#
# Indices 1 2 3 4 5 6 
#
# 1 0.015817 -0.001601 -0.005044 0.000000 0.000000 0.000000
# 2 -0.001601 0.011946 -0.004891 0.000000 0.000000 0.000000
# 3 -0.005044 -0.004891 0.010889 0.000000 0.000000 0.000000
# 4 0.000000 0.000000 0.000000 0.037015 0.000000 0.000000
# 5 0.000000 0.000000 0.000000 0.000000 -0.019768 0.000000
# 6 0.000000 0.000000 0.000000 0.000000 0.000000 0.063052
#
#
# Mechanical properties :
#
#
# Convention : Reuss Voigt Hill
#
# Bulk Modulus (GPa) = 64.18333 72.76691 68.47512
# Shear Modulus (GPa) = 33.96341 11.26855 22.61598
#
# Velocity S-wave (km/s) = 4.16406 2.39853 3.39797
# Velocity P-wave (km/s) = 7.47575 6.69481 7.09603
#
# Compressibility (1/GPa) = 0.01558037
#
# Stress axis : x y z
#
# Youngs Moduli (GPa) = 63.22133 83.70795 91.83809
#
# Poissons Ratio (x) = 0.13403 0.46319
# Poissons Ratio (y) = 0.10122 0.44921
# Poissons Ratio (z) = 0.31886 0.40945
#
# Static dielectric constant tensor:
#      x y z
#    x 3.575160 0.000000 0.000000 
#    y 0.000000 3.688410 0.000000 
#    z 0.000000 0.000000 3.483650 
# 
# 
# High freq. dielectric constant tensor:
#      x y z
#    x 1.741010 0.000000 0.000000 
#    y 0.000000 1.772910 0.000000 
#    z 0.000000 0.000000 1.760780 
# 
# From -- ./inp_files/24410.got.cif
#   From: 2010.03.12/outbox.cif.g09.slc.cpg/sg38_13_cif.got.tgz:24410.got - 2010.04.14 02:38:36.
