data_PCOD8179536
_publ_section_title
;
Structure prediction by ZEFSAII (Michael W. Deem and Ramdas Pophale) SiO2 
 PCOD8179536
Probable space group: A M M 2
;
_chemical_formula_sum "Si O2"
_cell_formula_units_Z 32
_cell_length_a 8.668341
_cell_length_b 7.753815
_cell_length_c 24.374841
_cell_angle_alpha 90.000000
_cell_angle_beta 90.000000
_cell_angle_gamma 90.000000
_cell_volume 1638.299180
_symmetry_space_group_name_H-M "A M M 2"
_symmetry_group_IT_number 38
_symmetry_cell_setting 'orthorhombic'
loop_
_space_group_symop_operation_xyz
x,y,z
-x,-y,z
-x,y,z
x,-y,z
x,1/2+y,1/2+z
-x,1/2-y,1/2+z
-x,1/2+y,1/2+z
x,1/2-y,1/2+z
loop_
_atom_site_type_symbol
_atom_site_label
_atom_site_fract_x
_atom_site_fract_y
_atom_site_fract_z
Si Si1 0.317536 0.190299 0.929210
Si Si2 0.316069 0.000000 0.354031
Si Si3 0.181528 0.500000 0.734090
Si Si4 0.672342 0.798046 0.543438
Si Si5 0.316167 0.303855 0.163703
O O1 0.500000 0.217430 0.934683
O O2 0.255486 0.331609 0.886638
O O3 0.275156 0.000000 0.906931
O O4 0.243783 0.212974 0.990476
O O5 0.232911 0.000000 0.296423
O O6 0.500000 0.000000 0.345676
O O7 0.245033 0.673223 0.706761
O O8 0.000000 0.500000 0.729312
O O9 0.500000 0.723127 0.546912
O O10 0.750423 0.758481 0.602583
O O11 0.668714 0.000000 0.532500
O O12 0.500000 0.286952 0.163953
O O13 0.269268 0.500000 0.179508
#
# Coordination Sequence:
#
# PCOD8179536 Si02
#       5
#     8   4   4   8   8
#     4   9  16  26  47  82 113 137 167 217 284 339
#     4  10  20  36  54  76 110 144 187 238 277 324
#     4  12  26  40  56  78 112 160 205 236 277 336
#     4   8  13  25  48  82 117 138 162 214 283 341
#     4   9  19  36  60  89 116 145 185 236 289 339
#
# _framework density 19.532453
#
# number of rings (size 3 to 8) (size 9 to 14) (size 15 to 20)
#    0.000    2.750    1.250    2.625    1.750    1.500 
#    0.000    2.500    0.000    1.500    0.000    0.000 
#    0.000    0.000    0.000    0.000    0.000    0.000 
#
# Total GULP energy -198247.784352 kJ/mol
# GULP energy per Si atom -12390.486522 kJ/mol
# Density = 1.948800 g / cm^3
# Si number density = 19.532453 Si / 1000 Ang^3
#
#
#
# Elastic Constant Matrix: (Units=GPa)
#
#
# Indices 1 2 3 4 5 6 
#
# 1 26.1870 24.5580 23.1475 0.0000 0.0000 0.0000
# 2 24.5580 152.0009 97.6042 0.0000 0.0000 0.0000
# 3 23.1475 97.6042 164.8498 0.0000 0.0000 0.0000
# 4 0.0000 0.0000 0.0000 21.2369 0.0000 0.0000
# 5 0.0000 0.0000 0.0000 0.0000 -8.2995 0.0000
# 6 0.0000 0.0000 0.0000 0.0000 0.0000 3.6657
#
#
#
# Elastic Compliance Matrix: (Units=1/GPa)
#
#
# Indices 1 2 3 4 5 6 
#
# 1 0.046112 -0.005312 -0.003330 0.000000 0.000000 0.000000
# 2 -0.005312 0.011226 -0.005901 0.000000 0.000000 0.000000
# 3 -0.003330 -0.005901 0.010028 0.000000 0.000000 0.000000
# 4 0.000000 0.000000 0.000000 0.047088 0.000000 0.000000
# 5 0.000000 0.000000 0.000000 0.000000 -0.120490 0.000000
# 6 0.000000 0.000000 0.000000 0.000000 0.000000 0.272800
#
#
# Mechanical properties :
#
#
# Convention : Reuss Voigt Hill
#
# Bulk Modulus (GPa) = 26.12314 70.40634 48.26474
# Shear Modulus (GPa) = 16.20173 16.50249 16.35211
#
# Velocity S-wave (km/s) = 2.88319 2.90983 2.89654
# Velocity P-wave (km/s) = 4.94843 6.88575 5.99585
#
# Compressibility (1/GPa) = 0.03828024
#
# Stress axis : x y z
#
# Youngs Moduli (GPa) = 21.68649 89.07632 99.72537
#
# Poissons Ratio (x) = 0.47316 0.33206
# Poissons Ratio (y) = 0.11520 0.58848
# Poissons Ratio (z) = 0.07221 0.52564
#
# Static dielectric constant tensor:
#      x y z
#    x 2.882290 0.000000 0.000000 
#    y 0.000000 3.725860 0.000000 
#    z 0.000000 0.000000 3.790440 
# 
# 
# High freq. dielectric constant tensor:
#      x y z
#    x 1.682730 0.000000 0.000000 
#    y 0.000000 1.771880 0.000000 
#    z 0.000000 0.000000 1.772490 
# 
# From -- ./inp_files/21607.got.cif
#   From: 2010.03.12/outbox.cif.g09.slc.cpg/sg38_11_cif.got.tgz:21607.got - 2010.04.14 02:38:36.
