data_PCOD8179266
_publ_section_title
;
Structure prediction by ZEFSAII (Michael W. Deem and Ramdas Pophale) SiO2 
 PCOD8179266
Probable space group: A M M 2
;
_chemical_formula_sum "Si O2"
_cell_formula_units_Z 40
_cell_length_a 7.777297
_cell_length_b 9.185948
_cell_length_c 28.951055
_cell_angle_alpha 90.000000
_cell_angle_beta 90.000000
_cell_angle_gamma 90.000000
_cell_volume 2068.316808
_symmetry_space_group_name_H-M "A M M 2"
_symmetry_group_IT_number 38
_symmetry_cell_setting 'orthorhombic'
loop_
_space_group_symop_operation_xyz
x,y,z
-x,-y,z
-x,y,z
x,-y,z
x,1/2+y,1/2+z
-x,1/2-y,1/2+z
-x,1/2+y,1/2+z
x,1/2-y,1/2+z
loop_
_atom_site_type_symbol
_atom_site_label
_atom_site_fract_x
_atom_site_fract_y
_atom_site_fract_z
Si Si1 0.500000 0.173387 0.866050
Si Si2 0.305577 0.339820 0.118777
Si Si3 0.806345 0.829260 0.716314
Si Si4 0.500000 0.174521 0.268520
Si Si5 0.809525 0.172916 0.931043
Si Si6 0.200442 0.663269 0.532873
O O1 0.500000 0.265662 0.820083
O O2 0.668644 0.223319 0.894252
O O3 0.500000 0.000000 0.856183
O O4 0.500000 0.343971 0.136689
O O5 0.238107 0.500000 0.105464
O O6 0.197240 0.280599 0.162416
O O7 0.298492 0.245763 0.072926
O O8 0.673225 0.732083 0.744692
O O9 0.000000 0.801938 0.735059
O O10 0.756418 0.000000 0.721006
O O11 0.500000 0.000000 0.267891
O O12 0.000000 0.228818 0.915977
O O13 0.813870 0.000000 0.935004
O O14 0.762465 0.233235 0.982275
O O15 0.271721 0.500000 0.533760
O O16 0.000000 0.668361 0.543860
#
# Coordination Sequence:
#
# PCOD8179266 Si02
#       6
#     4   8   8   4   8   8
#     4  10  20  36  61  82 103 143 192 239 285 336
#     4  10  20  34  54  82 116 150 188 232 275 328
#     4  10  21  41  67  87 110 151 201 245 282 334
#     4  12  26  42  59  86 123 151 180 237 303 364
#     4   8  16  32  54  82 111 141 186 237 275 319
#     4   9  18  32  51  79 115 150 186 228 274 327
#
# _framework density 19.339397000000002
#
# number of rings (size 3 to 8) (size 9 to 14) (size 15 to 20)
#    0.000    2.400    1.000    2.700    1.400    3.600 
#    0.000    3.000    0.000    1.200    0.000    0.000 
#    0.000    0.000    0.000    0.000    0.000    0.000 
#
# Total GULP energy -247900.103549 kJ/mol
# GULP energy per Si atom -12395.005177 kJ/mol
# Density = 1.929538 g / cm^3
# Si number density = 19.339397 Si / 1000 Ang^3
#
#
#
# Elastic Constant Matrix: (Units=GPa)
#
#
# Indices 1 2 3 4 5 6 
#
# 1 122.9167 46.4755 73.0234 0.0000 0.0000 0.0000
# 2 46.4755 72.7084 58.2175 0.0000 0.0000 0.0000
# 3 73.0234 58.2175 142.8395 0.0000 0.0000 0.0000
# 4 0.0000 0.0000 0.0000 30.5331 0.0000 0.0000
# 5 0.0000 0.0000 0.0000 0.0000 19.0826 0.0000
# 6 0.0000 0.0000 0.0000 0.0000 0.0000 17.8377
#
#
#
# Elastic Compliance Matrix: (Units=1/GPa)
#
#
# Indices 1 2 3 4 5 6 
#
# 1 0.012518 -0.004272 -0.004659 0.000000 0.000000 0.000000
# 2 -0.004272 0.021874 -0.006731 0.000000 0.000000 0.000000
# 3 -0.004659 -0.006731 0.012126 0.000000 0.000000 0.000000
# 4 0.000000 0.000000 0.000000 0.032751 0.000000 0.000000
# 5 0.000000 0.000000 0.000000 0.000000 0.052404 0.000000
# 6 0.000000 0.000000 0.000000 0.000000 0.000000 0.056061
#
#
# Mechanical properties :
#
#
# Convention : Reuss Voigt Hill
#
# Bulk Modulus (GPa) = 65.81197 77.09971 71.45584
# Shear Modulus (GPa) = 22.30920 24.20723 23.25822
#
# Velocity S-wave (km/s) = 3.40010 3.54178 3.47166
# Velocity P-wave (km/s) = 7.03691 7.52854 7.28687
#
# Compressibility (1/GPa) = 0.01519480
#
# Stress axis : x y z
#
# Youngs Moduli (GPa) = 79.88232 45.71678 82.46661
#
# Poissons Ratio (x) = 0.19528 0.38419
# Poissons Ratio (y) = 0.34122 0.55512
# Poissons Ratio (z) = 0.37216 0.30774
#
# Static dielectric constant tensor:
#      x y z
#    x 3.783310 0.000000 0.000000 
#    y 0.000000 3.236140 0.000000 
#    z 0.000000 0.000000 3.538030 
# 
# 
# High freq. dielectric constant tensor:
#      x y z
#    x 1.764920 0.000000 0.000000 
#    y 0.000000 1.710700 0.000000 
#    z 0.000000 0.000000 1.755400 
# 
# From -- ./inp_files/23190.got.cif
#   From: 2010.03.12/outbox.cif.g09.slc.cpg/sg38_12_cif.got.tgz:23190.got - 2010.04.14 02:38:36.
