data_PCOD8179222
_publ_section_title
;
Structure prediction by ZEFSAII (Michael W. Deem and Ramdas Pophale) SiO2 
 PCOD8179222
Probable space group: A M M 2
;
_chemical_formula_sum "Si O2"
_cell_formula_units_Z 48
_cell_length_a 9.112655
_cell_length_b 9.036354
_cell_length_c 31.153617
_cell_angle_alpha 90.000000
_cell_angle_beta 90.000000
_cell_angle_gamma 90.000000
_cell_volume 2565.350089
_symmetry_space_group_name_H-M "A M M 2"
_symmetry_group_IT_number 38
_symmetry_cell_setting 'orthorhombic'
loop_
_space_group_symop_operation_xyz
x,y,z
-x,-y,z
-x,y,z
x,-y,z
x,1/2+y,1/2+z
-x,1/2-y,1/2+z
-x,1/2+y,1/2+z
x,1/2-y,1/2+z
loop_
_atom_site_type_symbol
_atom_site_label
_atom_site_fract_x
_atom_site_fract_y
_atom_site_fract_z
Si Si1 0.330634 0.674415 0.072990
Si Si2 0.664288 0.823934 0.236120
Si Si3 0.828389 0.172682 0.151182
Si Si4 0.825820 0.835624 0.411180
Si Si5 0.828706 0.827543 0.995444
Si Si6 0.836301 0.176327 0.317574
O O1 0.500000 0.720576 0.077401
O O2 0.310129 0.500000 0.071469
O O3 0.242238 0.736923 0.112919
O O4 0.266698 0.740497 0.029553
O O5 0.500000 0.761095 0.231481
O O6 0.758846 0.770257 0.195590
O O7 0.734032 0.758924 0.279868
O O8 0.663570 0.000000 0.238079
O O9 0.000000 0.205775 0.152767
O O10 0.796154 0.000000 0.143553
O O11 0.775419 0.723568 0.448286
O O12 0.770906 0.777997 0.364395
O O13 0.000000 0.844679 0.408523
O O14 0.762963 0.000000 0.421167
O O15 0.000000 0.790672 0.002652
O O16 0.797439 0.000000 0.000385
O O17 0.000000 0.240912 0.310932
O O18 0.842638 0.000000 0.315216
#
# Coordination Sequence:
#
# PCOD8179222 Si02
#       6
#     8   8   8   8   8   8
#     4  11  24  39  54  74 101 133 168 207 254 307
#     4   9  16  26  43  70 103 135 166 205 253 299
#     4  10  20  34  54  79 104 132 169 211 253 299
#     4   8  14  26  46  71  99 132 169 210 254 296
#     4  10  20  34  54  79 104 132 169 211 254 302
#     4   8  13  23  41  65  93 128 171 213 250 291
#
# _framework density 18.710896000000002
#
# number of rings (size 3 to 8) (size 9 to 14) (size 15 to 20)
#    0.000    2.667    0.000    3.500    0.000    7.333 
#    0.000    0.833    0.000    4.000    0.000    2.333 
#    0.000    0.000    0.000    0.000    0.000    0.000 
#
# Total GULP energy -297542.898982 kJ/mol
# GULP energy per Si atom -12397.620791 kJ/mol
# Density = 1.866831 g / cm^3
# Si number density = 18.710896 Si / 1000 Ang^3
#
#
#
# Elastic Constant Matrix: (Units=GPa)
#
#
# Indices 1 2 3 4 5 6 
#
# 1 101.6913 40.3684 70.7025 0.0000 0.0000 0.0000
# 2 40.3684 42.6432 41.1549 0.0000 0.0000 0.0000
# 3 70.7025 41.1549 171.1008 0.0000 0.0000 0.0000
# 4 0.0000 0.0000 0.0000 25.8775 0.0000 0.0000
# 5 0.0000 0.0000 0.0000 0.0000 -2.0519 0.0000
# 6 0.0000 0.0000 0.0000 0.0000 0.0000 18.5069
#
#
#
# Elastic Compliance Matrix: (Units=1/GPa)
#
#
# Indices 1 2 3 4 5 6 
#
# 1 0.017919 -0.012785 -0.004329 0.000000 0.000000 0.000000
# 2 -0.012785 0.039661 -0.004257 0.000000 0.000000 0.000000
# 3 -0.004329 -0.004257 0.008657 0.000000 0.000000 0.000000
# 4 0.000000 0.000000 0.000000 0.038644 0.000000 0.000000
# 5 0.000000 0.000000 0.000000 0.000000 -0.487351 0.000000
# 6 0.000000 0.000000 0.000000 0.000000 0.000000 0.054034
#
#
# Mechanical properties :
#
#
# Convention : Reuss Voigt Hill
#
# Bulk Modulus (GPa) = 42.56080 68.87633 55.71857
# Shear Modulus (GPa) = -17.99452 19.34714 0.67631
#
# Velocity S-wave (km/s) = -3.10452 3.21908 0.60186
# Velocity P-wave (km/s) = 3.15361 7.12091 5.50693
#
# Compressibility (1/GPa) = 0.02349580
#
# Stress axis : x y z
#
# Youngs Moduli (GPa) = 55.80699 25.21341 115.50836
#
# Poissons Ratio (x) = 0.32235 0.50008
# Poissons Ratio (y) = 0.71348 0.49170
# Poissons Ratio (z) = 0.24161 0.10733
#
# Static dielectric constant tensor:
#      x y z
#    x 3.440900 0.000000 0.000000 
#    y 0.000000 3.087430 0.000000 
#    z 0.000000 0.000000 3.857030 
# 
# 
# High freq. dielectric constant tensor:
#      x y z
#    x 1.712140 0.000000 0.000000 
#    y 0.000000 1.685120 0.000000 
#    z 0.000000 0.000000 1.749200 
# 
# From -- ./inp_files/24288.got.cif
#   From: 2010.03.12/outbox.cif.g09.slc.cpg/sg38_13_cif.got.tgz:24288.got - 2010.04.14 02:38:36.
