data_PCOD8179461
_publ_section_title
;
Structure prediction by ZEFSAII (Michael W. Deem and Ramdas Pophale) SiO2 
 PCOD8179461
Probable space group: A M M 2
;
_chemical_formula_sum "Si O2"
_cell_formula_units_Z 64
_cell_length_a 8.908258
_cell_length_b 20.473344
_cell_length_c 19.364819
_cell_angle_alpha 90.000000
_cell_angle_beta 90.000000
_cell_angle_gamma 90.000000
_cell_volume 3531.791136
_symmetry_space_group_name_H-M "A M M 2"
_symmetry_group_IT_number 38
_symmetry_cell_setting 'orthorhombic'
loop_
_space_group_symop_operation_xyz
x,y,z
-x,-y,z
-x,y,z
x,-y,z
x,1/2+y,1/2+z
-x,1/2-y,1/2+z
-x,1/2+y,1/2+z
x,1/2-y,1/2+z
loop_
_atom_site_type_symbol
_atom_site_label
_atom_site_fract_x
_atom_site_fract_y
_atom_site_fract_z
Si Si1 0.827440 0.620476 0.127190
Si Si2 0.827723 0.573629 0.397150
Si Si3 0.172126 0.926187 0.479504
Si Si4 0.171902 0.229420 0.115604
Si Si5 0.323888 0.812563 0.399807
Si Si6 0.824873 0.762805 0.270453
Si Si7 0.323871 0.684344 0.484274
Si Si8 0.322774 0.623160 0.265856
O O1 0.786933 0.694624 0.107940
O O2 0.726834 0.596249 0.191025
O O3 0.000000 0.615597 0.150880
O O4 0.791975 0.576108 0.061139
O O5 0.813116 0.500000 0.425865
O O6 0.755957 0.621772 0.452633
O O7 0.742973 0.576259 0.324176
O O8 0.000000 0.593551 0.385804
O O9 0.282436 0.878976 0.438637
O O10 0.000000 0.904261 0.467001
O O11 0.199304 0.000000 0.453858
O O12 0.202700 0.206874 0.194392
O O13 0.000000 0.216711 0.094448
O O14 0.277766 0.188895 0.064476
O O15 0.500000 0.811468 0.385759
O O16 0.236814 0.813283 0.326963
O O17 0.272488 0.750014 0.444592
O O18 0.736291 0.695710 0.279753
O O19 0.000000 0.748607 0.281825
O O20 0.500000 0.673940 0.478282
O O21 0.500000 0.623526 0.271268
#
# Coordination Sequence:
#
# PCOD8179461 Si02
#       8
#     8   8   8   8   8   8   8   8
#     4   9  18  33  52  77 110 149 191 229 267 320
#     4  11  24  40  58  79 107 148 192 231 274 327
#     4  10  21  37  57  80 109 150 195 235 276 325
#     4   9  18  33  55  82 110 143 183 227 274 321
#     4  11  22  35  55  85 115 147 184 227 284 334
#     4  10  20  35  57  83 111 145 186 230 274 323
#     4  11  22  35  56  85 113 145 182 226 280 332
#     4  11  21  33  52  80 114 148 183 226 276 329
#
# _framework density 18.121115
#
# number of rings (size 3 to 8) (size 9 to 14) (size 15 to 20)
#    0.000    1.750    2.500    3.375    0.000    5.750 
#    0.000    1.250    0.000    0.750    0.000    5.250 
#    0.000    0.000    0.000    0.000    0.000    0.000 
#
# Total GULP energy -396906.084719 kJ/mol
# GULP energy per Si atom -12403.315147 kJ/mol
# Density = 1.807987 g / cm^3
# Si number density = 18.121115 Si / 1000 Ang^3
#
#
#
# Elastic Constant Matrix: (Units=GPa)
#
#
# Indices 1 2 3 4 5 6 
#
# 1 109.0246 43.2114 53.8035 0.0000 0.0000 0.0000
# 2 43.2114 79.7606 46.1608 0.0000 0.0000 0.0000
# 3 53.8035 46.1608 102.8532 0.0000 0.0000 0.0000
# 4 0.0000 0.0000 0.0000 24.4720 0.0000 0.0000
# 5 0.0000 0.0000 0.0000 0.0000 24.3507 0.0000
# 6 0.0000 0.0000 0.0000 0.0000 0.0000 21.0860
#
#
#
# Elastic Compliance Matrix: (Units=1/GPa)
#
#
# Indices 1 2 3 4 5 6 
#
# 1 0.013383 -0.004321 -0.005061 0.000000 0.000000 0.000000
# 2 -0.004321 0.018332 -0.005967 0.000000 0.000000 0.000000
# 3 -0.005061 -0.005967 0.015048 0.000000 0.000000 0.000000
# 4 0.000000 0.000000 0.000000 0.040863 0.000000 0.000000
# 5 0.000000 0.000000 0.000000 0.000000 0.041067 0.000000
# 6 0.000000 0.000000 0.000000 0.000000 0.000000 0.047425
#
#
# Mechanical properties :
#
#
# Convention : Reuss Voigt Hill
#
# Bulk Modulus (GPa) = 62.25093 64.22110 63.23602
# Shear Modulus (GPa) = 23.56596 23.87925 23.72261
#
# Velocity S-wave (km/s) = 3.61011 3.63403 3.62209
# Velocity P-wave (km/s) = 7.19754 7.28870 7.24326
#
# Compressibility (1/GPa) = 0.01606402
#
# Stress axis : x y z
#
# Youngs Moduli (GPa) = 74.72392 54.54978 66.45310
#
# Poissons Ratio (x) = 0.23571 0.33634
# Poissons Ratio (y) = 0.32289 0.39653
# Poissons Ratio (z) = 0.37820 0.32550
#
# Static dielectric constant tensor:
#      x y z
#    x 3.346150 0.000000 0.000000 
#    y 0.000000 3.068460 0.000000 
#    z 0.000000 0.000000 3.432480 
# 
# 
# High freq. dielectric constant tensor:
#      x y z
#    x 1.708420 0.000000 0.000000 
#    y 0.000000 1.673380 0.000000 
#    z 0.000000 0.000000 1.704680 
# 
# From -- ./inp_files/17178.got.cif
#   From: 2010.03.12/outbox.cif.g09.slc.cpg/sg38_9_cif.got.tgz:17178.got - 2010.04.14 02:38:36.
