data_PCOD8179824
_publ_section_title
;
Structure prediction by ZEFSAII (Michael W. Deem and Ramdas Pophale) SiO2 
 PCOD8179824
Probable space group: A M M 2
;
_chemical_formula_sum "Si O2"
_cell_formula_units_Z 46
_cell_length_a 11.401157
_cell_length_b 7.589401
_cell_length_c 29.438080
_cell_angle_alpha 90.000000
_cell_angle_beta 90.000000
_cell_angle_gamma 90.000000
_cell_volume 2547.216783
_symmetry_space_group_name_H-M "A M M 2"
_symmetry_group_IT_number 38
_symmetry_cell_setting 'orthorhombic'
loop_
_space_group_symop_operation_xyz
x,y,z
-x,-y,z
-x,y,z
x,-y,z
x,1/2+y,1/2+z
-x,1/2-y,1/2+z
-x,1/2+y,1/2+z
x,1/2-y,1/2+z
loop_
_atom_site_type_symbol
_atom_site_label
_atom_site_fract_x
_atom_site_fract_y
_atom_site_fract_z
Si Si1 0.252064 0.705326 0.588640
Si Si2 0.139137 0.694425 0.273155
Si Si3 0.862677 0.291251 0.372963
Si Si4 0.500000 0.700932 0.550625
Si Si5 0.128798 0.300669 0.677256
Si Si6 0.500000 0.500000 0.976116
Si Si7 0.752092 0.000000 0.433656
Si Si8 0.136887 0.500000 0.030368
O O1 0.220483 0.500000 0.580608
O O2 0.389929 0.738502 0.583051
O O3 0.215207 0.776973 0.638793
O O4 0.185684 0.820445 0.551521
O O5 0.191162 0.500000 0.269209
O O6 0.176219 0.772713 0.322071
O O7 0.185253 0.793444 0.227969
O O8 0.000000 0.693317 0.272686
O O9 0.838734 0.500000 0.379449
O O10 0.000000 0.250791 0.381372
O O11 0.783219 0.178332 0.406696
O O12 0.500000 0.500000 0.532360
O O13 0.500000 0.825993 0.506989
O O14 0.109193 0.500000 0.663835
O O15 0.000000 0.205644 0.675767
O O16 0.614004 0.500000 0.944219
O O17 0.830542 0.000000 0.478087
O O18 0.000000 0.500000 0.037282
#
# Coordination Sequence:
#
# PCOD8179824 Si02
#       8
#     8   8   8   4   8   2   4   4
#     4  10  21  37  56  80 113 149 188 235 275 330
#     4   8  15  28  48  76 111 147 180 218 268 333
#     4   9  19  36  57  85 118 149 183 226 283 344
#     4  10  20  40  64  77 101 151 199 236 278 322
#     4   9  17  28  46  78 114 146 181 222 275 331
#     4  12  24  44  60  82 106 138 206 248 276 332
#     4  12  24  38  60  82 110 146 194 240 283 335
#     4  12  24  36  56  84 114 150 178 226 297 345
#
# _framework density 18.058926
#
# number of rings (size 3 to 8) (size 9 to 14) (size 15 to 20)
#    0.000    2.261    1.739    2.348    2.435    2.435 
#    0.000    0.000    0.000    1.043    0.000    1.217 
#    0.000    0.000    0.000    0.000    0.000    0.000 
#
# Total GULP energy -284973.303228 kJ/mol
# GULP energy per Si atom -12390.143619 kJ/mol
# Density = 1.801782 g / cm^3
# Si number density = 18.058926 Si / 1000 Ang^3
#
#
#
# Elastic Constant Matrix: (Units=GPa)
#
#
# Indices 1 2 3 4 5 6 
#
# 1 107.7092 44.8636 62.4776 0.0000 0.0000 0.0000
# 2 44.8636 79.0252 57.2091 0.0000 0.0000 0.0000
# 3 62.4776 57.2091 158.9643 0.0000 0.0000 0.0000
# 4 0.0000 0.0000 0.0000 37.2992 0.0000 0.0000
# 5 0.0000 0.0000 0.0000 0.0000 6.0168 0.0000
# 6 0.0000 0.0000 0.0000 0.0000 0.0000 22.2788
#
#
#
# Elastic Compliance Matrix: (Units=1/GPa)
#
#
# Indices 1 2 3 4 5 6 
#
# 1 0.013408 -0.005135 -0.003422 0.000000 0.000000 0.000000
# 2 -0.005135 0.019079 -0.004848 0.000000 0.000000 0.000000
# 3 -0.003422 -0.004848 0.009380 0.000000 0.000000 0.000000
# 4 0.000000 0.000000 0.000000 0.026810 0.000000 0.000000
# 5 0.000000 0.000000 0.000000 0.000000 0.166202 0.000000
# 6 0.000000 0.000000 0.000000 0.000000 0.000000 0.044886
#
#
# Mechanical properties :
#
#
# Convention : Reuss Voigt Hill
#
# Bulk Modulus (GPa) = 66.41019 74.97771 70.69395
# Shear Modulus (GPa) = 16.04656 25.19552 20.62104
#
# Velocity S-wave (km/s) = 2.98412 3.73927 3.38283
# Velocity P-wave (km/s) = 6.98049 7.76217 7.38169
#
# Compressibility (1/GPa) = 0.01505793
#
# Stress axis : x y z
#
# Youngs Moduli (GPa) = 74.58363 52.41375 106.60547
#
# Poissons Ratio (x) = 0.26912 0.36478
# Poissons Ratio (y) = 0.38296 0.51685
# Poissons Ratio (z) = 0.25521 0.25411
#
# Static dielectric constant tensor:
#      x y z
#    x 3.254880 0.000000 0.000000 
#    y 0.000000 3.404420 0.000000 
#    z 0.000000 0.000000 3.620730 
# 
# 
# High freq. dielectric constant tensor:
#      x y z
#    x 1.659000 0.000000 0.000000 
#    y 0.000000 1.705480 0.000000 
#    z 0.000000 0.000000 1.711260 
# 
# From -- ./inp_files/22453.got.cif
#   From: 2010.03.12/outbox.cif.g09.slc.cpg/sg38_12_cif.got.tgz:22453.got - 2010.04.14 02:38:36.
