data_PCOD8179464
_publ_section_title
;
Structure prediction by ZEFSAII (Michael W. Deem and Ramdas Pophale) SiO2 
 PCOD8179464
Probable space group: A M M 2
;
_chemical_formula_sum "Si O2"
_cell_formula_units_Z 64
_cell_length_a 18.641643
_cell_length_b 8.827919
_cell_length_c 19.787563
_cell_angle_alpha 90.000000
_cell_angle_beta 90.000000
_cell_angle_gamma 90.000000
_cell_volume 3256.378187
_symmetry_space_group_name_H-M "A M M 2"
_symmetry_group_IT_number 38
_symmetry_cell_setting 'orthorhombic'
loop_
_space_group_symop_operation_xyz
x,y,z
-x,-y,z
-x,y,z
x,-y,z
x,1/2+y,1/2+z
-x,1/2-y,1/2+z
-x,1/2+y,1/2+z
x,1/2-y,1/2+z
loop_
_atom_site_type_symbol
_atom_site_label
_atom_site_fract_x
_atom_site_fract_y
_atom_site_fract_z
Si Si1 0.418363 0.828685 0.411770
Si Si2 0.329926 0.677121 0.301747
Si Si3 0.665058 0.327238 0.044703
Si Si4 0.186761 0.821244 0.340780
Si Si5 0.195239 0.177833 0.987841
Si Si6 0.084530 0.673415 0.238726
Si Si7 0.082179 0.323192 0.600141
Si Si8 0.580634 0.680124 0.173939
O O1 0.500000 0.776536 0.403457
O O2 0.368331 0.712399 0.372205
O O3 0.397765 0.819897 0.489809
O O4 0.406870 0.000000 0.384612
O O5 0.314249 0.500000 0.296055
O O6 0.254810 0.763521 0.298302
O O7 0.381401 0.736150 0.242285
O O8 0.692018 0.500000 0.054323
O O9 0.629356 0.260423 0.112448
O O10 0.731783 0.224080 0.024717
O O11 0.186331 0.760084 0.416744
O O12 0.116772 0.767243 0.300845
O O13 0.188785 0.000000 0.344995
O O14 0.196221 0.000000 0.973818
O O15 0.129033 0.225452 0.035648
O O16 0.109192 0.500000 0.244667
O O17 0.110773 0.735931 0.166301
O O18 0.000000 0.692522 0.244882
O O19 0.090470 0.500000 0.615655
O O20 0.000000 0.279532 0.583814
O O21 0.500000 0.748354 0.170989
O O22 0.575961 0.500000 0.171225
#
# Coordination Sequence:
#
# PCOD8179464 Si02
#       8
#     8   8   8   8   8   8   8   8
#     4  10  20  35  57  83 113 153 198 244 298 359
#     4  11  22  37  58  86 118 155 198 250 303 354
#     4  10  20  36  58  84 115 155 196 241 294 357
#     4  12  25  41  61  87 122 164 205 248 300 359
#     4  11  23  39  60  89 122 158 201 251 300 352
#     4  10  22  41  66  95 125 158 199 245 292 348
#     4   9  20  40  64  91 124 160 196 238 293 353
#     4   9  19  36  58  85 115 150 195 244 297 358
#
# _framework density 19.653737
#
# number of rings (size 3 to 8) (size 9 to 14) (size 15 to 20)
#    0.000    1.750    1.250    3.000    1.750    4.500 
#    0.000    1.875    0.000    2.625    0.000    0.000 
#    0.000    0.000    0.000    0.000    0.000    0.000 
#
# Total GULP energy -396923.255111 kJ/mol
# GULP energy per Si atom -12403.851722 kJ/mol
# Density = 1.960900 g / cm^3
# Si number density = 19.653737 Si / 1000 Ang^3
#
#
#
# Elastic Constant Matrix: (Units=GPa)
#
#
# Indices 1 2 3 4 5 6 
#
# 1 95.2966 42.8049 55.7775 0.0000 0.0000 0.0000
# 2 42.8049 92.1089 49.2801 0.0000 0.0000 0.0000
# 3 55.7775 49.2801 126.5068 0.0000 0.0000 0.0000
# 4 0.0000 0.0000 0.0000 21.1475 0.0000 0.0000
# 5 0.0000 0.0000 0.0000 0.0000 39.8395 0.0000
# 6 0.0000 0.0000 0.0000 0.0000 0.0000 31.2077
#
#
#
# Elastic Compliance Matrix: (Units=1/GPa)
#
#
# Indices 1 2 3 4 5 6 
#
# 1 0.015477 -0.004474 -0.005081 0.000000 0.000000 0.000000
# 2 -0.004474 0.015008 -0.003874 0.000000 0.000000 0.000000
# 3 -0.005081 -0.003874 0.011654 0.000000 0.000000 0.000000
# 4 0.000000 0.000000 0.000000 0.047287 0.000000 0.000000
# 5 0.000000 0.000000 0.000000 0.000000 0.025101 0.000000
# 6 0.000000 0.000000 0.000000 0.000000 0.000000 0.032043
#
#
# Mechanical properties :
#
#
# Convention : Reuss Voigt Hill
#
# Bulk Modulus (GPa) = 65.43793 67.73748 66.58770
# Shear Modulus (GPa) = 28.00765 29.50893 28.75829
#
# Velocity S-wave (km/s) = 3.77908 3.87905 3.82939
# Velocity P-wave (km/s) = 7.23945 7.38938 7.31480
#
# Compressibility (1/GPa) = 0.01528166
#
# Stress axis : x y z
#
# Youngs Moduli (GPa) = 64.61119 66.62894 85.80713
#
# Poissons Ratio (x) = 0.29810 0.43600
# Poissons Ratio (y) = 0.28907 0.33240
# Poissons Ratio (z) = 0.32830 0.25811
#
# Static dielectric constant tensor:
#      x y z
#    x 3.717160 0.000000 0.000000 
#    y 0.000000 3.492900 0.000000 
#    z 0.000000 0.000000 3.673130 
# 
# 
# High freq. dielectric constant tensor:
#      x y z
#    x 1.774570 0.000000 0.000000 
#    y 0.000000 1.754090 0.000000 
#    z 0.000000 0.000000 1.774700 
# 
# From -- ./inp_files/18921.got.cif
#   From: 2010.03.12/outbox.cif.g09.slc.cpg/sg38_10_cif.got.tgz:18921.got - 2010.04.14 02:38:36.
