data_PCOD8179268
_publ_section_title
;
Structure prediction by ZEFSAII (Michael W. Deem and Ramdas Pophale) SiO2 
 PCOD8179268
Probable space group: A M M 2
;
_chemical_formula_sum "Si O2"
_cell_formula_units_Z 56
_cell_length_a 13.897960
_cell_length_b 20.799556
_cell_length_c 9.919200
_cell_angle_alpha 90.000000
_cell_angle_beta 90.000000
_cell_angle_gamma 90.000000
_cell_volume 2867.357004
_symmetry_space_group_name_H-M "A M M 2"
_symmetry_group_IT_number 38
_symmetry_cell_setting 'orthorhombic'
loop_
_space_group_symop_operation_xyz
x,y,z
-x,-y,z
-x,y,z
x,-y,z
x,1/2+y,1/2+z
-x,1/2-y,1/2+z
-x,1/2+y,1/2+z
x,1/2-y,1/2+z
loop_
_atom_site_type_symbol
_atom_site_label
_atom_site_fract_x
_atom_site_fract_y
_atom_site_fract_z
Si Si1 0.111834 0.693982 0.051990
Si Si2 0.761605 0.570600 0.728967
Si Si3 0.764826 0.070308 0.535926
Si Si4 0.188317 0.794932 0.265009
Si Si5 0.391836 0.617543 0.529719
Si Si6 0.609210 0.880897 0.724066
Si Si7 0.606352 0.765581 0.208896
O O1 0.156725 0.623734 0.074370
O O2 0.160276 0.744289 0.152045
O O3 0.000000 0.689786 0.084299
O O4 0.127885 0.718169 0.899428
O O5 0.811534 0.500000 0.707550
O O6 0.832175 0.632311 0.706697
O O7 0.671733 0.573738 0.627972
O O8 0.726411 0.577566 0.883391
O O9 0.672984 0.073519 0.632345
O O10 0.812854 0.000000 0.555847
O O11 0.303012 0.788562 0.300135
O O12 0.500000 0.590440 0.538062
O O13 0.352569 0.614593 0.377568
O O14 0.388930 0.692626 0.571951
O O15 0.500000 0.905295 0.715668
O O16 0.618797 0.808435 0.668960
O O17 0.500000 0.775683 0.279066
#
# Coordination Sequence:
#
# PCOD8179268 Si02
#       7
#     8   8   8   8   8   8   8
#     4  11  23  40  62  88 113 147 194 246 303 352
#     4   9  20  36  55  79 112 153 193 233 287 346
#     4  10  22  40  58  82 116 156 196 241 296 352
#     4  10  21  37  61  87 118 148 189 243 293 349
#     4   9  19  32  50  79 114 155 197 235 277 332
#     4  10  20  34  54  83 120 157 197 240 286 347
#     4   9  18  31  52  83 119 153 188 231 286 349
#
# _framework density 19.530180999999999
#
# number of rings (size 3 to 8) (size 9 to 14) (size 15 to 20)
#    0.000    2.286    1.429    0.429    4.000    3.143 
#    0.000    7.857    0.000    1.286    0.000    0.000 
#    0.000    0.000    0.000    0.000    0.000    0.000 
#
# Total GULP energy -346990.433888 kJ/mol
# GULP energy per Si atom -12392.515496 kJ/mol
# Density = 1.948573 g / cm^3
# Si number density = 19.530181 Si / 1000 Ang^3
#
#
#
# Elastic Constant Matrix: (Units=GPa)
#
#
# Indices 1 2 3 4 5 6 
#
# 1 86.9655 39.4388 34.2440 0.0000 0.0000 0.0000
# 2 39.4388 149.8832 52.5428 0.0000 0.0000 0.0000
# 3 34.2440 52.5428 89.4004 0.0000 0.0000 0.0000
# 4 0.0000 0.0000 0.0000 24.4058 0.0000 0.0000
# 5 0.0000 0.0000 0.0000 0.0000 23.2438 0.0000
# 6 0.0000 0.0000 0.0000 0.0000 0.0000 12.7655
#
#
#
# Elastic Compliance Matrix: (Units=1/GPa)
#
#
# Indices 1 2 3 4 5 6 
#
# 1 0.014141 -0.002295 -0.004068 0.000000 0.000000 0.000000
# 2 -0.002295 0.008776 -0.004279 0.000000 0.000000 0.000000
# 3 -0.004068 -0.004279 0.015258 0.000000 0.000000 0.000000
# 4 0.000000 0.000000 0.000000 0.040974 0.000000 0.000000
# 5 0.000000 0.000000 0.000000 0.000000 0.043022 0.000000
# 6 0.000000 0.000000 0.000000 0.000000 0.000000 0.078336
#
#
# Mechanical properties :
#
#
# Convention : Reuss Voigt Hill
#
# Bulk Modulus (GPa) = 59.19786 64.30002 61.74894
# Shear Modulus (GPa) = 21.98558 25.41790 23.70174
#
# Velocity S-wave (km/s) = 3.35882 3.61150 3.48745
# Velocity P-wave (km/s) = 6.73936 7.09827 6.92114
#
# Compressibility (1/GPa) = 0.01689250
#
# Stress axis : x y z
#
# Youngs Moduli (GPa) = 70.71438 113.95188 65.53745
#
# Poissons Ratio (x) = 0.26152 0.26660
# Poissons Ratio (y) = 0.16229 0.28041
# Poissons Ratio (z) = 0.28766 0.48755
#
# Static dielectric constant tensor:
#      x y z
#    x 3.383780 0.000000 0.000000 
#    y 0.000000 3.846020 0.000000 
#    z 0.000000 0.000000 3.427490 
# 
# 
# High freq. dielectric constant tensor:
#      x y z
#    x 1.730090 0.000000 0.000000 
#    y 0.000000 1.771360 0.000000 
#    z 0.000000 0.000000 1.751650 
# 
# From -- ./inp_files/5701.got.cif
#   From: 2010.03.12/outbox.cif.g09.slc.cpg/sg38_3_cif.got.tgz:5701.got - 2010.04.14 02:38:36.
