data_PCOD8179869
_publ_section_title
;
Structure prediction by ZEFSAII (Michael W. Deem and Ramdas Pophale) SiO2 
 PCOD8179869
Probable space group: A M M 2
;
_chemical_formula_sum "Si O2"
_cell_formula_units_Z 64
_cell_length_a 14.130750
_cell_length_b 9.147731
_cell_length_c 28.393737
_cell_angle_alpha 90.000000
_cell_angle_beta 90.000000
_cell_angle_gamma 90.000000
_cell_volume 3670.296533
_symmetry_space_group_name_H-M "A M M 2"
_symmetry_group_IT_number 38
_symmetry_cell_setting 'orthorhombic'
loop_
_space_group_symop_operation_xyz
x,y,z
-x,-y,z
-x,y,z
x,-y,z
x,1/2+y,1/2+z
-x,1/2-y,1/2+z
-x,1/2+y,1/2+z
x,1/2-y,1/2+z
loop_
_atom_site_type_symbol
_atom_site_label
_atom_site_fract_x
_atom_site_fract_y
_atom_site_fract_z
Si Si1 0.763556 0.672785 0.284900
Si Si2 0.759407 0.171441 0.534399
Si Si3 0.604043 0.171783 0.714846
Si Si4 0.111122 0.670474 0.711768
Si Si5 0.741146 0.328813 0.391527
Si Si6 0.892946 0.170809 0.967954
Si Si7 0.607460 0.328268 0.958634
Si Si8 0.757140 0.172856 0.641751
O O1 0.782455 0.500000 0.280445
O O2 0.664007 0.717392 0.260817
O O3 0.848761 0.755793 0.259143
O O4 0.759607 0.725583 0.338669
O O5 0.852140 0.248251 0.513585
O O6 0.666420 0.218460 0.504991
O O7 0.745995 0.222795 0.587932
O O8 0.776447 0.000000 0.531229
O O9 0.500000 0.247100 0.715986
O O10 0.660600 0.220508 0.668076
O O11 0.590290 0.000000 0.714178
O O12 0.136875 0.500000 0.711977
O O13 0.154673 0.744663 0.665213
O O14 0.000000 0.697820 0.710508
O O15 0.719843 0.500000 0.392688
O O16 0.833804 0.286714 0.421551
O O17 0.649357 0.248984 0.412422
O O18 0.000000 0.222717 0.959330
O O19 0.887019 0.000000 0.978320
O O20 0.500000 0.276089 0.966290
O O21 0.613510 0.500000 0.950077
O O22 0.774898 0.000000 0.646807
#
# Coordination Sequence:
#
# PCOD8179869 Si02
#       8
#     8   8   8   8   8   8   8   8
#     4   9  18  32  51  74  97 124 159 198 238 278
#     4   9  18  32  49  70  95 123 160 202 239 280
#     4   8  14  26  45  69  94 117 146 187 231 273
#     4  10  21  35  50  70  97 128 160 195 239 291
#     4   9  18  32  50  72  97 126 161 200 239 280
#     4   9  18  32  48  67  93 124 157 193 237 289
#     4   9  18  32  49  71 101 134 164 196 238 286
#     4   9  18  32  50  71  94 124 161 199 239 281
#
# _framework density 17.437283000000001
#
# number of rings (size 3 to 8) (size 9 to 14) (size 15 to 20)
#    0.000    3.000    0.000    1.125    0.000    4.500 
#    0.000    7.500    0.000    6.000    0.000    5.250 
#    0.000    0.000    0.000    0.000    0.000    0.000 
#
# Total GULP energy -396775.868393 kJ/mol
# GULP energy per Si atom -12399.245887 kJ/mol
# Density = 1.739759 g / cm^3
# Si number density = 17.437283 Si / 1000 Ang^3
#
#
#
# Elastic Constant Matrix: (Units=GPa)
#
#
# Indices 1 2 3 4 5 6 
#
# 1 143.3227 41.2175 70.3124 0.0000 0.0000 0.0000
# 2 41.2175 37.9151 39.8906 0.0000 0.0000 0.0000
# 3 70.3124 39.8906 156.5645 0.0000 0.0000 0.0000
# 4 0.0000 0.0000 0.0000 25.4000 0.0000 0.0000
# 5 0.0000 0.0000 0.0000 0.0000 52.4328 0.0000
# 6 0.0000 0.0000 0.0000 0.0000 0.0000 23.9487
#
#
#
# Elastic Compliance Matrix: (Units=1/GPa)
#
#
# Indices 1 2 3 4 5 6 
#
# 1 0.010849 -0.009109 -0.002551 0.000000 0.000000 0.000000
# 2 -0.009109 0.043683 -0.007039 0.000000 0.000000 0.000000
# 3 -0.002551 -0.007039 0.009326 0.000000 0.000000 0.000000
# 4 0.000000 0.000000 0.000000 0.039370 0.000000 0.000000
# 5 0.000000 0.000000 0.000000 0.000000 0.019072 0.000000
# 6 0.000000 0.000000 0.000000 0.000000 0.000000 0.041756
#
#
# Mechanical properties :
#
#
# Convention : Reuss Voigt Hill
#
# Bulk Modulus (GPa) = 37.79401 71.18258 54.48830
# Shear Modulus (GPa) = 23.77842 32.78176 28.28009
#
# Velocity S-wave (km/s) = 3.69677 4.34058 4.03155
# Velocity P-wave (km/s) = 6.32003 8.12598 7.27923
#
# Compressibility (1/GPa) = 0.02645922
#
# Stress axis : x y z
#
# Youngs Moduli (GPa) = 92.17845 22.89203 107.22448
#
# Poissons Ratio (x) = 0.20853 0.27353
# Poissons Ratio (y) = 0.83970 0.75474
# Poissons Ratio (z) = 0.23515 0.16113
#
# Static dielectric constant tensor:
#      x y z
#    x 3.399520 0.000000 0.000000 
#    y 0.000000 3.065720 0.000000 
#    z 0.000000 0.000000 3.392280 
# 
# 
# High freq. dielectric constant tensor:
#      x y z
#    x 1.676150 0.000000 0.000000 
#    y 0.000000 1.654560 0.000000 
#    z 0.000000 0.000000 1.676960 
# 
# From -- ./inp_files/25075.got.cif
#   From: 2010.03.12/outbox.cif.g09.slc.cpg/sg38_13_cif.got.tgz:25075.got - 2010.04.14 02:38:36.
