data_PCOD8179105
_publ_section_title
;
Structure prediction by ZEFSAII (Michael W. Deem and Ramdas Pophale) SiO2 
 PCOD8179105
Probable space group: A M M 2
;
_chemical_formula_sum "Si O2"
_cell_formula_units_Z 56
_cell_length_a 16.574541
_cell_length_b 8.750199
_cell_length_c 20.367511
_cell_angle_alpha 90.000000
_cell_angle_beta 90.000000
_cell_angle_gamma 90.000000
_cell_volume 2953.910958
_symmetry_space_group_name_H-M "A M M 2"
_symmetry_group_IT_number 38
_symmetry_cell_setting 'orthorhombic'
loop_
_space_group_symop_operation_xyz
x,y,z
-x,-y,z
-x,y,z
x,-y,z
x,1/2+y,1/2+z
-x,1/2-y,1/2+z
-x,1/2+y,1/2+z
x,1/2-y,1/2+z
loop_
_atom_site_type_symbol
_atom_site_label
_atom_site_fract_x
_atom_site_fract_y
_atom_site_fract_z
Si Si1 0.653953 0.175838 0.936960
Si Si2 0.252316 0.319416 0.564409
Si Si3 0.664214 0.180184 0.195143
Si Si4 0.500000 0.180655 0.735211
Si Si5 0.091215 0.175850 0.363279
Si Si6 0.759929 0.326200 0.310102
Si Si7 0.910252 0.322637 0.503335
Si Si8 0.500000 0.321960 0.878620
O O1 0.721134 0.192897 0.881338
O O2 0.577691 0.280371 0.921316
O O3 0.625725 0.000000 0.943290
O O4 0.693127 0.239228 0.004010
O O5 0.257118 0.500000 0.566427
O O6 0.286943 0.253355 0.632492
O O7 0.158400 0.269727 0.555147
O O8 0.577489 0.259251 0.196585
O O9 0.713534 0.217504 0.260260
O O10 0.651069 0.000000 0.190532
O O11 0.500000 0.231319 0.810638
O O12 0.500000 0.000000 0.734818
O O13 0.147349 0.274587 0.315157
O O14 0.100949 0.224904 0.438276
O O15 0.000000 0.202473 0.339094
O O16 0.116751 0.000000 0.357733
O O17 0.754772 0.500000 0.284924
O O18 0.897889 0.500000 0.484095
O O19 0.000000 0.295990 0.533598
O O20 0.500000 0.500000 0.861764
#
# Coordination Sequence:
#
# PCOD8179105 Si02
#       8
#     8   8   8   4   8   8   8   4
#     4  10  20  37  60  83 113 149 189 234 284 339
#     4   9  19  37  58  85 116 152 192 232 282 342
#     4  11  23  39  61  85 116 153 193 238 287 343
#     4  12  24  41  60  81 113 151 195 237 286 352
#     4  10  20  33  53  85 121 153 191 243 294 335
#     4  11  21  36  60  85 114 151 192 235 284 344
#     4   9  16  31  57  85 113 148 192 236 282 344
#     4  12  24  37  58  89 117 145 191 243 294 336
#
# _framework density 18.957916999999998
#
# number of rings (size 3 to 8) (size 9 to 14) (size 15 to 20)
#    0.000    1.714    2.857    2.571    0.000    2.000 
#    0.000    6.429    0.000    2.571    0.000    0.000 
#    0.000    0.000    0.000    0.000    0.000    0.000 
#
# Total GULP energy -347242.738682 kJ/mol
# GULP energy per Si atom -12401.526381 kJ/mol
# Density = 1.891477 g / cm^3
# Si number density = 18.957917 Si / 1000 Ang^3
#
#
#
# Elastic Constant Matrix: (Units=GPa)
#
#
# Indices 1 2 3 4 5 6 
#
# 1 149.6624 44.7433 43.3534 0.0000 0.0000 0.0000
# 2 44.7433 77.1624 25.5538 0.0000 0.0000 0.0000
# 3 43.3534 25.5538 76.3101 0.0000 0.0000 0.0000
# 4 0.0000 0.0000 0.0000 21.2941 0.0000 0.0000
# 5 0.0000 0.0000 0.0000 0.0000 24.5266 0.0000
# 6 0.0000 0.0000 0.0000 0.0000 0.0000 29.6519
#
#
#
# Elastic Compliance Matrix: (Units=1/GPa)
#
#
# Indices 1 2 3 4 5 6 
#
# 1 0.008951 -0.003944 -0.003765 0.000000 0.000000 0.000000
# 2 -0.003944 0.016314 -0.003222 0.000000 0.000000 0.000000
# 3 -0.003765 -0.003222 0.016322 0.000000 0.000000 0.000000
# 4 0.000000 0.000000 0.000000 0.046961 0.000000 0.000000
# 5 0.000000 0.000000 0.000000 0.000000 0.040772 0.000000
# 6 0.000000 0.000000 0.000000 0.000000 0.000000 0.033725
#
#
# Mechanical properties :
#
#
# Convention : Reuss Voigt Hill
#
# Bulk Modulus (GPa) = 50.69589 58.93732 54.81660
# Shear Modulus (GPa) = 26.11207 27.72681 26.91944
#
# Velocity S-wave (km/s) = 3.71532 3.82847 3.77232
# Velocity P-wave (km/s) = 6.72340 7.12032 6.92470
#
# Compressibility (1/GPa) = 0.01972546
#
# Stress axis : x y z
#
# Youngs Moduli (GPa) = 111.71583 61.29838 61.26562
#
# Poissons Ratio (x) = 0.24174 0.23065
# Poissons Ratio (y) = 0.44057 0.19742
# Poissons Ratio (z) = 0.42059 0.19753
#
# Static dielectric constant tensor:
#      x y z
#    x 3.808200 0.000000 0.000000 
#    y 0.000000 3.388400 0.000000 
#    z 0.000000 0.000000 3.437110 
# 
# 
# High freq. dielectric constant tensor:
#      x y z
#    x 1.755140 0.000000 0.000000 
#    y 0.000000 1.727640 0.000000 
#    z 0.000000 0.000000 1.714770 
# 
# From -- ./inp_files/21162.got.cif
#   From: 2010.03.12/outbox.cif.g09.slc.cpg/sg38_11_cif.got.tgz:21162.got - 2010.04.14 02:38:36.
