data_PCOD8179782
_publ_section_title
;
Structure prediction by ZEFSAII (Michael W. Deem and Ramdas Pophale) SiO2 
 PCOD8179782
Probable space group: A M M 2
;
_chemical_formula_sum "Si O2"
_cell_formula_units_Z 48
_cell_length_a 18.758933
_cell_length_b 7.857589
_cell_length_c 16.026357
_cell_angle_alpha 90.000000
_cell_angle_beta 90.000000
_cell_angle_gamma 90.000000
_cell_volume 2362.284791
_symmetry_space_group_name_H-M "A M M 2"
_symmetry_group_IT_number 38
_symmetry_cell_setting 'orthorhombic'
loop_
_space_group_symop_operation_xyz
x,y,z
-x,-y,z
-x,y,z
x,-y,z
x,1/2+y,1/2+z
-x,1/2-y,1/2+z
-x,1/2+y,1/2+z
x,1/2-y,1/2+z
loop_
_atom_site_type_symbol
_atom_site_label
_atom_site_fract_x
_atom_site_fract_y
_atom_site_fract_z
Si Si1 0.421221 0.803425 0.363890
Si Si2 0.179395 0.298389 0.955468
Si Si3 0.796896 0.812893 0.269476
Si Si4 0.658447 0.692410 0.201559
Si Si5 0.078990 0.000000 0.202232
Si Si6 0.078563 0.000000 0.007413
Si Si7 0.331812 0.298741 0.018243
O O1 0.500000 0.719059 0.359753
O O2 0.382369 0.788813 0.274972
O O3 0.376920 0.718576 0.440941
O O4 0.429193 0.000000 0.384346
O O5 0.158274 0.500000 0.960675
O O6 0.197037 0.240114 0.861890
O O7 0.115999 0.176888 0.983876
O O8 0.248628 0.252697 0.009942
O O9 0.744209 0.696035 0.215353
O O10 0.760199 0.000000 0.274016
O O11 0.876459 0.830877 0.229990
O O12 0.631761 0.500000 0.204057
O O13 0.641832 0.770319 0.109088
O O14 0.000000 0.000000 0.244199
O O15 0.070294 0.000000 0.105179
O O16 0.000000 0.000000 0.965926
O O17 0.339866 0.500000 0.016272
#
# Coordination Sequence:
#
# PCOD8179782 Si02
#       7
#     8   8   8   8   4   4   8
#     4  10  21  39  60  80 113 154 194 238 291 360
#     4  10  20  38  61  87 118 155 204 255 293 356
#     4   9  19  35  60  82 109 152 195 240 287 353
#     4  11  21  34  58  88 117 147 190 248 297 350
#     4   9  20  38  58  86 120 158 195 244 304 360
#     4  11  24  38  58  90 124 156 201 248 310 368
#     4   9  19  36  58  85 114 151 198 239 295 355
#
# _framework density 20.319312
#
# number of rings (size 3 to 8) (size 9 to 14) (size 15 to 20)
#    0.500    1.667    1.667    1.500    1.167    2.000 
#    1.500    1.667    0.000    1.000    0.000    0.000 
#    0.000    0.000    0.000    0.000    0.000    0.000 
#
# Total GULP energy -297358.125522 kJ/mol
# GULP energy per Si atom -12389.921897 kJ/mol
# Density = 2.027306 g / cm^3
# Si number density = 20.319312 Si / 1000 Ang^3
#
#
#
# Elastic Constant Matrix: (Units=GPa)
#
#
# Indices 1 2 3 4 5 6 
#
# 1 147.7323 28.7714 62.7540 0.0000 0.0000 0.0000
# 2 28.7714 45.6764 15.9472 0.0000 0.0000 0.0000
# 3 62.7540 15.9472 153.3401 0.0000 0.0000 0.0000
# 4 0.0000 0.0000 0.0000 15.3567 0.0000 0.0000
# 5 0.0000 0.0000 0.0000 0.0000 25.2537 0.0000
# 6 0.0000 0.0000 0.0000 0.0000 0.0000 -42.6132
#
#
#
# Elastic Compliance Matrix: (Units=1/GPa)
#
#
# Indices 1 2 3 4 5 6 
#
# 1 0.009025 -0.004561 -0.003219 0.000000 0.000000 0.000000
# 2 -0.004561 0.025023 -0.000736 0.000000 0.000000 0.000000
# 3 -0.003219 -0.000736 0.007915 0.000000 0.000000 0.000000
# 4 0.000000 0.000000 0.000000 0.065118 0.000000 0.000000
# 5 0.000000 0.000000 0.000000 0.000000 0.039598 0.000000
# 6 0.000000 0.000000 0.000000 0.000000 0.000000 -0.023467
#
#
# Mechanical properties :
#
#
# Convention : Reuss Voigt Hill
#
# Bulk Modulus (GPa) = 40.10973 62.41046 51.26009
# Shear Modulus (GPa) = 33.65780 15.55118 24.60449
#
# Velocity S-wave (km/s) = 4.07436 2.76948 3.48356
# Velocity P-wave (km/s) = 6.47429 6.40377 6.43912
#
# Compressibility (1/GPa) = 0.02493161
#
# Stress axis : x y z
#
# Youngs Moduli (GPa) = 110.80858 39.96351 126.33698
#
# Poissons Ratio (x) = 0.18226 0.40668
# Poissons Ratio (y) = 0.50536 0.09297
# Poissons Ratio (z) = 0.35669 0.02941
#
# Static dielectric constant tensor:
#      x y z
#    x 4.041350 0.000000 0.000000 
#    y 0.000000 3.330530 0.000000 
#    z 0.000000 0.000000 3.879000 
# 
# 
# High freq. dielectric constant tensor:
#      x y z
#    x 1.785670 0.000000 0.000000 
#    y 0.000000 1.759740 0.000000 
#    z 0.000000 0.000000 1.807510 
# 
# From -- ./inp_files/15031.got.cif
#   From: 2010.03.12/outbox.cif.g09.slc.cpg/sg38_8_cif.got.tgz:15031.got - 2010.04.14 02:38:36.
