data_PCOD8179982
_publ_section_title
;
Structure prediction by ZEFSAII (Michael W. Deem and Ramdas Pophale) SiO2 
 PCOD8179982
Probable space group: A M M 2
;
_chemical_formula_sum "Si O2"
_cell_formula_units_Z 48
_cell_length_a 9.198220
_cell_length_b 8.946766
_cell_length_c 30.587609
_cell_angle_alpha 90.000000
_cell_angle_beta 90.000000
_cell_angle_gamma 90.000000
_cell_volume 2517.186543
_symmetry_space_group_name_H-M "A M M 2"
_symmetry_group_IT_number 38
_symmetry_cell_setting 'orthorhombic'
loop_
_space_group_symop_operation_xyz
x,y,z
-x,-y,z
-x,y,z
x,-y,z
x,1/2+y,1/2+z
-x,1/2-y,1/2+z
-x,1/2+y,1/2+z
x,1/2-y,1/2+z
loop_
_atom_site_type_symbol
_atom_site_label
_atom_site_fract_x
_atom_site_fract_y
_atom_site_fract_z
Si Si1 0.833280 0.175845 0.098720
Si Si2 0.832321 0.828285 0.844813
Si Si3 0.166300 0.824996 0.509208
Si Si4 0.670682 0.172877 0.677410
Si Si5 0.830515 0.326779 0.755685
Si Si6 0.670637 0.171958 0.931694
O O1 0.779311 0.245527 0.053254
O O2 0.733777 0.236010 0.137109
O O3 0.000000 0.221047 0.108265
O O4 0.813992 0.000000 0.095658
O O5 0.787810 0.725197 0.804206
O O6 0.737660 0.774930 0.885835
O O7 0.000000 0.805690 0.857470
O O8 0.799418 0.000000 0.832448
O O9 0.266381 0.773608 0.469740
O O10 0.000000 0.780378 0.498918
O O11 0.184383 0.000000 0.516150
O O12 0.500000 0.200351 0.679408
O O13 0.738599 0.230147 0.722210
O O14 0.710295 0.000000 0.671330
O O15 0.790883 0.500000 0.750200
O O16 0.000000 0.297402 0.746543
O O17 0.500000 0.196574 0.929292
O O18 0.712251 0.000000 0.940950
#
# Coordination Sequence:
#
# PCOD8179982 Si02
#       6
#     8   8   8   8   8   8
#     4  10  21  38  61  86 110 140 181 227 274 325
#     4   9  18  34  56  80 108 145 187 229 272 320
#     4  10  21  37  58  83 110 143 184 228 273 322
#     4  11  24  39  56  81 113 148 184 223 270 324
#     4  10  21  37  58  84 112 143 182 227 274 325
#     4  10  21  36  55  81 113 148 184 224 273 327
#
# _framework density 19.068909999999999
#
# number of rings (size 3 to 8) (size 9 to 14) (size 15 to 20)
#    0.000    2.000    0.000    3.000    0.000    9.333 
#    0.000    3.333    0.000    0.000    0.000    0.000 
#    0.000    0.000    0.000    0.000    0.000    0.000 
#
# Total GULP energy -297736.268803 kJ/mol
# GULP energy per Si atom -12405.677867 kJ/mol
# Density = 1.902551 g / cm^3
# Si number density = 19.068910 Si / 1000 Ang^3
#
#
#
# Elastic Constant Matrix: (Units=GPa)
#
#
# Indices 1 2 3 4 5 6 
#
# 1 73.0460 38.4932 59.4993 0.0000 0.0000 0.0000
# 2 38.4932 68.2430 44.8257 0.0000 0.0000 0.0000
# 3 59.4993 44.8257 127.8386 0.0000 0.0000 0.0000
# 4 0.0000 0.0000 0.0000 39.7632 0.0000 0.0000
# 5 0.0000 0.0000 0.0000 0.0000 -39.0544 0.0000
# 6 0.0000 0.0000 0.0000 0.0000 0.0000 28.8509
#
#
#
# Elastic Compliance Matrix: (Units=1/GPa)
#
#
# Indices 1 2 3 4 5 6 
#
# 1 0.025358 -0.008511 -0.008818 0.000000 0.000000 0.000000
# 2 -0.008511 0.021895 -0.003716 0.000000 0.000000 0.000000
# 3 -0.008818 -0.003716 0.013229 0.000000 0.000000 0.000000
# 4 0.000000 0.000000 0.000000 0.025149 0.000000 0.000000
# 5 0.000000 0.000000 0.000000 0.000000 -0.025605 0.000000
# 6 0.000000 0.000000 0.000000 0.000000 0.000000 0.034661
#
#
# Mechanical properties :
#
#
# Convention : Reuss Voigt Hill
#
# Bulk Modulus (GPa) = 54.37079 61.64042 58.00561
# Shear Modulus (GPa) = 34.98765 14.33256 24.66011
#
# Velocity S-wave (km/s) = 4.28810 2.74454 3.60002
# Velocity P-wave (km/s) = 7.28641 6.51449 6.91124
#
# Compressibility (1/GPa) = 0.01839223
#
# Stress axis : x y z
#
# Youngs Moduli (GPa) = 39.43590 45.67181 75.58971
#
# Poissons Ratio (x) = 0.38873 0.66652
# Poissons Ratio (y) = 0.33565 0.28090
# Poissons Ratio (z) = 0.34773 0.16972
#
# Static dielectric constant tensor:
#      x y z
#    x 3.471520 0.000000 0.000000 
#    y 0.000000 3.558770 0.000000 
#    z 0.000000 0.000000 3.602520 
# 
# 
# High freq. dielectric constant tensor:
#      x y z
#    x 1.736430 0.000000 0.000000 
#    y 0.000000 1.748480 0.000000 
#    z 0.000000 0.000000 1.754280 
# 
# From -- ./inp_files/24265.got.cif
#   From: 2010.03.12/outbox.cif.g09.slc.cpg/sg38_13_cif.got.tgz:24265.got - 2010.04.14 02:38:36.
