data_PCOD8179289
_publ_section_title
;
Structure prediction by ZEFSAII (Michael W. Deem and Ramdas Pophale) SiO2 
 PCOD8179289
Probable space group: A M M 2
;
_chemical_formula_sum "Si O2"
_cell_formula_units_Z 56
_cell_length_a 19.465617
_cell_length_b 8.894965
_cell_length_c 15.878290
_cell_angle_alpha 90.000000
_cell_angle_beta 90.000000
_cell_angle_gamma 90.000000
_cell_volume 2749.262113
_symmetry_space_group_name_H-M "A M M 2"
_symmetry_group_IT_number 38
_symmetry_cell_setting 'orthorhombic'
loop_
_space_group_symop_operation_xyz
x,y,z
-x,-y,z
-x,y,z
x,-y,z
x,1/2+y,1/2+z
-x,1/2-y,1/2+z
-x,1/2+y,1/2+z
x,1/2-y,1/2+z
loop_
_atom_site_type_symbol
_atom_site_label
_atom_site_fract_x
_atom_site_fract_y
_atom_site_fract_z
Si Si1 0.289573 0.328484 0.089640
Si Si2 0.922396 0.178760 0.994729
Si Si3 0.573747 0.177464 0.334256
Si Si4 0.284104 0.827062 0.398438
Si Si5 0.839016 0.322038 0.657320
Si Si6 0.844335 0.177617 0.828764
Si Si7 0.577079 0.174945 0.141047
O O1 0.286970 0.500000 0.120680
O O2 0.240172 0.229906 0.148829
O O3 0.367781 0.271311 0.089795
O O4 0.261947 0.313077 0.994917
O O5 0.888834 0.238399 0.907840
O O6 0.000000 0.239862 0.999368
O O7 0.920324 0.000000 0.994578
O O8 0.881950 0.238461 0.076949
O O9 0.500000 0.244603 0.366335
O O10 0.638445 0.238010 0.387358
O O11 0.584429 0.223025 0.237734
O O12 0.569681 0.000000 0.342658
O O13 0.234356 0.725948 0.342156
O O14 0.279622 0.000000 0.367206
O O15 0.841889 0.500000 0.664288
O O16 0.871635 0.251937 0.742232
O O17 0.849764 0.000000 0.819962
O O18 0.500000 0.212344 0.108609
O O19 0.593410 0.000000 0.128530
#
# Coordination Sequence:
#
# PCOD8179289 Si02
#       7
#     8   8   8   8   8   8   8
#     4  11  22  34  53  83 117 151 197 255 302 349
#     4   9  20  40  64  90 122 159 196 236 292 361
#     4   8  15  30  51  73  98 136 187 237 285 339
#     4  10  20  34  55  82 113 150 194 245 295 353
#     4  11  22  39  63  88 119 162 202 241 294 357
#     4  11  22  38  62  91 121 155 196 246 297 351
#     4   9  18  33  53  76 106 149 200 248 298 360
#
# _framework density 20.369101000000001
#
# number of rings (size 3 to 8) (size 9 to 14) (size 15 to 20)
#    0.000    2.143    1.429    3.000    0.000    3.143 
#    0.000    1.429    0.000    7.286    0.000    0.000 
#    0.000    0.000    0.000    0.000    0.000    0.000 
#
# Total GULP energy -347159.511889 kJ/mol
# GULP energy per Si atom -12398.553996 kJ/mol
# Density = 2.032274 g / cm^3
# Si number density = 20.369101 Si / 1000 Ang^3
#
#
#
# Elastic Constant Matrix: (Units=GPa)
#
#
# Indices 1 2 3 4 5 6 
#
# 1 126.1406 30.3330 57.3328 0.0000 0.0000 0.0000
# 2 30.3330 63.9992 41.2921 0.0000 0.0000 0.0000
# 3 57.3328 41.2921 125.8438 0.0000 0.0000 0.0000
# 4 0.0000 0.0000 0.0000 27.3919 0.0000 0.0000
# 5 0.0000 0.0000 0.0000 0.0000 31.4840 0.0000
# 6 0.0000 0.0000 0.0000 0.0000 0.0000 20.7686
#
#
#
# Elastic Compliance Matrix: (Units=1/GPa)
#
#
# Indices 1 2 3 4 5 6 
#
# 1 0.010268 -0.002345 -0.003909 0.000000 0.000000 0.000000
# 2 -0.002345 0.020357 -0.005611 0.000000 0.000000 0.000000
# 3 -0.003909 -0.005611 0.011568 0.000000 0.000000 0.000000
# 4 0.000000 0.000000 0.000000 0.036507 0.000000 0.000000
# 5 0.000000 0.000000 0.000000 0.000000 0.031762 0.000000
# 6 0.000000 0.000000 0.000000 0.000000 0.000000 0.048150
#
#
# Mechanical properties :
#
#
# Convention : Reuss Voigt Hill
#
# Bulk Modulus (GPa) = 54.15998 63.76659 58.96328
# Shear Modulus (GPa) = 26.52575 28.39728 27.46151
#
# Velocity S-wave (km/s) = 3.61259 3.73786 3.67576
# Velocity P-wave (km/s) = 6.63687 7.07123 6.85749
#
# Compressibility (1/GPa) = 0.01846382
#
# Stress axis : x y z
#
# Youngs Moduli (GPa) = 97.38955 49.12337 86.44347
#
# Poissons Ratio (x) = 0.11518 0.33787
# Poissons Ratio (y) = 0.22836 0.48506
# Poissons Ratio (z) = 0.38066 0.27564
#
# Static dielectric constant tensor:
#      x y z
#    x 3.685400 0.000000 0.000000 
#    y 0.000000 3.302450 0.000000 
#    z 0.000000 0.000000 3.741500 
# 
# 
# High freq. dielectric constant tensor:
#      x y z
#    x 1.798940 0.000000 0.000000 
#    y 0.000000 1.762660 0.000000 
#    z 0.000000 0.000000 1.798620 
# 
# From -- ./inp_files/15501.got.cif
#   From: 2010.03.12/outbox.cif.g09.slc.cpg/sg38_8_cif.got.tgz:15501.got - 2010.04.14 02:38:36.
