data_PCOD8179112
_publ_section_title
;
Structure prediction by ZEFSAII (Michael W. Deem and Ramdas Pophale) SiO2 
 PCOD8179112
Probable space group: A M M 2
;
_chemical_formula_sum "Si O2"
_cell_formula_units_Z 64
_cell_length_a 8.868975
_cell_length_b 19.216091
_cell_length_c 20.715682
_cell_angle_alpha 90.000000
_cell_angle_beta 90.000000
_cell_angle_gamma 90.000000
_cell_volume 3530.512172
_symmetry_space_group_name_H-M "A M M 2"
_symmetry_group_IT_number 38
_symmetry_cell_setting 'orthorhombic'
loop_
_space_group_symop_operation_xyz
x,y,z
-x,-y,z
-x,y,z
x,-y,z
x,1/2+y,1/2+z
-x,1/2-y,1/2+z
-x,1/2+y,1/2+z
x,1/2-y,1/2+z
loop_
_atom_site_type_symbol
_atom_site_label
_atom_site_fract_x
_atom_site_fract_y
_atom_site_fract_z
Si Si1 0.823177 0.795413 0.948340
Si Si2 0.674121 0.921320 0.003256
Si Si3 0.823559 0.289342 0.075780
Si Si4 0.824111 0.079063 0.139425
Si Si5 0.674149 0.578797 0.878604
Si Si6 0.823065 0.291201 0.823972
Si Si7 0.322030 0.709074 0.693243
Si Si8 0.325327 0.578664 0.027814
O O1 0.770842 0.755026 0.884547
O O2 0.000000 0.810788 0.947392
O O3 0.733520 0.868452 0.948859
O O4 0.776324 0.749911 0.010290
O O5 0.500000 0.907032 0.019740
O O6 0.771839 0.907103 0.066697
O O7 0.697615 0.000000 0.977947
O O8 0.737558 0.255743 0.135275
O O9 0.775955 0.369842 0.070348
O O10 0.000000 0.284016 0.088970
O O11 0.734159 0.129475 0.187049
O O12 0.000000 0.096936 0.143141
O O13 0.789563 0.000000 0.160321
O O14 0.500000 0.599087 0.868547
O O15 0.703833 0.500000 0.855438
O O16 0.777548 0.628866 0.836028
O O17 0.719968 0.586450 0.953199
O O18 0.740164 0.261255 0.760819
O O19 0.000000 0.287236 0.812590
O O20 0.500000 0.711063 0.693494
O O21 0.500000 0.597445 0.037657
O O22 0.292846 0.500000 0.051179
#
# Coordination Sequence:
#
# PCOD8179112 Si02
#       8
#     8   8   8   8   8   8   8   8
#     4  10  21  36  57  83 111 146 185 227 278 328
#     4  10  20  33  54  85 115 144 181 226 275 327
#     4  11  21  36  58  85 113 145 186 231 278 331
#     4  10  20  35  55  79 110 148 187 227 272 324
#     4   9  18  33  53  79 112 149 187 224 266 322
#     4  11  23  39  56  79 111 147 187 231 276 329
#     4  12  25  39  56  80 110 149 189 230 280 332
#     4   9  18  33  55  84 116 148 184 228 277 326
#
# _framework density 18.127680999999999
#
# number of rings (size 3 to 8) (size 9 to 14) (size 15 to 20)
#    0.000    1.750    2.500    3.375    0.000    4.000 
#    0.000    1.250    0.000    0.750    0.000    3.500 
#    0.000    0.000    0.000    0.000    0.000    0.000 
#
# Total GULP energy -396918.376871 kJ/mol
# GULP energy per Si atom -12403.699277 kJ/mol
# Density = 1.808642 g / cm^3
# Si number density = 18.127681 Si / 1000 Ang^3
#
#
#
# Elastic Constant Matrix: (Units=GPa)
#
#
# Indices 1 2 3 4 5 6 
#
# 1 93.4337 45.8400 56.4657 0.0000 0.0000 0.0000
# 2 45.8400 95.6233 52.5431 0.0000 0.0000 0.0000
# 3 56.4657 52.5431 113.7354 0.0000 0.0000 0.0000
# 4 0.0000 0.0000 0.0000 22.8876 0.0000 0.0000
# 5 0.0000 0.0000 0.0000 0.0000 27.9493 0.0000
# 6 0.0000 0.0000 0.0000 0.0000 0.0000 35.3100
#
#
#
# Elastic Compliance Matrix: (Units=1/GPa)
#
#
# Indices 1 2 3 4 5 6 
#
# 1 0.016686 -0.004620 -0.006150 0.000000 0.000000 0.000000
# 2 -0.004620 0.015295 -0.004772 0.000000 0.000000 0.000000
# 3 -0.006150 -0.004772 0.014050 0.000000 0.000000 0.000000
# 4 0.000000 0.000000 0.000000 0.043692 0.000000 0.000000
# 5 0.000000 0.000000 0.000000 0.000000 0.035779 0.000000
# 6 0.000000 0.000000 0.000000 0.000000 0.000000 0.028321
#
#
# Mechanical properties :
#
#
# Convention : Reuss Voigt Hill
#
# Bulk Modulus (GPa) = 66.90223 68.05445 67.47834
# Shear Modulus (GPa) = 26.33137 27.09228 26.71183
#
# Velocity S-wave (km/s) = 3.81537 3.87010 3.84283
# Velocity P-wave (km/s) = 7.50970 7.58904 7.54947
#
# Compressibility (1/GPa) = 0.01494718
#
# Stress axis : x y z
#
# Youngs Moduli (GPa) = 59.93121 65.38288 71.17380
#
# Poissons Ratio (x) = 0.30205 0.43770
# Poissons Ratio (y) = 0.27686 0.33966
# Poissons Ratio (z) = 0.36856 0.31202
#
# Static dielectric constant tensor:
#      x y z
#    x 3.319790 0.000000 0.000000 
#    y 0.000000 3.429550 0.000000 
#    z 0.000000 0.000000 3.194370 
# 
# 
# High freq. dielectric constant tensor:
#      x y z
#    x 1.709950 0.000000 0.000000 
#    y 0.000000 1.702580 0.000000 
#    z 0.000000 0.000000 1.679960 
# 
# From -- ./inp_files/20016.got.cif
#   From: 2010.03.12/outbox.cif.g09.slc.cpg/sg38_11_cif.got.tgz:20016.got - 2010.04.14 02:38:36.
