data_PCOD8179432
_publ_section_title
;
Structure prediction by ZEFSAII (Michael W. Deem and Ramdas Pophale) SiO2 
 PCOD8179432
Probable space group: A M M 2
;
_chemical_formula_sum "Si O2"
_cell_formula_units_Z 56
_cell_length_a 8.882735
_cell_length_b 14.246269
_cell_length_c 22.480479
_cell_angle_alpha 90.000000
_cell_angle_beta 90.000000
_cell_angle_gamma 90.000000
_cell_volume 2844.810925
_symmetry_space_group_name_H-M "A M M 2"
_symmetry_group_IT_number 38
_symmetry_cell_setting 'orthorhombic'
loop_
_space_group_symop_operation_xyz
x,y,z
-x,-y,z
-x,y,z
x,-y,z
x,1/2+y,1/2+z
-x,1/2-y,1/2+z
-x,1/2+y,1/2+z
x,1/2-y,1/2+z
loop_
_atom_site_type_symbol
_atom_site_label
_atom_site_fract_x
_atom_site_fract_y
_atom_site_fract_z
Si Si1 0.822125 0.291596 0.234150
Si Si2 0.665079 0.145674 0.849012
Si Si3 0.172101 0.398732 0.462863
Si Si4 0.823437 0.299383 0.009806
Si Si5 0.323355 0.390549 0.122836
Si Si6 0.665014 0.852872 0.396384
Si Si7 0.324172 0.897528 0.269035
O O1 0.760840 0.353836 0.288574
O O2 0.767343 0.339130 0.174181
O O3 0.768334 0.183168 0.235656
O O4 0.000000 0.292014 0.236357
O O5 0.500000 0.102926 0.835017
O O6 0.744304 0.086231 0.900307
O O7 0.647325 0.248293 0.874164
O O8 0.190220 0.500000 0.496794
O O9 0.228299 0.310284 0.502259
O O10 0.000000 0.377233 0.446958
O O11 0.724816 0.342620 0.061668
O O12 0.000000 0.309158 0.023837
O O13 0.784510 0.358295 0.950068
O O14 0.500000 0.375757 0.132805
O O15 0.280135 0.500000 0.121471
O O16 0.500000 0.889711 0.417814
O O17 0.723347 0.909056 0.338606
O O18 0.500000 0.869993 0.265348
O O19 0.293593 0.000000 0.239288
#
# Coordination Sequence:
#
# PCOD8179432 Si02
#       7
#     8   8   8   8   8   8   8
#     4  11  22  37  58  83 113 146 182 230 283 332
#     4   9  17  31  52  78 109 145 184 223 264 314
#     4   9  18  33  54  83 118 151 181 217 267 326
#     4  10  20  35  56  82 112 145 181 226 277 325
#     4  11  25  44  63  79  99 136 186 235 282 335
#     4   8  15  29  50  77 109 145 182 219 260 308
#     4   9  18  34  57  85 118 154 189 225 267 320
#
# _framework density 19.684964000000001
#
# number of rings (size 3 to 8) (size 9 to 14) (size 15 to 20)
#    0.000    2.429    0.000    3.429    0.000    6.857 
#    0.000    2.143    0.000    2.571    0.000    0.000 
#    0.000    0.000    0.000    0.000    0.000    0.000 
#
# Total GULP energy -346991.467823 kJ/mol
# GULP energy per Si atom -12392.552422 kJ/mol
# Density = 1.964016 g / cm^3
# Si number density = 19.684964 Si / 1000 Ang^3
#
#
#
# Elastic Constant Matrix: (Units=GPa)
#
#
# Indices 1 2 3 4 5 6 
#
# 1 105.6170 42.5334 42.4509 0.0000 0.0000 0.0000
# 2 42.5334 111.7112 41.5601 0.0000 0.0000 0.0000
# 3 42.4509 41.5601 90.5039 0.0000 0.0000 0.0000
# 4 0.0000 0.0000 0.0000 6.5087 0.0000 0.0000
# 5 0.0000 0.0000 0.0000 0.0000 31.3936 0.0000
# 6 0.0000 0.0000 0.0000 0.0000 0.0000 18.9089
#
#
#
# Elastic Compliance Matrix: (Units=1/GPa)
#
#
# Indices 1 2 3 4 5 6 
#
# 1 0.012504 -0.003110 -0.004437 0.000000 0.000000 0.000000
# 2 -0.003110 0.011570 -0.003854 0.000000 0.000000 0.000000
# 3 -0.004437 -0.003854 0.014900 0.000000 0.000000 0.000000
# 4 0.000000 0.000000 0.000000 0.153641 0.000000 0.000000
# 5 0.000000 0.000000 0.000000 0.000000 0.031854 0.000000
# 6 0.000000 0.000000 0.000000 0.000000 0.000000 0.052885
#
#
# Mechanical properties :
#
#
# Convention : Reuss Voigt Hill
#
# Bulk Modulus (GPa) = 61.83623 62.32454 62.08038
# Shear Modulus (GPa) = 16.36412 23.44808 19.90610
#
# Velocity S-wave (km/s) = 2.88636 3.45507 3.18344
# Velocity P-wave (km/s) = 6.52604 6.90264 6.71698
#
# Compressibility (1/GPa) = 0.01617175
#
# Stress axis : x y z
#
# Youngs Moduli (GPa) = 79.97454 86.43293 67.11347
#
# Poissons Ratio (x) = 0.26882 0.29777
# Poissons Ratio (y) = 0.24874 0.25866
# Poissons Ratio (z) = 0.35483 0.33312
#
# Static dielectric constant tensor:
#      x y z
#    x 3.747460 0.000000 0.000000 
#    y 0.000000 5.899650 0.000000 
#    z 0.000000 0.000000 3.594610 
# 
# 
# High freq. dielectric constant tensor:
#      x y z
#    x 1.767100 0.000000 0.000000 
#    y 0.000000 1.774420 0.000000 
#    z 0.000000 0.000000 1.742660 
# 
# From -- ./inp_files/19781.got.cif
#   From: 2010.03.12/outbox.cif.g09.slc.cpg/sg38_10_cif.got.tgz:19781.got - 2010.04.14 02:38:36.
