data_PCOD8179272
_publ_section_title
;
Structure prediction by ZEFSAII (Michael W. Deem and Ramdas Pophale) SiO2 
 PCOD8179272
Probable space group: A M M 2
;
_chemical_formula_sum "Si O2"
_cell_formula_units_Z 64
_cell_length_a 9.399258
_cell_length_b 15.675463
_cell_length_c 23.045579
_cell_angle_alpha 90.000000
_cell_angle_beta 90.000000
_cell_angle_gamma 90.000000
_cell_volume 3395.483089
_symmetry_space_group_name_H-M "A M M 2"
_symmetry_group_IT_number 38
_symmetry_cell_setting 'orthorhombic'
loop_
_space_group_symop_operation_xyz
x,y,z
-x,-y,z
-x,y,z
x,-y,z
x,1/2+y,1/2+z
-x,1/2-y,1/2+z
-x,1/2+y,1/2+z
x,1/2-y,1/2+z
loop_
_atom_site_type_symbol
_atom_site_label
_atom_site_fract_x
_atom_site_fract_y
_atom_site_fract_z
Si Si1 0.838801 0.816846 0.741140
Si Si2 0.831854 0.401766 0.927180
Si Si3 0.334924 0.249679 0.138982
Si Si4 0.334519 0.903485 0.956320
Si Si5 0.844729 0.097329 0.850367
Si Si6 0.160955 0.640190 0.800889
Si Si7 0.336523 0.727351 0.008791
Si Si8 0.834809 0.906326 0.177776
O O1 0.733109 0.812130 0.686928
O O2 0.794417 0.894786 0.783094
O O3 0.823059 0.739407 0.786620
O O4 0.000000 0.824126 0.717013
O O5 0.797704 0.500000 0.943922
O O6 0.766676 0.383174 0.862579
O O7 0.000000 0.383838 0.929624
O O8 0.759503 0.337337 0.972404
O O9 0.500000 0.235166 0.153247
O O10 0.313414 0.293380 0.076626
O O11 0.256612 0.158387 0.139622
O O12 0.500000 0.909196 0.944296
O O13 0.265723 0.866828 0.897032
O O14 0.281438 0.000000 0.975104
O O15 0.297394 0.828624 0.002182
O O16 0.000000 0.142911 0.857204
O O17 0.862201 0.000000 0.865694
O O18 0.223428 0.591246 0.744335
O O19 0.000000 0.609549 0.808214
O O20 0.500000 0.712516 0.990443
O O21 0.000000 0.875620 0.177928
O O22 0.818763 0.000000 0.150069
#
# Coordination Sequence:
#
# PCOD8179272 Si02
#       8
#     8   8   8   8   8   8   8   8
#     4   9  17  31  51  73  99 131 162 199 252 306
#     4  10  20  34  55  81 104 131 171 215 257 304
#     4  10  21  35  50  69  95 131 175 215 248 289
#     4   9  18  33  53  77 105 137 172 208 250 306
#     4   9  17  30  50  77 104 127 157 202 256 309
#     4   8  14  27  49  75 101 128 157 192 242 304
#     4  10  22  38  53  71 101 142 179 213 258 303
#     4   9  17  31  52  77 105 134 160 192 243 305
#
# _framework density 18.848569999999999
#
# number of rings (size 3 to 8) (size 9 to 14) (size 15 to 20)
#    0.000    2.750    0.000    2.250    0.000    5.500 
#    0.000    5.625    0.000    6.750    0.000    0.000 
#    0.000    0.000    0.000    0.000    0.000    0.000 
#
# Total GULP energy -396425.295112 kJ/mol
# GULP energy per Si atom -12388.290472 kJ/mol
# Density = 1.880567 g / cm^3
# Si number density = 18.848570 Si / 1000 Ang^3
#
#
#
# Elastic Constant Matrix: (Units=GPa)
#
#
# Indices 1 2 3 4 5 6 
#
# 1 62.4155 28.2474 41.2594 0.0000 0.0000 0.0000
# 2 28.2474 56.6632 30.6323 0.0000 0.0000 0.0000
# 3 41.2594 30.6323 93.2925 0.0000 0.0000 0.0000
# 4 0.0000 0.0000 0.0000 18.0276 0.0000 0.0000
# 5 0.0000 0.0000 0.0000 0.0000 29.4362 0.0000
# 6 0.0000 0.0000 0.0000 0.0000 0.0000 24.5399
#
#
#
# Elastic Compliance Matrix: (Units=1/GPa)
#
#
# Indices 1 2 3 4 5 6 
#
# 1 0.025296 -0.007979 -0.008568 0.000000 0.000000 0.000000
# 2 -0.007979 0.023973 -0.004343 0.000000 0.000000 0.000000
# 3 -0.008568 -0.004343 0.015934 0.000000 0.000000 0.000000
# 4 0.000000 0.000000 0.000000 0.055470 0.000000 0.000000
# 5 0.000000 0.000000 0.000000 0.000000 0.033972 0.000000
# 6 0.000000 0.000000 0.000000 0.000000 0.000000 0.040750
#
#
# Mechanical properties :
#
#
# Convention : Reuss Voigt Hill
#
# Bulk Modulus (GPa) = 42.68940 45.84993 44.26966
# Shear Modulus (GPa) = 20.40958 21.88289 21.14623
#
# Velocity S-wave (km/s) = 3.29419 3.41102 3.35311
# Velocity P-wave (km/s) = 6.09645 6.31598 6.20719
#
# Compressibility (1/GPa) = 0.02342502
#
# Stress axis : x y z
#
# Youngs Moduli (GPa) = 39.53154 41.71276 62.75858
#
# Poissons Ratio (x) = 0.33282 0.53769
# Poissons Ratio (y) = 0.31542 0.27255
# Poissons Ratio (z) = 0.33869 0.18115
#
# Static dielectric constant tensor:
#      x y z
#    x 3.395410 0.000000 0.000000 
#    y 0.000000 3.525020 0.000000 
#    z 0.000000 0.000000 3.414300 
# 
# 
# High freq. dielectric constant tensor:
#      x y z
#    x 1.707550 0.000000 0.000000 
#    y 0.000000 1.725730 0.000000 
#    z 0.000000 0.000000 1.727060 
# 
# From -- ./inp_files/22192.got.cif
#   From: 2010.03.12/outbox.cif.g09.slc.cpg/sg38_12_cif.got.tgz:22192.got - 2010.04.14 02:38:36.
