data_PCOD8179004
_publ_section_title
;
Structure prediction by ZEFSAII (Michael W. Deem and Ramdas Pophale) SiO2 
 PCOD8179004
Probable space group: A M M 2
;
_chemical_formula_sum "Si O2"
_cell_formula_units_Z 64
_cell_length_a 8.921063
_cell_length_b 28.909300
_cell_length_c 13.225330
_cell_angle_alpha 90.000000
_cell_angle_beta 90.000000
_cell_angle_gamma 90.000000
_cell_volume 3410.834913
_symmetry_space_group_name_H-M "A M M 2"
_symmetry_group_IT_number 38
_symmetry_cell_setting 'orthorhombic'
loop_
_space_group_symop_operation_xyz
x,y,z
-x,-y,z
-x,y,z
x,-y,z
x,1/2+y,1/2+z
-x,1/2-y,1/2+z
-x,1/2+y,1/2+z
x,1/2-y,1/2+z
loop_
_atom_site_type_symbol
_atom_site_label
_atom_site_fract_x
_atom_site_fract_y
_atom_site_fract_z
Si Si1 0.323012 0.391192 0.132750
Si Si2 0.829235 0.554547 0.541361
Si Si3 0.676735 0.105880 0.222335
Si Si4 0.839669 0.205213 0.432135
Si Si5 0.669585 0.713717 0.116388
Si Si6 0.173886 0.446134 0.311840
Si Si7 0.169600 0.203355 0.213934
Si Si8 0.165835 0.402540 0.924846
O O1 0.500000 0.394822 0.117900
O O2 0.276385 0.337407 0.150952
O O3 0.273552 0.418305 0.232231
O O4 0.249483 0.413059 0.031261
O O5 0.812963 0.500000 0.551769
O O6 0.720440 0.577939 0.621942
O O7 0.784794 0.569243 0.426474
O O8 0.000000 0.569876 0.563299
O O9 0.500000 0.104769 0.236197
O O10 0.726241 0.158638 0.203941
O O11 0.746136 0.081305 0.323244
O O12 0.690665 0.215341 0.495431
O O13 0.819620 0.228014 0.323196
O O14 0.852500 0.151335 0.409353
O O15 0.000000 0.221222 0.481688
O O16 0.500000 0.723705 0.148422
O O17 0.777135 0.754814 0.145967
O O18 0.209101 0.500000 0.297205
O O19 0.000000 0.435792 0.290160
O O20 0.000000 0.188988 0.185519
O O21 0.000000 0.426006 0.928199
#
# Coordination Sequence:
#
# PCOD8179004 Si02
#       8
#     8   8   8   8   8   8   8   8
#     4  10  20  34  54  82 113 144 179 224 280 333
#     4   9  19  38  61  82 108 146 189 230 274 328
#     4  11  21  34  55  83 113 142 177 225 282 334
#     4   8  16  31  50  70  93 130 175 214 255 310
#     4  10  20  33  50  75 106 140 174 218 272 322
#     4   9  19  37  60  83 108 144 188 230 274 327
#     4  10  20  35  54  75 102 140 185 223 262 318
#     4   9  17  32  55  78 104 141 180 217 260 319
#
# _framework density 18.763733999999999
#
# number of rings (size 3 to 8) (size 9 to 14) (size 15 to 20)
#    0.000    2.500    0.000    4.125    0.000    6.000 
#    2.250    1.875    0.000    3.750    0.000    0.000 
#    0.000    0.000    0.000    0.000    0.000    0.000 
#
# Total GULP energy -396480.919109 kJ/mol
# GULP energy per Si atom -12390.028722 kJ/mol
# Density = 1.872103 g / cm^3
# Si number density = 18.763734 Si / 1000 Ang^3
#
#
#
# Elastic Constant Matrix: (Units=GPa)
#
#
# Indices 1 2 3 4 5 6 
#
# 1 107.5605 30.2518 52.8452 0.0000 0.0000 0.0000
# 2 30.2518 43.7845 38.5251 0.0000 0.0000 0.0000
# 3 52.8452 38.5251 117.0125 0.0000 0.0000 0.0000
# 4 0.0000 0.0000 0.0000 22.8456 0.0000 0.0000
# 5 0.0000 0.0000 0.0000 0.0000 29.6437 0.0000
# 6 0.0000 0.0000 0.0000 0.0000 0.0000 25.0841
#
#
#
# Elastic Compliance Matrix: (Units=1/GPa)
#
#
# Indices 1 2 3 4 5 6 
#
# 1 0.012758 -0.005273 -0.004026 0.000000 0.000000 0.000000
# 2 -0.005273 0.034333 -0.008922 0.000000 0.000000 0.000000
# 3 -0.004026 -0.008922 0.013302 0.000000 0.000000 0.000000
# 4 0.000000 0.000000 0.000000 0.043772 0.000000 0.000000
# 5 0.000000 0.000000 0.000000 0.000000 0.033734 0.000000
# 6 0.000000 0.000000 0.000000 0.000000 0.000000 0.039866
#
#
# Mechanical properties :
#
#
# Convention : Reuss Voigt Hill
#
# Bulk Modulus (GPa) = 41.75215 56.84462 49.29839
# Shear Modulus (GPa) = 22.50327 25.29704 23.90016
#
# Velocity S-wave (km/s) = 3.46684 3.67575 3.57282
# Velocity P-wave (km/s) = 6.19073 6.95525 6.58410
#
# Compressibility (1/GPa) = 0.02395086
#
# Stress axis : x y z
#
# Youngs Moduli (GPa) = 78.38268 29.12669 75.17748
#
# Poissons Ratio (x) = 0.15357 0.30265
# Poissons Ratio (y) = 0.41328 0.67077
# Poissons Ratio (z) = 0.31555 0.25988
#
# Static dielectric constant tensor:
#      x y z
#    x 3.485170 0.000000 0.000000 
#    y 0.000000 3.137370 0.000000 
#    z 0.000000 0.000000 3.606400 
# 
# 
# High freq. dielectric constant tensor:
#      x y z
#    x 1.733400 0.000000 0.000000 
#    y 0.000000 1.697860 0.000000 
#    z 0.000000 0.000000 1.737280 
# 
# From -- ./inp_files/8689.got.cif
#   From: 2010.03.12/outbox.cif.g09.slc.cpg/sg38_5_cif.got.tgz:8689.got - 2010.04.14 02:38:36.
