data_PCOD8179030
_publ_section_title
;
Structure prediction by ZEFSAII (Michael W. Deem and Ramdas Pophale) SiO2 
 PCOD8179030
Probable space group: A M M 2
;
_chemical_formula_sum "Si O2"
_cell_formula_units_Z 64
_cell_length_a 20.708994
_cell_length_b 18.398172
_cell_length_c 8.933961
_cell_angle_alpha 90.000000
_cell_angle_beta 90.000000
_cell_angle_gamma 90.000000
_cell_volume 3403.907339
_symmetry_space_group_name_H-M "A M M 2"
_symmetry_group_IT_number 38
_symmetry_cell_setting 'orthorhombic'
loop_
_space_group_symop_operation_xyz
x,y,z
-x,-y,z
-x,y,z
x,-y,z
x,1/2+y,1/2+z
-x,1/2-y,1/2+z
-x,1/2+y,1/2+z
x,1/2-y,1/2+z
loop_
_atom_site_type_symbol
_atom_site_label
_atom_site_fract_x
_atom_site_fract_y
_atom_site_fract_z
Si Si1 0.308570 0.327703 0.809320
Si Si2 0.070910 0.586331 0.154709
Si Si3 0.197091 0.586193 0.316303
Si Si4 0.571510 0.918697 0.664374
Si Si5 0.070911 0.586332 0.818483
Si Si6 0.571511 0.418698 0.808813
Si Si7 0.308570 0.172297 0.663869
Si Si8 0.802909 0.413807 0.656890
O O1 0.375052 0.363026 0.746707
O O2 0.299060 0.250000 0.736595
O O3 0.250115 0.379458 0.764206
O O4 0.309850 0.319540 0.986595
O O5 0.071141 0.500000 0.155000
O O6 0.126601 0.615244 0.265180
O O7 0.000000 0.614033 0.208712
O O8 0.084737 0.614631 0.986597
O O9 0.201857 0.500000 0.299175
O O10 0.250113 0.620544 0.208982
O O11 0.208405 0.611128 0.486596
O O12 0.500000 0.893491 0.717667
O O13 0.574435 0.920526 0.486594
O O14 0.624949 0.863027 0.726484
O O15 0.585845 0.000000 0.725645
O O16 0.071154 0.500000 0.818170
O O17 0.126603 0.615251 0.708017
O O18 0.000000 0.614030 0.764482
O O19 0.500000 0.393495 0.755515
O O20 0.585849 0.500000 0.747543
O O21 0.798147 0.500000 0.674017
#
# Coordination Sequence:
#
# PCOD8179030 Si02
#       8
#     8   8   8   8   8   8   8   8
#     4  11  22  35  52  74 103 139 176 214 257 305
#     4   8  14  26  46  73 103 133 167 208 253 302
#     4  10  20  33  51  76 105 136 172 215 259 305
#     4   8  15  30  53  79 103 129 166 210 254 303
#     4   8  14  26  46  73 103 133 167 208 253 302
#     4   8  15  30  53  79 103 129 166 210 254 303
#     4  11  22  35  52  74 103 139 176 214 257 305
#     4  10  20  33  51  76 105 136 172 215 259 305
#
# _framework density 18.801921
#
# number of rings (size 3 to 8) (size 9 to 14) (size 15 to 20)
#    0.000    2.750    0.000    3.750    0.000    3.500 
#    0.000    2.500    0.000    3.000    0.000    8.750 
#    0.000    0.000    0.000    0.000    0.000    0.000 
#
# Total GULP energy -396654.585679 kJ/mol
# GULP energy per Si atom -12395.455802 kJ/mol
# Density = 1.875913 g / cm^3
# Si number density = 18.801921 Si / 1000 Ang^3
#
#
#
# Elastic Constant Matrix: (Units=GPa)
#
#
# Indices 1 2 3 4 5 6 
#
# 1 148.5195 39.6668 42.4275 0.0000 0.0000 0.0000
# 2 39.6668 42.5631 26.9088 0.0000 0.0000 0.0000
# 3 42.4275 26.9088 64.7573 0.0000 0.0000 0.0000
# 4 0.0000 0.0000 0.0000 17.3334 0.0000 0.0000
# 5 0.0000 0.0000 0.0000 0.0000 14.4841 0.0000
# 6 0.0000 0.0000 0.0000 0.0000 0.0000 1.7280
#
#
#
# Elastic Compliance Matrix: (Units=1/GPa)
#
#
# Indices 1 2 3 4 5 6 
#
# 1 0.009501 -0.006672 -0.003453 0.000000 0.000000 0.000000
# 2 -0.006672 0.036551 -0.010817 0.000000 0.000000 0.000000
# 3 -0.003453 -0.010817 0.022199 0.000000 0.000000 0.000000
# 4 0.000000 0.000000 0.000000 0.057692 0.000000 0.000000
# 5 0.000000 0.000000 0.000000 0.000000 0.069041 0.000000
# 6 0.000000 0.000000 0.000000 0.000000 0.000000 0.578705
#
#
# Mechanical properties :
#
#
# Convention : Reuss Voigt Hill
#
# Bulk Modulus (GPa) = 37.92392 52.64957 45.28674
# Shear Modulus (GPa) = 6.06529 16.49820 11.28174
#
# Velocity S-wave (km/s) = 1.79802 2.96543 2.45221
# Velocity P-wave (km/s) = 4.95223 6.30778 5.67065
#
# Compressibility (1/GPa) = 0.02636858
#
# Stress axis : x y z
#
# Youngs Moduli (GPa) = 105.24724 27.35892 45.04679
#
# Poissons Ratio (x) = 0.18254 0.15553
# Poissons Ratio (y) = 0.70222 0.48726
# Poissons Ratio (z) = 0.36338 0.29594
#
# Static dielectric constant tensor:
#      x y z
#    x 3.958290 0.000000 0.000000 
#    y 0.000000 3.151190 0.000000 
#    z 0.000000 0.000000 3.277810 
# 
# 
# High freq. dielectric constant tensor:
#      x y z
#    x 1.751140 0.000000 0.000000 
#    y 0.000000 1.693960 0.000000 
#    z 0.000000 0.000000 1.708540 
# 
# From -- ./inp_files/6879.got.cif
#   From: 2010.03.12/outbox.cif.g09.slc.cpg/sg38_4_cif.got.tgz:6879.got - 2010.04.14 02:38:36.
