data_PCOD8179875
_publ_section_title
;
Structure prediction by ZEFSAII (Michael W. Deem and Ramdas Pophale) SiO2 
 PCOD8179875
Probable space group: A M M 2
;
_chemical_formula_sum "Si O2"
_cell_formula_units_Z 64
_cell_length_a 18.642663
_cell_length_b 9.228920
_cell_length_c 21.014488
_cell_angle_alpha 90.000000
_cell_angle_beta 90.000000
_cell_angle_gamma 90.000000
_cell_volume 3615.577238
_symmetry_space_group_name_H-M "A M M 2"
_symmetry_group_IT_number 38
_symmetry_cell_setting 'orthorhombic'
loop_
_space_group_symop_operation_xyz
x,y,z
-x,-y,z
-x,y,z
x,-y,z
x,1/2+y,1/2+z
-x,1/2-y,1/2+z
-x,1/2+y,1/2+z
x,1/2-y,1/2+z
loop_
_atom_site_type_symbol
_atom_site_label
_atom_site_fract_x
_atom_site_fract_y
_atom_site_fract_z
Si Si1 0.417016 0.670606 0.197930
Si Si2 0.224188 0.836532 0.875596
Si Si3 0.085107 0.661604 0.694222
Si Si4 0.080029 0.335531 0.315671
Si Si5 0.692376 0.665429 0.769799
Si Si6 0.082684 0.329945 0.070261
Si Si7 0.305248 0.334669 0.630369
Si Si8 0.794648 0.331069 0.516025
O O1 0.500000 0.711849 0.194872
O O2 0.404374 0.500000 0.200710
O O3 0.381963 0.744386 0.261129
O O4 0.377483 0.736717 0.135094
O O5 0.137425 0.819488 0.872240
O O6 0.262100 0.728026 0.827594
O O7 0.245186 0.802911 0.948688
O O8 0.246655 0.000000 0.856978
O O9 0.118132 0.500000 0.689273
O O10 0.110323 0.735622 0.759243
O O11 0.111102 0.756537 0.635002
O O12 0.000000 0.655268 0.694050
O O13 0.077077 0.500000 0.290047
O O14 0.000000 0.288057 0.338770
O O15 0.673715 0.500000 0.786604
O O16 0.733907 0.674519 0.700636
O O17 0.094895 0.500000 0.075568
O O18 0.000000 0.292499 0.055535
O O19 0.131932 0.261596 0.015230
O O20 0.327720 0.500000 0.615626
O O21 0.255752 0.275296 0.573546
O O22 0.814022 0.500000 0.524240
#
# Coordination Sequence:
#
# PCOD8179875 Si02
#       8
#     8   8   8   8   8   8   8   8
#     4   9  17  31  56  89 116 137 169 212 254 300
#     4  10  21  35  53  75 103 140 180 223 267 315
#     4   9  17  29  46  67  89 117 155 203 259 315
#     4   9  18  32  48  69  97 129 170 221 276 324
#     4   9  19  34  54  79 109 142 173 212 257 307
#     4  10  21  35  50  71  99 132 173 224 280 329
#     4   8  18  34  53  79 108 140 174 212 256 306
#     4  10  21  37  54  75 104 140 182 223 266 317
#
# _framework density 17.701184000000001
#
# number of rings (size 3 to 8) (size 9 to 14) (size 15 to 20)
#    0.750    2.000    0.000    1.125    1.750    5.250 
#    0.000    1.250    0.000    2.250    0.000    1.750 
#    0.000    0.000    0.000    0.000    0.000    0.000 
#
# Total GULP energy -396534.826002 kJ/mol
# GULP energy per Si atom -12391.713313 kJ/mol
# Density = 1.766090 g / cm^3
# Si number density = 17.701184 Si / 1000 Ang^3
#
#
#
# Elastic Constant Matrix: (Units=GPa)
#
#
# Indices 1 2 3 4 5 6 
#
# 1 87.4252 51.2317 48.1630 0.0000 0.0000 0.0000
# 2 51.2317 96.6701 45.2731 0.0000 0.0000 0.0000
# 3 48.1630 45.2731 91.9478 0.0000 0.0000 0.0000
# 4 0.0000 0.0000 0.0000 23.0926 0.0000 0.0000
# 5 0.0000 0.0000 0.0000 0.0000 13.2568 0.0000
# 6 0.0000 0.0000 0.0000 0.0000 0.0000 26.8648
#
#
#
# Elastic Compliance Matrix: (Units=1/GPa)
#
#
# Indices 1 2 3 4 5 6 
#
# 1 0.019225 -0.007112 -0.006568 0.000000 0.000000 0.000000
# 2 -0.007112 0.016076 -0.004190 0.000000 0.000000 0.000000
# 3 -0.006568 -0.004190 0.016379 0.000000 0.000000 0.000000
# 4 0.000000 0.000000 0.000000 0.043304 0.000000 0.000000
# 5 0.000000 0.000000 0.000000 0.000000 0.075433 0.000000
# 6 0.000000 0.000000 0.000000 0.000000 0.000000 0.037223
#
#
# Mechanical properties :
#
#
# Convention : Reuss Voigt Hill
#
# Bulk Modulus (GPa) = 62.73892 62.81985 62.77938
# Shear Modulus (GPa) = 20.10501 21.40118 20.75310
#
# Velocity S-wave (km/s) = 3.37382 3.48088 3.42777
# Velocity P-wave (km/s) = 7.12019 7.19176 7.15607
#
# Compressibility (1/GPa) = 0.01593907
#
# Stress axis : x y z
#
# Youngs Moduli (GPa) = 52.01668 62.20438 61.05314
#
# Poissons Ratio (x) = 0.44242 0.40100
# Poissons Ratio (y) = 0.36996 0.25581
# Poissons Ratio (z) = 0.34165 0.26063
#
# Static dielectric constant tensor:
#      x y z
#    x 3.044980 0.000000 0.000000 
#    y 0.000000 3.334080 0.000000 
#    z 0.000000 0.000000 3.129510 
# 
# 
# High freq. dielectric constant tensor:
#      x y z
#    x 1.658860 0.000000 0.000000 
#    y 0.000000 1.691420 0.000000 
#    z 0.000000 0.000000 1.663830 
# 
# From -- ./inp_files/21515.got.cif
#   From: 2010.03.12/outbox.cif.g09.slc.cpg/sg38_11_cif.got.tgz:21515.got - 2010.04.14 02:38:36.
