data_PCOD8179303
_publ_section_title
;
Structure prediction by ZEFSAII (Michael W. Deem and Ramdas Pophale) SiO2 
 PCOD8179303
Probable space group: A M M 2
;
_chemical_formula_sum "Si O2"
_cell_formula_units_Z 56
_cell_length_a 8.880078
_cell_length_b 14.159343
_cell_length_c 22.603358
_cell_angle_alpha 90.000000
_cell_angle_beta 90.000000
_cell_angle_gamma 90.000000
_cell_volume 2842.057410
_symmetry_space_group_name_H-M "A M M 2"
_symmetry_group_IT_number 38
_symmetry_cell_setting 'orthorhombic'
loop_
_space_group_symop_operation_xyz
x,y,z
-x,-y,z
-x,y,z
x,-y,z
x,1/2+y,1/2+z
-x,1/2-y,1/2+z
-x,1/2+y,1/2+z
x,1/2-y,1/2+z
loop_
_atom_site_type_symbol
_atom_site_label
_atom_site_fract_x
_atom_site_fract_y
_atom_site_fract_z
Si Si1 0.823780 0.893508 0.461390
Si Si2 0.823102 0.391569 0.310587
Si Si3 0.327987 0.894610 0.145274
Si Si4 0.171782 0.890244 0.024012
Si Si5 0.676706 0.714669 0.419305
Si Si6 0.829758 0.610445 0.097083
Si Si7 0.327451 0.293798 0.202120
O O1 0.736078 0.822351 0.418232
O O2 0.788718 0.866526 0.529350
O O3 0.000000 0.884977 0.448748
O O4 0.768373 0.000000 0.448074
O O5 0.770000 0.500000 0.305175
O O6 0.744581 0.344209 0.365947
O O7 0.780808 0.336614 0.251188
O O8 0.000000 0.385186 0.320225
O O9 0.500000 0.888679 0.122485
O O10 0.301629 0.819541 0.198036
O O11 0.291906 0.000000 0.169459
O O12 0.219257 0.869020 0.091015
O O13 0.278589 0.832962 0.980728
O O14 0.000000 0.856440 0.015340
O O15 0.189580 0.000000 0.008879
O O16 0.500000 0.715730 0.411606
O O17 0.816188 0.500000 0.109582
O O18 0.711094 0.663635 0.138144
O O19 0.000000 0.644103 0.111116
O O20 0.500000 0.317651 0.217954
#
# Coordination Sequence:
#
# PCOD8179303 Si02
#       7
#     8   8   8   8   8   8   8
#     4   9  19  37  60  85 115 151 190 231 273 322
#     4  11  25  44  63  81 105 142 187 232 278 333
#     4   9  19  36  56  81 115 150 183 223 274 331
#     4  10  20  34  55  84 116 150 189 232 278 331
#     4  12  24  37  57  84 114 148 185 230 284 336
#     4   9  18  33  54  81 113 149 185 222 269 324
#     4  11  22  35  55  83 112 145 184 228 280 331
#
# _framework density 19.704034
#
# number of rings (size 3 to 8) (size 9 to 14) (size 15 to 20)
#    0.000    1.857    0.000    5.143    0.000   10.000 
#    0.000    2.143    0.000    2.571    0.000    0.000 
#    0.000    0.000    0.000    0.000    0.000    0.000 
#
# Total GULP energy -347277.047186 kJ/mol
# GULP energy per Si atom -12402.751685 kJ/mol
# Density = 1.965919 g / cm^3
# Si number density = 19.704034 Si / 1000 Ang^3
#
#
#
# Elastic Constant Matrix: (Units=GPa)
#
#
# Indices 1 2 3 4 5 6 
#
# 1 88.1111 55.8557 41.3214 0.0000 0.0000 0.0000
# 2 55.8557 114.5763 71.7603 0.0000 0.0000 0.0000
# 3 41.3214 71.7603 67.4357 0.0000 0.0000 0.0000
# 4 0.0000 0.0000 0.0000 33.1264 0.0000 0.0000
# 5 0.0000 0.0000 0.0000 0.0000 26.0338 0.0000
# 6 0.0000 0.0000 0.0000 0.0000 0.0000 29.2245
#
#
#
# Elastic Compliance Matrix: (Units=1/GPa)
#
#
# Indices 1 2 3 4 5 6 
#
# 1 0.016922 -0.005263 -0.004769 0.000000 0.000000 0.000000
# 2 -0.005263 0.027805 -0.026363 0.000000 0.000000 0.000000
# 3 -0.004769 -0.026363 0.045805 0.000000 0.000000 0.000000
# 4 0.000000 0.000000 0.000000 0.030187 0.000000 0.000000
# 5 0.000000 0.000000 0.000000 0.000000 0.038412 0.000000
# 6 0.000000 0.000000 0.000000 0.000000 0.000000 0.034218
#
#
# Mechanical properties :
#
#
# Convention : Reuss Voigt Hill
#
# Bulk Modulus (GPa) = 56.36258 67.55533 61.95896
# Shear Modulus (GPa) = 18.37883 24.42267 21.40075
#
# Velocity S-wave (km/s) = 3.05740 3.52444 3.29919
# Velocity P-wave (km/s) = 6.41329 7.13594 6.78424
#
# Compressibility (1/GPa) = 0.01774227
#
# Stress axis : x y z
#
# Youngs Moduli (GPa) = 59.09533 35.96484 21.83169
#
# Poissons Ratio (x) = 0.18927 0.10411
# Poissons Ratio (y) = 0.31100 0.57556
# Poissons Ratio (z) = 0.28181 0.94815
#
# Static dielectric constant tensor:
#      x y z
#    x 3.633170 0.000000 0.000000 
#    y 0.000000 3.943990 0.000000 
#    z 0.000000 0.000000 3.409670 
# 
# 
# High freq. dielectric constant tensor:
#      x y z
#    x 1.768840 0.000000 0.000000 
#    y 0.000000 1.787720 0.000000 
#    z 0.000000 0.000000 1.744050 
# 
# From -- ./inp_files/19739.got.cif
#   From: 2010.03.12/outbox.cif.g09.slc.cpg/sg38_10_cif.got.tgz:19739.got - 2010.04.14 02:38:36.
