data_PCOD8179219
_publ_section_title
;
Structure prediction by ZEFSAII (Michael W. Deem and Ramdas Pophale) SiO2 
 PCOD8179219
Probable space group: A M M 2
;
_chemical_formula_sum "Si O2"
_cell_formula_units_Z 64
_cell_length_a 8.509701
_cell_length_b 14.222473
_cell_length_c 28.187379
_cell_angle_alpha 90.000000
_cell_angle_beta 90.000000
_cell_angle_gamma 90.000000
_cell_volume 3411.490088
_symmetry_space_group_name_H-M "A M M 2"
_symmetry_group_IT_number 38
_symmetry_cell_setting 'orthorhombic'
loop_
_space_group_symop_operation_xyz
x,y,z
-x,-y,z
-x,y,z
x,-y,z
x,1/2+y,1/2+z
-x,1/2-y,1/2+z
-x,1/2+y,1/2+z
x,1/2-y,1/2+z
loop_
_atom_site_type_symbol
_atom_site_label
_atom_site_fract_x
_atom_site_fract_y
_atom_site_fract_z
Si Si1 0.816990 0.754674 0.421820
Si Si2 0.817027 0.608427 0.099697
Si Si3 0.317015 0.250419 0.671750
Si Si4 0.685571 0.103932 0.094013
Si Si5 0.814428 0.396088 0.346828
Si Si6 0.316481 0.762023 0.524462
Si Si7 0.816479 0.242962 0.274348
Si Si8 0.682885 0.608440 0.847124
O O1 0.764079 0.660428 0.394034
O O2 0.715219 0.759844 0.468990
O O3 0.782750 0.844670 0.389168
O O4 0.000000 0.752978 0.434940
O O5 0.768696 0.500000 0.098827
O O6 0.717428 0.657861 0.141023
O O7 0.775980 0.651743 0.048389
O O8 0.000000 0.622303 0.110522
O O9 0.500000 0.253421 0.684772
O O10 0.263990 0.342278 0.642016
O O11 0.215540 0.248158 0.719050
O O12 0.500000 0.093873 0.092938
O O13 0.741533 0.164197 0.048425
O O14 0.763791 0.000000 0.092675
O O15 0.736117 0.500000 0.346935
O O16 0.758373 0.338520 0.300428
O O17 0.000000 0.406245 0.345758
O O18 0.500000 0.777184 0.534393
O O19 0.724106 0.154691 0.296448
O O20 0.000000 0.227206 0.283900
O O21 0.500000 0.622009 0.858199
O O22 0.730552 0.500000 0.844406
#
# Coordination Sequence:
#
# PCOD8179219 Si02
#       8
#     8   8   8   8   8   8   8   8
#     4  10  20  34  54  78 105 137 171 213 262 314
#     4  10  21  37  56  77 103 137 177 221 266 311
#     4  10  20  34  54  79 108 141 175 215 261 311
#     4   8  16  32  52  74 101 134 172 212 255 303
#     4   8  16  32  52  74 101 134 172 212 255 303
#     4  10  20  34  54  78 105 137 171 213 262 314
#     4  10  20  34  54  79 108 141 175 215 261 311
#     4  10  21  37  56  77 103 137 177 221 266 311
#
# _framework density 18.76013
#
# number of rings (size 3 to 8) (size 9 to 14) (size 15 to 20)
#    0.000    2.500    0.000    3.750    0.000    4.000 
#    0.000    2.500    0.000   25.500    0.000    0.000 
#    0.000    0.000    0.000    0.000    0.000    0.000 
#
# Total GULP energy -396808.948350 kJ/mol
# GULP energy per Si atom -12400.279636 kJ/mol
# Density = 1.871743 g / cm^3
# Si number density = 18.760130 Si / 1000 Ang^3
#
#
#
# Elastic Constant Matrix: (Units=GPa)
#
#
# Indices 1 2 3 4 5 6 
#
# 1 35.8137 23.6425 4.9748 0.0000 0.0000 0.0000
# 2 23.6425 161.4530 53.1696 0.0000 0.0000 0.0000
# 3 4.9748 53.1696 117.6254 0.0000 0.0000 0.0000
# 4 0.0000 0.0000 0.0000 13.2556 0.0000 0.0000
# 5 0.0000 0.0000 0.0000 0.0000 32.9831 0.0000
# 6 0.0000 0.0000 0.0000 0.0000 0.0000 22.4674
#
#
#
# Elastic Compliance Matrix: (Units=1/GPa)
#
#
# Indices 1 2 3 4 5 6 
#
# 1 0.030986 -0.004824 0.000870 0.000000 0.000000 0.000000
# 2 -0.004824 0.008028 -0.003425 0.000000 0.000000 0.000000
# 3 0.000870 -0.003425 0.010013 0.000000 0.000000 0.000000
# 4 0.000000 0.000000 0.000000 0.075440 0.000000 0.000000
# 5 0.000000 0.000000 0.000000 0.000000 0.030319 0.000000
# 6 0.000000 0.000000 0.000000 0.000000 0.000000 0.044509
#
#
# Mechanical properties :
#
#
# Convention : Reuss Voigt Hill
#
# Bulk Modulus (GPa) = 29.18058 53.16289 41.17173
# Shear Modulus (GPa) = 22.17540 29.28155 25.72848
#
# Velocity S-wave (km/s) = 3.44182 3.95503 3.70732
# Velocity P-wave (km/s) = 5.60207 7.01827 6.34978
#
# Compressibility (1/GPa) = 0.03426937
#
# Stress axis : x y z
#
# Youngs Moduli (GPa) = 32.27261 124.56353 99.87135
#
# Poissons Ratio (x) = 0.60089 -0.08689
# Poissons Ratio (y) = 0.15568 0.34204
# Poissons Ratio (z) = -0.02808 0.42661
#
# Static dielectric constant tensor:
#      x y z
#    x 3.270040 0.000000 0.000000 
#    y 0.000000 3.789250 0.000000 
#    z 0.000000 0.000000 3.356250 
# 
# 
# High freq. dielectric constant tensor:
#      x y z
#    x 1.717070 0.000000 0.000000 
#    y 0.000000 1.732170 0.000000 
#    z 0.000000 0.000000 1.728570 
# 
# From -- ./inp_files/24783.got.cif
#   From: 2010.03.12/outbox.cif.g09.slc.cpg/sg38_13_cif.got.tgz:24783.got - 2010.04.14 02:38:36.
