data_PCOD8179368
_publ_section_title
;
Structure prediction by ZEFSAII (Michael W. Deem and Ramdas Pophale) SiO2 
 PCOD8179368
Probable space group: A M M 2
;
_chemical_formula_sum "Si O2"
_cell_formula_units_Z 64
_cell_length_a 8.594746
_cell_length_b 30.684017
_cell_length_c 14.306476
_cell_angle_alpha 90.000000
_cell_angle_beta 90.000000
_cell_angle_gamma 90.000000
_cell_volume 3772.922912
_symmetry_space_group_name_H-M "A M M 2"
_symmetry_group_IT_number 38
_symmetry_cell_setting 'orthorhombic'
loop_
_space_group_symop_operation_xyz
x,y,z
-x,-y,z
-x,y,z
x,-y,z
x,1/2+y,1/2+z
-x,1/2-y,1/2+z
-x,1/2+y,1/2+z
x,1/2-y,1/2+z
loop_
_atom_site_type_symbol
_atom_site_label
_atom_site_fract_x
_atom_site_fract_y
_atom_site_fract_z
Si Si1 0.825501 0.865625 0.697090
Si Si2 0.814144 0.786520 0.578613
Si Si3 0.174113 0.177423 0.893941
Si Si4 0.184827 0.547852 0.269982
Si Si5 0.680974 0.451436 0.471543
Si Si6 0.181276 0.201954 0.196873
Si Si7 0.317729 0.231330 0.380594
Si Si8 0.679420 0.634720 0.566018
O O1 0.743126 0.828655 0.634035
O O2 0.825427 0.853149 0.805117
O O3 0.748786 0.914469 0.699100
O O4 0.000000 0.868987 0.658299
O O5 0.762221 0.742124 0.631064
O O6 0.739378 0.789804 0.476952
O O7 0.000000 0.787769 0.572399
O O8 0.224642 0.224747 0.859997
O O9 0.295521 0.160367 0.969545
O O10 0.000000 0.179934 0.937845
O O11 0.249267 0.500000 0.240094
O O12 0.228017 0.558079 0.376591
O O13 0.000000 0.548877 0.264331
O O14 0.500000 0.446323 0.447688
O O15 0.719200 0.500000 0.509956
O O16 0.729166 0.415877 0.550128
O O17 0.276483 0.200263 0.293598
O O18 0.000000 0.206132 0.219606
O O19 0.215644 0.156074 0.146348
O O20 0.500000 0.240093 0.385777
O O21 0.500000 0.638821 0.595086
#
# Coordination Sequence:
#
# PCOD8179368 Si02
#       8
#     8   8   8   8   8   8   8   8
#     4   9  17  30  48  70  96 130 169 202 235 286
#     4  10  20  35  52  69  94 132 172 202 240 299
#     4  11  19  31  49  70 100 137 173 202 241 296
#     4   9  16  27  46  72  99 127 162 204 246 288
#     4   9  18  31  46  68 101 136 165 197 245 301
#     4  11  22  36  54  72  96 134 171 204 248 301
#     4  12  24  36  50  72 102 129 165 215 254 287
#     4  11  21  32  48  74 102 133 171 210 249 290
#
# _framework density 16.962975
#
# number of rings (size 3 to 8) (size 9 to 14) (size 15 to 20)
#    0.000    1.750    3.750    2.250    0.000    1.000 
#    0.000    0.625    0.000    0.000    0.000    0.875 
#    0.000    3.000    0.000    0.000    0.000    0.000 
#
# Total GULP energy -396630.020033 kJ/mol
# GULP energy per Si atom -12394.688126 kJ/mol
# Density = 1.692437 g / cm^3
# Si number density = 16.962975 Si / 1000 Ang^3
#
#
#
# Elastic Constant Matrix: (Units=GPa)
#
#
# Indices 1 2 3 4 5 6 
#
# 1 39.0379 22.2894 19.1887 0.0000 0.0000 0.0000
# 2 22.2894 130.5229 42.8869 0.0000 0.0000 0.0000
# 3 19.1887 42.8869 80.0229 0.0000 0.0000 0.0000
# 4 0.0000 0.0000 0.0000 24.3074 0.0000 0.0000
# 5 0.0000 0.0000 0.0000 0.0000 16.7044 0.0000
# 6 0.0000 0.0000 0.0000 0.0000 0.0000 18.5720
#
#
#
# Elastic Compliance Matrix: (Units=1/GPa)
#
#
# Indices 1 2 3 4 5 6 
#
# 1 0.030215 -0.003373 -0.005437 0.000000 0.000000 0.000000
# 2 -0.003373 0.009676 -0.004377 0.000000 0.000000 0.000000
# 3 -0.005437 -0.004377 0.016146 0.000000 0.000000 0.000000
# 4 0.000000 0.000000 0.000000 0.041140 0.000000 0.000000
# 5 0.000000 0.000000 0.000000 0.000000 0.059864 0.000000
# 6 0.000000 0.000000 0.000000 0.000000 0.000000 0.053845
#
#
# Mechanical properties :
#
#
# Convention : Reuss Voigt Hill
#
# Bulk Modulus (GPa) = 33.71338 46.47930 40.09634
# Shear Modulus (GPa) = 20.23091 22.93134 21.58112
#
# Velocity S-wave (km/s) = 3.45722 3.68074 3.57073
# Velocity P-wave (km/s) = 5.98785 6.74712 6.37879
#
# Compressibility (1/GPa) = 0.02966181
#
# Stress axis : x y z
#
# Youngs Moduli (GPa) = 33.09639 103.35289 61.93549
#
# Poissons Ratio (x) = 0.34863 0.33677
# Poissons Ratio (y) = 0.11164 0.27107
# Poissons Ratio (z) = 0.17996 0.45234
#
# Static dielectric constant tensor:
#      x y z
#    x 3.061250 0.000000 0.000000 
#    y 0.000000 3.585530 0.000000 
#    z 0.000000 0.000000 2.971280 
# 
# 
# High freq. dielectric constant tensor:
#      x y z
#    x 1.645020 0.000000 0.000000 
#    y 0.000000 1.656880 0.000000 
#    z 0.000000 0.000000 1.621620 
# 
# From -- ./inp_files/13060.got.cif
#   From: 2010.03.12/outbox.cif.g09.slc.cpg/sg38_7_cif.got.tgz:13060.got - 2010.04.14 02:38:36.
