data_PCOD8179900
_publ_section_title
;
Structure prediction by ZEFSAII (Michael W. Deem and Ramdas Pophale) SiO2 
 PCOD8179900
Probable space group: A M M 2
;
_chemical_formula_sum "Si O2"
_cell_formula_units_Z 56
_cell_length_a 14.313606
_cell_length_b 9.399454
_cell_length_c 20.846189
_cell_angle_alpha 90.000000
_cell_angle_beta 90.000000
_cell_angle_gamma 90.000000
_cell_volume 2804.647960
_symmetry_space_group_name_H-M "A M M 2"
_symmetry_group_IT_number 38
_symmetry_cell_setting 'orthorhombic'
loop_
_space_group_symop_operation_xyz
x,y,z
-x,-y,z
-x,y,z
x,-y,z
x,1/2+y,1/2+z
-x,1/2-y,1/2+z
-x,1/2+y,1/2+z
x,1/2-y,1/2+z
loop_
_atom_site_type_symbol
_atom_site_label
_atom_site_fract_x
_atom_site_fract_y
_atom_site_fract_z
Si Si1 0.735491 0.836264 0.724310
Si Si2 0.603403 0.331674 0.336963
Si Si3 0.107083 0.334721 0.540416
Si Si4 0.611051 0.338263 0.479703
Si Si5 0.891465 0.165500 0.277958
Si Si6 0.725544 0.336060 0.081795
Si Si7 0.889620 0.154966 0.897348
O O1 0.668125 0.772665 0.779681
O O2 0.831365 0.745715 0.724250
O O3 0.686768 0.821116 0.654624
O O4 0.760817 0.000000 0.738056
O O5 0.500000 0.264542 0.328742
O O6 0.594963 0.500000 0.331254
O O7 0.644570 0.293219 0.407703
O O8 0.115962 0.500000 0.559912
O O9 0.172554 0.237075 0.583867
O O10 0.147088 0.309654 0.468388
O O11 0.000000 0.284299 0.548235
O O12 0.500000 0.324558 0.482906
O O13 0.642395 0.500000 0.494299
O O14 0.654628 0.237101 0.533063
O O15 0.859100 0.225060 0.347316
O O16 0.000000 0.197296 0.264463
O O17 0.869297 0.000000 0.276409
O O18 0.736244 0.500000 0.061864
O O19 0.000000 0.144646 0.903243
O O20 0.850381 0.000000 0.874973
#
# Coordination Sequence:
#
# PCOD8179900 Si02
#       7
#     8   8   8   8   8   8   8
#     4  10  22  38  56  81 113 152 194 231 274 332
#     4   8  16  35  63  88 106 134 184 236 275 323
#     4   9  19  36  57  79 107 150 200 242 280 333
#     4   9  19  38  64  89 111 141 186 238 287 340
#     4  10  21  35  52  78 113 150 187 233 286 333
#     4  11  24  37  53  84 122 155 187 234 293 341
#     4   8  15  30  52  76 100 133 182 233 278 327
#
# _framework density 19.966856
#
# number of rings (size 3 to 8) (size 9 to 14) (size 15 to 20)
#    0.000    2.714    0.000    2.571    2.000    4.286 
#    0.000    5.714    0.000    1.286    0.000    0.000 
#    0.000    0.000    0.000    0.000    0.000    0.000 
#
# Total GULP energy -347100.461021 kJ/mol
# GULP energy per Si atom -12396.445036 kJ/mol
# Density = 1.992141 g / cm^3
# Si number density = 19.966856 Si / 1000 Ang^3
#
#
#
# Elastic Constant Matrix: (Units=GPa)
#
#
# Indices 1 2 3 4 5 6 
#
# 1 61.1119 42.2106 49.8545 0.0000 0.0000 0.0000
# 2 42.2106 89.7200 55.3485 0.0000 0.0000 0.0000
# 3 49.8545 55.3485 127.3211 0.0000 0.0000 0.0000
# 4 0.0000 0.0000 0.0000 26.8096 0.0000 0.0000
# 5 0.0000 0.0000 0.0000 0.0000 25.2496 0.0000
# 6 0.0000 0.0000 0.0000 0.0000 0.0000 24.4754
#
#
#
# Elastic Compliance Matrix: (Units=1/GPa)
#
#
# Indices 1 2 3 4 5 6 
#
# 1 0.028436 -0.008895 -0.007268 0.000000 0.000000 0.000000
# 2 -0.008895 0.018012 -0.004347 0.000000 0.000000 0.000000
# 3 -0.007268 -0.004347 0.012590 0.000000 0.000000 0.000000
# 4 0.000000 0.000000 0.000000 0.037300 0.000000 0.000000
# 5 0.000000 0.000000 0.000000 0.000000 0.039605 0.000000
# 6 0.000000 0.000000 0.000000 0.000000 0.000000 0.040857
#
#
# Mechanical properties :
#
#
# Convention : Reuss Voigt Hill
#
# Bulk Modulus (GPa) = 55.49902 63.66448 59.58175
# Shear Modulus (GPa) = 22.33867 24.02289 23.18078
#
# Velocity S-wave (km/s) = 3.34846 3.47239 3.41099
# Velocity P-wave (km/s) = 6.54259 6.93044 6.73930
#
# Compressibility (1/GPa) = 0.01801834
#
# Stress axis : x y z
#
# Youngs Moduli (GPa) = 35.16628 55.51713 79.42867
#
# Poissons Ratio (x) = 0.49382 0.57728
# Poissons Ratio (y) = 0.31280 0.34531
# Poissons Ratio (z) = 0.25559 0.24135
#
# Static dielectric constant tensor:
#      x y z
#    x 3.655240 0.000000 0.000000 
#    y 0.000000 3.390170 0.000000 
#    z 0.000000 0.000000 3.745470 
# 
# 
# High freq. dielectric constant tensor:
#      x y z
#    x 1.776010 0.000000 0.000000 
#    y 0.000000 1.751710 0.000000 
#    z 0.000000 0.000000 1.782330 
# 
# From -- ./inp_files/21076.got.cif
#   From: 2010.03.12/outbox.cif.g09.slc.cpg/sg38_11_cif.got.tgz:21076.got - 2010.04.14 02:38:36.
