data_PCOD8179181
_publ_section_title
;
Structure prediction by ZEFSAII (Michael W. Deem and Ramdas Pophale) SiO2 
 PCOD8179181
Probable space group: A M M 2
;
_chemical_formula_sum "Si O2"
_cell_formula_units_Z 48
_cell_length_a 9.171122
_cell_length_b 29.921980
_cell_length_c 9.825750
_cell_angle_alpha 90.000000
_cell_angle_beta 90.000000
_cell_angle_gamma 90.000000
_cell_volume 2696.363932
_symmetry_space_group_name_H-M "A M M 2"
_symmetry_group_IT_number 38
_symmetry_cell_setting 'orthorhombic'
loop_
_space_group_symop_operation_xyz
x,y,z
-x,-y,z
-x,y,z
x,-y,z
x,1/2+y,1/2+z
-x,1/2-y,1/2+z
-x,1/2+y,1/2+z
x,1/2-y,1/2+z
loop_
_atom_site_type_symbol
_atom_site_label
_atom_site_fract_x
_atom_site_fract_y
_atom_site_fract_z
Si Si1 0.669770 0.211606 0.390050
Si Si2 0.331834 0.552379 0.389464
Si Si3 0.169260 0.551143 0.117367
Si Si4 0.828632 0.382645 0.585104
Si Si5 0.169012 0.122890 0.397256
Si Si6 0.329207 0.707338 0.577306
O O1 0.500000 0.204087 0.413040
O O2 0.747181 0.167139 0.444481
O O3 0.725315 0.253163 0.479247
O O4 0.707167 0.221025 0.232390
O O5 0.500000 0.566964 0.391951
O O6 0.312247 0.500000 0.413941
O O7 0.264502 0.566651 0.245247
O O8 0.244771 0.576322 0.508788
O O9 0.202604 0.500000 0.077199
O O10 0.000000 0.557647 0.154886
O O11 0.216805 0.581358 0.990188
O O12 0.791459 0.389907 0.743248
O O13 0.760184 0.336294 0.533067
O O14 0.000000 0.382107 0.555855
O O15 0.000000 0.133754 0.412992
O O16 0.500000 0.697282 0.558149
#
# Coordination Sequence:
#
# PCOD8179181 Si02
#       6
#     8   8   8   8   8   8
#     4   9  18  32  50  71  98 133 169 206 249 296
#     4  10  21  36  53  75 103 134 169 209 251 297
#     4   9  18  34  54  75 101 133 169 210 255 301
#     4  10  20  34  53  77 104 135 169 206 251 300
#     4   9  19  34  52  76 104 133 168 210 253 299
#     4   9  18  33  50  70  98 131 168 208 249 295
#
# _framework density 17.801752
#
# number of rings (size 3 to 8) (size 9 to 14) (size 15 to 20)
#    0.000    2.667    0.000    1.000    0.000    5.000 
#    0.000    3.333    0.000    2.000    0.000    0.000 
#    0.000    0.000    0.000    0.000    0.000    0.000 
#
# Total GULP energy -297674.566181 kJ/mol
# GULP energy per Si atom -12403.106924 kJ/mol
# Density = 1.776123 g / cm^3
# Si number density = 17.801752 Si / 1000 Ang^3
#
#
#
# Elastic Constant Matrix: (Units=GPa)
#
#
# Indices 1 2 3 4 5 6 
#
# 1 73.2404 54.0735 48.0701 0.0000 0.0000 0.0000
# 2 54.0735 102.9401 70.3496 0.0000 0.0000 0.0000
# 3 48.0701 70.3496 90.4454 0.0000 0.0000 0.0000
# 4 0.0000 0.0000 0.0000 40.8471 0.0000 0.0000
# 5 0.0000 0.0000 0.0000 0.0000 25.4376 0.0000
# 6 0.0000 0.0000 0.0000 0.0000 0.0000 34.6607
#
#
#
# Elastic Compliance Matrix: (Units=1/GPa)
#
#
# Indices 1 2 3 4 5 6 
#
# 1 0.023855 -0.008254 -0.006259 0.000000 0.000000 0.000000
# 2 -0.008254 0.023593 -0.013965 0.000000 0.000000 0.000000
# 3 -0.006259 -0.013965 0.025245 0.000000 0.000000 0.000000
# 4 0.000000 0.000000 0.000000 0.024482 0.000000 0.000000
# 5 0.000000 0.000000 0.000000 0.000000 0.039312 0.000000
# 6 0.000000 0.000000 0.000000 0.000000 0.000000 0.028851
#
#
# Mechanical properties :
#
#
# Convention : Reuss Voigt Hill
#
# Bulk Modulus (GPa) = 63.53566 67.95692 65.74629
# Shear Modulus (GPa) = 21.97431 26.46459 24.21945
#
# Velocity S-wave (km/s) = 3.51720 3.85986 3.69251
# Velocity P-wave (km/s) = 7.22928 7.62377 7.42914
#
# Compressibility (1/GPa) = 0.01573919
#
# Stress axis : x y z
#
# Youngs Moduli (GPa) = 41.91958 42.38475 39.61224
#
# Poissons Ratio (x) = 0.34983 0.24793
# Poissons Ratio (y) = 0.34599 0.55317
# Poissons Ratio (z) = 0.26237 0.59189
#
# Static dielectric constant tensor:
#      x y z
#    x 3.312740 0.000000 0.000000 
#    y 0.000000 3.330480 0.000000 
#    z 0.000000 0.000000 3.349620 
# 
# 
# High freq. dielectric constant tensor:
#      x y z
#    x 1.690020 0.000000 0.000000 
#    y 0.000000 1.690650 0.000000 
#    z 0.000000 0.000000 1.687870 
# 
# From -- ./inp_files/3719.got.cif
#   From: 2010.03.12/outbox.cif.g09.slc.cpg/sg38_2_cif.got.tgz:3719.got - 2010.04.14 02:38:36.
