data_PCOD8179548
_publ_section_title
;
Structure prediction by ZEFSAII (Michael W. Deem and Ramdas Pophale) SiO2 
 PCOD8179548
Probable space group: A M M 2
;
_chemical_formula_sum "Si O2"
_cell_formula_units_Z 64
_cell_length_a 14.605640
_cell_length_b 12.664405
_cell_length_c 18.918968
_cell_angle_alpha 90.000000
_cell_angle_beta 90.000000
_cell_angle_gamma 90.000000
_cell_volume 3499.474435
_symmetry_space_group_name_H-M "A M M 2"
_symmetry_group_IT_number 38
_symmetry_cell_setting 'orthorhombic'
loop_
_space_group_symop_operation_xyz
x,y,z
-x,-y,z
-x,y,z
x,-y,z
x,1/2+y,1/2+z
-x,1/2-y,1/2+z
-x,1/2+y,1/2+z
x,1/2-y,1/2+z
loop_
_atom_site_type_symbol
_atom_site_label
_atom_site_fract_x
_atom_site_fract_y
_atom_site_fract_z
Si Si1 0.289693 0.619411 0.320230
Si Si2 0.598337 0.121365 0.260062
Si Si3 0.720890 0.374952 0.037174
Si Si4 0.274487 0.753712 0.682129
Si Si5 0.895084 0.623816 0.648056
Si Si6 0.609444 0.216287 0.405786
Si Si7 0.898753 0.756779 0.513749
Si Si8 0.900269 0.383445 0.381165
O O1 0.323871 0.500000 0.319032
O O2 0.308471 0.670203 0.244702
O O3 0.344381 0.671208 0.386267
O O4 0.179988 0.629402 0.325118
O O5 0.500000 0.179857 0.254230
O O6 0.660391 0.153394 0.193411
O O7 0.637709 0.143557 0.338881
O O8 0.583690 0.000000 0.251941
O O9 0.706522 0.500000 0.046883
O O10 0.701503 0.313176 0.109863
O O11 0.653217 0.331544 0.976892
O O12 0.826922 0.352157 0.019355
O O13 0.171473 0.705469 0.689932
O O14 0.867310 0.500000 0.656248
O O15 0.883214 0.658819 0.566868
O O16 0.000000 0.639980 0.674162
O O17 0.500000 0.225794 0.417002
O O18 0.887490 0.707986 0.437304
O O19 0.000000 0.805812 0.525026
O O20 0.893702 0.500000 0.416749
O O21 0.000000 0.370970 0.343849
#
# Coordination Sequence:
#
# PCOD8179548 Si02
#       8
#     8   8   8   8   8   8   8   8
#     4  10  20  36  56  80 111 146 179 216 265 321
#     4   9  18  35  58  79 100 132 175 221 269 318
#     4  11  22  36  54  79 109 143 180 220 269 323
#     4  10  21  34  52  80 112 147 176 217 258 322
#     4   9  17  30  50  76 108 146 184 221 264 312
#     4  10  21  38  58  80 103 135 180 228 272 321
#     4   9  17  31  51  77 107 139 177 223 269 317
#     4   9  16  28  51  80 106 135 174 219 264 309
#
# _framework density 18.288461000000002
#
# number of rings (size 3 to 8) (size 9 to 14) (size 15 to 20)
#    0.000    2.375    1.250    1.500    0.000    3.750 
#    0.000    0.625    0.000    4.500    0.000    0.000 
#    0.000    0.000    0.000    0.000    0.000    0.000 
#
# Total GULP energy -396419.316252 kJ/mol
# GULP energy per Si atom -12388.103633 kJ/mol
# Density = 1.824684 g / cm^3
# Si number density = 18.288461 Si / 1000 Ang^3
#
#
#
# Elastic Constant Matrix: (Units=GPa)
#
#
# Indices 1 2 3 4 5 6 
#
# 1 102.1072 43.2527 44.3517 0.0000 0.0000 0.0000
# 2 43.2527 99.1822 39.6263 0.0000 0.0000 0.0000
# 3 44.3517 39.6263 78.6596 0.0000 0.0000 0.0000
# 4 0.0000 0.0000 0.0000 19.2671 0.0000 0.0000
# 5 0.0000 0.0000 0.0000 0.0000 27.0523 0.0000
# 6 0.0000 0.0000 0.0000 0.0000 0.0000 22.0480
#
#
#
# Elastic Compliance Matrix: (Units=1/GPa)
#
#
# Indices 1 2 3 4 5 6 
#
# 1 0.013970 -0.003687 -0.006019 0.000000 0.000000 0.000000
# 2 -0.003687 0.013596 -0.004770 0.000000 0.000000 0.000000
# 3 -0.006019 -0.004770 0.018510 0.000000 0.000000 0.000000
# 4 0.000000 0.000000 0.000000 0.051902 0.000000 0.000000
# 5 0.000000 0.000000 0.000000 0.000000 0.036965 0.000000
# 6 0.000000 0.000000 0.000000 0.000000 0.000000 0.045356
#
#
# Mechanical properties :
#
#
# Convention : Reuss Voigt Hill
#
# Bulk Modulus (GPa) = 58.40271 59.37893 58.89082
# Shear Modulus (GPa) = 23.26000 23.85473 23.55737
#
# Velocity S-wave (km/s) = 3.57016 3.61551 3.59290
# Velocity P-wave (km/s) = 6.99987 7.06878 7.03441
#
# Compressibility (1/GPa) = 0.01712249
#
# Stress axis : x y z
#
# Youngs Moduli (GPa) = 71.58083 73.54893 54.02441
#
# Poissons Ratio (x) = 0.27120 0.32520
# Poissons Ratio (y) = 0.26395 0.25771
# Poissons Ratio (z) = 0.43087 0.35085
#
# Static dielectric constant tensor:
#      x y z
#    x 3.723130 0.000000 0.000000 
#    y 0.000000 3.350190 0.000000 
#    z 0.000000 0.000000 3.181880 
# 
# 
# High freq. dielectric constant tensor:
#      x y z
#    x 1.717780 0.000000 0.000000 
#    y 0.000000 1.705150 0.000000 
#    z 0.000000 0.000000 1.690580 
# 
# From -- ./inp_files/18448.got.cif
#   From: 2010.03.12/outbox.cif.g09.slc.cpg/sg38_10_cif.got.tgz:18448.got - 2010.04.14 02:38:36.
