data_PCOD8179843
_publ_section_title
;
Structure prediction by ZEFSAII (Michael W. Deem and Ramdas Pophale) SiO2 
 PCOD8179843
Probable space group: A M M 2
;
_chemical_formula_sum "Si O2"
_cell_formula_units_Z 48
_cell_length_a 7.742960
_cell_length_b 9.425385
_cell_length_c 34.380665
_cell_angle_alpha 90.000000
_cell_angle_beta 90.000000
_cell_angle_gamma 90.000000
_cell_volume 2509.113963
_symmetry_space_group_name_H-M "A M M 2"
_symmetry_group_IT_number 38
_symmetry_cell_setting 'orthorhombic'
loop_
_space_group_symop_operation_xyz
x,y,z
-x,-y,z
-x,y,z
x,-y,z
x,1/2+y,1/2+z
-x,1/2-y,1/2+z
-x,1/2+y,1/2+z
x,1/2-y,1/2+z
loop_
_atom_site_type_symbol
_atom_site_label
_atom_site_fract_x
_atom_site_fract_y
_atom_site_fract_z
Si Si1 0.697010 0.344277 0.291010
Si Si2 0.000000 0.331667 0.575093
Si Si3 0.803571 0.659254 0.860382
Si Si4 0.700368 0.333986 0.718444
Si Si5 0.297565 0.339889 0.944544
Si Si6 0.000000 0.332351 0.661603
Si Si7 0.697486 0.666907 0.519283
O O1 0.500000 0.368250 0.280660
O O2 0.788454 0.500000 0.292662
O O3 0.705683 0.266780 0.332381
O O4 0.772736 0.247427 0.256459
O O5 0.174405 0.280613 0.553305
O O6 0.000000 0.500000 0.577273
O O7 0.000000 0.264921 0.618365
O O8 0.723683 0.500000 0.857282
O O9 0.790265 0.713602 0.904740
O O10 0.000000 0.657404 0.846798
O O11 0.500000 0.299457 0.708058
O O12 0.722929 0.500000 0.727271
O O13 0.824154 0.283881 0.683255
O O14 0.500000 0.330398 0.938023
O O15 0.238267 0.500000 0.954300
O O16 0.238376 0.239995 0.979672
O O17 0.000000 0.500000 0.658104
O O18 0.500000 0.710606 0.529918
O O19 0.712194 0.500000 0.512617
#
# Coordination Sequence:
#
# PCOD8179843 Si02
#       7
#     8   4   8   8   8   4   8
#     4  10  21  36  53  74 102 137 174 213 258 308
#     4   9  18  32  51  78 107 132 163 210 261 305
#     4  10  21  34  50  75 104 135 173 216 258 302
#     4   9  18  33  54  78 103 134 172 214 258 305
#     4   9  18  33  52  73  99 133 171 211 253 296
#     4   9  18  32  53  80 105 130 167 212 257 309
#     4   9  18  32  51  75 103 136 171 207 252 306
#
# _framework density 19.130258000000001
#
# number of rings (size 3 to 8) (size 9 to 14) (size 15 to 20)
#    0.000    2.667    0.000    1.000    2.333    3.333 
#    0.000    5.000    0.000    2.000    0.000    4.667 
#    0.000    0.000    0.000    0.000    0.000    0.000 
#
# Total GULP energy -297513.013968 kJ/mol
# GULP energy per Si atom -12396.375582 kJ/mol
# Density = 1.908672 g / cm^3
# Si number density = 19.130258 Si / 1000 Ang^3
#
#
#
# Elastic Constant Matrix: (Units=GPa)
#
#
# Indices 1 2 3 4 5 6 
#
# 1 79.9360 28.3296 58.7897 0.0000 0.0000 0.0000
# 2 28.3296 67.9120 62.6258 0.0000 0.0000 0.0000
# 3 58.7897 62.6258 165.1496 0.0000 0.0000 0.0000
# 4 0.0000 0.0000 0.0000 22.7196 0.0000 0.0000
# 5 0.0000 0.0000 0.0000 0.0000 33.1581 0.0000
# 6 0.0000 0.0000 0.0000 0.0000 0.0000 11.6697
#
#
#
# Elastic Compliance Matrix: (Units=1/GPa)
#
#
# Indices 1 2 3 4 5 6 
#
# 1 0.017187 -0.002349 -0.005227 0.000000 0.000000 0.000000
# 2 -0.002349 0.022964 -0.007872 0.000000 0.000000 0.000000
# 3 -0.005227 -0.007872 0.010901 0.000000 0.000000 0.000000
# 4 0.000000 0.000000 0.000000 0.044015 0.000000 0.000000
# 5 0.000000 0.000000 0.000000 0.000000 0.030159 0.000000
# 6 0.000000 0.000000 0.000000 0.000000 0.000000 0.085692
#
#
# Mechanical properties :
#
#
# Convention : Reuss Voigt Hill
#
# Bulk Modulus (GPa) = 49.61465 68.05419 58.83442
# Shear Modulus (GPa) = 20.11808 24.39299 22.25553
#
# Velocity S-wave (km/s) = 3.24641 3.57473 3.41452
# Velocity P-wave (km/s) = 6.32801 7.25876 6.80931
#
# Compressibility (1/GPa) = 0.02015534
#
# Stress axis : x y z
#
# Youngs Moduli (GPa) = 58.18313 43.54641 91.73440
#
# Poissons Ratio (x) = 0.10229 0.47954
# Poissons Ratio (y) = 0.13668 0.72212
# Poissons Ratio (z) = 0.30415 0.34279
#
# Static dielectric constant tensor:
#      x y z
#    x 3.522550 0.000000 0.000000 
#    y 0.000000 3.484320 0.000000 
#    z 0.000000 0.000000 3.596740 
# 
# 
# High freq. dielectric constant tensor:
#      x y z
#    x 1.745950 0.000000 0.000000 
#    y 0.000000 1.717520 0.000000 
#    z 0.000000 0.000000 1.739840 
# 
# From -- ./inp_files/24316.got.cif
#   From: 2010.03.12/outbox.cif.g09.slc.cpg/sg38_13_cif.got.tgz:24316.got - 2010.04.14 02:38:36.
