data_PCOD8179395
_publ_section_title
;
Structure prediction by ZEFSAII (Michael W. Deem and Ramdas Pophale) SiO2 
 PCOD8179395
Probable space group: A M M 2
;
_chemical_formula_sum "Si O2"
_cell_formula_units_Z 64
_cell_length_a 23.714235
_cell_length_b 9.449435
_cell_length_c 15.468236
_cell_angle_alpha 90.000000
_cell_angle_beta 90.000000
_cell_angle_gamma 90.000000
_cell_volume 3466.217023
_symmetry_space_group_name_H-M "A M M 2"
_symmetry_group_IT_number 38
_symmetry_cell_setting 'orthorhombic'
loop_
_space_group_symop_operation_xyz
x,y,z
-x,-y,z
-x,y,z
x,-y,z
x,1/2+y,1/2+z
-x,1/2-y,1/2+z
-x,1/2+y,1/2+z
x,1/2-y,1/2+z
loop_
_atom_site_type_symbol
_atom_site_label
_atom_site_fract_x
_atom_site_fract_y
_atom_site_fract_z
Si Si1 0.631549 0.332519 0.094230
Si Si2 0.565487 0.835618 0.760144
Si Si3 0.165493 0.663247 0.240814
Si Si4 0.820587 0.335879 0.431870
Si Si5 0.936568 0.835953 0.190340
Si Si6 0.240068 0.167560 0.579116
Si Si7 0.939313 0.832648 0.994135
Si Si8 0.434551 0.835652 0.428106
O O1 0.625640 0.500000 0.094608
O O2 0.600811 0.273633 0.179664
O O3 0.696119 0.283168 0.095075
O O4 0.600792 0.274176 0.008646
O O5 0.500000 0.810582 0.739369
O O6 0.584987 0.750253 0.844233
O O7 0.578551 0.000000 0.776907
O O8 0.150011 0.500000 0.227504
O O9 0.198000 0.684852 0.332120
O O10 0.107143 0.747763 0.247162
O O11 0.204625 0.718051 0.162638
O O12 0.815781 0.500000 0.460226
O O13 0.781042 0.243057 0.492588
O O14 0.885608 0.281467 0.439140
O O15 0.930671 0.781285 0.092267
O O16 0.000000 0.808590 0.224458
O O17 0.920632 0.000000 0.197724
O O18 0.235773 0.000000 0.565321
O O19 0.000000 0.772187 0.959252
O O20 0.943316 0.000000 0.993310
O O21 0.500000 0.810364 0.448942
O O22 0.421633 0.000000 0.411116
#
# Coordination Sequence:
#
# PCOD8179395 Si02
#       8
#     8   8   8   8   8   8   8   8
#     4   9  18  33  53  72  98 140 178 204 243 304
#     4   9  17  31  53  80 107 135 167 204 251 305
#     4  10  21  34  51  76 103 130 165 211 259 300
#     4  10  20  35  55  76  99 132 170 207 252 307
#     4   9  17  31  53  77 100 129 164 202 248 305
#     4  10  21  37  52  71 102 136 172 215 254 289
#     4   8  14  27  49  73  95 123 159 197 240 297
#     4   9  17  31  52  77 103 131 167 210 251 295
#
# _framework density 18.463933000000001
#
# number of rings (size 3 to 8) (size 9 to 14) (size 15 to 20)
#    0.000    2.750    1.250    1.125    0.000    3.750 
#    0.000    4.375    0.000    3.375    0.000    0.000 
#    0.000    0.000    0.000    0.000    0.000    0.000 
#
# Total GULP energy -396715.215890 kJ/mol
# GULP energy per Si atom -12397.350497 kJ/mol
# Density = 1.842191 g / cm^3
# Si number density = 18.463933 Si / 1000 Ang^3
#
#
#
# Elastic Constant Matrix: (Units=GPa)
#
#
# Indices 1 2 3 4 5 6 
#
# 1 109.3387 38.1231 69.2259 0.0000 0.0000 0.0000
# 2 38.1231 41.9490 43.8966 0.0000 0.0000 0.0000
# 3 69.2259 43.8966 132.8540 0.0000 0.0000 0.0000
# 4 0.0000 0.0000 0.0000 27.2477 0.0000 0.0000
# 5 0.0000 0.0000 0.0000 0.0000 16.1113 0.0000
# 6 0.0000 0.0000 0.0000 0.0000 0.0000 21.3666
#
#
#
# Elastic Compliance Matrix: (Units=1/GPa)
#
#
# Indices 1 2 3 4 5 6 
#
# 1 0.015434 -0.008576 -0.005208 0.000000 0.000000 0.000000
# 2 -0.008576 0.041202 -0.009145 0.000000 0.000000 0.000000
# 3 -0.005208 -0.009145 0.013263 0.000000 0.000000 0.000000
# 4 0.000000 0.000000 0.000000 0.036700 0.000000 0.000000
# 5 0.000000 0.000000 0.000000 0.000000 0.062068 0.000000
# 6 0.000000 0.000000 0.000000 0.000000 0.000000 0.046802
#
#
# Mechanical properties :
#
#
# Convention : Reuss Voigt Hill
#
# Bulk Modulus (GPa) = 41.59812 65.18144 53.38978
# Shear Modulus (GPa) = 18.56390 21.80487 20.18439
#
# Velocity S-wave (km/s) = 3.17427 3.44021 3.30991
# Velocity P-wave (km/s) = 6.00108 7.15254 6.60196
#
# Compressibility (1/GPa) = 0.02403955
#
# Stress axis : x y z
#
# Youngs Moduli (GPa) = 64.79354 24.27086 75.40003
#
# Poissons Ratio (x) = 0.20814 0.39271
# Poissons Ratio (y) = 0.55566 0.68953
# Poissons Ratio (z) = 0.33747 0.22196
#
# Static dielectric constant tensor:
#      x y z
#    x 4.061330 0.000000 0.000000 
#    y 0.000000 3.049980 0.000000 
#    z 0.000000 0.000000 3.449040 
# 
# 
# High freq. dielectric constant tensor:
#      x y z
#    x 1.715610 0.000000 0.000000 
#    y 0.000000 1.681090 0.000000 
#    z 0.000000 0.000000 1.720160 
# 
# From -- ./inp_files/18880.got.cif
#   From: 2010.03.12/outbox.cif.g09.slc.cpg/sg38_10_cif.got.tgz:18880.got - 2010.04.14 02:38:36.
