data_PCOD8179187
_publ_section_title
;
Structure prediction by ZEFSAII (Michael W. Deem and Ramdas Pophale) SiO2 
 PCOD8179187
Probable space group: A M M 2
;
_chemical_formula_sum "Si O2"
_cell_formula_units_Z 48
_cell_length_a 15.622544
_cell_length_b 8.647710
_cell_length_c 18.287443
_cell_angle_alpha 90.000000
_cell_angle_beta 90.000000
_cell_angle_gamma 90.000000
_cell_volume 2470.619467
_symmetry_space_group_name_H-M "A M M 2"
_symmetry_group_IT_number 38
_symmetry_cell_setting 'orthorhombic'
loop_
_space_group_symop_operation_xyz
x,y,z
-x,-y,z
-x,y,z
x,-y,z
x,1/2+y,1/2+z
-x,1/2-y,1/2+z
-x,1/2+y,1/2+z
x,1/2-y,1/2+z
loop_
_atom_site_type_symbol
_atom_site_label
_atom_site_fract_x
_atom_site_fract_y
_atom_site_fract_z
Si Si1 0.160578 0.317267 0.575380
Si Si2 0.000000 0.182752 0.169744
Si Si3 0.681895 0.816011 0.174692
Si Si4 0.677364 0.181729 0.832266
Si Si5 0.500000 0.670543 0.838134
Si Si6 0.500000 0.331264 0.665044
Si Si7 0.167868 0.818033 0.417792
Si Si8 0.000000 0.183891 0.333319
O O1 0.156558 0.500000 0.558895
O O2 0.247487 0.269314 0.616153
O O3 0.153608 0.219991 0.502165
O O4 0.083629 0.261309 0.626912
O O5 0.000000 0.253460 0.251328
O O6 0.000000 0.000000 0.176678
O O7 0.704702 0.749221 0.253810
O O8 0.590012 0.747800 0.144719
O O9 0.674911 0.000000 0.184478
O O10 0.585892 0.240700 0.862445
O O11 0.748604 0.229192 0.890567
O O12 0.672034 0.000000 0.825385
O O13 0.500000 0.500000 0.874324
O O14 0.500000 0.653911 0.751828
O O15 0.500000 0.500000 0.627613
O O16 0.084804 0.756205 0.374328
O O17 0.180890 0.000000 0.406433
O O18 0.000000 0.000000 0.332723
#
# Coordination Sequence:
#
# PCOD8179187 Si02
#       8
#     8   4   8   8   4   4   8   4
#     4  10  20  34  53  77 107 142 179 222 275 332
#     4   9  17  32  55  79 102 131 174 227 278 328
#     4   9  17  32  54  77 104 141 182 224 273 326
#     4  11  21  34  55  84 114 144 185 232 276 326
#     4   9  17  33  56  81 110 145 185 227 275 325
#     4   7  12  25  48  75  98 127 171 217 259 307
#     4  11  22  37  56  78 110 149 187 228 276 330
#     4   9  19  36  59  83 104 139 190 233 272 328
#
# _framework density 19.428326999999999
#
# number of rings (size 3 to 8) (size 9 to 14) (size 15 to 20)
#    0.000    2.333    0.000    4.750    0.000    3.333 
#    0.000    2.083    0.000    4.000    0.000    0.000 
#    0.000    0.000    0.000    0.000    0.000    0.000 
#
# Total GULP energy -297527.095584 kJ/mol
# GULP energy per Si atom -12396.962316 kJ/mol
# Density = 1.938411 g / cm^3
# Si number density = 19.428327 Si / 1000 Ang^3
#
#
#
# Elastic Constant Matrix: (Units=GPa)
#
#
# Indices 1 2 3 4 5 6 
#
# 1 181.3594 29.3970 71.8789 0.0000 0.0000 0.0000
# 2 29.3970 56.6680 22.7062 0.0000 0.0000 0.0000
# 3 71.8789 22.7062 114.6642 0.0000 0.0000 0.0000
# 4 0.0000 0.0000 0.0000 28.0487 0.0000 0.0000
# 5 0.0000 0.0000 0.0000 0.0000 9.9869 0.0000
# 6 0.0000 0.0000 0.0000 0.0000 0.0000 16.2752
#
#
#
# Elastic Compliance Matrix: (Units=1/GPa)
#
#
# Indices 1 2 3 4 5 6 
#
# 1 0.007582 -0.002204 -0.004316 0.000000 0.000000 0.000000
# 2 -0.002204 0.019808 -0.002541 0.000000 0.000000 0.000000
# 3 -0.004316 -0.002541 0.011930 0.000000 0.000000 0.000000
# 4 0.000000 0.000000 0.000000 0.035652 0.000000 0.000000
# 5 0.000000 0.000000 0.000000 0.000000 0.100131 0.000000
# 6 0.000000 0.000000 0.000000 0.000000 0.000000 0.061443
#
#
# Mechanical properties :
#
#
# Convention : Reuss Voigt Hill
#
# Bulk Modulus (GPa) = 47.17491 66.73955 56.95723
# Shear Modulus (GPa) = 19.10332 26.10947 22.60640
#
# Velocity S-wave (km/s) = 3.13912 3.66988 3.41483
# Velocity P-wave (km/s) = 6.12152 7.23765 6.70286
#
# Compressibility (1/GPa) = 0.02119771
#
# Stress axis : x y z
#
# Youngs Moduli (GPa) = 131.89390 50.48476 83.82139
#
# Poissons Ratio (x) = 0.11125 0.36181
# Poissons Ratio (y) = 0.29064 0.21300
# Poissons Ratio (z) = 0.56931 0.12829
#
# Static dielectric constant tensor:
#      x y z
#    x 4.111160 0.000000 0.000000 
#    y 0.000000 3.263220 0.000000 
#    z 0.000000 0.000000 3.338810 
# 
# 
# High freq. dielectric constant tensor:
#      x y z
#    x 1.782810 0.000000 0.000000 
#    y 0.000000 1.728290 0.000000 
#    z 0.000000 0.000000 1.736540 
# 
# From -- ./inp_files/18286.got.cif
#   From: 2010.03.12/outbox.cif.g09.slc.cpg/sg38_10_cif.got.tgz:18286.got - 2010.04.14 02:38:36.
