data_PCOD8179603
_publ_section_title
;
Structure prediction by ZEFSAII (Michael W. Deem and Ramdas Pophale) SiO2 
 PCOD8179603
Probable space group: A M M 2
;
_chemical_formula_sum "Si O2"
_cell_formula_units_Z 48
_cell_length_a 9.313742
_cell_length_b 7.759459
_cell_length_c 33.824605
_cell_angle_alpha 90.000000
_cell_angle_beta 90.000000
_cell_angle_gamma 90.000000
_cell_volume 2444.490646
_symmetry_space_group_name_H-M "A M M 2"
_symmetry_group_IT_number 38
_symmetry_cell_setting 'orthorhombic'
loop_
_space_group_symop_operation_xyz
x,y,z
-x,-y,z
-x,y,z
x,-y,z
x,1/2+y,1/2+z
-x,1/2-y,1/2+z
-x,1/2+y,1/2+z
x,1/2-y,1/2+z
loop_
_atom_site_type_symbol
_atom_site_label
_atom_site_fract_x
_atom_site_fract_y
_atom_site_fract_z
Si Si1 0.157987 0.805853 0.635960
Si Si2 0.166996 0.000000 0.844218
Si Si3 0.661292 0.703415 0.979746
Si Si4 0.833627 0.696627 0.903845
Si Si5 0.337627 0.802870 0.064124
Si Si6 0.167972 0.694032 0.719748
Si Si7 0.672508 0.000000 0.763120
O O1 0.257405 0.801590 0.597771
O O2 0.211963 0.694777 0.673327
O O3 0.000000 0.741969 0.622898
O O4 0.153414 0.000000 0.651841
O O5 0.202155 0.825939 0.868319
O O6 0.274910 0.000000 0.807960
O O7 0.000000 0.000000 0.830747
O O8 0.500000 0.775835 0.974539
O O9 0.663040 0.500000 0.981971
O O10 0.752659 0.767191 0.942521
O O11 0.730167 0.774914 0.020546
O O12 0.786952 0.500000 0.892542
O O13 0.000000 0.702309 0.914489
O O14 0.500000 0.733019 0.062783
O O15 0.329265 0.000000 0.076553
O O16 0.194805 0.500000 0.735867
O O17 0.267535 0.826773 0.743113
O O18 0.000000 0.745447 0.724638
O O19 0.500000 0.000000 0.760957
#
# Coordination Sequence:
#
# PCOD8179603 Si02
#       7
#     8   4   8   8   8   8   4
#     4  10  20  36  59  84 112 148 196 248 295 346
#     4  10  22  40  62  86 116 152 196 244 296 360
#     4   9  18  33  52  75 107 148 190 233 286 347
#     4   9  19  36  58  84 112 145 189 241 293 347
#     4  10  21  34  49  76 114 154 195 239 288 348
#     4  10  21  41  68  91 118 160 205 250 302 364
#     4  12  26  42  62  94 130 160 196 250 308 368
#
# _framework density 19.635992999999999
#
# number of rings (size 3 to 8) (size 9 to 14) (size 15 to 20)
#    0.000    2.167    0.833    1.750    1.167    5.000 
#    0.000    3.333    0.000    0.000    0.000    0.000 
#    0.000    0.000    0.000    0.000    0.000    0.000 
#
# Total GULP energy -297556.837538 kJ/mol
# GULP energy per Si atom -12398.201564 kJ/mol
# Density = 1.959130 g / cm^3
# Si number density = 19.635993 Si / 1000 Ang^3
#
#
#
# Elastic Constant Matrix: (Units=GPa)
#
#
# Indices 1 2 3 4 5 6 
#
# 1 89.9174 44.7019 73.0383 0.0000 0.0000 0.0000
# 2 44.7019 95.9028 53.0890 0.0000 0.0000 0.0000
# 3 73.0383 53.0890 137.6677 0.0000 0.0000 0.0000
# 4 0.0000 0.0000 0.0000 16.9949 0.0000 0.0000
# 5 0.0000 0.0000 0.0000 0.0000 6.7033 0.0000
# 6 0.0000 0.0000 0.0000 0.0000 0.0000 21.4359
#
#
#
# Elastic Compliance Matrix: (Units=1/GPa)
#
#
# Indices 1 2 3 4 5 6 
#
# 1 0.021034 -0.004611 -0.009381 0.000000 0.000000 0.000000
# 2 -0.004611 0.014268 -0.003056 0.000000 0.000000 0.000000
# 3 -0.009381 -0.003056 0.013419 0.000000 0.000000 0.000000
# 4 0.000000 0.000000 0.000000 0.058841 0.000000 0.000000
# 5 0.000000 0.000000 0.000000 0.000000 0.149180 0.000000
# 6 0.000000 0.000000 0.000000 0.000000 0.000000 0.046651
#
#
# Mechanical properties :
#
#
# Convention : Reuss Voigt Hill
#
# Bulk Modulus (GPa) = 68.37521 73.90515 71.14018
# Shear Modulus (GPa) = 14.60432 19.20407 16.90420
#
# Velocity S-wave (km/s) = 2.73014 3.13070 2.93726
# Velocity P-wave (km/s) = 6.69591 7.12655 6.91458
#
# Compressibility (1/GPa) = 0.01462518
#
# Stress axis : x y z
#
# Youngs Moduli (GPa) = 47.54258 70.08601 74.51910
#
# Poissons Ratio (x) = 0.32317 0.69907
# Poissons Ratio (y) = 0.21922 0.22772
# Poissons Ratio (z) = 0.44600 0.21418
#
# Static dielectric constant tensor:
#      x y z
#    x 3.615880 0.000000 0.000000 
#    y 0.000000 3.702880 0.000000 
#    z 0.000000 0.000000 3.502190 
# 
# 
# High freq. dielectric constant tensor:
#      x y z
#    x 1.746310 0.000000 0.000000 
#    y 0.000000 1.775640 0.000000 
#    z 0.000000 0.000000 1.763590 
# 
# From -- ./inp_files/24310.got.cif
#   From: 2010.03.12/outbox.cif.g09.slc.cpg/sg38_13_cif.got.tgz:24310.got - 2010.04.14 02:38:36.
