data_PCOD8179191
_publ_section_title
;
Structure prediction by ZEFSAII (Michael W. Deem and Ramdas Pophale) SiO2 
 PCOD8179191
Probable space group: A M M 2
;
_chemical_formula_sum "Si O2"
_cell_formula_units_Z 64
_cell_length_a 20.342581
_cell_length_b 8.821040
_cell_length_c 18.463242
_cell_angle_alpha 90.000000
_cell_angle_beta 90.000000
_cell_angle_gamma 90.000000
_cell_volume 3313.094378
_symmetry_space_group_name_H-M "A M M 2"
_symmetry_group_IT_number 38
_symmetry_cell_setting 'orthorhombic'
loop_
_space_group_symop_operation_xyz
x,y,z
-x,-y,z
-x,y,z
x,-y,z
x,1/2+y,1/2+z
-x,1/2-y,1/2+z
-x,1/2+y,1/2+z
x,1/2-y,1/2+z
loop_
_atom_site_type_symbol
_atom_site_label
_atom_site_fract_x
_atom_site_fract_y
_atom_site_fract_z
Si Si1 0.686946 0.677623 0.634510
Si Si2 0.191272 0.176065 0.378823
Si Si3 0.072698 0.819679 0.636846
Si Si4 0.926995 0.320157 0.974759
Si Si5 0.685981 0.174376 0.482218
Si Si6 0.575137 0.175173 0.371940
Si Si7 0.803713 0.820573 0.724696
Si Si8 0.423854 0.676378 0.222620
O O1 0.694130 0.500000 0.645553
O O2 0.693566 0.717506 0.550509
O O3 0.743293 0.759119 0.679348
O O4 0.616195 0.731661 0.662766
O O5 0.126674 0.243402 0.418721
O O6 0.252856 0.202513 0.430253
O O7 0.202825 0.269905 0.306802
O O8 0.182897 0.000000 0.358821
O O9 0.087303 0.758284 0.555715
O O10 0.128039 0.756021 0.691134
O O11 0.000000 0.764136 0.662012
O O12 0.074261 0.000000 0.635677
O O13 0.921492 0.500000 0.976771
O O14 0.000000 0.269320 0.949537
O O15 0.619586 0.220258 0.440170
O O16 0.683306 0.000000 0.508221
O O17 0.500000 0.208961 0.393789
O O18 0.597212 0.273490 0.303098
O O19 0.585944 0.000000 0.350929
O O20 0.801959 0.000000 0.720333
O O21 0.500000 0.714119 0.209251
O O22 0.408376 0.500000 0.213846
#
# Coordination Sequence:
#
# PCOD8179191 Si02
#       8
#     8   8   8   8   8   8   8   8
#     4  12  25  39  57  81 111 146 185 231 278 326
#     4  10  20  34  53  78 108 142 181 225 274 327
#     4   8  15  30  53  80 108 141 183 227 272 324
#     4   8  14  27  49  75 103 138 180 223 267 320
#     4  10  21  37  56  78 106 142 183 226 273 324
#     4   9  18  34  57  84 114 147 181 219 266 320
#     4  11  22  36  56  81 111 147 186 229 276 327
#     4  10  21  38  61  87 115 147 183 224 270 323
#
# _framework density 19.317288000000001
#
# number of rings (size 3 to 8) (size 9 to 14) (size 15 to 20)
#    0.000    2.250    0.000    4.125    0.000    5.750 
#    0.000    1.250    0.000    1.125    0.000    3.500 
#    0.000    0.000    0.000    0.000    0.000    0.000 
#
# Total GULP energy -396839.836098 kJ/mol
# GULP energy per Si atom -12401.244878 kJ/mol
# Density = 1.927332 g / cm^3
# Si number density = 19.317288 Si / 1000 Ang^3
#
#
#
# Elastic Constant Matrix: (Units=GPa)
#
#
# Indices 1 2 3 4 5 6 
#
# 1 117.4864 35.8616 62.6963 0.0000 0.0000 0.0000
# 2 35.8616 55.1038 41.0654 0.0000 0.0000 0.0000
# 3 62.6963 41.0654 115.8436 0.0000 0.0000 0.0000
# 4 0.0000 0.0000 0.0000 30.2626 0.0000 0.0000
# 5 0.0000 0.0000 0.0000 0.0000 31.8192 0.0000
# 6 0.0000 0.0000 0.0000 0.0000 0.0000 3.1782
#
#
#
# Elastic Compliance Matrix: (Units=1/GPa)
#
#
# Indices 1 2 3 4 5 6 
#
# 1 0.012663 -0.004259 -0.005344 0.000000 0.000000 0.000000
# 2 -0.004259 0.026095 -0.006946 0.000000 0.000000 0.000000
# 3 -0.005344 -0.006946 0.013987 0.000000 0.000000 0.000000
# 4 0.000000 0.000000 0.000000 0.033044 0.000000 0.000000
# 5 0.000000 0.000000 0.000000 0.000000 0.031428 0.000000
# 6 0.000000 0.000000 0.000000 0.000000 0.000000 0.314640
#
#
# Mechanical properties :
#
#
# Convention : Reuss Voigt Hill
#
# Bulk Modulus (GPa) = 50.89388 63.07560 56.98474
# Shear Modulus (GPa) = 10.60439 22.97271 16.78855
#
# Velocity S-wave (km/s) = 2.34553 3.45226 2.95124
# Velocity P-wave (km/s) = 5.80851 6.97238 6.41689
#
# Compressibility (1/GPa) = 0.01964873
#
# Stress axis : x y z
#
# Youngs Moduli (GPa) = 78.96808 38.32098 71.49670
#
# Poissons Ratio (x) = 0.16320 0.38207
# Poissons Ratio (y) = 0.33631 0.49659
# Poissons Ratio (z) = 0.42200 0.26616
#
# Static dielectric constant tensor:
#      x y z
#    x 3.989960 0.000000 0.000000 
#    y 0.000000 3.288930 0.000000 
#    z 0.000000 0.000000 3.551620 
# 
# 
# High freq. dielectric constant tensor:
#      x y z
#    x 1.770660 0.000000 0.000000 
#    y 0.000000 1.722670 0.000000 
#    z 0.000000 0.000000 1.752080 
# 
# From -- ./inp_files/18850.got.cif
#   From: 2010.03.12/outbox.cif.g09.slc.cpg/sg38_10_cif.got.tgz:18850.got - 2010.04.14 02:38:36.
