data_PCOD8179722
_publ_section_title
;
Structure prediction by ZEFSAII (Michael W. Deem and Ramdas Pophale) SiO2 
 PCOD8179722
Probable space group: A M M 2
;
_chemical_formula_sum "Si O2"
_cell_formula_units_Z 48
_cell_length_a 13.691341
_cell_length_b 18.014039
_cell_length_c 9.522129
_cell_angle_alpha 90.000000
_cell_angle_beta 90.000000
_cell_angle_gamma 90.000000
_cell_volume 2348.503148
_symmetry_space_group_name_H-M "A M M 2"
_symmetry_group_IT_number 38
_symmetry_cell_setting 'orthorhombic'
loop_
_space_group_symop_operation_xyz
x,y,z
-x,-y,z
-x,y,z
x,-y,z
x,1/2+y,1/2+z
-x,1/2-y,1/2+z
-x,1/2+y,1/2+z
x,1/2-y,1/2+z
loop_
_atom_site_type_symbol
_atom_site_label
_atom_site_fract_x
_atom_site_fract_y
_atom_site_fract_z
Si Si1 0.888274 0.585029 0.681920
Si Si2 0.605816 0.586249 0.955867
Si Si3 0.302421 0.911637 0.738138
Si Si4 0.895731 0.915001 0.852423
Si Si5 0.614382 0.300058 0.434547
Si Si6 0.702702 0.174208 0.240008
O O1 0.862800 0.500000 0.730488
O O2 0.874594 0.590328 0.516243
O O3 0.816512 0.648365 0.744581
O O4 0.000000 0.603459 0.726238
O O5 0.500000 0.624253 0.972827
O O6 0.595744 0.500000 0.975784
O O7 0.672766 0.617382 0.082276
O O8 0.646578 0.602781 0.801679
O O9 0.193800 0.878876 0.767550
O O10 0.307954 0.000000 0.755423
O O11 0.376983 0.877977 0.852343
O O12 0.000000 0.876006 0.815238
O O13 0.903258 0.000000 0.806400
O O14 0.500000 0.278325 0.446241
O O15 0.678472 0.240233 0.348422
O O16 0.662258 0.306367 0.587517
#
# Coordination Sequence:
#
# PCOD8179722 Si02
#       6
#     8   8   8   8   8   8
#     4   9  18  37  67  99 128 158 198 253 313 372
#     4  10  21  37  58  84 119 160 203 258 315 366
#     4  10  20  37  60  90 122 159 205 256 315 374
#     4   8  14  29  57  91 122 152 188 237 298 362
#     4  12  25  39  59  85 119 165 214 265 311 365
#     4  12  24  42  61  86 121 165 212 254 311 375
#
# _framework density 20.438551
#
# number of rings (size 3 to 8) (size 9 to 14) (size 15 to 20)
#    0.000    1.833    1.667    4.500    0.000    1.667 
#    0.000    2.500    0.000    3.000    0.000    0.000 
#    0.000    0.000    0.000    0.000    0.000    0.000 
#
# Total GULP energy -297350.259124 kJ/mol
# GULP energy per Si atom -12389.594130 kJ/mol
# Density = 2.039203 g / cm^3
# Si number density = 20.438551 Si / 1000 Ang^3
#
#
#
# Elastic Constant Matrix: (Units=GPa)
#
#
# Indices 1 2 3 4 5 6 
#
# 1 172.6130 58.2920 61.3273 0.0000 0.0000 0.0000
# 2 58.2920 56.3181 41.6568 0.0000 0.0000 0.0000
# 3 61.3273 41.6568 123.8158 0.0000 0.0000 0.0000
# 4 0.0000 0.0000 0.0000 30.0255 0.0000 0.0000
# 5 0.0000 0.0000 0.0000 0.0000 16.8113 0.0000
# 6 0.0000 0.0000 0.0000 0.0000 0.0000 24.9865
#
#
#
# Elastic Compliance Matrix: (Units=1/GPa)
#
#
# Indices 1 2 3 4 5 6 
#
# 1 0.009199 -0.008189 -0.001801 0.000000 0.000000 0.000000
# 2 -0.008189 0.030929 -0.006350 0.000000 0.000000 0.000000
# 3 -0.001801 -0.006350 0.011105 0.000000 0.000000 0.000000
# 4 0.000000 0.000000 0.000000 0.033305 0.000000 0.000000
# 5 0.000000 0.000000 0.000000 0.000000 0.059484 0.000000
# 6 0.000000 0.000000 0.000000 0.000000 0.000000 0.040022
#
#
# Mechanical properties :
#
#
# Convention : Reuss Voigt Hill
#
# Bulk Modulus (GPa) = 53.89954 75.03323 64.46638
# Shear Modulus (GPa) = 22.43094 27.12938 24.78016
#
# Velocity S-wave (km/s) = 3.31642 3.64725 3.48576
# Velocity P-wave (km/s) = 6.41043 7.38430 6.91453
#
# Compressibility (1/GPa) = 0.01855304
#
# Stress axis : x y z
#
# Youngs Moduli (GPa) = 108.71239 32.33241 90.04996
#
# Poissons Ratio (x) = 0.26476 0.16219
# Poissons Ratio (y) = 0.89022 0.57179
# Poissons Ratio (z) = 0.19580 0.20530
#
# Static dielectric constant tensor:
#      x y z
#    x 4.355630 0.000000 0.000000 
#    y 0.000000 3.622760 0.000000 
#    z 0.000000 0.000000 3.702440 
# 
# 
# High freq. dielectric constant tensor:
#      x y z
#    x 1.810950 0.000000 0.000000 
#    y 0.000000 1.783880 0.000000 
#    z 0.000000 0.000000 1.788990 
# 
# From -- ./inp_files/5465.got.cif
#   From: 2010.03.12/outbox.cif.g09.slc.cpg/sg38_3_cif.got.tgz:5465.got - 2010.04.14 02:38:36.
