data_PCOD8179725
_publ_section_title
;
Structure prediction by ZEFSAII (Michael W. Deem and Ramdas Pophale) SiO2 
 PCOD8179725
Probable space group: A M M 2
;
_chemical_formula_sum "Si O2"
_cell_formula_units_Z 64
_cell_length_a 18.552931
_cell_length_b 9.057327
_cell_length_c 19.481809
_cell_angle_alpha 90.000000
_cell_angle_beta 90.000000
_cell_angle_gamma 90.000000
_cell_volume 3273.722461
_symmetry_space_group_name_H-M "A M M 2"
_symmetry_group_IT_number 38
_symmetry_cell_setting 'orthorhombic'
loop_
_space_group_symop_operation_xyz
x,y,z
-x,-y,z
-x,y,z
x,-y,z
x,1/2+y,1/2+z
-x,1/2-y,1/2+z
-x,1/2+y,1/2+z
x,1/2-y,1/2+z
loop_
_atom_site_type_symbol
_atom_site_label
_atom_site_fract_x
_atom_site_fract_y
_atom_site_fract_z
Si Si1 0.160073 0.668750 0.908890
Si Si2 0.083173 0.166248 0.272096
Si Si3 0.849189 0.331717 0.154147
Si Si4 0.081810 0.325674 0.528826
Si Si5 0.690642 0.325135 0.840040
Si Si6 0.416913 0.171342 0.578945
Si Si7 0.691640 0.830242 0.695375
Si Si8 0.584472 0.328562 0.440606
O O1 0.165573 0.500000 0.933759
O O2 0.098356 0.689712 0.852197
O O3 0.236329 0.723088 0.878781
O O4 0.137881 0.766003 0.973349
O O5 0.128475 0.286114 0.230754
O O6 0.000000 0.193053 0.257360
O O7 0.106695 0.000000 0.250858
O O8 0.871740 0.500000 0.139935
O O9 0.891732 0.227048 0.102698
O O10 0.763391 0.311220 0.149511
O O11 0.084113 0.500000 0.527508
O O12 0.000000 0.269175 0.515691
O O13 0.681709 0.500000 0.839913
O O14 0.692995 0.272090 0.761809
O O15 0.623350 0.252329 0.878047
O O16 0.500000 0.205529 0.594642
O O17 0.373550 0.220760 0.646420
O O18 0.389462 0.262494 0.513212
O O19 0.403356 0.000000 0.562295
O O20 0.682565 0.000000 0.719126
O O21 0.500000 0.300535 0.430380
O O22 0.604388 0.500000 0.439299
#
# Coordination Sequence:
#
# PCOD8179725 Si02
#       8
#     8   8   8   8   8   8   8   8
#     4  10  22  40  61  86 117 154 195 241 296 355
#     4  10  20  37  61  85 113 151 195 243 294 348
#     4  11  23  38  58  85 119 156 197 244 290 349
#     4  11  25  42  60  85 117 153 197 249 301 354
#     4  11  23  39  62  90 121 157 199 244 292 349
#     4   9  19  38  63  89 119 156 198 243 290 343
#     4  10  22  39  59  87 122 158 197 240 293 351
#     4  10  22  40  62  90 124 160 198 241 290 345
#
# _framework density 19.549610999999999
#
# number of rings (size 3 to 8) (size 9 to 14) (size 15 to 20)
#    0.000    1.750    1.250    2.250    1.750    7.000 
#    0.000    1.250    0.000    0.000    0.000    0.000 
#    0.000    0.000    0.000    0.000    0.000    0.000 
#
# Total GULP energy -396945.388865 kJ/mol
# GULP energy per Si atom -12404.543402 kJ/mol
# Density = 1.950512 g / cm^3
# Si number density = 19.549611 Si / 1000 Ang^3
#
#
#
# Elastic Constant Matrix: (Units=GPa)
#
#
# Indices 1 2 3 4 5 6 
#
# 1 76.9046 44.1892 41.4728 0.0000 0.0000 0.0000
# 2 44.1892 79.2460 48.1051 0.0000 0.0000 0.0000
# 3 41.4728 48.1051 91.8238 0.0000 0.0000 0.0000
# 4 0.0000 0.0000 0.0000 40.6241 0.0000 0.0000
# 5 0.0000 0.0000 0.0000 0.0000 38.3290 0.0000
# 6 0.0000 0.0000 0.0000 0.0000 0.0000 28.1893
#
#
#
# Elastic Compliance Matrix: (Units=1/GPa)
#
#
# Indices 1 2 3 4 5 6 
#
# 1 0.020476 -0.008510 -0.004790 0.000000 0.000000 0.000000
# 2 -0.008510 0.022040 -0.007703 0.000000 0.000000 0.000000
# 3 -0.004790 -0.007703 0.017089 0.000000 0.000000 0.000000
# 4 0.000000 0.000000 0.000000 0.024616 0.000000 0.000000
# 5 0.000000 0.000000 0.000000 0.000000 0.026090 0.000000
# 6 0.000000 0.000000 0.000000 0.000000 0.000000 0.035474
#
#
# Mechanical properties :
#
#
# Convention : Reuss Voigt Hill
#
# Bulk Modulus (GPa) = 56.81899 57.27875 57.04887
# Shear Modulus (GPa) = 25.81861 29.04228 27.43044
#
# Velocity S-wave (km/s) = 3.63805 3.85849 3.74989
# Velocity P-wave (km/s) = 6.83917 7.01522 6.92776
#
# Compressibility (1/GPa) = 0.01759975
#
# Stress axis : x y z
#
# Youngs Moduli (GPa) = 48.83723 45.37114 58.51663
#
# Poissons Ratio (x) = 0.38613 0.28028
# Poissons Ratio (y) = 0.41563 0.45075
# Poissons Ratio (z) = 0.23392 0.34949
#
# Static dielectric constant tensor:
#      x y z
#    x 3.709410 0.000000 0.000000 
#    y 0.000000 3.560040 0.000000 
#    z 0.000000 0.000000 3.481260 
# 
# 
# High freq. dielectric constant tensor:
#      x y z
#    x 1.769740 0.000000 0.000000 
#    y 0.000000 1.761770 0.000000 
#    z 0.000000 0.000000 1.764550 
# 
# From -- ./inp_files/18954.got.cif
#   From: 2010.03.12/outbox.cif.g09.slc.cpg/sg38_10_cif.got.tgz:18954.got - 2010.04.14 02:38:36.
