data_PCOD8179521
_publ_section_title
;
Structure prediction by ZEFSAII (Michael W. Deem and Ramdas Pophale) SiO2 
 PCOD8179521
Probable space group: A M M 2
;
_chemical_formula_sum "Si O2"
_cell_formula_units_Z 64
_cell_length_a 23.592466
_cell_length_b 8.745332
_cell_length_c 15.570908
_cell_angle_alpha 90.000000
_cell_angle_beta 90.000000
_cell_angle_gamma 90.000000
_cell_volume 3212.651210
_symmetry_space_group_name_H-M "A M M 2"
_symmetry_group_IT_number 38
_symmetry_cell_setting 'orthorhombic'
loop_
_space_group_symop_operation_xyz
x,y,z
-x,-y,z
-x,y,z
x,-y,z
x,1/2+y,1/2+z
-x,1/2-y,1/2+z
-x,1/2+y,1/2+z
x,1/2-y,1/2+z
loop_
_atom_site_type_symbol
_atom_site_label
_atom_site_fract_x
_atom_site_fract_y
_atom_site_fract_z
Si Si1 0.736323 0.180812 0.262860
Si Si2 0.134341 0.181557 0.258105
Si Si3 0.935381 0.319222 0.596683
Si Si4 0.562849 0.673563 0.345376
Si Si5 0.321257 0.322740 0.426309
Si Si6 0.328378 0.679136 0.102696
Si Si7 0.564243 0.323394 0.666689
Si Si8 0.935345 0.680739 0.919414
O O1 0.801053 0.236719 0.257885
O O2 0.711767 0.229208 0.354258
O O3 0.702597 0.262662 0.187407
O O4 0.730602 0.000000 0.251524
O O5 0.103122 0.246378 0.173595
O O6 0.102933 0.246850 0.342388
O O7 0.129977 0.000000 0.258905
O O8 0.930916 0.500000 0.590975
O O9 0.912054 0.250192 0.508026
O O10 0.000000 0.266816 0.613348
O O11 0.500000 0.700308 0.385713
O O12 0.568023 0.500000 0.309957
O O13 0.610843 0.703132 0.416614
O O14 0.573249 0.787933 0.266930
O O15 0.304821 0.500000 0.418828
O O16 0.302175 0.259909 0.518781
O O17 0.320015 0.500000 0.093179
O O18 0.394814 0.720045 0.109069
O O19 0.500000 0.287112 0.638738
O O20 0.579687 0.500000 0.651383
O O21 0.930623 0.500000 0.925454
O O22 0.000000 0.732620 0.902810
#
# Coordination Sequence:
#
# PCOD8179521 Si02
#       8
#     8   8   8   8   8   8   8   8
#     4  11  23  41  61  83 115 152 196 248 294 343
#     4   9  19  35  57  82 109 148 192 231 279 339
#     4   9  17  32  55  83 115 149 186 229 277 331
#     4   9  18  34  58  86 116 148 182 228 287 349
#     4  11  23  40  62  87 115 151 193 240 293 350
#     4  12  25  41  61  85 115 155 198 241 290 346
#     4  10  20  35  59  89 119 150 186 232 288 348
#     4   9  17  32  55  83 115 148 183 226 278 337
#
# _framework density 19.921240000000001
#
# number of rings (size 3 to 8) (size 9 to 14) (size 15 to 20)
#    0.000    2.000    1.250    2.625    0.000    4.250 
#    0.000    6.875    0.000    3.000    0.000    0.000 
#    0.000    0.000    0.000    0.000    0.000    0.000 
#
# Total GULP energy -396856.145693 kJ/mol
# GULP energy per Si atom -12401.754553 kJ/mol
# Density = 1.987590 g / cm^3
# Si number density = 19.921240 Si / 1000 Ang^3
#
#
#
# Elastic Constant Matrix: (Units=GPa)
#
#
# Indices 1 2 3 4 5 6 
#
# 1 103.0242 21.5945 50.2105 0.0000 0.0000 0.0000
# 2 21.5945 44.2158 9.2591 0.0000 0.0000 0.0000
# 3 50.2105 9.2591 117.5099 0.0000 0.0000 0.0000
# 4 0.0000 0.0000 0.0000 34.5787 0.0000 0.0000
# 5 0.0000 0.0000 0.0000 0.0000 9.8676 0.0000
# 6 0.0000 0.0000 0.0000 0.0000 0.0000 19.6760
#
#
#
# Elastic Compliance Matrix: (Units=1/GPa)
#
#
# Indices 1 2 3 4 5 6 
#
# 1 0.013438 -0.005450 -0.005312 0.000000 0.000000 0.000000
# 2 -0.005450 0.025207 0.000343 0.000000 0.000000 0.000000
# 3 -0.005312 0.000343 0.010753 0.000000 0.000000 0.000000
# 4 0.000000 0.000000 0.000000 0.028920 0.000000 0.000000
# 5 0.000000 0.000000 0.000000 0.000000 0.101342 0.000000
# 6 0.000000 0.000000 0.000000 0.000000 0.000000 0.050823
#
#
# Mechanical properties :
#
#
# Convention : Reuss Voigt Hill
#
# Bulk Modulus (GPa) = 35.01755 47.43091 41.22423
# Shear Modulus (GPa) = 19.16871 25.07017 22.11944
#
# Velocity S-wave (km/s) = 3.10534 3.55133 3.33580
# Velocity P-wave (km/s) = 5.52030 6.37784 5.96450
#
# Compressibility (1/GPa) = 0.02855711
#
# Stress axis : x y z
#
# Youngs Moduli (GPa) = 74.41572 39.67230 92.99860
#
# Poissons Ratio (x) = 0.21623 0.49405
# Poissons Ratio (y) = 0.40560 -0.03188
# Poissons Ratio (z) = 0.39533 -0.01360
#
# Static dielectric constant tensor:
#      x y z
#    x 3.807430 0.000000 0.000000 
#    y 0.000000 3.462990 0.000000 
#    z 0.000000 0.000000 3.639530 
# 
# 
# High freq. dielectric constant tensor:
#      x y z
#    x 1.776150 0.000000 0.000000 
#    y 0.000000 1.763320 0.000000 
#    z 0.000000 0.000000 1.779290 
# 
# From -- ./inp_files/15784.got.cif
#   From: 2010.03.12/outbox.cif.g09.slc.cpg/sg38_8_cif.got.tgz:15784.got - 2010.04.14 02:38:36.
