data_PCOD8179750
_publ_section_title
;
Structure prediction by ZEFSAII (Michael W. Deem and Ramdas Pophale) SiO2 
 PCOD8179750
Probable space group: A M M 2
;
_chemical_formula_sum "Si O2"
_cell_formula_units_Z 64
_cell_length_a 8.620232
_cell_length_b 30.809912
_cell_length_c 11.996145
_cell_angle_alpha 90.000000
_cell_angle_beta 90.000000
_cell_angle_gamma 90.000000
_cell_volume 3186.039228
_symmetry_space_group_name_H-M "A M M 2"
_symmetry_group_IT_number 38
_symmetry_cell_setting 'orthorhombic'
loop_
_space_group_symop_operation_xyz
x,y,z
-x,-y,z
-x,y,z
x,-y,z
x,1/2+y,1/2+z
-x,1/2-y,1/2+z
-x,1/2+y,1/2+z
x,1/2-y,1/2+z
loop_
_atom_site_type_symbol
_atom_site_label
_atom_site_fract_x
_atom_site_fract_y
_atom_site_fract_z
Si Si1 0.176660 0.334176 0.480440
Si Si2 0.680583 0.203746 0.770509
Si Si3 0.822313 0.451959 0.269377
Si Si4 0.183730 0.371320 0.121415
Si Si5 0.183126 0.547872 0.721909
Si Si6 0.321517 0.425169 0.492023
Si Si7 0.821591 0.293402 0.720825
Si Si8 0.184348 0.373502 0.868019
O O1 0.223676 0.300681 0.384518
O O2 0.289459 0.374844 0.469864
O O3 0.197186 0.311665 0.597869
O O4 0.000000 0.349670 0.462275
O O5 0.500000 0.197603 0.794093
O O6 0.734017 0.168954 0.679483
O O7 0.712981 0.251714 0.725985
O O8 0.804235 0.500000 0.215573
O O9 0.765883 0.416168 0.180587
O O10 0.720707 0.451115 0.380748
O O11 0.000000 0.442577 0.302401
O O12 0.000000 0.364069 0.126082
O O13 0.244171 0.373683 0.994592
O O14 0.247005 0.500000 0.755120
O O15 0.221513 0.557579 0.594235
O O16 0.255125 0.584575 0.803480
O O17 0.000000 0.548639 0.733755
O O18 0.500000 0.432686 0.520824
O O19 0.759819 0.329475 0.807721
O O20 0.000000 0.280875 0.745811
O O21 0.000000 0.375902 0.862410
#
# Coordination Sequence:
#
# PCOD8179750 Si02
#       8
#     8   8   8   8   8   8   8   8
#     4  11  22  41  68  91 118 157 204 251 299 354
#     4  12  26  41  60  91 128 158 196 245 301 360
#     4  10  21  37  59  87 119 159 204 248 297 356
#     4  10  21  39  63  87 119 160 203 249 297 355
#     4  10  20  37  62  90 121 158 201 249 300 358
#     4  12  23  36  58  89 125 159 197 249 309 360
#     4  10  22  41  65  89 118 157 202 246 294 354
#     4   9  19  38  62  90 117 152 203 252 297 349
#
# _framework density 20.087638999999999
#
# number of rings (size 3 to 8) (size 9 to 14) (size 15 to 20)
#    0.000    1.500    2.500    3.000    1.750    3.500 
#    0.000    3.125    0.000    0.000    0.000    1.750 
#    0.000    0.000    0.000    0.000    0.000    0.000 
#
# Total GULP energy -396895.868326 kJ/mol
# GULP energy per Si atom -12402.995885 kJ/mol
# Density = 2.004192 g / cm^3
# Si number density = 20.087639 Si / 1000 Ang^3
#
#
#
# Elastic Constant Matrix: (Units=GPa)
#
#
# Indices 1 2 3 4 5 6 
#
# 1 27.6336 26.6836 25.1858 0.0000 0.0000 0.0000
# 2 26.6836 150.8579 60.8281 0.0000 0.0000 0.0000
# 3 25.1858 60.8281 141.6926 0.0000 0.0000 0.0000
# 4 0.0000 0.0000 0.0000 25.3672 0.0000 0.0000
# 5 0.0000 0.0000 0.0000 0.0000 5.1420 0.0000
# 6 0.0000 0.0000 0.0000 0.0000 0.0000 12.0440
#
#
#
# Elastic Compliance Matrix: (Units=1/GPa)
#
#
# Indices 1 2 3 4 5 6 
#
# 1 0.047309 -0.006019 -0.005825 0.000000 0.000000 0.000000
# 2 -0.006019 0.008782 -0.002700 0.000000 0.000000 0.000000
# 3 -0.005825 -0.002700 0.009252 0.000000 0.000000 0.000000
# 4 0.000000 0.000000 0.000000 0.039421 0.000000 0.000000
# 5 0.000000 0.000000 0.000000 0.000000 0.194477 0.000000
# 6 0.000000 0.000000 0.000000 0.000000 0.000000 0.083029
#
#
# Mechanical properties :
#
#
# Convention : Reuss Voigt Hill
#
# Bulk Modulus (GPa) = 27.58286 60.61989 44.10138
# Shear Modulus (GPa) = 11.80791 22.34308 17.07550
#
# Velocity S-wave (km/s) = 2.42713 3.33870 2.91872
# Velocity P-wave (km/s) = 4.64927 6.71609 5.77588
#
# Compressibility (1/GPa) = 0.03625439
#
# Stress axis : x y z
#
# Youngs Moduli (GPa) = 21.13746 113.86648 108.08281
#
# Poissons Ratio (x) = 0.68539 0.62960
# Poissons Ratio (y) = 0.12723 0.29185
# Poissons Ratio (z) = 0.12313 0.30747
#
# Static dielectric constant tensor:
#      x y z
#    x 3.379150 0.000000 0.000000 
#    y 0.000000 3.830760 0.000000 
#    z 0.000000 0.000000 3.757010 
# 
# 
# High freq. dielectric constant tensor:
#      x y z
#    x 1.757110 0.000000 0.000000 
#    y 0.000000 1.799480 0.000000 
#    z 0.000000 0.000000 1.787980 
# 
# From -- ./inp_files/8553.got.cif
#   From: 2010.03.12/outbox.cif.g09.slc.cpg/sg38_5_cif.got.tgz:8553.got - 2010.04.14 02:38:36.
