data_PCOD8179746
_publ_section_title
;
Structure prediction by ZEFSAII (Michael W. Deem and Ramdas Pophale) SiO2 
 PCOD8179746
Probable space group: A M M 2
;
_chemical_formula_sum "Si O2"
_cell_formula_units_Z 56
_cell_length_a 16.363487
_cell_length_b 9.168405
_cell_length_c 19.079709
_cell_angle_alpha 90.000000
_cell_angle_beta 90.000000
_cell_angle_gamma 90.000000
_cell_volume 2862.472953
_symmetry_space_group_name_H-M "A M M 2"
_symmetry_group_IT_number 38
_symmetry_cell_setting 'orthorhombic'
loop_
_space_group_symop_operation_xyz
x,y,z
-x,-y,z
-x,y,z
x,-y,z
x,1/2+y,1/2+z
-x,1/2-y,1/2+z
-x,1/2+y,1/2+z
x,1/2-y,1/2+z
loop_
_atom_site_type_symbol
_atom_site_label
_atom_site_fract_x
_atom_site_fract_y
_atom_site_fract_z
Si Si1 0.593098 0.165976 0.735900
Si Si2 0.321776 0.829155 0.353065
Si Si3 0.855990 0.172961 0.294315
Si Si4 0.000000 0.674697 0.377463
Si Si5 0.593186 0.333018 0.469501
Si Si6 0.144273 0.831024 0.134153
Si Si7 0.673741 0.335530 0.616221
Si Si8 0.000000 0.326017 0.538814
O O1 0.500000 0.184407 0.712612
O O2 0.608613 0.262526 0.803889
O O3 0.649341 0.218370 0.673207
O O4 0.615096 0.000000 0.753861
O O5 0.232435 0.786330 0.325439
O O6 0.339995 0.763555 0.429360
O O7 0.333406 0.000000 0.356356
O O8 0.860413 0.230241 0.213842
O O9 0.920582 0.261077 0.340000
O O10 0.872759 0.000000 0.299665
O O11 0.000000 0.728590 0.458461
O O12 0.000000 0.500000 0.371628
O O13 0.500000 0.278136 0.458419
O O14 0.601267 0.500000 0.444682
O O15 0.615116 0.317581 0.550574
O O16 0.231900 0.803212 0.098200
O O17 0.078070 0.761511 0.081165
O O18 0.124265 0.000000 0.140814
O O19 0.666318 0.500000 0.647483
O O20 0.000000 0.500000 0.537660
#
# Coordination Sequence:
#
# PCOD8179746 Si02
#       8
#     8   8   8   4   8   8   8   4
#     4  11  23  38  58  86 121 157 194 246 307 356
#     4  11  23  39  61  88 116 156 207 250 293 352
#     4  10  21  40  63  86 116 154 195 238 291 349
#     4  11  24  37  59  95 124 149 188 234 288 353
#     4  10  22  38  57  85 122 162 200 247 308 359
#     4   9  17  35  61  86 113 149 194 239 284 340
#     4  10  20  37  62  88 115 155 205 247 292 356
#     4   9  19  33  57  91 118 145 186 234 284 339
#
# _framework density 19.563503999999998
#
# number of rings (size 3 to 8) (size 9 to 14) (size 15 to 20)
#    0.000    1.857    1.429    2.357    2.000    6.571 
#    0.000    0.000    0.000    3.429    0.000    0.000 
#    0.000    0.000    0.000    0.000    0.000    0.000 
#
# Total GULP energy -347197.068681 kJ/mol
# GULP energy per Si atom -12399.895310 kJ/mol
# Density = 1.951898 g / cm^3
# Si number density = 19.563504 Si / 1000 Ang^3
#
#
#
# Elastic Constant Matrix: (Units=GPa)
#
#
# Indices 1 2 3 4 5 6 
#
# 1 106.6276 41.0160 46.7791 0.0000 0.0000 0.0000
# 2 41.0160 58.7388 33.9776 0.0000 0.0000 0.0000
# 3 46.7791 33.9776 98.9707 0.0000 0.0000 0.0000
# 4 0.0000 0.0000 0.0000 33.1652 0.0000 0.0000
# 5 0.0000 0.0000 0.0000 0.0000 40.3729 0.0000
# 6 0.0000 0.0000 0.0000 0.0000 0.0000 29.9889
#
#
#
# Elastic Compliance Matrix: (Units=1/GPa)
#
#
# Indices 1 2 3 4 5 6 
#
# 1 0.014028 -0.007437 -0.004077 0.000000 0.000000 0.000000
# 2 -0.007437 0.025186 -0.005131 0.000000 0.000000 0.000000
# 3 -0.004077 -0.005131 0.013793 0.000000 0.000000 0.000000
# 4 0.000000 0.000000 0.000000 0.030152 0.000000 0.000000
# 5 0.000000 0.000000 0.000000 0.000000 0.024769 0.000000
# 6 0.000000 0.000000 0.000000 0.000000 0.000000 0.033346
#
#
# Mechanical properties :
#
#
# Convention : Reuss Voigt Hill
#
# Bulk Modulus (GPa) = 50.72174 56.43140 53.57657
# Shear Modulus (GPa) = 27.60354 30.20971 28.90662
#
# Velocity S-wave (km/s) = 3.76036 3.93388 3.84810
# Velocity P-wave (km/s) = 6.69603 7.03859 6.86944
#
# Compressibility (1/GPa) = 0.01971541
#
# Stress axis : x y z
#
# Youngs Moduli (GPa) = 71.28664 39.70487 72.50162
#
# Poissons Ratio (x) = 0.29528 0.29560
# Poissons Ratio (y) = 0.53015 0.37204
# Poissons Ratio (z) = 0.29065 0.20374
#
# Static dielectric constant tensor:
#      x y z
#    x 3.752310 0.000000 0.000000 
#    y 0.000000 3.379210 0.000000 
#    z 0.000000 0.000000 3.724310 
# 
# 
# High freq. dielectric constant tensor:
#      x y z
#    x 1.775860 0.000000 0.000000 
#    y 0.000000 1.735030 0.000000 
#    z 0.000000 0.000000 1.769340 
# 
# From -- ./inp_files/21145.got.cif
#   From: 2010.03.12/outbox.cif.g09.slc.cpg/sg38_11_cif.got.tgz:21145.got - 2010.04.14 02:38:36.
