data_PCOD8179284
_publ_section_title
;
Structure prediction by ZEFSAII (Michael W. Deem and Ramdas Pophale) SiO2 
 PCOD8179284
Probable space group: A M M 2
;
_chemical_formula_sum "Si O2"
_cell_formula_units_Z 64
_cell_length_a 23.661934
_cell_length_b 9.122485
_cell_length_c 15.595609
_cell_angle_alpha 90.000000
_cell_angle_beta 90.000000
_cell_angle_gamma 90.000000
_cell_volume 3366.400130
_symmetry_space_group_name_H-M "A M M 2"
_symmetry_group_IT_number 38
_symmetry_cell_setting 'orthorhombic'
loop_
_space_group_symop_operation_xyz
x,y,z
-x,-y,z
-x,y,z
x,-y,z
x,1/2+y,1/2+z
-x,1/2-y,1/2+z
-x,1/2+y,1/2+z
x,1/2-y,1/2+z
loop_
_atom_site_type_symbol
_atom_site_label
_atom_site_fract_x
_atom_site_fract_y
_atom_site_fract_z
Si Si1 0.332337 0.173845 0.312610
Si Si2 0.739600 0.826009 0.474564
Si Si3 0.866935 0.674668 0.970642
Si Si4 0.435637 0.829842 0.882585
Si Si5 0.934844 0.171841 0.306605
Si Si6 0.562941 0.334267 0.056185
Si Si7 0.934836 0.828230 0.634717
Si Si8 0.323984 0.669709 0.144093
O O1 0.294933 0.231199 0.392287
O O2 0.395329 0.238503 0.320070
O O3 0.304494 0.235596 0.225581
O O4 0.334983 0.000000 0.308249
O O5 0.803188 0.763961 0.470687
O O6 0.709792 0.770666 0.561372
O O7 0.739977 0.000000 0.473228
O O8 0.868434 0.500000 0.970686
O O9 0.898609 0.733505 0.886078
O O10 0.898731 0.733407 0.055137
O O11 0.500000 0.801448 0.853424
O O12 0.419653 0.000000 0.876602
O O13 0.426530 0.778200 0.979762
O O14 0.913090 0.249883 0.220621
O O15 0.000000 0.210234 0.325089
O O16 0.925764 0.000000 0.294231
O O17 0.500000 0.314026 0.095408
O O18 0.570818 0.500000 0.019709
O O19 0.608859 0.306047 0.129871
O O20 0.000000 0.790127 0.616262
O O21 0.925616 0.000000 0.647277
O O22 0.309869 0.500000 0.161538
#
# Coordination Sequence:
#
# PCOD8179284 Si02
#       8
#     8   8   8   8   8   8   8   8
#     4  11  22  37  56  79 105 138 177 218 263 315
#     4   9  19  36  54  74 104 139 178 219 263 310
#     4   9  17  31  53  75  99 139 182 217 254 308
#     4  10  20  34  55  82 109 136 169 212 262 315
#     4   9  17  30  50  77 107 138 174 215 260 310
#     4   9  17  32  55  79 105 137 169 207 259 315
#     4   9  17  30  50  77 106 135 171 215 262 311
#     4  10  20  36  55  77 104 138 176 216 262 316
#
# _framework density 19.011406000000001
#
# number of rings (size 3 to 8) (size 9 to 14) (size 15 to 20)
#    0.000    2.500    1.250    1.125    0.000    4.250 
#    0.000    1.875    0.000    6.000    0.000    0.000 
#    0.000    0.000    0.000    0.000    0.000    0.000 
#
# Total GULP energy -396814.516024 kJ/mol
# GULP energy per Si atom -12400.453626 kJ/mol
# Density = 1.896814 g / cm^3
# Si number density = 19.011406 Si / 1000 Ang^3
#
#
#
# Elastic Constant Matrix: (Units=GPa)
#
#
# Indices 1 2 3 4 5 6 
#
# 1 117.3907 33.0693 81.3641 0.0000 0.0000 0.0000
# 2 33.0693 49.6322 46.9159 0.0000 0.0000 0.0000
# 3 81.3641 46.9159 172.1720 0.0000 0.0000 0.0000
# 4 0.0000 0.0000 0.0000 33.6630 0.0000 0.0000
# 5 0.0000 0.0000 0.0000 0.0000 16.0308 0.0000
# 6 0.0000 0.0000 0.0000 0.0000 0.0000 14.8178
#
#
#
# Elastic Compliance Matrix: (Units=1/GPa)
#
#
# Indices 1 2 3 4 5 6 
#
# 1 0.013207 -0.003906 -0.005177 0.000000 0.000000 0.000000
# 2 -0.003906 0.028294 -0.005864 0.000000 0.000000 0.000000
# 3 -0.005177 -0.005864 0.009853 0.000000 0.000000 0.000000
# 4 0.000000 0.000000 0.000000 0.029706 0.000000 0.000000
# 5 0.000000 0.000000 0.000000 0.000000 0.062380 0.000000
# 6 0.000000 0.000000 0.000000 0.000000 0.000000 0.067486
#
#
# Mechanical properties :
#
#
# Convention : Reuss Voigt Hill
#
# Bulk Modulus (GPa) = 46.59956 73.54371 60.07163
# Shear Modulus (GPa) = 20.16348 24.75870 22.46109
#
# Velocity S-wave (km/s) = 3.26022 3.61266 3.44096
# Velocity P-wave (km/s) = 6.22387 7.49465 6.88863
#
# Compressibility (1/GPa) = 0.02145943
#
# Stress axis : x y z
#
# Youngs Moduli (GPa) = 75.71688 35.34332 101.49662
#
# Poissons Ratio (x) = 0.13805 0.52544
# Poissons Ratio (y) = 0.29576 0.59518
# Poissons Ratio (z) = 0.39198 0.20725
#
# Static dielectric constant tensor:
#      x y z
#    x 3.636600 0.000000 0.000000 
#    y 0.000000 3.187500 0.000000 
#    z 0.000000 0.000000 3.519590 
# 
# 
# High freq. dielectric constant tensor:
#      x y z
#    x 1.738640 0.000000 0.000000 
#    y 0.000000 1.706480 0.000000 
#    z 0.000000 0.000000 1.741690 
# 
# From -- ./inp_files/15764.got.cif
#   From: 2010.03.12/outbox.cif.g09.slc.cpg/sg38_8_cif.got.tgz:15764.got - 2010.04.14 02:38:36.
