data_PCOD8179664
_publ_section_title
;
Structure prediction by ZEFSAII (Michael W. Deem and Ramdas Pophale) SiO2 
 PCOD8179664
Probable space group: A M M 2
;
_chemical_formula_sum "Si O2"
_cell_formula_units_Z 64
_cell_length_a 8.854575
_cell_length_b 15.143086
_cell_length_c 23.607181
_cell_angle_alpha 90.000000
_cell_angle_beta 90.000000
_cell_angle_gamma 90.000000
_cell_volume 3165.382810
_symmetry_space_group_name_H-M "A M M 2"
_symmetry_group_IT_number 38
_symmetry_cell_setting 'orthorhombic'
loop_
_space_group_symop_operation_xyz
x,y,z
-x,-y,z
-x,y,z
x,-y,z
x,1/2+y,1/2+z
-x,1/2-y,1/2+z
-x,1/2+y,1/2+z
x,1/2-y,1/2+z
loop_
_atom_site_type_symbol
_atom_site_label
_atom_site_fract_x
_atom_site_fract_y
_atom_site_fract_z
Si Si1 0.826374 0.600122 0.090130
Si Si2 0.675173 0.101465 0.340869
Si Si3 0.178072 0.744889 0.406726
Si Si4 0.677903 0.242470 0.026824
Si Si5 0.673694 0.147334 0.215335
Si Si6 0.827680 0.598645 0.318019
Si Si7 0.673094 0.645452 0.204519
Si Si8 0.827321 0.099174 0.104517
O O1 0.805500 0.500000 0.068522
O O2 0.729815 0.662732 0.049666
O O3 0.773574 0.605884 0.154776
O O4 0.000000 0.629737 0.086888
O O5 0.500000 0.127918 0.345810
O O6 0.769129 0.159950 0.384688
O O7 0.732608 0.119289 0.277188
O O8 0.702580 0.000000 0.357310
O O9 0.250497 0.722190 0.466538
O O10 0.232400 0.668304 0.364027
O O11 0.000000 0.745444 0.414299
O O12 0.500000 0.244279 0.021034
O O13 0.722483 0.165043 0.069675
O O14 0.500000 0.118329 0.207556
O O15 0.695910 0.250604 0.207119
O O16 0.775407 0.097353 0.169709
O O17 0.816174 0.500000 0.343862
O O18 0.724052 0.602513 0.262999
O O19 0.000000 0.621356 0.301122
O O20 0.500000 0.620039 0.193106
O O21 0.000000 0.131681 0.100732
O O22 0.811434 0.000000 0.080103
#
# Coordination Sequence:
#
# PCOD8179664 Si02
#       8
#     8   8   8   8   8   8   8   8
#     4  11  24  42  65  92 124 162 204 252 307 367
#     4  10  21  39  63  90 123 162 202 247 300 360
#     4  11  24  42  64  88 119 159 204 257 306 358
#     4  12  26  44  66  90 120 160 207 258 307 364
#     4  10  20  36  61  92 127 165 203 247 303 363
#     4  10  22  40  62  89 122 162 204 247 300 360
#     4  11  21  35  61  95 128 162 200 247 303 362
#     4  11  24  41  64  94 127 163 204 251 304 364
#
# _framework density 20.218723000000001
#
# number of rings (size 3 to 8) (size 9 to 14) (size 15 to 20)
#    0.000    1.250    2.500    3.375    0.000    7.000 
#    0.000    1.250    0.000    0.000    0.000    0.000 
#    0.000    0.000    0.000    0.000    0.000    0.000 
#
# Total GULP energy -396998.539386 kJ/mol
# GULP energy per Si atom -12406.204356 kJ/mol
# Density = 2.017270 g / cm^3
# Si number density = 20.218723 Si / 1000 Ang^3
#
#
#
# Elastic Constant Matrix: (Units=GPa)
#
#
# Indices 1 2 3 4 5 6 
#
# 1 76.4428 27.0537 20.6293 0.0000 0.0000 0.0000
# 2 27.0537 89.2171 17.4668 0.0000 0.0000 0.0000
# 3 20.6293 17.4668 82.0663 0.0000 0.0000 0.0000
# 4 0.0000 0.0000 0.0000 8.6705 0.0000 0.0000
# 5 0.0000 0.0000 0.0000 0.0000 35.5489 0.0000
# 6 0.0000 0.0000 0.0000 0.0000 0.0000 20.5219
#
#
#
# Elastic Compliance Matrix: (Units=1/GPa)
#
#
# Indices 1 2 3 4 5 6 
#
# 1 0.015326 -0.004062 -0.002988 0.000000 0.000000 0.000000
# 2 -0.004062 0.012773 -0.001697 0.000000 0.000000 0.000000
# 3 -0.002988 -0.001697 0.013298 0.000000 0.000000 0.000000
# 4 0.000000 0.000000 0.000000 0.115334 0.000000 0.000000
# 5 0.000000 0.000000 0.000000 0.000000 0.028130 0.000000
# 6 0.000000 0.000000 0.000000 0.000000 0.000000 0.048728
#
#
# Mechanical properties :
#
#
# Convention : Reuss Voigt Hill
#
# Bulk Modulus (GPa) = 41.83931 42.00285 41.92108
# Shear Modulus (GPa) = 19.30122 25.12002 22.21062
#
# Velocity S-wave (km/s) = 3.09305 3.52861 3.31798
# Velocity P-wave (km/s) = 5.78742 6.11726 5.95462
#
# Compressibility (1/GPa) = 0.02390097
#
# Stress axis : x y z
#
# Youngs Moduli (GPa) = 65.24999 78.29170 75.20151
#
# Poissons Ratio (x) = 0.31804 0.22469
# Poissons Ratio (y) = 0.26507 0.12764
# Poissons Ratio (z) = 0.19496 0.13289
#
# Static dielectric constant tensor:
#      x y z
#    x 3.694370 0.000000 0.000000 
#    y 0.000000 3.802640 0.000000 
#    z 0.000000 0.000000 3.633900 
# 
# 
# High freq. dielectric constant tensor:
#      x y z
#    x 1.793020 0.000000 0.000000 
#    y 0.000000 1.804040 0.000000 
#    z 0.000000 0.000000 1.784810 
# 
# From -- ./inp_files/22133.got.cif
#   From: 2010.03.12/outbox.cif.g09.slc.cpg/sg38_12_cif.got.tgz:22133.got - 2010.04.14 02:38:36.
