data_PCOD8179757
_publ_section_title
;
Structure prediction by ZEFSAII (Michael W. Deem and Ramdas Pophale) SiO2 
 PCOD8179757
Probable space group: A M M 2
;
_chemical_formula_sum "Si O2"
_cell_formula_units_Z 64
_cell_length_a 8.928373
_cell_length_b 30.155574
_cell_length_c 11.836091
_cell_angle_alpha 90.000000
_cell_angle_beta 90.000000
_cell_angle_gamma 90.000000
_cell_volume 3186.751658
_symmetry_space_group_name_H-M "A M M 2"
_symmetry_group_IT_number 38
_symmetry_cell_setting 'orthorhombic'
loop_
_space_group_symop_operation_xyz
x,y,z
-x,-y,z
-x,y,z
x,-y,z
x,1/2+y,1/2+z
-x,1/2-y,1/2+z
-x,1/2+y,1/2+z
x,1/2-y,1/2+z
loop_
_atom_site_type_symbol
_atom_site_label
_atom_site_fract_x
_atom_site_fract_y
_atom_site_fract_z
Si Si1 0.329776 0.450469 0.169460
Si Si2 0.671072 0.696378 0.724063
Si Si3 0.326002 0.703511 0.161407
Si Si4 0.326228 0.622373 0.544027
Si Si5 0.169370 0.071008 0.450697
Si Si6 0.173365 0.051363 0.198715
Si Si7 0.177161 0.873345 0.803313
Si Si8 0.168378 0.173749 0.447940
O O1 0.500000 0.432872 0.171317
O O2 0.319873 0.500000 0.220835
O O3 0.228124 0.418438 0.243656
O O4 0.274202 0.453306 0.040359
O O5 0.500000 0.690760 0.764109
O O6 0.710041 0.747124 0.700817
O O7 0.701373 0.667497 0.612854
O O8 0.779958 0.678929 0.820098
O O9 0.500000 0.691946 0.170822
O O10 0.235524 0.669818 0.238993
O O11 0.276171 0.700577 0.031298
O O12 0.500000 0.615786 0.514244
O O13 0.271874 0.579650 0.612857
O O14 0.233392 0.627186 0.430520
O O15 0.231270 0.060903 0.325584
O O16 0.174448 0.122564 0.480970
O O17 0.000000 0.052605 0.460506
O O18 0.000000 0.065725 0.188018
O O19 0.195588 0.000000 0.168048
O O20 0.000000 0.871964 0.801529
O O21 0.000000 0.192123 0.459774
#
# Coordination Sequence:
#
# PCOD8179757 Si02
#       8
#     8   8   8   8   8   8   8   8
#     4  11  24  41  64  94 125 162 208 256 307 366
#     4  10  24  43  65  92 124 167 209 252 309 370
#     4  11  24  43  66  92 126 166 211 257 310 371
#     4  11  24  43  65  90 123 163 207 257 308 366
#     4  10  20  37  62  93 129 165 202 249 306 365
#     4  10  21  39  63  91 125 165 206 251 307 367
#     4  12  26  44  65  91 123 163 208 257 315 371
#     4  11  22  38  65  98 129 162 205 255 308 366
#
# _framework density 20.083144000000001
#
# number of rings (size 3 to 8) (size 9 to 14) (size 15 to 20)
#    0.000    1.250    2.500    3.000    1.750    4.750 
#    0.000    0.000    0.000    0.000    0.000    0.000 
#    0.000    0.000    0.000    0.000    0.000    0.000 
#
# Total GULP energy -396985.659750 kJ/mol
# GULP energy per Si atom -12405.801867 kJ/mol
# Density = 2.003743 g / cm^3
# Si number density = 20.083144 Si / 1000 Ang^3
#
#
#
# Elastic Constant Matrix: (Units=GPa)
#
#
# Indices 1 2 3 4 5 6 
#
# 1 131.4451 58.8371 59.4999 0.0000 0.0000 0.0000
# 2 58.8371 106.1258 40.8224 0.0000 0.0000 0.0000
# 3 59.4999 40.8224 111.1075 0.0000 0.0000 0.0000
# 4 0.0000 0.0000 0.0000 21.0366 0.0000 0.0000
# 5 0.0000 0.0000 0.0000 0.0000 40.7119 0.0000
# 6 0.0000 0.0000 0.0000 0.0000 0.0000 17.1772
#
#
#
# Elastic Compliance Matrix: (Units=1/GPa)
#
#
# Indices 1 2 3 4 5 6 
#
# 1 0.011823 -0.004797 -0.004569 0.000000 0.000000 0.000000
# 2 -0.004797 0.012920 -0.002178 0.000000 0.000000 0.000000
# 3 -0.004569 -0.002178 0.012247 0.000000 0.000000 0.000000
# 4 0.000000 0.000000 0.000000 0.047536 0.000000 0.000000
# 5 0.000000 0.000000 0.000000 0.000000 0.024563 0.000000
# 6 0.000000 0.000000 0.000000 0.000000 0.000000 0.058217
#
#
# Mechanical properties :
#
#
# Convention : Reuss Voigt Hill
#
# Bulk Modulus (GPa) = 71.93138 74.11081 73.02110
# Shear Modulus (GPa) = 25.63716 28.41975 27.02845
#
# Velocity S-wave (km/s) = 3.57676 3.76587 3.67253
# Velocity P-wave (km/s) = 7.27682 7.47604 7.37710
#
# Compressibility (1/GPa) = 0.01390214
#
# Stress axis : x y z
#
# Youngs Moduli (GPa) = 84.57844 77.39739 81.65104
#
# Poissons Ratio (x) = 0.37131 0.37306
# Poissons Ratio (y) = 0.40576 0.17783
# Poissons Ratio (z) = 0.38643 0.16857
#
# Static dielectric constant tensor:
#      x y z
#    x 3.765170 0.000000 0.000000 
#    y 0.000000 3.695280 0.000000 
#    z 0.000000 0.000000 3.652740 
# 
# 
# High freq. dielectric constant tensor:
#      x y z
#    x 1.789870 0.000000 0.000000 
#    y 0.000000 1.793940 0.000000 
#    z 0.000000 0.000000 1.788100 
# 
# From -- ./inp_files/8588.got.cif
#   From: 2010.03.12/outbox.cif.g09.slc.cpg/sg38_5_cif.got.tgz:8588.got - 2010.04.14 02:38:36.
