data_PCOD8179605
_publ_section_title
;
Structure prediction by ZEFSAII (Michael W. Deem and Ramdas Pophale) SiO2 
 PCOD8179605
Probable space group: A M M 2
;
_chemical_formula_sum "Si O2"
_cell_formula_units_Z 64
_cell_length_a 9.003845
_cell_length_b 24.580268
_cell_length_c 15.236943
_cell_angle_alpha 90.000000
_cell_angle_beta 90.000000
_cell_angle_gamma 90.000000
_cell_volume 3372.193343
_symmetry_space_group_name_H-M "A M M 2"
_symmetry_group_IT_number 38
_symmetry_cell_setting 'orthorhombic'
loop_
_space_group_symop_operation_xyz
x,y,z
-x,-y,z
-x,y,z
x,-y,z
x,1/2+y,1/2+z
-x,1/2-y,1/2+z
-x,1/2+y,1/2+z
x,1/2-y,1/2+z
loop_
_atom_site_type_symbol
_atom_site_label
_atom_site_fract_x
_atom_site_fract_y
_atom_site_fract_z
Si Si1 0.323463 0.839143 0.586230
Si Si2 0.670893 0.562635 0.397161
Si Si3 0.173007 0.637279 0.912060
Si Si4 0.673722 0.720084 0.623233
Si Si5 0.825895 0.357769 0.266760
Si Si6 0.325169 0.603305 0.580974
Si Si7 0.326950 0.436442 0.767961
Si Si8 0.830196 0.263420 0.797404
O O1 0.500000 0.845050 0.585383
O O2 0.256435 0.871578 0.504094
O O3 0.268222 0.776063 0.580045
O O4 0.260598 0.864853 0.675372
O O5 0.500000 0.582679 0.390537
O O6 0.684513 0.500000 0.371674
O O7 0.772858 0.595311 0.330804
O O8 0.734117 0.571351 0.495847
O O9 0.236329 0.595566 0.841372
O O10 0.200548 0.700081 0.883077
O O11 0.000000 0.624978 0.925034
O O12 0.500000 0.724527 0.634063
O O13 0.719299 0.666902 0.567514
O O14 0.734828 0.710737 0.720199
O O15 0.787259 0.299740 0.312523
O O16 0.000000 0.363885 0.248503
O O17 0.500000 0.595354 0.586421
O O18 0.260767 0.578988 0.671766
O O19 0.500000 0.420337 0.775168
O O20 0.302705 0.500000 0.784263
O O21 0.000000 0.267818 0.767555
#
# Coordination Sequence:
#
# PCOD8179605 Si02
#       8
#     8   8   8   8   8   8   8   8
#     4  10  21  36  57  85 114 146 187 239 287 334
#     4  10  21  37  58  84 114 149 191 238 284 333
#     4  11  22  36  55  82 117 155 189 229 282 339
#     4   9  17  31  53  82 112 144 184 226 272 324
#     4  10  21  39  59  81 112 150 190 235 286 339
#     4   9  17  32  55  84 115 148 185 226 276 331
#     4  10  20  36  59  84 113 151 193 237 280 327
#     4   9  19  34  52  78 112 149 184 221 274 334
#
# _framework density 18.978746000000001
#
# number of rings (size 3 to 8) (size 9 to 14) (size 15 to 20)
#    0.000    2.250    1.250    1.500    1.750    3.500 
#    0.000    1.875    0.000    5.250    0.000    0.000 
#    0.000    0.000    0.000    0.000    0.000    0.000 
#
# Total GULP energy -396747.809493 kJ/mol
# GULP energy per Si atom -12398.369047 kJ/mol
# Density = 1.893555 g / cm^3
# Si number density = 18.978746 Si / 1000 Ang^3
#
#
#
# Elastic Constant Matrix: (Units=GPa)
#
#
# Indices 1 2 3 4 5 6 
#
# 1 51.4931 37.6763 37.7236 0.0000 0.0000 0.0000
# 2 37.6763 78.5225 57.7013 0.0000 0.0000 0.0000
# 3 37.7236 57.7013 122.5973 0.0000 0.0000 0.0000
# 4 0.0000 0.0000 0.0000 28.6666 0.0000 0.0000
# 5 0.0000 0.0000 0.0000 0.0000 16.8392 0.0000
# 6 0.0000 0.0000 0.0000 0.0000 0.0000 24.5902
#
#
#
# Elastic Compliance Matrix: (Units=1/GPa)
#
#
# Indices 1 2 3 4 5 6 
#
# 1 0.031095 -0.012060 -0.003892 0.000000 0.000000 0.000000
# 2 -0.012060 0.024146 -0.007654 0.000000 0.000000 0.000000
# 3 -0.003892 -0.007654 0.012957 0.000000 0.000000 0.000000
# 4 0.000000 0.000000 0.000000 0.034884 0.000000 0.000000
# 5 0.000000 0.000000 0.000000 0.000000 0.059385 0.000000
# 6 0.000000 0.000000 0.000000 0.000000 0.000000 0.040667
#
#
# Mechanical properties :
#
#
# Convention : Reuss Voigt Hill
#
# Bulk Modulus (GPa) = 47.64922 57.64612 52.64767
# Shear Modulus (GPa) = 19.42951 21.98663 20.70807
#
# Velocity S-wave (km/s) = 3.20308 3.40735 3.30679
# Velocity P-wave (km/s) = 6.23224 6.77643 6.51002
#
# Compressibility (1/GPa) = 0.02098670
#
# Stress axis : x y z
#
# Youngs Moduli (GPa) = 32.15907 41.41489 77.18095
#
# Poissons Ratio (x) = 0.49947 0.30039
# Poissons Ratio (y) = 0.38784 0.59071
# Poissons Ratio (z) = 0.12516 0.31697
#
# Static dielectric constant tensor:
#      x y z
#    x 3.328720 0.000000 0.000000 
#    y 0.000000 3.554320 0.000000 
#    z 0.000000 0.000000 3.459050 
# 
# 
# High freq. dielectric constant tensor:
#      x y z
#    x 1.723790 0.000000 0.000000 
#    y 0.000000 1.734280 0.000000 
#    z 0.000000 0.000000 1.734060 
# 
# From -- ./inp_files/12774.got.cif
#   From: 2010.03.12/outbox.cif.g09.slc.cpg/sg38_7_cif.got.tgz:12774.got - 2010.04.14 02:38:36.
