data_PCOD8179881
_publ_section_title
;
Structure prediction by ZEFSAII (Michael W. Deem and Ramdas Pophale) SiO2 
 PCOD8179881
Probable space group: A M M 2
;
_chemical_formula_sum "Si O2"
_cell_formula_units_Z 64
_cell_length_a 23.906660
_cell_length_b 8.702196
_cell_length_c 15.356325
_cell_angle_alpha 90.000000
_cell_angle_beta 90.000000
_cell_angle_gamma 90.000000
_cell_volume 3194.736626
_symmetry_space_group_name_H-M "A M M 2"
_symmetry_group_IT_number 38
_symmetry_cell_setting 'orthorhombic'
loop_
_space_group_symop_operation_xyz
x,y,z
-x,-y,z
-x,y,z
x,-y,z
x,1/2+y,1/2+z
-x,1/2-y,1/2+z
-x,1/2+y,1/2+z
x,1/2-y,1/2+z
loop_
_atom_site_type_symbol
_atom_site_label
_atom_site_fract_x
_atom_site_fract_y
_atom_site_fract_z
Si Si1 0.866823 0.181760 0.170040
Si Si2 0.628388 0.680479 0.593828
Si Si3 0.063121 0.817786 0.519944
Si Si4 0.617543 0.818976 0.417989
Si Si5 0.735498 0.682372 0.855066
Si Si6 0.141984 0.682530 0.868347
Si Si7 0.434863 0.676827 0.252308
Si Si8 0.256689 0.681701 0.662645
O O1 0.913627 0.262508 0.112431
O O2 0.873980 0.236284 0.270466
O O3 0.805497 0.234866 0.133926
O O4 0.874214 0.000000 0.162676
O O5 0.623148 0.500000 0.577280
O O6 0.598673 0.770863 0.514953
O O7 0.598536 0.720078 0.683935
O O8 0.693822 0.734235 0.597961
O O9 0.099077 0.748474 0.439370
O O10 0.000000 0.756827 0.509594
O O11 0.065049 0.000000 0.518268
O O12 0.681845 0.760255 0.408852
O O13 0.578227 0.734169 0.349362
O O14 0.610988 0.000000 0.404527
O O15 0.735765 0.500000 0.852474
O O16 0.795151 0.739918 0.893730
O O17 0.729519 0.749956 0.757820
O O18 0.139865 0.500000 0.870588
O O19 0.500000 0.698964 0.234214
O O20 0.416888 0.500000 0.242502
O O21 0.256761 0.500000 0.671334
#
# Coordination Sequence:
#
# PCOD8179881 Si02
#       8
#     8   8   8   8   8   8   8   8
#     4   9  18  34  57  81 106 141 187 234 278 333
#     4  11  22  38  61  90 124 158 192 238 295 351
#     4  10  21  35  51  76 111 148 187 232 283 339
#     4  11  22  37  61  92 122 155 195 239 291 352
#     4   8  14  29  54  82 111 144 182 228 282 338
#     4   8  16  32  54  77 106 144 185 227 274 334
#     4  11  25  45  65  86 117 157 202 247 289 344
#     4   8  15  31  55  83 115 146 179 228 289 343
#
# _framework density 20.03295
#
# number of rings (size 3 to 8) (size 9 to 14) (size 15 to 20)
#    0.000    2.500    1.250    2.625    1.750    2.250 
#    0.000    2.500    0.000    0.000    0.000    0.000 
#    0.000    0.000    0.000    0.000    0.000    0.000 
#
# Total GULP energy -396639.666022 kJ/mol
# GULP energy per Si atom -12394.989563 kJ/mol
# Density = 1.998735 g / cm^3
# Si number density = 20.032950 Si / 1000 Ang^3
#
#
#
# Elastic Constant Matrix: (Units=GPa)
#
#
# Indices 1 2 3 4 5 6 
#
# 1 86.4151 26.6393 24.5087 0.0000 0.0000 0.0000
# 2 26.6393 30.6724 10.7722 0.0000 0.0000 0.0000
# 3 24.5087 10.7722 79.5966 0.0000 0.0000 0.0000
# 4 0.0000 0.0000 0.0000 29.5463 0.0000 0.0000
# 5 0.0000 0.0000 0.0000 0.0000 27.7400 0.0000
# 6 0.0000 0.0000 0.0000 0.0000 0.0000 23.3212
#
#
#
# Elastic Compliance Matrix: (Units=1/GPa)
#
#
# Indices 1 2 3 4 5 6 
#
# 1 0.016598 -0.013250 -0.003317 0.000000 0.000000 0.000000
# 2 -0.013250 0.044807 -0.001984 0.000000 0.000000 0.000000
# 3 -0.003317 -0.001984 0.013853 0.000000 0.000000 0.000000
# 4 0.000000 0.000000 0.000000 0.033845 0.000000 0.000000
# 5 0.000000 0.000000 0.000000 0.000000 0.036049 0.000000
# 6 0.000000 0.000000 0.000000 0.000000 0.000000 0.042879
#
#
# Mechanical properties :
#
#
# Convention : Reuss Voigt Hill
#
# Bulk Modulus (GPa) = 26.20893 35.61383 30.91138
# Shear Modulus (GPa) = 21.02138 25.10576 23.06357
#
# Velocity S-wave (km/s) = 3.24287 3.54393 3.39674
# Velocity P-wave (km/s) = 5.20892 5.87896 5.55405
#
# Compressibility (1/GPa) = 0.03815494
#
# Stress axis : x y z
#
# Youngs Moduli (GPa) = 60.24996 22.31785 72.18481
#
# Poissons Ratio (x) = 0.29571 0.23946
# Poissons Ratio (y) = 0.79831 0.14322
# Poissons Ratio (z) = 0.19987 0.04428
#
# Static dielectric constant tensor:
#      x y z
#    x 3.955400 0.000000 0.000000 
#    y 0.000000 3.179790 0.000000 
#    z 0.000000 0.000000 3.650280 
# 
# 
# High freq. dielectric constant tensor:
#      x y z
#    x 1.785070 0.000000 0.000000 
#    y 0.000000 1.742470 0.000000 
#    z 0.000000 0.000000 1.785010 
# 
# From -- ./inp_files/15856.got.cif
#   From: 2010.03.12/outbox.cif.g09.slc.cpg/sg38_8_cif.got.tgz:15856.got - 2010.04.14 02:38:36.
