data_PCOD8179863
_publ_section_title
;
Structure prediction by ZEFSAII (Michael W. Deem and Ramdas Pophale) SiO2 
 PCOD8179863
Probable space group: A M M 2
;
_chemical_formula_sum "Si O2"
_cell_formula_units_Z 48
_cell_length_a 9.459010
_cell_length_b 9.324302
_cell_length_c 31.465790
_cell_angle_alpha 90.000000
_cell_angle_beta 90.000000
_cell_angle_gamma 90.000000
_cell_volume 2775.240698
_symmetry_space_group_name_H-M "A M M 2"
_symmetry_group_IT_number 38
_symmetry_cell_setting 'orthorhombic'
loop_
_space_group_symop_operation_xyz
x,y,z
-x,-y,z
-x,y,z
x,-y,z
x,1/2+y,1/2+z
-x,1/2-y,1/2+z
-x,1/2+y,1/2+z
x,1/2-y,1/2+z
loop_
_atom_site_type_symbol
_atom_site_label
_atom_site_fract_x
_atom_site_fract_y
_atom_site_fract_z
Si Si1 0.832127 0.163468 0.364600
Si Si2 0.665817 0.333969 0.619144
Si Si3 0.164502 0.169844 0.547854
Si Si4 0.664153 0.834342 0.702629
Si Si5 0.836226 0.667021 0.284279
Si Si6 0.167531 0.158978 0.455730
O O1 0.770207 0.255182 0.325664
O O2 0.783641 0.231281 0.410775
O O3 0.000000 0.169412 0.362030
O O4 0.778928 0.000000 0.360327
O O5 0.500000 0.313091 0.611863
O O6 0.709057 0.500000 0.620792
O O7 0.744368 0.257024 0.580978
O O8 0.713813 0.260399 0.662931
O O9 0.212190 0.229809 0.500800
O O10 0.000000 0.201421 0.556295
O O11 0.194530 0.000000 0.551544
O O12 0.500000 0.811375 0.712856
O O13 0.751736 0.779586 0.743105
O O14 0.697954 0.000000 0.692174
O O15 0.813099 0.500000 0.291903
O O16 0.000000 0.705528 0.277139
O O17 0.000000 0.147990 0.456103
O O18 0.231902 0.000000 0.455009
#
# Coordination Sequence:
#
# PCOD8179863 Si02
#       6
#     8   8   8   8   8   8
#     4   8  13  23  41  64  90 119 147 175 213 262
#     4  10  21  35  49  67  93 123 154 190 234 282
#     4   9  17  30  50  74  96 120 154 194 232 270
#     4   9  18  33  50  64  82 115 155 187 221 272
#     4   9  17  28  43  66  92 113 140 183 226 260
#     4   7  11  22  41  65  91 117 146 180 216 257
#
# _framework density 17.295797
#
# number of rings (size 3 to 8) (size 9 to 14) (size 15 to 20)
#    0.000    3.333    0.000    2.500    0.000    2.667 
#    0.000    2.500    0.000    4.000    0.000    4.667 
#    0.000    0.000    0.000    0.000    0.000    0.000 
#
# Total GULP energy -297316.341149 kJ/mol
# GULP energy per Si atom -12388.180881 kJ/mol
# Density = 1.725643 g / cm^3
# Si number density = 17.295797 Si / 1000 Ang^3
#
#
#
# Elastic Constant Matrix: (Units=GPa)
#
#
# Indices 1 2 3 4 5 6 
#
# 1 30.7247 27.4609 54.8290 0.0000 0.0000 0.0000
# 2 27.4609 65.7775 78.0633 0.0000 0.0000 0.0000
# 3 54.8290 78.0633 216.3318 0.0000 0.0000 0.0000
# 4 0.0000 0.0000 0.0000 29.8690 0.0000 0.0000
# 5 0.0000 0.0000 0.0000 0.0000 -5.9182 0.0000
# 6 0.0000 0.0000 0.0000 0.0000 0.0000 17.9238
#
#
#
# Elastic Compliance Matrix: (Units=1/GPa)
#
#
# Indices 1 2 3 4 5 6 
#
# 1 0.065523 -0.013373 -0.011781 0.000000 0.000000 0.000000
# 2 -0.013373 0.029319 -0.007190 0.000000 0.000000 0.000000
# 3 -0.011781 -0.007190 0.010203 0.000000 0.000000 0.000000
# 4 0.000000 0.000000 0.000000 0.033480 0.000000 0.000000
# 5 0.000000 0.000000 0.000000 0.000000 -0.168970 0.000000
# 6 0.000000 0.000000 0.000000 0.000000 0.000000 0.055792
#
#
# Mechanical properties :
#
#
# Convention : Reuss Voigt Hill
#
# Bulk Modulus (GPa) = 24.77933 70.39337 47.58635
# Shear Modulus (GPa) = 48.31446 18.54031 33.42738
#
# Velocity S-wave (km/s) = 5.29102 3.27762 4.40100
# Velocity P-wave (km/s) = 7.18918 7.42373 7.30740
#
# Compressibility (1/GPa) = 0.04035622
#
# Stress axis : x y z
#
# Youngs Moduli (GPa) = 15.26176 34.10720 98.00951
#
# Poissons Ratio (x) = 0.45612 1.15465
# Poissons Ratio (y) = 0.20410 0.70473
# Poissons Ratio (z) = 0.17980 0.24525
#
# Static dielectric constant tensor:
#      x y z
#    x 2.859610 0.000000 0.000000 
#    y 0.000000 3.076230 0.000000 
#    z 0.000000 0.000000 3.779060 
# 
# 
# High freq. dielectric constant tensor:
#      x y z
#    x 1.624160 0.000000 0.000000 
#    y 0.000000 1.642470 0.000000 
#    z 0.000000 0.000000 1.694000 
# 
# From -- ./inp_files/23676.got.cif
#   From: 2010.03.12/outbox.cif.g09.slc.cpg/sg38_12_cif.got.tgz:23676.got - 2010.04.14 02:38:36.
