data_PCOD8179628
_publ_section_title
;
Structure prediction by ZEFSAII (Michael W. Deem and Ramdas Pophale) SiO2 
 PCOD8179628
Probable space group: A M M 2
;
_chemical_formula_sum "Si O2"
_cell_formula_units_Z 64
_cell_length_a 8.998556
_cell_length_b 23.673807
_cell_length_c 15.297416
_cell_angle_alpha 90.000000
_cell_angle_beta 90.000000
_cell_angle_gamma 90.000000
_cell_volume 3258.809724
_symmetry_space_group_name_H-M "A M M 2"
_symmetry_group_IT_number 38
_symmetry_cell_setting 'orthorhombic'
loop_
_space_group_symop_operation_xyz
x,y,z
-x,-y,z
-x,y,z
x,-y,z
x,1/2+y,1/2+z
-x,1/2-y,1/2+z
-x,1/2+y,1/2+z
x,1/2-y,1/2+z
loop_
_atom_site_type_symbol
_atom_site_label
_atom_site_fract_x
_atom_site_fract_y
_atom_site_fract_z
Si Si1 0.669859 0.625942 0.601850
Si Si2 0.328424 0.867400 0.595023
Si Si3 0.330471 0.752854 0.170056
Si Si4 0.172351 0.240993 0.849576
Si Si5 0.826754 0.636342 0.917647
Si Si6 0.175707 0.063701 0.254951
Si Si7 0.173835 0.434455 0.249635
Si Si8 0.673224 0.128635 0.903046
O O1 0.500000 0.614180 0.626883
O O2 0.707908 0.691965 0.613703
O O3 0.769603 0.587132 0.662744
O O4 0.702049 0.608934 0.502032
O O5 0.500000 0.884805 0.596718
O O6 0.305452 0.800636 0.607685
O O7 0.259861 0.885315 0.502511
O O8 0.246260 0.900301 0.671347
O O9 0.500000 0.753996 0.205430
O O10 0.216944 0.750319 0.249638
O O11 0.203921 0.297701 0.903339
O O12 0.269406 0.192093 0.891982
O O13 0.000000 0.224014 0.852468
O O14 0.763541 0.601738 0.834645
O O15 0.000000 0.623694 0.931537
O O16 0.000000 0.066244 0.253060
O O17 0.233660 0.000000 0.267948
O O18 0.208510 0.500000 0.236226
O O19 0.241625 0.414867 0.341368
O O20 0.000000 0.421469 0.250811
O O21 0.500000 0.128009 0.878778
#
# Coordination Sequence:
#
# PCOD8179628 Si02
#       8
#     8   8   8   8   8   8   8   8
#     4  10  22  39  61  89 122 158 197 242 297 358
#     4  11  23  39  63  93 122 157 198 244 301 362
#     4  10  20  36  59  88 122 158 191 238 302 359
#     4  11  21  35  60  91 122 159 199 243 295 355
#     4  10  22  39  59  89 124 160 200 244 298 357
#     4  10  22  41  62  84 116 158 203 251 300 348
#     4  11  25  44  64  87 118 158 204 253 303 357
#     4  11  23  40  62  90 123 159 198 245 303 362
#
# _framework density 19.639073
#
# number of rings (size 3 to 8) (size 9 to 14) (size 15 to 20)
#    0.000    1.500    2.500    2.250    0.000    6.250 
#    0.000    3.750    0.000    0.000    0.000    0.000 
#    0.000    0.000    0.000    0.000    0.000    0.000 
#
# Total GULP energy -396961.775472 kJ/mol
# GULP energy per Si atom -12405.055484 kJ/mol
# Density = 1.959437 g / cm^3
# Si number density = 19.639073 Si / 1000 Ang^3
#
#
#
# Elastic Constant Matrix: (Units=GPa)
#
#
# Indices 1 2 3 4 5 6 
#
# 1 75.5403 46.2943 45.7467 0.0000 0.0000 0.0000
# 2 46.2943 79.1041 32.0925 0.0000 0.0000 0.0000
# 3 45.7467 32.0925 116.1050 0.0000 0.0000 0.0000
# 4 0.0000 0.0000 0.0000 5.7265 0.0000 0.0000
# 5 0.0000 0.0000 0.0000 0.0000 38.7621 0.0000
# 6 0.0000 0.0000 0.0000 0.0000 0.0000 23.7262
#
#
#
# Elastic Compliance Matrix: (Units=1/GPa)
#
#
# Indices 1 2 3 4 5 6 
#
# 1 0.024158 -0.011574 -0.006319 0.000000 0.000000 0.000000
# 2 -0.011574 0.019784 -0.000908 0.000000 0.000000 0.000000
# 3 -0.006319 -0.000908 0.011354 0.000000 0.000000 0.000000
# 4 0.000000 0.000000 0.000000 0.174626 0.000000 0.000000
# 5 0.000000 0.000000 0.000000 0.000000 0.025798 0.000000
# 6 0.000000 0.000000 0.000000 0.000000 0.000000 0.042147
#
#
# Mechanical properties :
#
#
# Convention : Reuss Voigt Hill
#
# Bulk Modulus (GPa) = 56.52198 57.66849 57.09524
# Shear Modulus (GPa) = 14.64695 23.41736 19.03216
#
# Velocity S-wave (km/s) = 2.73391 3.45684 3.11641
# Velocity P-wave (km/s) = 6.22965 6.73505 6.48727
#
# Compressibility (1/GPa) = 0.01769223
#
# Stress axis : x y z
#
# Youngs Moduli (GPa) = 41.39388 50.54683 88.07668
#
# Poissons Ratio (x) = 0.58505 0.55659
# Poissons Ratio (y) = 0.47911 0.07997
# Poissons Ratio (z) = 0.26158 0.04589
#
# Static dielectric constant tensor:
#      x y z
#    x 3.606140 0.000000 0.000000 
#    y 0.000000 3.688820 0.000000 
#    z 0.000000 0.000000 3.585850 
# 
# 
# High freq. dielectric constant tensor:
#      x y z
#    x 1.767880 0.000000 0.000000 
#    y 0.000000 1.766100 0.000000 
#    z 0.000000 0.000000 1.773630 
# 
# From -- ./inp_files/12755.got.cif
#   From: 2010.03.12/outbox.cif.g09.slc.cpg/sg38_7_cif.got.tgz:12755.got - 2010.04.14 02:38:36.
