data_PCOD8179578
_publ_section_title
;
Structure prediction by ZEFSAII (Michael W. Deem and Ramdas Pophale) SiO2 
 PCOD8179578
Probable space group: A M M 2
;
_chemical_formula_sum "Si O2"
_cell_formula_units_Z 48
_cell_length_a 9.125425
_cell_length_b 7.776060
_cell_length_c 33.861799
_cell_angle_alpha 90.000000
_cell_angle_beta 90.000000
_cell_angle_gamma 90.000000
_cell_volume 2402.828257
_symmetry_space_group_name_H-M "A M M 2"
_symmetry_group_IT_number 38
_symmetry_cell_setting 'orthorhombic'
loop_
_space_group_symop_operation_xyz
x,y,z
-x,-y,z
-x,y,z
x,-y,z
x,1/2+y,1/2+z
-x,1/2-y,1/2+z
-x,1/2+y,1/2+z
x,1/2-y,1/2+z
loop_
_atom_site_type_symbol
_atom_site_label
_atom_site_fract_x
_atom_site_fract_y
_atom_site_fract_z
Si Si1 0.669396 0.500000 0.958851
Si Si2 0.173139 0.700384 0.413474
Si Si3 0.332041 0.500000 0.052084
Si Si4 0.334303 0.196008 0.250447
Si Si5 0.161191 0.805911 0.677325
Si Si6 0.335142 0.701907 0.334629
Si Si7 0.828010 0.192681 0.094427
O O1 0.500000 0.500000 0.945088
O O2 0.747858 0.674536 0.944350
O O3 0.683002 0.500000 0.005462
O O4 0.212857 0.500000 0.422548
O O5 0.229377 0.756116 0.370237
O O6 0.000000 0.729912 0.415565
O O7 0.500000 0.500000 0.065928
O O8 0.257878 0.673303 0.067662
O O9 0.500000 0.263601 0.252484
O O10 0.255270 0.303504 0.216885
O O11 0.266676 0.221485 0.294185
O O12 0.323317 0.000000 0.237376
O O13 0.226220 0.700548 0.640177
O O14 0.000000 0.734775 0.688147
O O15 0.153513 0.000000 0.662016
O O16 0.500000 0.774160 0.342421
O O17 0.340163 0.500000 0.329888
O O18 0.000000 0.237813 0.092675
O O19 0.797107 0.000000 0.078509
#
# Coordination Sequence:
#
# PCOD8179578 Si02
#       7
#     4   8   4   8   8   8   8
#     4  11  25  43  65  91 123 163 205 247 303 373
#     4  10  22  40  63  93 125 157 200 253 307 363
#     4  11  25  43  63  93 127 159 199 253 309 367
#     4  10  21  34  50  79 117 155 198 246 294 349
#     4  10  20  36  58  82 112 153 201 249 298 353
#     4   9  18  34  55  79 112 156 201 244 298 359
#     4  10  21  40  66  91 120 161 205 249 303 368
#
# _framework density 19.976458000000001
#
# number of rings (size 3 to 8) (size 9 to 14) (size 15 to 20)
#    0.000    2.000    0.833    2.000    1.167    6.667 
#    0.000    5.000    0.000    0.000    0.000    0.000 
#    0.000    0.000    0.000    0.000    0.000    0.000 
#
# Total GULP energy -297570.933523 kJ/mol
# GULP energy per Si atom -12398.788897 kJ/mol
# Density = 1.993099 g / cm^3
# Si number density = 19.976458 Si / 1000 Ang^3
#
#
#
# Elastic Constant Matrix: (Units=GPa)
#
#
# Indices 1 2 3 4 5 6 
#
# 1 97.4734 51.7163 58.7234 0.0000 0.0000 0.0000
# 2 51.7163 102.8814 51.0287 0.0000 0.0000 0.0000
# 3 58.7234 51.0287 110.1737 0.0000 0.0000 0.0000
# 4 0.0000 0.0000 0.0000 22.3875 0.0000 0.0000
# 5 0.0000 0.0000 0.0000 0.0000 -29.5286 0.0000
# 6 0.0000 0.0000 0.0000 0.0000 0.0000 39.1199
#
#
#
# Elastic Compliance Matrix: (Units=1/GPa)
#
#
# Indices 1 2 3 4 5 6 
#
# 1 0.017068 -0.005281 -0.006652 0.000000 0.000000 0.000000
# 2 -0.005281 0.014253 -0.003787 0.000000 0.000000 0.000000
# 3 -0.006652 -0.003787 0.014376 0.000000 0.000000 0.000000
# 4 0.000000 0.000000 0.000000 0.044668 0.000000 0.000000
# 5 0.000000 0.000000 0.000000 0.000000 -0.033865 0.000000
# 6 0.000000 0.000000 0.000000 0.000000 0.000000 0.025562
#
#
# Mechanical properties :
#
#
# Convention : Reuss Voigt Hill
#
# Bulk Modulus (GPa) = 70.13293 70.38503 70.25898
# Shear Modulus (GPa) = 42.28237 16.33309 29.30773
#
# Velocity S-wave (km/s) = 4.60565 2.86250 3.83445
# Velocity P-wave (km/s) = 7.96660 6.79968 7.40616
#
# Compressibility (1/GPa) = 0.01425864
#
# Stress axis : x y z
#
# Youngs Moduli (GPa) = 58.58805 70.16263 69.56110
#
# Poissons Ratio (x) = 0.37051 0.46270
# Poissons Ratio (y) = 0.30938 0.26341
# Poissons Ratio (z) = 0.38971 0.26568
#
# Static dielectric constant tensor:
#      x y z
#    x 3.777060 0.000000 0.000000 
#    y 0.000000 3.688780 0.000000 
#    z 0.000000 0.000000 3.566180 
# 
# 
# High freq. dielectric constant tensor:
#      x y z
#    x 1.767900 0.000000 0.000000 
#    y 0.000000 1.789030 0.000000 
#    z 0.000000 0.000000 1.779770 
# 
# From -- ./inp_files/24387.got.cif
#   From: 2010.03.12/outbox.cif.g09.slc.cpg/sg38_13_cif.got.tgz:24387.got - 2010.04.14 02:38:36.
