data_PCOD8179653
_publ_section_title
;
Structure prediction by ZEFSAII (Michael W. Deem and Ramdas Pophale) SiO2 
 PCOD8179653
Probable space group: A M M 2
;
_chemical_formula_sum "Si O2"
_cell_formula_units_Z 64
_cell_length_a 23.584546
_cell_length_b 8.763277
_cell_length_c 15.275521
_cell_angle_alpha 90.000000
_cell_angle_beta 90.000000
_cell_angle_gamma 90.000000
_cell_volume 3157.112747
_symmetry_space_group_name_H-M "A M M 2"
_symmetry_group_IT_number 38
_symmetry_cell_setting 'orthorhombic'
loop_
_space_group_symop_operation_xyz
x,y,z
-x,-y,z
-x,y,z
x,-y,z
x,1/2+y,1/2+z
-x,1/2-y,1/2+z
-x,1/2+y,1/2+z
x,1/2-y,1/2+z
loop_
_atom_site_type_symbol
_atom_site_label
_atom_site_fract_x
_atom_site_fract_y
_atom_site_fract_z
Si Si1 0.738465 0.323623 0.765630
Si Si2 0.434236 0.823946 0.365510
Si Si3 0.745298 0.176594 0.470964
Si Si4 0.854368 0.822688 0.720630
Si Si5 0.376110 0.679961 0.204250
Si Si6 0.869627 0.675676 0.024017
Si Si7 0.063313 0.180367 0.872646
Si Si8 0.633034 0.179507 0.024336
O O1 0.727027 0.500000 0.743785
O O2 0.741460 0.293463 0.868353
O O3 0.796768 0.272556 0.721516
O O4 0.688074 0.223909 0.726781
O O5 0.500000 0.803653 0.387321
O O6 0.420334 0.742680 0.274670
O O7 0.398027 0.748940 0.441355
O O8 0.416307 0.000000 0.358034
O O9 0.806137 0.233118 0.504451
O O10 0.699353 0.278243 0.521195
O O11 0.734681 0.000000 0.494881
O O12 0.883886 0.800246 0.626236
O O13 0.896792 0.757097 0.794548
O O14 0.839836 0.000000 0.737051
O O15 0.381638 0.500000 0.199094
O O16 0.394459 0.751349 0.111671
O O17 0.875172 0.500000 0.995954
O O18 0.913970 0.770748 0.967313
O O19 0.000000 0.246839 0.859905
O O20 0.061844 0.000000 0.868291
O O21 0.624903 0.000000 0.024027
#
# Coordination Sequence:
#
# PCOD8179653 Si02
#       8
#     8   8   8   8   8   8   8   8
#     4  11  21  36  62  93 127 160 199 249 303 365
#     4  11  25  46  69  93 125 165 211 262 311 363
#     4  10  20  36  60  90 128 161 197 250 304 362
#     4  10  21  37  60  87 119 156 198 244 299 365
#     4  12  25  42  66  94 128 167 209 256 309 368
#     4  10  21  38  60  87 115 153 197 243 297 357
#     4  10  22  39  57  81 115 154 198 250 301 354
#     4  12  25  41  66  97 129 166 207 252 310 373
#
# _framework density 20.271685999999999
#
# number of rings (size 3 to 8) (size 9 to 14) (size 15 to 20)
#    0.000    1.250    2.500    3.750    0.000    4.750 
#    0.000    1.250    0.000    0.000    0.000    0.000 
#    0.000    0.000    0.000    0.000    0.000    0.000 
#
# Total GULP energy -397003.284892 kJ/mol
# GULP energy per Si atom -12406.352653 kJ/mol
# Density = 2.022555 g / cm^3
# Si number density = 20.271686 Si / 1000 Ang^3
#
#
#
# Elastic Constant Matrix: (Units=GPa)
#
#
# Indices 1 2 3 4 5 6 
#
# 1 82.2995 24.0447 13.6011 0.0000 0.0000 0.0000
# 2 24.0447 99.7644 30.2990 0.0000 0.0000 0.0000
# 3 13.6011 30.2990 98.0791 0.0000 0.0000 0.0000
# 4 0.0000 0.0000 0.0000 34.1872 0.0000 0.0000
# 5 0.0000 0.0000 0.0000 0.0000 15.0485 0.0000
# 6 0.0000 0.0000 0.0000 0.0000 0.0000 29.8168
#
#
#
# Elastic Compliance Matrix: (Units=1/GPa)
#
#
# Indices 1 2 3 4 5 6 
#
# 1 0.013148 -0.002886 -0.000932 0.000000 0.000000 0.000000
# 2 -0.002886 0.011695 -0.003213 0.000000 0.000000 0.000000
# 3 -0.000932 -0.003213 0.011318 0.000000 0.000000 0.000000
# 4 0.000000 0.000000 0.000000 0.029251 0.000000 0.000000
# 5 0.000000 0.000000 0.000000 0.000000 0.066452 0.000000
# 6 0.000000 0.000000 0.000000 0.000000 0.000000 0.033538
#
#
# Mechanical properties :
#
#
# Convention : Reuss Voigt Hill
#
# Bulk Modulus (GPa) = 45.24940 46.22585 45.73762
# Shear Modulus (GPa) = 26.76257 29.95704 28.35981
#
# Velocity S-wave (km/s) = 3.63739 3.84836 3.74436
# Velocity P-wave (km/s) = 6.32540 6.52680 6.42689
#
# Compressibility (1/GPa) = 0.02209974
#
# Stress axis : x y z
#
# Youngs Moduli (GPa) = 76.05799 85.50777 88.35858
#
# Poissons Ratio (x) = 0.24676 0.08233
# Poissons Ratio (y) = 0.21949 0.28386
# Poissons Ratio (z) = 0.07087 0.27470
#
# Static dielectric constant tensor:
#      x y z
#    x 3.730160 0.000000 0.000000 
#    y 0.000000 3.641370 0.000000 
#    z 0.000000 0.000000 3.872430 
# 
# 
# High freq. dielectric constant tensor:
#      x y z
#    x 1.787780 0.000000 0.000000 
#    y 0.000000 1.788840 0.000000 
#    z 0.000000 0.000000 1.808410 
# 
# From -- ./inp_files/15876.got.cif
#   From: 2010.03.12/outbox.cif.g09.slc.cpg/sg38_8_cif.got.tgz:15876.got - 2010.04.14 02:38:36.
