data_PCOD8180615
_publ_section_title
;
Structure prediction by ZEFSAII (Michael W. Deem and Ramdas Pophale) SiO2 
 PCOD8180615
Probable space group: A B M 2
;
_chemical_formula_sum "Si O2"
_cell_formula_units_Z 56
_cell_length_a 23.468420
_cell_length_b 24.892695
_cell_length_c 5.267748
_cell_angle_alpha 90.000000
_cell_angle_beta 90.000000
_cell_angle_gamma 90.000000
_cell_volume 3077.377405
_symmetry_space_group_name_H-M "A B M 2"
_symmetry_group_IT_number 39
_symmetry_cell_setting 'orthorhombic'
loop_
_space_group_symop_operation_xyz
x,y,z
-x,-y,z
-x,1/2+y,z
x,1/2-y,z
x,1/2+y,1/2+z
-x,1/2-y,1/2+z
-x,y,1/2+z
x,-y,1/2+z
loop_
_atom_site_type_symbol
_atom_site_label
_atom_site_fract_x
_atom_site_fract_y
_atom_site_fract_z
Si Si1 0.237172 0.373029 0.213600
Si Si2 0.848291 0.533273 0.250223
Si Si3 0.628708 0.625589 0.211578
Si Si4 0.024288 0.060473 0.235963
Si Si5 0.237521 0.190414 0.712376
Si Si6 0.475643 0.439310 0.218047
Si Si7 0.372066 0.190037 0.710269
O O1 0.204941 0.428872 0.199712
O O2 0.304312 0.386990 0.214625
O O3 0.216905 0.341892 0.465110
O O4 0.218413 0.338708 0.969892
O O5 0.844598 0.512856 0.538651
O O6 0.907868 0.563871 0.215118
O O7 0.593229 0.568969 0.213259
O O8 0.608734 0.659344 0.456419
O O9 0.609671 0.658416 0.962742
O O10 0.002915 0.090255 0.491669
O O11 0.000000 0.000000 0.255298
O O12 0.210253 0.250000 0.707107
O O13 0.304692 0.195369 0.705839
O O14 0.500000 0.500000 0.221207
O O15 0.499163 0.410017 0.469665
O O16 0.398895 0.250000 0.713737
#
# Coordination Sequence:
#
# PCOD8180615 Si02
#       7
#     8   8   8   8   8   8   8
#     4  10  21  33  49  82 109 135 174 203 266 322
#     4  12  21  33  48  73 113 149 167 213 257 305
#     4  10  19  35  54  74 105 132 162 215 249 300
#     4  10  16  30  49  67  91 139 182 216 245 290
#     4   9  17  33  54  75 105 137 170 215 253 308
#     4  10  21  38  56  73  90 128 181 218 241 278
#     4   9  17  30  55  82 101 128 161 196 261 319
#
# _framework density 18.197312
#
# number of rings (size 3 to 8) (size 9 to 14) (size 15 to 20)
#    0.000    2.000    2.857    2.571    0.000    3.429 
#    5.143    0.000    0.000    8.571    0.000    0.000 
#    0.000   11.429    0.000    0.000    0.000    0.000 
#
# Total GULP energy -346973.921355 kJ/mol
# GULP energy per Si atom -12391.925763 kJ/mol
# Density = 1.815589 g / cm^3
# Si number density = 18.197312 Si / 1000 Ang^3
#
#
#
# Elastic Constant Matrix: (Units=GPa)
#
#
# Indices 1 2 3 4 5 6 
#
# 1 86.7417 46.3553 33.6609 0.0000 0.0000 0.0000
# 2 46.3553 68.7169 31.3554 0.0000 0.0000 0.0000
# 3 33.6609 31.3554 171.2763 0.0000 0.0000 0.0000
# 4 0.0000 0.0000 0.0000 0.0367 0.0000 0.0000
# 5 0.0000 0.0000 0.0000 0.0000 14.7519 0.0000
# 6 0.0000 0.0000 0.0000 0.0000 0.0000 4.2850
#
#
#
# Elastic Compliance Matrix: (Units=1/GPa)
#
#
# Indices 1 2 3 4 5 6 
#
# 1 0.018357 -0.011716 -0.001463 0.000000 0.000000 0.000000
# 2 -0.011716 0.023356 -0.001973 0.000000 0.000000 0.000000
# 3 -0.001463 -0.001973 0.006487 0.000000 0.000000 0.000000
# 4 0.000000 0.000000 0.000000 27.211587 0.000000 0.000002
# 5 0.000000 0.000000 0.000000 0.000000 0.067788 0.000000
# 6 0.000000 0.000000 0.000000 0.000002 0.000000 0.233371
#
#
# Mechanical properties :
#
#
# Convention : Reuss Voigt Hill
#
# Bulk Modulus (GPa) = 55.87697 61.05314 58.46505
# Shear Modulus (GPa) = 0.18118 18.17229 9.17673
#
# Velocity S-wave (km/s) = 0.31588 3.16353 2.24808
# Velocity P-wave (km/s) = 5.55930 6.85327 6.23992
#
# Compressibility (1/GPa) = 0.01789646
#
# Stress axis : x y z
#
# Youngs Moduli (GPa) = 54.47432 42.81501 154.14806
#
# Poissons Ratio (x) = 0.50162 0.22550
# Poissons Ratio (y) = 0.63822 0.30418
# Poissons Ratio (z) = 0.07969 0.08449
#
# Static dielectric constant tensor:
#      x y z
#    x 3.132320 0.000000 0.000000 
#    y 0.000000 3.093370 0.000000 
#    z 0.000000 0.000000 4.277720 
# 
# 
# High freq. dielectric constant tensor:
#      x y z
#    x 1.678630 0.000000 0.000000 
#    y 0.000000 1.661710 0.000000 
#    z 0.000000 0.000000 1.743520 
# 
# From -- ./inp_files/1090.got.cif
#   From: 2010.03.12/outbox.cif.g09.slc.cpg/sg39_1_cif.got.tgz:1090.got - 2010.04.14 02:53:20.
