data_PCOD8180528
_publ_section_title
;
Structure prediction by ZEFSAII (Michael W. Deem and Ramdas Pophale) SiO2 
 PCOD8180528
Probable space group: A M M 2
;
_chemical_formula_sum "Si O2"
_cell_formula_units_Z 48
_cell_length_a 9.200493
_cell_length_b 9.521869
_cell_length_c 31.163935
_cell_angle_alpha 90.000000
_cell_angle_beta 90.000000
_cell_angle_gamma 90.000000
_cell_volume 2730.144233
_symmetry_space_group_name_H-M "A M M 2"
_symmetry_group_IT_number 38
_symmetry_cell_setting 'orthorhombic'
loop_
_space_group_symop_operation_xyz
x,y,z
-x,-y,z
-x,y,z
x,-y,z
x,1/2+y,1/2+z
-x,1/2-y,1/2+z
-x,1/2+y,1/2+z
x,1/2-y,1/2+z
loop_
_atom_site_type_symbol
_atom_site_label
_atom_site_fract_x
_atom_site_fract_y
_atom_site_fract_z
Si Si1 0.830457 0.336428 0.365660
Si Si2 0.829872 0.662667 0.533034
Si Si3 0.663961 0.833047 0.948966
Si Si4 0.827364 0.342694 0.786816
Si Si5 0.173034 0.841940 0.191914
Si Si6 0.826909 0.158535 0.614153
O O1 0.800728 0.500000 0.359044
O O2 0.746215 0.275744 0.406915
O O3 0.766521 0.260287 0.323427
O O4 0.000000 0.304773 0.372710
O O5 0.794047 0.500000 0.542770
O O6 0.746123 0.720133 0.491371
O O7 0.773742 0.754770 0.572843
O O8 0.000000 0.683341 0.524494
O O9 0.500000 0.774821 0.949206
O O10 0.667221 0.000000 0.948214
O O11 0.772077 0.500000 0.796525
O O12 0.773139 0.295139 0.739432
O O13 0.000000 0.338374 0.787275
O O14 0.236522 0.734501 0.156666
O O15 0.000000 0.840451 0.190187
O O16 0.227812 0.000000 0.181790
O O17 0.000000 0.157493 0.615665
O O18 0.765599 0.000000 0.612131
#
# Coordination Sequence:
#
# PCOD8180528 Si02
#       6
#     8   8   8   8   8   8
#     4   9  16  26  42  64  87 110 139 175 211 246
#     4   9  16  27  44  63  83 110 143 175 207 246
#     4   9  17  29  45  64  84 108 141 178 212 248
#     4   8  14  24  38  58  85 115 143 170 204 247
#     4   8  13  22  36  55  82 114 143 170 203 245
#     4   9  16  24  36  58  87 114 139 170 209 250
#
# _framework density 17.581489999999999
#
# number of rings (size 3 to 8) (size 9 to 14) (size 15 to 20)
#    0.000    3.333    0.000    2.000    0.000    4.667 
#    0.000    4.167    0.000    6.000    0.000    1.167 
#    0.000    1.333    0.000    0.000    0.000    0.000 
#
# Total GULP energy -297476.675721 kJ/mol
# GULP energy per Si atom -12394.861488 kJ/mol
# Density = 1.754147 g / cm^3
# Si number density = 17.581490 Si / 1000 Ang^3
#
#
#
# Elastic Constant Matrix: (Units=GPa)
#
#
# Indices 1 2 3 4 5 6 
#
# 1 35.6182 23.6609 43.1250 0.0000 0.0000 0.0000
# 2 23.6609 87.9075 87.5605 0.0000 0.0000 0.0000
# 3 43.1250 87.5605 201.0524 0.0000 0.0000 0.0000
# 4 0.0000 0.0000 0.0000 32.0601 0.0000 0.0000
# 5 0.0000 0.0000 0.0000 0.0000 1.9560 0.0000
# 6 0.0000 0.0000 0.0000 0.0000 0.0000 5.9550
#
#
#
# Elastic Compliance Matrix: (Units=1/GPa)
#
#
# Indices 1 2 3 4 5 6 
#
# 1 0.038625 -0.003787 -0.006636 0.000000 0.000000 0.000000
# 2 -0.003787 0.020462 -0.008099 0.000000 0.000000 0.000000
# 3 -0.006636 -0.008099 0.009925 0.000000 0.000000 0.000000
# 4 0.000000 0.000000 0.000000 0.031191 0.000000 0.000000
# 5 0.000000 0.000000 0.000000 0.000000 0.511255 0.000000
# 6 0.000000 0.000000 0.000000 0.000000 0.000000 0.167926
#
#
# Mechanical properties :
#
#
# Convention : Reuss Voigt Hill
#
# Bulk Modulus (GPa) = 31.28074 70.36343 50.82208
# Shear Modulus (GPa) = 6.04534 19.34301 12.69417
#
# Velocity S-wave (km/s) = 1.85632 3.32051 2.68996
# Velocity P-wave (km/s) = 4.73551 7.40333 6.21427
#
# Compressibility (1/GPa) = 0.03196856
#
# Stress axis : x y z
#
# Youngs Moduli (GPa) = 25.88966 48.87105 100.76065
#
# Poissons Ratio (x) = 0.18505 0.66864
# Poissons Ratio (y) = 0.09803 0.81608
# Poissons Ratio (z) = 0.17180 0.39582
#
# Static dielectric constant tensor:
#      x y z
#    x 2.756560 0.000000 0.000000 
#    y 0.000000 3.218950 0.000000 
#    z 0.000000 0.000000 3.665270 
# 
# 
# High freq. dielectric constant tensor:
#      x y z
#    x 1.617840 0.000000 0.000000 
#    y 0.000000 1.658330 0.000000 
#    z 0.000000 0.000000 1.698880 
# 
# From -- ./inp_files/23346.got.cif
#   From: 2010.03.12/outbox.cif.g09.slc.cpg/sg38_12_cif.got.tgz:23346.got - 2010.04.14 02:38:36.
