data_PCOD8180681
_publ_section_title
;
Structure prediction by ZEFSAII (Michael W. Deem and Ramdas Pophale) SiO2 
 PCOD8180681
Probable space group: A B M 2
;
_chemical_formula_sum "Si O2"
_cell_formula_units_Z 40
_cell_length_a 14.887186
_cell_length_b 8.900060
_cell_length_c 14.902585
_cell_angle_alpha 90.000000
_cell_angle_beta 90.000000
_cell_angle_gamma 90.000000
_cell_volume 1974.545549
_symmetry_space_group_name_H-M "A B M 2"
_symmetry_group_IT_number 39
_symmetry_cell_setting 'orthorhombic'
loop_
_space_group_symop_operation_xyz
x,y,z
-x,-y,z
-x,1/2+y,z
x,1/2-y,z
x,1/2+y,1/2+z
-x,1/2-y,1/2+z
-x,y,1/2+z
x,-y,1/2+z
loop_
_atom_site_type_symbol
_atom_site_label
_atom_site_fract_x
_atom_site_fract_y
_atom_site_fract_z
Si Si1 0.733070 0.925620 0.204340
Si Si2 0.282545 0.577978 0.498083
Si Si3 0.087994 0.427541 0.701352
Si Si4 0.403996 0.074666 0.355606
Si Si5 0.916189 0.924892 0.008252
O O1 0.755850 0.750000 0.209433
O O2 0.648536 0.970833 0.265250
O O3 0.819190 0.013586 0.244514
O O4 0.711557 0.972024 0.102070
O O5 0.313341 0.750000 0.487487
O O6 0.349309 0.474342 0.443110
O O7 0.180366 0.557814 0.460079
O O8 0.082844 0.250000 0.711458
O O9 0.089019 0.480172 0.598925
O O10 0.000000 0.500000 0.749382
O O11 0.418836 0.250000 0.362105
O O12 0.500000 0.000000 0.352536
O O13 0.935383 0.750000 0.028924
O O14 0.000000 0.000000 0.952647
#
# Coordination Sequence:
#
# PCOD8180681 Si02
#       5
#     8   8   8   8   8
#     4   9  20  39  59  82 113 149 185 226 275 329
#     4   9  19  37  59  83 114 148 185 227 273 324
#     4  10  17  27  49  80 113 149 186 225 268 321
#     4  11  24  41  61  83 110 142 182 232 284 335
#     4   9  16  28  49  78 113 150 185 224 268 321
#
# _framework density 20.257826000000001
#
# number of rings (size 3 to 8) (size 9 to 14) (size 15 to 20)
#    0.000    2.400    0.000    5.400    0.000    6.400 
#    0.000    3.000    0.000    2.400    0.000    0.000 
#    0.000    0.000    0.000    0.000    0.000    0.000 
#
# Total GULP energy -247885.556380 kJ/mol
# GULP energy per Si atom -12394.277819 kJ/mol
# Density = 2.021172 g / cm^3
# Si number density = 20.257826 Si / 1000 Ang^3
#
#
#
# Elastic Constant Matrix: (Units=GPa)
#
#
# Indices 1 2 3 4 5 6 
#
# 1 201.9442 90.4752 63.6305 0.0000 0.0000 0.0000
# 2 90.4752 113.6499 38.7343 0.0000 0.0000 0.0000
# 3 63.6305 38.7343 75.2718 0.0000 0.0000 0.0000
# 4 0.0000 0.0000 0.0000 18.9051 0.0000 0.0000
# 5 0.0000 0.0000 0.0000 0.0000 38.3913 0.0000
# 6 0.0000 0.0000 0.0000 0.0000 0.0000 42.3950
#
#
#
# Elastic Compliance Matrix: (Units=1/GPa)
#
#
# Indices 1 2 3 4 5 6 
#
# 1 0.008882 -0.005471 -0.004693 0.000000 0.000000 0.000000
# 2 -0.005471 0.014041 -0.002600 0.000000 0.000000 0.000000
# 3 -0.004693 -0.002600 0.018590 0.000000 0.000000 0.000000
# 4 0.000000 0.000000 0.000000 0.052896 0.000000 0.000000
# 5 0.000000 0.000000 0.000000 0.000000 0.026048 0.000000
# 6 0.000000 0.000000 0.000000 0.000000 0.000000 0.023588
#
#
# Mechanical properties :
#
#
# Convention : Reuss Voigt Hill
#
# Bulk Modulus (GPa) = 62.56086 86.28287 74.42186
# Shear Modulus (GPa) = 28.58782 33.14001 30.86391
#
# Velocity S-wave (km/s) = 3.76067 4.04903 3.90751
# Velocity P-wave (km/s) = 7.05735 8.03395 7.56143
#
# Compressibility (1/GPa) = 0.01598444
#
# Stress axis : x y z
#
# Youngs Moduli (GPa) = 112.59116 71.22128 53.79210
#
# Poissons Ratio (x) = 0.38967 0.25243
# Poissons Ratio (y) = 0.61601 0.13987
# Poissons Ratio (z) = 0.52835 0.18519
#
# Static dielectric constant tensor:
#      x y z
#    x 4.316800 0.000000 0.000000 
#    y 0.000000 3.699910 0.000000 
#    z 0.000000 0.000000 3.369700 
# 
# 
# High freq. dielectric constant tensor:
#      x y z
#    x 1.805610 0.000000 0.000000 
#    y 0.000000 1.794050 0.000000 
#    z 0.000000 0.000000 1.760470 
# 
# From -- ./inp_files/9625.got.cif
#   From: 2010.03.12/outbox.cif.g09.slc.cpg/sg39_5_cif.got.tgz:9625.got - 2010.04.14 02:53:20.
