data_PCOD8180656
_publ_section_title
;
Structure prediction by ZEFSAII (Michael W. Deem and Ramdas Pophale) SiO2 
 PCOD8180656
Probable space group: A B M 2
;
_chemical_formula_sum "Si O2"
_cell_formula_units_Z 48
_cell_length_a 15.587726
_cell_length_b 8.918054
_cell_length_c 19.202750
_cell_angle_alpha 90.000000
_cell_angle_beta 90.000000
_cell_angle_gamma 90.000000
_cell_volume 2669.416182
_symmetry_space_group_name_H-M "A B M 2"
_symmetry_group_IT_number 39
_symmetry_cell_setting 'orthorhombic'
loop_
_space_group_symop_operation_xyz
x,y,z
-x,-y,z
-x,1/2+y,z
x,1/2-y,z
x,1/2+y,1/2+z
-x,1/2-y,1/2+z
-x,y,1/2+z
x,-y,1/2+z
loop_
_atom_site_type_symbol
_atom_site_label
_atom_site_fract_x
_atom_site_fract_y
_atom_site_fract_z
Si Si1 0.086988 0.074378 0.035290
Si Si2 0.769721 0.421004 0.122792
Si Si3 0.415944 0.072392 0.279966
Si Si4 0.244821 0.925860 0.284383
Si Si5 0.913138 0.073555 0.376757
Si Si6 0.580205 0.424711 0.129926
O O1 0.074396 0.250000 0.040536
O O2 0.167843 0.028918 0.081283
O O3 0.104107 0.022256 0.956074
O O4 0.000000 0.000000 0.064368
O O5 0.799743 0.250000 0.112321
O O6 0.773047 0.464857 0.203949
O O7 0.672583 0.442496 0.092574
O O8 0.420514 0.250000 0.285814
O O9 0.500000 0.000000 0.317376
O O10 0.328028 0.012445 0.314371
O O11 0.414990 0.017895 0.200720
O O12 0.261716 0.750000 0.293819
O O13 0.164755 0.983706 0.329347
O O14 0.923796 0.250000 0.370763
O O15 0.000000 0.000000 0.347899
O O16 0.500000 0.500000 0.086914
O O17 0.562075 0.250000 0.145667
#
# Coordination Sequence:
#
# PCOD8180656 Si02
#       6
#     8   8   8   8   8   8
#     4  10  20  34  52  71  93 125 161 196 236 285
#     4   9  18  31  48  72 100 127 155 195 240 277
#     4  10  17  26  43  68  97 128 160 193 233 280
#     4   9  18  33  50  71  99 126 157 198 240 279
#     4   9  19  35  53  71  93 124 160 197 237 283
#     4   9  16  27  44  67  96 128 159 193 234 278
#
# _framework density 17.981460999999999
#
# number of rings (size 3 to 8) (size 9 to 14) (size 15 to 20)
#    0.000    2.667    0.000    4.500    0.000    5.333 
#    0.000    1.667    0.000    1.000    0.000    2.333 
#    0.000    0.000    0.000    0.000    0.000    0.000 
#
# Total GULP energy -297476.598142 kJ/mol
# GULP energy per Si atom -12394.858256 kJ/mol
# Density = 1.794053 g / cm^3
# Si number density = 17.981461 Si / 1000 Ang^3
#
#
#
# Elastic Constant Matrix: (Units=GPa)
#
#
# Indices 1 2 3 4 5 6 
#
# 1 184.2468 69.7761 53.2691 0.0000 0.0000 0.0000
# 2 69.7761 89.4094 26.4478 0.0000 0.0000 0.0000
# 3 53.2691 26.4478 40.9790 0.0000 0.0000 0.0000
# 4 0.0000 0.0000 0.0000 16.4600 0.0000 0.0000
# 5 0.0000 0.0000 0.0000 0.0000 0.6292 0.0000
# 6 0.0000 0.0000 0.0000 0.0000 0.0000 40.2911
#
#
#
# Elastic Compliance Matrix: (Units=1/GPa)
#
#
# Indices 1 2 3 4 5 6 
#
# 1 0.010237 -0.005009 -0.010075 0.000000 0.000000 0.000000
# 2 -0.005009 0.016275 -0.003992 0.000000 0.000000 0.000000
# 3 -0.010075 -0.003992 0.040076 0.000000 0.000000 0.000000
# 4 0.000000 0.000000 0.000000 0.060753 0.000000 0.000000
# 5 0.000000 0.000000 0.000000 0.000000 1.589282 0.000000
# 6 0.000000 0.000000 0.000000 0.000000 0.000000 0.024819
#
#
# Mechanical properties :
#
#
# Convention : Reuss Voigt Hill
#
# Bulk Modulus (GPa) = 35.16738 68.18014 51.67376
# Shear Modulus (GPa) = 2.79474 22.48554 12.64014
#
# Velocity S-wave (km/s) = 1.24804 3.54006 2.65420
# Velocity P-wave (km/s) = 4.65584 7.39652 6.18002
#
# Compressibility (1/GPa) = 0.02843544
#
# Stress axis : x y z
#
# Youngs Moduli (GPa) = 97.68189 61.44539 24.95287
#
# Poissons Ratio (x) = 0.30779 0.25139
# Poissons Ratio (y) = 0.48930 0.09962
# Poissons Ratio (z) = 0.98412 0.24530
#
# Static dielectric constant tensor:
#      x y z
#    x 4.040820 0.000000 0.000000 
#    y 0.000000 3.320510 0.000000 
#    z 0.000000 0.000000 2.945610 
# 
# 
# High freq. dielectric constant tensor:
#      x y z
#    x 1.721310 0.000000 0.000000 
#    y 0.000000 1.700570 0.000000 
#    z 0.000000 0.000000 1.639210 
# 
# From -- ./inp_files/12666.got.cif
#   From: 2010.03.12/outbox.cif.g09.slc.cpg/sg39_7_cif.got.tgz:12666.got - 2010.04.14 02:53:20.
