data_PCOD8180694
_publ_section_title
;
Structure prediction by ZEFSAII (Michael W. Deem and Ramdas Pophale) SiO2 
 PCOD8180694
Probable space group: A B M 2
;
_chemical_formula_sum "Si O2"
_cell_formula_units_Z 40
_cell_length_a 14.988153
_cell_length_b 8.319865
_cell_length_c 14.617035
_cell_angle_alpha 90.000000
_cell_angle_beta 90.000000
_cell_angle_gamma 90.000000
_cell_volume 1822.735634
_symmetry_space_group_name_H-M "A B M 2"
_symmetry_group_IT_number 39
_symmetry_cell_setting 'orthorhombic'
loop_
_space_group_symop_operation_xyz
x,y,z
-x,-y,z
-x,1/2+y,z
x,1/2-y,z
x,1/2+y,1/2+z
-x,1/2-y,1/2+z
-x,y,1/2+z
x,-y,1/2+z
loop_
_atom_site_type_symbol
_atom_site_label
_atom_site_fract_x
_atom_site_fract_y
_atom_site_fract_z
Si Si1 0.225093 0.065244 0.186170
Si Si2 0.900706 0.062405 0.338404
Si Si3 0.408087 0.935014 0.201801
Si Si4 0.588477 0.560986 0.000172
Si Si5 0.772830 0.937068 0.486012
O O1 0.224104 0.250000 0.156522
O O2 0.145019 0.029973 0.254625
O O3 0.319071 0.025409 0.237174
O O4 0.214140 0.960761 0.094413
O O5 0.899076 0.250000 0.317208
O O6 0.852157 0.026015 0.433786
O O7 0.000000 0.000000 0.348140
O O8 0.398514 0.750000 0.228602
O O9 0.500000 0.000000 0.247227
O O10 0.412392 0.958782 0.093254
O O11 0.500000 0.500000 0.944964
O O12 0.585405 0.750000 0.020077
O O13 0.679652 0.513796 0.948861
O O14 0.774821 0.750000 0.461589
#
# Coordination Sequence:
#
# PCOD8180694 Si02
#       5
#     8   8   8   8   8
#     4  11  22  40  64  93 125 163 204 250 302 361
#     4  12  26  46  67  92 121 156 200 254 310 366
#     4  10  17  29  51  83 120 161 202 246 294 352
#     4  10  17  29  51  83 120 161 202 246 294 352
#     4  11  22  40  64  93 125 163 204 250 302 361
#
# _framework density 21.945036000000002
#
# number of rings (size 3 to 8) (size 9 to 14) (size 15 to 20)
#    0.000    1.200    0.000   12.600    0.000    0.800 
#    0.000    5.000    0.000    0.000    0.000    0.000 
#    0.000    0.000    0.000    0.000    0.000    0.000 
#
# Total GULP energy -247995.610650 kJ/mol
# GULP energy per Si atom -12399.780533 kJ/mol
# Density = 2.189509 g / cm^3
# Si number density = 21.945036 Si / 1000 Ang^3
#
#
#
# Elastic Constant Matrix: (Units=GPa)
#
#
# Indices 1 2 3 4 5 6 
#
# 1 200.6200 31.3909 39.3284 0.0000 0.0000 0.0000
# 2 31.3909 128.1913 -2.4423 0.0000 0.0000 0.0000
# 3 39.3284 -2.4423 57.0770 0.0000 0.0000 0.0000
# 4 0.0000 0.0000 0.0000 25.0375 0.0000 0.0000
# 5 0.0000 0.0000 0.0000 0.0000 -67.1534 0.0000
# 6 0.0000 0.0000 0.0000 0.0000 0.0000 41.8520
#
#
#
# Elastic Compliance Matrix: (Units=1/GPa)
#
#
# Indices 1 2 3 4 5 6 
#
# 1 0.006061 -0.001565 -0.004243 0.000000 0.000000 0.000000
# 2 -0.001565 0.008211 0.001430 0.000000 0.000000 0.000000
# 3 -0.004243 0.001430 0.020505 0.000000 0.000000 0.000000
# 4 0.000000 0.000000 0.000000 0.039940 0.000000 0.000000
# 5 0.000000 0.000000 0.000000 0.000000 -0.014891 0.000000
# 6 0.000000 0.000000 0.000000 0.000000 0.000000 0.023894
#
#
# Mechanical properties :
#
#
# Convention : Reuss Voigt Hill
#
# Bulk Modulus (GPa) = 38.43146 58.04917 48.24031
# Shear Modulus (GPa) = 49.43080 21.12130 35.27605
#
# Velocity S-wave (km/s) = 4.75118 3.10573 4.01368
# Velocity P-wave (km/s) = 6.90282 6.27457 6.59618
#
# Compressibility (1/GPa) = 0.02602035
#
# Stress axis : x y z
#
# Youngs Moduli (GPa) = 164.98100 121.78285 48.76792
#
# Poissons Ratio (x) = 0.19060 0.20694
# Poissons Ratio (y) = 0.25821 -0.06973
# Poissons Ratio (z) = 0.70009 -0.17412
#
# Static dielectric constant tensor:
#      x y z
#    x 4.649260 0.000000 0.000000 
#    y 0.000000 3.951370 0.000000 
#    z 0.000000 0.000000 3.474760 
# 
# 
# High freq. dielectric constant tensor:
#      x y z
#    x 1.879210 0.000000 0.000000 
#    y 0.000000 1.878950 0.000000 
#    z 0.000000 0.000000 1.831930 
# 
# From -- ./inp_files/2576.got.cif
#   From: 2010.03.12/outbox.cif.g09.slc.cpg/sg39_2_cif.got.tgz:2576.got - 2010.04.14 02:53:20.
