data_PCOD8180109
_publ_section_title
;
Structure prediction by ZEFSAII (Michael W. Deem and Ramdas Pophale) SiO2 
 PCOD8180109
Probable space group: A M M 2
;
_chemical_formula_sum "Si O2"
_cell_formula_units_Z 64
_cell_length_a 8.804793
_cell_length_b 15.408443
_cell_length_c 24.020649
_cell_angle_alpha 90.000000
_cell_angle_beta 90.000000
_cell_angle_gamma 90.000000
_cell_volume 3258.837037
_symmetry_space_group_name_H-M "A M M 2"
_symmetry_group_IT_number 38
_symmetry_cell_setting 'orthorhombic'
loop_
_space_group_symop_operation_xyz
x,y,z
-x,-y,z
-x,y,z
x,-y,z
x,1/2+y,1/2+z
-x,1/2-y,1/2+z
-x,1/2+y,1/2+z
x,1/2-y,1/2+z
loop_
_atom_site_type_symbol
_atom_site_label
_atom_site_fract_x
_atom_site_fract_y
_atom_site_fract_z
Si Si1 0.326395 0.902410 0.710950
Si Si2 0.322567 0.836057 0.096903
Si Si3 0.820841 0.151549 0.600674
Si Si4 0.676926 0.900954 0.975240
Si Si5 0.180295 0.248344 0.905044
Si Si6 0.824920 0.403434 0.701835
Si Si7 0.180508 0.403961 0.979947
Si Si8 0.179792 0.251573 0.279817
O O1 0.500000 0.871632 0.708275
O O2 0.258375 0.902311 0.649177
O O3 0.237094 0.839011 0.751559
O O4 0.312322 0.000000 0.734696
O O5 0.500000 0.812932 0.099796
O O6 0.221451 0.751610 0.106014
O O7 0.277200 0.900741 0.146408
O O8 0.279101 0.880322 0.038734
O O9 0.759973 0.114932 0.542072
O O10 0.000000 0.140281 0.606766
O O11 0.500000 0.884671 0.965134
O O12 0.769221 0.840679 0.933436
O O13 0.721975 0.000000 0.962399
O O14 0.247659 0.331410 0.938329
O O15 0.244747 0.253046 0.842442
O O16 0.000000 0.251486 0.905500
O O17 0.808143 0.500000 0.727612
O O18 0.763937 0.333548 0.746593
O O19 0.000000 0.383914 0.686482
O O20 0.235639 0.500000 0.961370
O O21 0.000000 0.398953 0.979691
O O22 0.000000 0.254946 0.280912
#
# Coordination Sequence:
#
# PCOD8180109 Si02
#       8
#     8   8   8   8   8   8   8   8
#     4  11  24  40  59  85 116 152 192 235 286 344
#     4  11  21  35  58  86 117 152 189 231 286 346
#     4  11  20  34  59  88 119 151 185 230 286 342
#     4  10  22  39  58  82 115 153 189 230 287 346
#     4  10  21  38  59  84 113 148 195 242 282 329
#     4  10  21  37  58  86 117 150 189 233 285 344
#     4   9  18  33  56  86 117 148 182 224 279 339
#     4  10  22  39  59  83 114 152 192 240 290 335
#
# _framework density 19.638907
#
# number of rings (size 3 to 8) (size 9 to 14) (size 15 to 20)
#    0.000    1.750    2.500    1.875    0.000    4.500 
#    0.000    5.000    0.000    1.125    0.000    1.750 
#    0.000    0.000    0.000    0.000    0.000    0.000 
#
# Total GULP energy -396869.251954 kJ/mol
# GULP energy per Si atom -12402.164124 kJ/mol
# Density = 1.959421 g / cm^3
# Si number density = 19.638907 Si / 1000 Ang^3
#
#
#
# Elastic Constant Matrix: (Units=GPa)
#
#
# Indices 1 2 3 4 5 6 
#
# 1 10.1888 8.4487 19.4696 0.0000 0.0000 0.0000
# 2 8.4487 131.9131 59.7844 0.0000 0.0000 0.0000
# 3 19.4696 59.7844 153.8394 0.0000 0.0000 0.0000
# 4 0.0000 0.0000 0.0000 14.8888 0.0000 0.0000
# 5 0.0000 0.0000 0.0000 0.0000 17.9930 0.0000
# 6 0.0000 0.0000 0.0000 0.0000 0.0000 21.8322
#
#
#
# Elastic Compliance Matrix: (Units=1/GPa)
#
#
# Indices 1 2 3 4 5 6 
#
# 1 0.129574 -0.001052 -0.015990 0.000000 0.000000 0.000000
# 2 -0.001052 0.009210 -0.003446 0.000000 0.000000 0.000000
# 3 -0.015990 -0.003446 0.009863 0.000000 0.000000 0.000000
# 4 0.000000 0.000000 0.000000 0.067164 0.000000 0.000000
# 5 0.000000 0.000000 0.000000 0.000000 0.055577 0.000000
# 6 0.000000 0.000000 0.000000 0.000000 0.000000 0.045804
#
#
# Mechanical properties :
#
#
# Convention : Reuss Voigt Hill
#
# Bulk Modulus (GPa) = 9.28753 52.37186 30.82970
# Shear Modulus (GPa) = 12.68847 24.82537 18.75692
#
# Velocity S-wave (km/s) = 2.54458 3.55926 3.09381
# Velocity P-wave (km/s) = 3.65686 6.60427 5.33803
#
# Compressibility (1/GPa) = 0.10767120
#
# Stress axis : x y z
#
# Youngs Moduli (GPa) = 7.71760 108.57905 101.38847
#
# Poissons Ratio (x) = 0.11425 1.62117
# Poissons Ratio (y) = 0.00812 0.34938
# Poissons Ratio (z) = 0.12340 0.37416
#
# Static dielectric constant tensor:
#      x y z
#    x 3.361700 0.000000 0.000000 
#    y 0.000000 3.701710 0.000000 
#    z 0.000000 0.000000 3.755010 
# 
# 
# High freq. dielectric constant tensor:
#      x y z
#    x 1.745110 0.000000 0.000000 
#    y 0.000000 1.779370 0.000000 
#    z 0.000000 0.000000 1.764030 
# 
# From -- ./inp_files/22126.got.cif
#   From: 2010.03.12/outbox.cif.g09.slc.cpg/sg38_12_cif.got.tgz:22126.got - 2010.04.14 02:38:36.
