data_PCOD8180951
_publ_section_title
;
Structure prediction by ZEFSAII (Michael W. Deem and Ramdas Pophale) SiO2 
 PCOD8180951
Probable space group: A B M 2
;
_chemical_formula_sum "Si O2"
_cell_formula_units_Z 56
_cell_length_a 15.384129
_cell_length_b 9.119251
_cell_length_c 19.973778
_cell_angle_alpha 90.000000
_cell_angle_beta 90.000000
_cell_angle_gamma 90.000000
_cell_volume 2802.155946
_symmetry_space_group_name_H-M "A B M 2"
_symmetry_group_IT_number 39
_symmetry_cell_setting 'orthorhombic'
loop_
_space_group_symop_operation_xyz
x,y,z
-x,-y,z
-x,1/2+y,z
x,1/2-y,z
x,1/2+y,1/2+z
-x,1/2-y,1/2+z
-x,y,1/2+z
x,-y,1/2+z
loop_
_atom_site_type_symbol
_atom_site_label
_atom_site_fract_x
_atom_site_fract_y
_atom_site_fract_z
Si Si1 0.920832 0.582042 0.380290
Si Si2 0.694917 0.418685 0.978411
Si Si3 0.587048 0.082654 0.101475
Si Si4 0.087156 0.919368 0.657484
Si Si5 0.738081 0.423423 0.200824
Si Si6 0.729427 0.582606 0.331194
Si Si7 0.863121 0.417385 0.506941
O O1 0.945758 0.750000 0.388918
O O2 0.832521 0.560186 0.339937
O O3 0.915548 0.513105 0.453996
O O4 0.000000 0.500000 0.341789
O O5 0.728646 0.250000 0.981229
O O6 0.680080 0.461004 0.900426
O O7 0.765785 0.520956 0.013236
O O8 0.607600 0.438221 0.022205
O O9 0.569408 0.250000 0.119314
O O10 0.668743 0.026455 0.144911
O O11 0.500000 0.000000 0.121417
O O12 0.085347 0.750000 0.681272
O O13 0.089870 0.931300 0.577681
O O14 0.171136 0.995350 0.689430
O O15 0.000000 0.000000 0.683034
O O16 0.753659 0.250000 0.199652
O O17 0.698796 0.474227 0.272493
O O18 0.707858 0.750000 0.311547
O O19 0.858563 0.250000 0.482386
#
# Coordination Sequence:
#
# PCOD8180951 Si02
#       7
#     8   8   8   8   8   8   8
#     4  10  20  33  51  76 110 152 197 246 294 345
#     4   9  18  37  61  85 116 151 188 236 292 347
#     4  10  22  40  65  94 120 153 194 240 298 354
#     4  11  23  36  54  82 117 159 204 247 296 349
#     4  11  23  40  61  86 121 159 197 247 296 349
#     4   9  20  37  58  81 113 157 195 236 293 351
#     4  10  19  31  52  82 113 149 192 242 295 345
#
# _framework density 19.984611999999998
#
# number of rings (size 3 to 8) (size 9 to 14) (size 15 to 20)
#    0.000    2.000    1.429    3.000    0.000    8.000 
#    0.000    2.143    0.000    3.429    0.000    0.000 
#    0.000    0.000    0.000    0.000    0.000    0.000 
#
# Total GULP energy -347181.105449 kJ/mol
# GULP energy per Si atom -12399.325195 kJ/mol
# Density = 1.993913 g / cm^3
# Si number density = 19.984612 Si / 1000 Ang^3
#
#
#
# Elastic Constant Matrix: (Units=GPa)
#
#
# Indices 1 2 3 4 5 6 
#
# 1 94.1002 44.6761 41.3526 0.0000 0.0000 0.0000
# 2 44.6761 104.4419 48.1602 0.0000 0.0000 0.0000
# 3 41.3526 48.1602 100.8418 0.0000 0.0000 0.0000
# 4 0.0000 0.0000 0.0000 30.7024 0.0000 0.0000
# 5 0.0000 0.0000 0.0000 0.0000 7.4127 0.0000
# 6 0.0000 0.0000 0.0000 0.0000 0.0000 33.3664
#
#
#
# Elastic Compliance Matrix: (Units=1/GPa)
#
#
# Indices 1 2 3 4 5 6 
#
# 1 0.014386 -0.004403 -0.003796 0.000000 0.000000 0.000000
# 2 -0.004403 0.013626 -0.004702 0.000000 0.000000 0.000000
# 3 -0.003796 -0.004702 0.013719 0.000000 0.000000 0.000000
# 4 0.000000 0.000000 0.000000 0.032571 0.000000 0.000000
# 5 0.000000 0.000000 0.000000 0.000000 0.134904 0.000000
# 6 0.000000 0.000000 0.000000 0.000000 0.000000 0.029970
#
#
# Mechanical properties :
#
#
# Convention : Reuss Voigt Hill
#
# Bulk Modulus (GPa) = 62.78277 63.08463 62.93370
# Shear Modulus (GPa) = 18.49877 25.30930 21.90403
#
# Velocity S-wave (km/s) = 3.04575 3.56257 3.31425
# Velocity P-wave (km/s) = 6.62213 6.96833 6.79743
#
# Compressibility (1/GPa) = 0.01592794
#
# Stress axis : x y z
#
# Youngs Moduli (GPa) = 69.51316 73.38691 72.89169
#
# Poissons Ratio (x) = 0.32313 0.27673
# Poissons Ratio (y) = 0.30607 0.34275
# Poissons Ratio (z) = 0.26390 0.34508
#
# Static dielectric constant tensor:
#      x y z
#    x 3.399640 0.000000 0.000000 
#    y 0.000000 3.705070 0.000000 
#    z 0.000000 0.000000 3.671910 
# 
# 
# High freq. dielectric constant tensor:
#      x y z
#    x 1.754550 0.000000 0.000000 
#    y 0.000000 1.783310 0.000000 
#    z 0.000000 0.000000 1.783100 
# 
# From -- ./inp_files/14722.got.cif
#   From: 2010.03.12/outbox.cif.g09.slc.cpg/sg39_8_cif.got.tgz:14722.got - 2010.04.14 02:53:20.
