data_PCOD8180491
_publ_section_title
;
Structure prediction by ZEFSAII (Michael W. Deem and Ramdas Pophale) SiO2 
 PCOD8180491
Probable space group: A M M 2
;
_chemical_formula_sum "Si O2"
_cell_formula_units_Z 40
_cell_length_a 9.419389
_cell_length_b 7.635107
_cell_length_c 29.469993
_cell_angle_alpha 90.000000
_cell_angle_beta 90.000000
_cell_angle_gamma 90.000000
_cell_volume 2119.424221
_symmetry_space_group_name_H-M "A M M 2"
_symmetry_group_IT_number 38
_symmetry_cell_setting 'orthorhombic'
loop_
_space_group_symop_operation_xyz
x,y,z
-x,-y,z
-x,y,z
x,-y,z
x,1/2+y,1/2+z
-x,1/2-y,1/2+z
-x,1/2+y,1/2+z
x,1/2-y,1/2+z
loop_
_atom_site_type_symbol
_atom_site_label
_atom_site_fract_x
_atom_site_fract_y
_atom_site_fract_z
Si Si1 0.658634 0.792069 0.824170
Si Si2 0.843960 0.707112 0.405721
Si Si3 0.166987 0.796378 0.007724
Si Si4 0.668232 0.194233 0.226560
Si Si5 0.329818 0.500000 0.060101
Si Si6 0.331378 0.500000 0.163903
O O1 0.500000 0.716735 0.828137
O O2 0.743227 0.712372 0.866996
O O3 0.730156 0.730384 0.776916
O O4 0.658103 0.000000 0.825374
O O5 0.851981 0.500000 0.400636
O O6 0.789249 0.752617 0.456165
O O7 0.000000 0.788193 0.398688
O O8 0.264104 0.676054 0.039259
O O9 0.000000 0.758476 0.015537
O O10 0.200424 0.000000 0.018234
O O11 0.500000 0.219142 0.229560
O O12 0.730715 0.329273 0.189708
O O13 0.711121 0.000000 0.210515
O O14 0.500000 0.500000 0.054106
O O15 0.280909 0.500000 0.112316
O O16 0.500000 0.500000 0.165920
#
# Coordination Sequence:
#
# PCOD8180491 Si02
#       6
#     8   8   8   8   4   4
#     4   9  15  25  45  72 102 134 167 208 255 303
#     4   8  15  29  50  74 100 136 177 211 254 314
#     4   9  19  38  60  78 105 149 193 226 266 334
#     4   9  16  28  47  69  98 137 173 205 249 313
#     4  11  23  35  55  87 115 139 179 241 294 325
#     4   9  18  33  49  71 105 139 173 213 266 327
#
# _framework density 18.873051
#
# number of rings (size 3 to 8) (size 9 to 14) (size 15 to 20)
#    0.000    3.000    1.000    1.500    0.000    2.000 
#    1.800    4.000    0.000    2.400    0.000    0.000 
#    0.000    0.000    0.000    0.000    0.000    0.000 
#
# Total GULP energy -247880.300519 kJ/mol
# GULP energy per Si atom -12394.015026 kJ/mol
# Density = 1.883010 g / cm^3
# Si number density = 18.873051 Si / 1000 Ang^3
#
#
#
# Elastic Constant Matrix: (Units=GPa)
#
#
# Indices 1 2 3 4 5 6 
#
# 1 58.4278 35.5165 60.2625 0.0000 0.0000 0.0000
# 2 35.5165 102.0014 73.6584 0.0000 0.0000 0.0000
# 3 60.2625 73.6584 182.6971 0.0000 0.0000 0.0000
# 4 0.0000 0.0000 0.0000 10.9874 0.0000 0.0000
# 5 0.0000 0.0000 0.0000 0.0000 5.9607 0.0000
# 6 0.0000 0.0000 0.0000 0.0000 0.0000 16.7038
#
#
#
# Elastic Compliance Matrix: (Units=1/GPa)
#
#
# Indices 1 2 3 4 5 6 
#
# 1 0.027167 -0.004216 -0.007261 0.000000 0.000000 0.000000
# 2 -0.004216 0.014485 -0.004449 0.000000 0.000000 0.000000
# 3 -0.007261 -0.004449 0.009662 0.000000 0.000000 0.000000
# 4 0.000000 0.000000 0.000000 0.091014 0.000000 0.000000
# 5 0.000000 0.000000 0.000000 0.000000 0.167766 0.000000
# 6 0.000000 0.000000 0.000000 0.000000 0.000000 0.059867
#
#
# Mechanical properties :
#
#
# Convention : Reuss Voigt Hill
#
# Bulk Modulus (GPa) = 51.38355 75.77791 63.58073
# Shear Modulus (GPa) = 12.24588 18.30962 15.27775
#
# Velocity S-wave (km/s) = 2.55003 3.11810 2.84826
# Velocity P-wave (km/s) = 5.99626 7.29396 6.67672
#
# Compressibility (1/GPa) = 0.01946148
#
# Stress axis : x y z
#
# Youngs Moduli (GPa) = 36.80905 69.03858 103.49289
#
# Poissons Ratio (x) = 0.29106 0.75150
# Poissons Ratio (y) = 0.15518 0.46046
# Poissons Ratio (z) = 0.26728 0.30717
#
# Static dielectric constant tensor:
#      x y z
#    x 3.304590 0.000000 0.000000 
#    y 0.000000 3.347700 0.000000 
#    z 0.000000 0.000000 3.675010 
# 
# 
# High freq. dielectric constant tensor:
#      x y z
#    x 1.688350 0.000000 0.000000 
#    y 0.000000 1.731890 0.000000 
#    z 0.000000 0.000000 1.737800 
# 
# From -- ./inp_files/23254.got.cif
#   From: 2010.03.12/outbox.cif.g09.slc.cpg/sg38_12_cif.got.tgz:23254.got - 2010.04.14 02:38:36.
