data_PCOD8180924
_publ_section_title
;
Structure prediction by ZEFSAII (Michael W. Deem and Ramdas Pophale) SiO2 
 PCOD8180924
Probable space group: A B M 2
;
_chemical_formula_sum "Si O2"
_cell_formula_units_Z 64
_cell_length_a 14.218704
_cell_length_b 8.892863
_cell_length_c 31.261154
_cell_angle_alpha 90.000000
_cell_angle_beta 90.000000
_cell_angle_gamma 90.000000
_cell_volume 3952.816202
_symmetry_space_group_name_H-M "A B M 2"
_symmetry_group_IT_number 39
_symmetry_cell_setting 'orthorhombic'
loop_
_space_group_symop_operation_xyz
x,y,z
-x,-y,z
-x,1/2+y,z
x,1/2-y,z
x,1/2+y,1/2+z
-x,1/2-y,1/2+z
-x,y,1/2+z
x,-y,1/2+z
loop_
_atom_site_type_symbol
_atom_site_label
_atom_site_fract_x
_atom_site_fract_y
_atom_site_fract_z
Si Si1 0.601598 0.426519 0.145480
Si Si2 0.906560 0.074666 0.757214
Si Si3 0.597987 0.422929 0.052839
Si Si4 0.603055 0.072621 0.959987
Si Si5 0.601084 0.572034 0.304601
Si Si6 0.094154 0.925364 0.347820
Si Si7 0.293318 0.925687 0.383459
Si Si8 0.289337 0.423046 0.219660
O O1 0.500000 0.500000 0.153199
O O2 0.587966 0.250000 0.150767
O O3 0.645038 0.470870 0.098272
O O4 0.676249 0.480288 0.179980
O O5 0.923414 0.250000 0.765512
O O6 0.821779 0.047824 0.724319
O O7 0.882059 0.999045 0.802331
O O8 0.000000 0.000000 0.737080
O O9 0.500000 0.500000 0.048976
O O10 0.574560 0.250000 0.055988
O O11 0.649255 0.457348 0.007532
O O12 0.594320 0.250000 0.950446
O O13 0.500000 0.000000 0.954586
O O14 0.676041 0.995546 0.928278
O O15 0.500000 0.500000 0.299226
O O16 0.592567 0.750000 0.309696
O O17 0.650975 0.507250 0.346058
O O18 0.660181 0.525108 0.263064
O O19 0.075745 0.750000 0.340715
O O20 0.181699 0.954107 0.379225
O O21 0.000000 0.000000 0.367782
O O22 0.317880 0.750000 0.381881
O O23 0.312047 0.250000 0.210235
#
# Coordination Sequence:
#
# PCOD8180924 Si02
#       8
#     8   8   8   8   8   8   8   8
#     4  10  19  31  49  71  98 128 161 198 237 282
#     4  10  19  33  51  71  94 121 157 199 240 283
#     4   8  16  30  47  69  93 122 158 196 237 280
#     4  10  19  32  50  70  97 129 161 197 237 281
#     4  11  22  35  47  63  93 131 166 196 229 272
#     4  10  20  33  51  71  93 121 156 198 240 283
#     4  11  22  34  48  70  96 125 161 196 235 283
#     4  10  21  34  48  69  96 127 162 196 234 282
#
# _framework density 16.190988999999998
#
# number of rings (size 3 to 8) (size 9 to 14) (size 15 to 20)
#    0.000    2.000    1.250    3.750    0.000    5.500 
#    0.000    0.000    0.000    0.000    0.000    0.875 
#    0.000    0.000    0.000    0.000    0.000    0.000 
#
# Total GULP energy -396601.740208 kJ/mol
# GULP energy per Si atom -12393.804381 kJ/mol
# Density = 1.615414 g / cm^3
# Si number density = 16.190989 Si / 1000 Ang^3
#
#
#
# Elastic Constant Matrix: (Units=GPa)
#
#
# Indices 1 2 3 4 5 6 
#
# 1 93.0440 48.4362 51.0916 0.0000 0.0000 0.0000
# 2 48.4362 89.4821 51.4914 0.0000 0.0000 0.0000
# 3 51.0916 51.4914 115.7179 0.0000 0.0000 0.0000
# 4 0.0000 0.0000 0.0000 24.3133 0.0000 0.0000
# 5 0.0000 0.0000 0.0000 0.0000 6.3580 0.0000
# 6 0.0000 0.0000 0.0000 0.0000 0.0000 26.6824
#
#
#
# Elastic Compliance Matrix: (Units=1/GPa)
#
#
# Indices 1 2 3 4 5 6 
#
# 1 0.016512 -0.006375 -0.004454 0.000000 0.000000 0.000000
# 2 -0.006375 0.017483 -0.004965 0.000000 0.000000 0.000000
# 3 -0.004454 -0.004965 0.012817 0.000000 0.000000 0.000000
# 4 0.000000 0.000000 0.000000 0.041130 0.000000 0.000000
# 5 0.000000 0.000000 0.000000 0.000000 0.157282 0.000000
# 6 0.000000 0.000000 0.000000 0.000000 0.000000 0.037478
#
#
# Mechanical properties :
#
#
# Convention : Reuss Voigt Hill
#
# Bulk Modulus (GPa) = 65.67984 66.69802 66.18893
# Shear Modulus (GPa) = 15.65614 21.28573 18.47093
#
# Velocity S-wave (km/s) = 3.11298 3.62976 3.38126
# Velocity P-wave (km/s) = 7.31947 7.67143 7.49752
#
# Compressibility (1/GPa) = 0.01522537
#
# Stress axis : x y z
#
# Youngs Moduli (GPa) = 60.56302 57.19795 78.01976
#
# Poissons Ratio (x) = 0.36464 0.34746
# Poissons Ratio (y) = 0.38609 0.38736
# Poissons Ratio (z) = 0.26972 0.28398
#
# Static dielectric constant tensor:
#      x y z
#    x 3.002910 0.000000 0.000000 
#    y 0.000000 3.207400 0.000000 
#    z 0.000000 0.000000 3.436380 
# 
# 
# High freq. dielectric constant tensor:
#      x y z
#    x 1.601620 0.000000 0.000000 
#    y 0.000000 1.641840 0.000000 
#    z 0.000000 0.000000 1.617000 
# 
# From -- ./inp_files/17957.got.cif
#   From: 2010.03.12/outbox.cif.g09.slc.cpg/sg39_9_cif.got.tgz:17957.got - 2010.04.14 02:53:20.
