data_PCOD8180921
_publ_section_title
;
Structure prediction by ZEFSAII (Michael W. Deem and Ramdas Pophale) SiO2 
 PCOD8180921
Probable space group: A B M 2
;
_chemical_formula_sum "Si O2"
_cell_formula_units_Z 64
_cell_length_a 14.224798
_cell_length_b 8.855674
_cell_length_c 31.081985
_cell_angle_alpha 90.000000
_cell_angle_beta 90.000000
_cell_angle_gamma 90.000000
_cell_volume 3915.403053
_symmetry_space_group_name_H-M "A B M 2"
_symmetry_group_IT_number 39
_symmetry_cell_setting 'orthorhombic'
loop_
_space_group_symop_operation_xyz
x,y,z
-x,-y,z
-x,1/2+y,z
x,1/2-y,z
x,1/2+y,1/2+z
-x,1/2-y,1/2+z
-x,y,1/2+z
x,-y,1/2+z
loop_
_atom_site_type_symbol
_atom_site_label
_atom_site_fract_x
_atom_site_fract_y
_atom_site_fract_z
Si Si1 0.399334 0.426208 0.247810
Si Si2 0.709433 0.577086 0.501476
Si Si3 0.599386 0.573686 0.587135
Si Si4 0.095075 0.572171 0.628760
Si Si5 0.601769 0.927599 0.342100
Si Si6 0.602328 0.427745 0.426094
Si Si7 0.093139 0.425542 0.536978
Si Si8 0.707920 0.573061 0.164527
O O1 0.500000 0.500000 0.239596
O O2 0.418819 0.250000 0.244616
O O3 0.354644 0.464640 0.295000
O O4 0.324480 0.478992 0.212067
O O5 0.685029 0.750000 0.489438
O O6 0.667144 0.534202 0.547633
O O7 0.668945 0.465751 0.465905
O O8 0.821417 0.551526 0.503902
O O9 0.500000 0.500000 0.577294
O O10 0.584498 0.750000 0.592849
O O11 0.643606 0.511913 0.630612
O O12 0.081215 0.750000 0.624835
O O13 0.116391 0.505785 0.581891
O O14 0.182478 0.529898 0.659519
O O15 0.000000 0.500000 0.648447
O O16 0.596715 0.750000 0.350751
O O17 0.500000 0.000000 0.341871
O O18 0.653217 0.006651 0.382721
O O19 0.500000 0.500000 0.433725
O O20 0.590603 0.250000 0.422056
O O21 0.075502 0.250000 0.546519
O O22 0.000000 0.500000 0.516094
O O23 0.692582 0.750000 0.157138
#
# Coordination Sequence:
#
# PCOD8180921 Si02
#       8
#     8   8   8   8   8   8   8   8
#     4   9  18  31  47  69  95 125 159 194 233 280
#     4  10  21  35  49  68  95 127 162 196 233 281
#     4  11  22  34  46  64  94 130 165 195 228 273
#     4  10  19  31  49  69  93 123 158 200 241 282
#     4   9  16  29  48  67  92 122 155 195 238 281
#     4  11  21  32  49  71  97 126 160 198 238 284
#     4  10  19  33  51  71  94 121 157 199 240 282
#     4  10  20  33  48  69  95 126 162 197 236 281
#
# _framework density 16.345697999999999
#
# number of rings (size 3 to 8) (size 9 to 14) (size 15 to 20)
#    0.000    2.000    1.250    4.875    0.000    5.500 
#    0.000    0.000    0.000    0.000    0.000    0.875 
#    0.000    2.000    0.000    0.000    0.000    0.000 
#
# Total GULP energy -396696.318175 kJ/mol
# GULP energy per Si atom -12396.759943 kJ/mol
# Density = 1.630849 g / cm^3
# Si number density = 16.345698 Si / 1000 Ang^3
#
#
#
# Elastic Constant Matrix: (Units=GPa)
#
#
# Indices 1 2 3 4 5 6 
#
# 1 88.0325 37.1576 36.5732 0.0000 0.0000 0.0000
# 2 37.1576 84.0155 40.1964 0.0000 0.0000 0.0000
# 3 36.5732 40.1964 98.0424 0.0000 0.0000 0.0000
# 4 0.0000 0.0000 0.0000 24.2568 0.0000 0.0000
# 5 0.0000 0.0000 0.0000 0.0000 8.8311 0.0000
# 6 0.0000 0.0000 0.0000 0.0000 0.0000 23.5657
#
#
#
# Elastic Compliance Matrix: (Units=1/GPa)
#
#
# Indices 1 2 3 4 5 6 
#
# 1 0.014900 -0.004890 -0.003553 0.000000 0.000000 0.000000
# 2 -0.004890 0.016412 -0.004905 0.000000 0.000000 0.000000
# 3 -0.003553 -0.004905 0.013536 0.000000 0.000000 0.000000
# 4 0.000000 0.000000 0.000000 0.041226 0.000000 0.000000
# 5 0.000000 0.000000 0.000000 0.000000 0.113237 0.000000
# 6 0.000000 0.000000 0.000000 0.000000 0.000000 0.042435
#
#
# Mechanical properties :
#
#
# Convention : Reuss Voigt Hill
#
# Bulk Modulus (GPa) = 55.09003 55.32720 55.20861
# Shear Modulus (GPa) = 18.21561 21.74159 19.97860
#
# Velocity S-wave (km/s) = 3.34188 3.65103 3.49987
# Velocity P-wave (km/s) = 6.97618 7.18992 7.08386
#
# Compressibility (1/GPa) = 0.01815210
#
# Stress axis : x y z
#
# Youngs Moduli (GPa) = 67.11630 60.93235 73.87675
#
# Poissons Ratio (x) = 0.29793 0.26251
# Poissons Ratio (y) = 0.32817 0.36234
# Poissons Ratio (z) = 0.23849 0.29885
#
# Static dielectric constant tensor:
#      x y z
#    x 2.593710 0.000000 0.000000 
#    y 0.000000 3.193020 0.000000 
#    z 0.000000 0.000000 3.517800 
# 
# 
# High freq. dielectric constant tensor:
#      x y z
#    x 1.607560 0.000000 0.000000 
#    y 0.000000 1.642760 0.000000 
#    z 0.000000 0.000000 1.620810 
# 
# From -- ./inp_files/17959.got.cif
#   From: 2010.03.12/outbox.cif.g09.slc.cpg/sg39_9_cif.got.tgz:17959.got - 2010.04.14 02:53:20.
