data_PCOD8180373
_publ_section_title
;
Structure prediction by ZEFSAII (Michael W. Deem and Ramdas Pophale) SiO2 
 PCOD8180373
Probable space group: A M M 2
;
_chemical_formula_sum "Si O2"
_cell_formula_units_Z 48
_cell_length_a 7.849157
_cell_length_b 30.303226
_cell_length_c 9.703944
_cell_angle_alpha 90.000000
_cell_angle_beta 90.000000
_cell_angle_gamma 90.000000
_cell_volume 2308.129451
_symmetry_space_group_name_H-M "A M M 2"
_symmetry_group_IT_number 38
_symmetry_cell_setting 'orthorhombic'
loop_
_space_group_symop_operation_xyz
x,y,z
-x,-y,z
-x,y,z
x,-y,z
x,1/2+y,1/2+z
-x,1/2-y,1/2+z
-x,1/2+y,1/2+z
x,1/2-y,1/2+z
loop_
_atom_site_type_symbol
_atom_site_label
_atom_site_fract_x
_atom_site_fract_y
_atom_site_fract_z
Si Si1 0.000000 0.788581 0.589581
Si Si2 0.803526 0.096524 0.902232
Si Si3 0.689943 0.420230 0.919902
Si Si4 0.183381 0.500000 0.073489
Si Si5 0.000000 0.799602 0.261462
Si Si6 0.690928 0.000000 0.863881
Si Si7 0.305552 0.637521 0.678201
Si Si8 0.308132 0.350428 0.145092
O O1 0.000000 0.785668 0.422854
O O2 0.830867 0.811934 0.649605
O O3 0.000000 0.740922 0.656902
O O4 0.721568 0.111992 0.759377
O O5 0.000000 0.109013 0.905812
O O6 0.781967 0.043945 0.919987
O O7 0.711387 0.124789 0.019413
O O8 0.500000 0.439145 0.937387
O O9 0.813562 0.457615 0.975178
O O10 0.730865 0.407837 0.762243
O O11 0.713729 0.374276 0.999439
O O12 0.000000 0.500000 0.148446
O O13 0.318427 0.500000 0.196711
O O14 0.828225 0.825932 0.226491
O O15 0.500000 0.000000 0.920725
O O16 0.500000 0.654210 0.705823
O O17 0.500000 0.330866 0.160902
#
# Coordination Sequence:
#
# PCOD8180373 Si02
#       8
#     4   8   8   4   4   4   8   8
#     4  12  28  46  74 103 138 172 219 280 349 407
#     4  12  24  41  68 100 139 185 231 280 336 395
#     4  10  22  41  65  92 127 179 225 271 326 384
#     4  12  24  33  60  97 134 176 231 285 329 380
#     4  12  28  48  74 103 138 170 215 284 339 415
#     4  12  24  39  58  95 142 182 231 284 326 385
#     4  11  25  47  72  97 136 184 224 274 341 405
#     4  11  23  43  70  97 133 181 226 272 332 404
#
# _framework density 20.796059
#
# number of rings (size 3 to 8) (size 9 to 14) (size 15 to 20)
#    0.000    0.667    5.000    3.000    4.667    1.333 
#    0.000    0.833    0.000    0.000    0.000    0.000 
#    0.000    0.000    0.000    0.000    0.000    0.000 
#
# Total GULP energy -297614.664763 kJ/mol
# GULP energy per Si atom -12400.611032 kJ/mol
# Density = 2.074873 g / cm^3
# Si number density = 20.796059 Si / 1000 Ang^3
#
#
#
# Elastic Constant Matrix: (Units=GPa)
#
#
# Indices 1 2 3 4 5 6 
#
# 1 145.9850 55.2662 28.6417 0.0000 0.0000 0.0000
# 2 55.2662 101.7156 31.8608 0.0000 0.0000 0.0000
# 3 28.6417 31.8608 89.2959 0.0000 0.0000 0.0000
# 4 0.0000 0.0000 0.0000 31.0849 0.0000 0.0000
# 5 0.0000 0.0000 0.0000 0.0000 27.4521 0.0000
# 6 0.0000 0.0000 0.0000 0.0000 0.0000 16.0388
#
#
#
# Elastic Compliance Matrix: (Units=1/GPa)
#
#
# Indices 1 2 3 4 5 6 
#
# 1 0.008746 -0.004361 -0.001249 0.000000 0.000000 0.000000
# 2 -0.004361 0.013243 -0.003326 0.000000 0.000000 0.000000
# 3 -0.001249 -0.003326 0.012786 0.000000 0.000000 0.000000
# 4 0.000000 0.000000 0.000000 0.032170 0.000000 0.000000
# 5 0.000000 0.000000 0.000000 0.000000 0.036427 0.000000
# 6 0.000000 0.000000 0.000000 0.000000 0.000000 0.062349
#
#
# Mechanical properties :
#
#
# Convention : Reuss Voigt Hill
#
# Bulk Modulus (GPa) = 59.16405 63.17044 61.16724
# Shear Modulus (GPa) = 26.42322 29.66368 28.04345
#
# Velocity S-wave (km/s) = 3.56840 3.78088 3.67617
# Velocity P-wave (km/s) = 6.74458 7.03578 6.89172
#
# Compressibility (1/GPa) = 0.01690216
#
# Stress axis : x y z
#
# Youngs Moduli (GPa) = 114.33802 75.51393 78.20892
#
# Poissons Ratio (x) = 0.32929 0.09771
# Poissons Ratio (y) = 0.49860 0.26014
# Poissons Ratio (z) = 0.14285 0.25118
#
# Static dielectric constant tensor:
#      x y z
#    x 3.918690 0.000000 0.000000 
#    y 0.000000 3.483910 0.000000 
#    z 0.000000 0.000000 3.790200 
# 
# 
# High freq. dielectric constant tensor:
#      x y z
#    x 1.831730 0.000000 0.000000 
#    y 0.000000 1.794020 0.000000 
#    z 0.000000 0.000000 1.820770 
# 
# From -- ./inp_files/3903.got.cif
#   From: 2010.03.12/outbox.cif.g09.slc.cpg/sg38_2_cif.got.tgz:3903.got - 2010.04.14 02:38:36.
