data_PCOD8180583
_publ_section_title
;
Structure prediction by ZEFSAII (Michael W. Deem and Ramdas Pophale) SiO2 
 PCOD8180583
Probable space group: A B M 2
;
_chemical_formula_sum "Si O2"
_cell_formula_units_Z 44
_cell_length_a 21.999942
_cell_length_b 23.848598
_cell_length_c 5.273084
_cell_angle_alpha 90.000000
_cell_angle_beta 90.000000
_cell_angle_gamma 90.000000
_cell_volume 2766.617238
_symmetry_space_group_name_H-M "A B M 2"
_symmetry_group_IT_number 39
_symmetry_cell_setting 'orthorhombic'
loop_
_space_group_symop_operation_xyz
x,y,z
-x,-y,z
-x,1/2+y,z
x,1/2-y,z
x,1/2+y,1/2+z
-x,1/2-y,1/2+z
-x,y,1/2+z
x,-y,1/2+z
loop_
_atom_site_type_symbol
_atom_site_label
_atom_site_fract_x
_atom_site_fract_y
_atom_site_fract_z
Si Si1 0.463745 0.250000 0.420130
Si Si2 0.779259 0.437360 0.892794
Si Si3 0.169039 0.562374 0.392840
Si Si4 0.358704 0.963817 0.881158
Si Si5 0.539909 0.629232 0.335676
Si Si6 0.974252 0.437644 0.396027
O O1 0.479935 0.250000 0.719161
O O2 0.429190 0.308495 0.358749
O O3 0.810537 0.406364 0.652201
O O4 0.804402 0.500174 0.925675
O O5 0.707245 0.435984 0.862743
O O6 0.800173 0.406329 0.152232
O O7 0.097349 0.561235 0.359342
O O8 0.407233 0.915152 0.859905
O O9 0.367982 0.006720 0.651145
O O10 0.491460 0.621086 0.562211
O O11 0.000000 0.500000 0.432862
O O12 0.005836 0.406471 0.156514
#
# Coordination Sequence:
#
# PCOD8180583 Si02
#       6
#     4   8   8   8   8   8
#     4   8  16  34  54  68  84 106 142 172 206 260
#     4  10  16  27  36  51  68 105 138 162 196 232
#     4  10  16  25  38  46  68 104 137 167 206 238
#     4  12  21  32  45  64  92 114 143 177 211 256
#     4  10  21  35  51  69  87 113 139 176 221 259
#     4  10  16  22  31  49  66  85 125 183 215 226
#
# _framework density 15.903898999999999
#
# number of rings (size 3 to 8) (size 9 to 14) (size 15 to 20)
#    0.000    1.818    3.636    6.545    0.000    2.182 
#    0.000    0.000    0.000    0.000    0.000    0.000 
#    0.000    0.000    0.000    0.000    0.000    0.000 
#
# Total GULP energy -272539.172280 kJ/mol
# GULP energy per Si atom -12388.144195 kJ/mol
# Density = 1.586770 g / cm^3
# Si number density = 15.903899 Si / 1000 Ang^3
#
#
#
# Elastic Constant Matrix: (Units=GPa)
#
#
# Indices 1 2 3 4 5 6 
#
# 1 84.1310 27.9415 9.4568 0.0000 0.0000 0.0000
# 2 27.9415 24.1159 4.1819 0.0000 0.0000 0.0000
# 3 9.4568 4.1819 124.6418 0.0000 0.0000 0.0000
# 4 0.0000 0.0000 0.0000 8.5012 0.0000 0.0000
# 5 0.0000 0.0000 0.0000 0.0000 23.3837 0.0000
# 6 0.0000 0.0000 0.0000 0.0000 0.0000 -1.0892
#
#
#
# Elastic Compliance Matrix: (Units=1/GPa)
#
#
# Indices 1 2 3 4 5 6 
#
# 1 0.019385 -0.022336 -0.000721 0.000000 0.000000 0.000000
# 2 -0.022336 0.067444 -0.000568 0.000000 0.000000 0.000000
# 3 -0.000721 -0.000568 0.008097 0.000000 0.000000 0.000000
# 4 0.000000 0.000000 0.000000 0.117631 0.000000 0.000000
# 5 0.000000 0.000000 0.000000 0.000000 0.042765 0.000000
# 6 0.000000 0.000000 0.000000 0.000000 0.000000 -0.918084
#
#
# Mechanical properties :
#
#
# Convention : Reuss Voigt Hill
#
# Bulk Modulus (GPa) = 20.97506 35.11656 28.04581
# Shear Modulus (GPa) = -8.33862 18.91302 5.28720
#
# Velocity S-wave (km/s) = -2.29227 3.45223 1.82529
# Velocity P-wave (km/s) = 2.49224 6.16595 4.70267
#
# Compressibility (1/GPa) = 0.04767567
#
# Stress axis : x y z
#
# Youngs Moduli (GPa) = 51.58525 14.82717 123.50575
#
# Poissons Ratio (x) = 0.33117 0.08910
# Poissons Ratio (y) = 1.15218 0.07018
# Poissons Ratio (z) = 0.03721 0.00842
#
# Static dielectric constant tensor:
#      x y z
#    x 2.995510 0.000000 0.000000 
#    y 0.000000 2.535220 0.000000 
#    z 0.000000 0.000000 4.750380 
# 
# 
# High freq. dielectric constant tensor:
#      x y z
#    x 1.606780 0.000000 0.000000 
#    y 0.000000 1.519520 0.000000 
#    z 0.000000 0.000000 1.659660 
# 
# From -- ./inp_files/793.got.cif
#   From: 2010.03.12/outbox.cif.g09.slc.cpg/sg39_1_cif.got.tgz:793.got - 2010.04.14 02:53:20.
