data_PCOD8180516
_publ_section_title
;
Structure prediction by ZEFSAII (Michael W. Deem and Ramdas Pophale) SiO2 
 PCOD8180516
Probable space group: A M M 2
;
_chemical_formula_sum "Si O2"
_cell_formula_units_Z 64
_cell_length_a 9.771184
_cell_length_b 18.274269
_cell_length_c 26.168255
_cell_angle_alpha 90.000000
_cell_angle_beta 90.000000
_cell_angle_gamma 90.000000
_cell_volume 4672.636189
_symmetry_space_group_name_H-M "A M M 2"
_symmetry_group_IT_number 38
_symmetry_cell_setting 'orthorhombic'
loop_
_space_group_symop_operation_xyz
x,y,z
-x,-y,z
-x,y,z
x,-y,z
x,1/2+y,1/2+z
-x,1/2-y,1/2+z
-x,1/2+y,1/2+z
x,1/2-y,1/2+z
loop_
_atom_site_type_symbol
_atom_site_label
_atom_site_fract_x
_atom_site_fract_y
_atom_site_fract_z
Si Si1 0.847398 0.303455 0.379740
Si Si2 0.341795 0.168331 0.029015
Si Si3 0.658666 0.584180 0.426071
Si Si4 0.836994 0.918887 0.427319
Si Si5 0.657241 0.084797 0.131123
Si Si6 0.152566 0.282208 0.985720
Si Si7 0.162277 0.160488 0.327919
Si Si8 0.158891 0.414684 0.725594
O O1 0.744317 0.371752 0.383338
O O2 0.850360 0.259941 0.432443
O O3 0.796869 0.245913 0.336265
O O4 0.000000 0.332840 0.367130
O O5 0.500000 0.190614 0.028755
O O6 0.298836 0.128997 0.081047
O O7 0.308276 0.113305 0.982711
O O8 0.255021 0.242927 0.024889
O O9 0.500000 0.594336 0.412702
O O10 0.703433 0.500000 0.423833
O O11 0.794703 0.864757 0.473845
O O12 0.776140 0.889776 0.373405
O O13 0.000000 0.919808 0.423501
O O14 0.778515 0.000000 0.438329
O O15 0.500000 0.099961 0.146049
O O16 0.753440 0.111118 0.177101
O O17 0.681028 0.000000 0.118655
O O18 0.000000 0.282912 0.009725
O O19 0.216262 0.131481 0.273595
O O20 0.000000 0.152979 0.329513
O O21 0.181862 0.500000 0.737603
O O22 0.000000 0.398116 0.714355
#
# Coordination Sequence:
#
# PCOD8180516 Si02
#       8
#     8   8   8   8   8   8   8   8
#     4   8  14  24  36  51  72  96 120 146 177 212
#     4   9  16  26  39  51  67  97 129 150 176 216
#     4   9  16  25  37  53  72  94 122 153 180 209
#     4   8  12  19  34  55  76  98 123 147 172 207
#     4   9  17  28  39  51  70  96 125 155 183 211
#     4   8  14  23  35  53  74  93 117 151 182 206
#     4   8  13  22  36  53  74  99 124 148 174 207
#     4   9  16  25  38  56  75  95 122 154 182 206
#
# _framework density 13.696764999999999
#
# number of rings (size 3 to 8) (size 9 to 14) (size 15 to 20)
#    0.000    3.500    0.000    2.250    0.000    3.750 
#    0.000    0.625    0.000    3.375    0.000    0.000 
#    0.000    1.000    0.000    4.500    0.000    3.750 
#
# Total GULP energy -396603.159561 kJ/mol
# GULP energy per Si atom -12393.848736 kJ/mol
# Density = 1.366559 g / cm^3
# Si number density = 13.696765 Si / 1000 Ang^3
#
#
#
# Elastic Constant Matrix: (Units=GPa)
#
#
# Indices 1 2 3 4 5 6 
#
# 1 46.9520 45.0964 38.8537 0.0000 0.0000 0.0000
# 2 45.0964 105.4643 53.0439 0.0000 0.0000 0.0000
# 3 38.8537 53.0439 78.3757 0.0000 0.0000 0.0000
# 4 0.0000 0.0000 0.0000 24.5099 0.0000 0.0000
# 5 0.0000 0.0000 0.0000 0.0000 17.0529 0.0000
# 6 0.0000 0.0000 0.0000 0.0000 0.0000 16.1119
#
#
#
# Elastic Compliance Matrix: (Units=1/GPa)
#
#
# Indices 1 2 3 4 5 6 
#
# 1 0.044229 -0.011953 -0.013836 0.000000 0.000000 0.000000
# 2 -0.011953 0.017606 -0.005990 0.000000 0.000000 0.000000
# 3 -0.013836 -0.005990 0.023672 0.000000 0.000000 0.000000
# 4 0.000000 0.000000 0.000000 0.040800 0.000000 0.000000
# 5 0.000000 0.000000 0.000000 0.000000 0.058641 0.000000
# 6 0.000000 0.000000 0.000000 0.000000 0.000000 0.062066
#
#
# Mechanical properties :
#
#
# Convention : Reuss Voigt Hill
#
# Bulk Modulus (GPa) = 45.56140 56.08668 50.82404
# Shear Modulus (GPa) = 15.72887 17.78813 16.75850
#
# Velocity S-wave (km/s) = 3.39243 3.60767 3.50170
# Velocity P-wave (km/s) = 6.97720 7.64143 7.31686
#
# Compressibility (1/GPa) = 0.02194840
#
# Stress axis : x y z
#
# Youngs Moduli (GPa) = 22.60972 56.80007 42.24438
#
# Poissons Ratio (x) = 0.67895 0.58449
# Poissons Ratio (y) = 0.27026 0.25303
# Poissons Ratio (z) = 0.31283 0.34021
#
# Static dielectric constant tensor:
#      x y z
#    x 2.620640 0.000000 0.000000 
#    y 0.000000 2.883310 0.000000 
#    z 0.000000 0.000000 2.616130 
# 
# 
# High freq. dielectric constant tensor:
#      x y z
#    x 1.503790 0.000000 0.000000 
#    y 0.000000 1.513530 0.000000 
#    z 0.000000 0.000000 1.491500 
# 
# From -- ./inp_files/20827.got.cif
#   From: 2010.03.12/outbox.cif.g09.slc.cpg/sg38_11_cif.got.tgz:20827.got - 2010.04.14 02:38:36.
