data_PCOD8180765
_publ_section_title
;
Structure prediction by ZEFSAII (Michael W. Deem and Ramdas Pophale) SiO2 
 PCOD8180765
Probable space group: A B M 2
;
_chemical_formula_sum "Si O2"
_cell_formula_units_Z 40
_cell_length_a 14.333138
_cell_length_b 8.869099
_cell_length_c 19.825242
_cell_angle_alpha 90.000000
_cell_angle_beta 90.000000
_cell_angle_gamma 90.000000
_cell_volume 2520.224808
_symmetry_space_group_name_H-M "A B M 2"
_symmetry_group_IT_number 39
_symmetry_cell_setting 'orthorhombic'
loop_
_space_group_symop_operation_xyz
x,y,z
-x,-y,z
-x,1/2+y,z
x,1/2-y,z
x,1/2+y,1/2+z
-x,1/2-y,1/2+z
-x,y,1/2+z
x,-y,1/2+z
loop_
_atom_site_type_symbol
_atom_site_label
_atom_site_fract_x
_atom_site_fract_y
_atom_site_fract_z
Si Si1 0.751307 0.420595 0.233980
Si Si2 0.903499 0.572822 0.990903
Si Si3 0.756056 0.079414 0.085956
Si Si4 0.600855 0.928296 0.158861
Si Si5 0.904167 0.927205 0.836398
O O1 0.721566 0.250000 0.253619
O O2 0.803346 0.419764 0.160713
O O3 0.657958 0.523180 0.226872
O O4 0.819903 0.490034 0.290289
O O5 0.911798 0.750000 0.000888
O O6 0.883501 0.528155 0.913503
O O7 0.000000 0.500000 0.015875
O O8 0.818640 0.511397 0.034145
O O9 0.741352 0.250000 0.059578
O O10 0.655411 0.995889 0.093354
O O11 0.593487 0.750000 0.153319
O O12 0.500000 0.000000 0.162341
O O13 0.913882 0.750000 0.826527
O O14 0.000000 0.000000 0.811067
#
# Coordination Sequence:
#
# PCOD8180765 Si02
#       5
#     8   8   8   8   8
#     4   8  17  32  48  70  96 125 159 197 237 277
#     4  10  19  31  48  69  97 132 164 195 235 281
#     4   9  18  32  49  71  97 124 158 199 237 280
#     4  10  18  31  51  74  96 122 155 193 242 289
#     4   9  18  32  48  68  97 131 163 195 232 278
#
# _framework density 15.871599
#
# number of rings (size 3 to 8) (size 9 to 14) (size 15 to 20)
#    1.200    1.600    0.000    2.400    0.000    2.400 
#    0.000    2.000    0.000    1.200    0.000    5.600 
#    0.000    0.000    0.000    0.000    0.000    0.000 
#
# Total GULP energy -247816.146119 kJ/mol
# GULP energy per Si atom -12390.807306 kJ/mol
# Density = 1.583547 g / cm^3
# Si number density = 15.871599 Si / 1000 Ang^3
#
#
#
# Elastic Constant Matrix: (Units=GPa)
#
#
# Indices 1 2 3 4 5 6 
#
# 1 142.2170 58.3118 58.6239 0.0000 0.0000 0.0000
# 2 58.3118 96.1650 31.4096 0.0000 0.0000 0.0000
# 3 58.6239 31.4096 57.3091 0.0000 0.0000 0.0000
# 4 0.0000 0.0000 0.0000 20.5209 0.0000 0.0000
# 5 0.0000 0.0000 0.0000 0.0000 6.1986 0.0000
# 6 0.0000 0.0000 0.0000 0.0000 0.0000 32.1099
#
#
#
# Elastic Compliance Matrix: (Units=1/GPa)
#
#
# Indices 1 2 3 4 5 6 
#
# 1 0.013593 -0.004508 -0.011435 0.000000 0.000000 0.000000
# 2 -0.004508 0.014161 -0.003150 0.000000 0.000000 0.000000
# 3 -0.011435 -0.003150 0.030873 0.000000 0.000000 0.000000
# 4 0.000000 0.000000 0.000000 0.048731 0.000000 0.000000
# 5 0.000000 0.000000 0.000000 0.000000 0.161326 0.000000
# 6 0.000000 0.000000 0.000000 0.000000 0.000000 0.031143
#
#
# Mechanical properties :
#
#
# Convention : Reuss Voigt Hill
#
# Bulk Modulus (GPa) = 48.91870 65.82021 57.36945
# Shear Modulus (GPa) = 14.50009 21.58894 18.04452
#
# Velocity S-wave (km/s) = 3.02584 3.69212 3.37546
# Velocity P-wave (km/s) = 6.56476 7.72892 7.17050
#
# Compressibility (1/GPa) = 0.02044208
#
# Stress axis : x y z
#
# Youngs Moduli (GPa) = 73.56579 70.61596 32.39121
#
# Poissons Ratio (x) = 0.31832 0.37038
# Poissons Ratio (y) = 0.33162 0.10204
# Poissons Ratio (z) = 0.84119 0.22245
#
# Static dielectric constant tensor:
#      x y z
#    x 2.929840 0.000000 0.000000 
#    y 0.000000 3.054120 0.000000 
#    z 0.000000 0.000000 2.900210 
# 
# 
# High freq. dielectric constant tensor:
#      x y z
#    x 1.596990 0.000000 0.000000 
#    y 0.000000 1.620740 0.000000 
#    z 0.000000 0.000000 1.586730 
# 
# From -- ./inp_files/12837.got.cif
#   From: 2010.03.12/outbox.cif.g09.slc.cpg/sg39_7_cif.got.tgz:12837.got - 2010.04.14 02:53:20.
