data_PCOD8180101
_publ_section_title
;
Structure prediction by ZEFSAII (Michael W. Deem and Ramdas Pophale) SiO2 
 PCOD8180101
Probable space group: A M M 2
;
_chemical_formula_sum "Si O2"
_cell_formula_units_Z 64
_cell_length_a 18.785934
_cell_length_b 8.769113
_cell_length_c 19.886870
_cell_angle_alpha 90.000000
_cell_angle_beta 90.000000
_cell_angle_gamma 90.000000
_cell_volume 3276.082980
_symmetry_space_group_name_H-M "A M M 2"
_symmetry_group_IT_number 38
_symmetry_cell_setting 'orthorhombic'
loop_
_space_group_symop_operation_xyz
x,y,z
-x,-y,z
-x,y,z
x,-y,z
x,1/2+y,1/2+z
-x,1/2-y,1/2+z
-x,1/2+y,1/2+z
x,1/2-y,1/2+z
loop_
_atom_site_type_symbol
_atom_site_label
_atom_site_fract_x
_atom_site_fract_y
_atom_site_fract_z
Si Si1 0.663525 0.680947 0.797020
Si Si2 0.666082 0.320551 0.547012
Si Si3 0.916785 0.677207 0.338922
Si Si4 0.811048 0.319068 0.737005
Si Si5 0.422187 0.318874 0.673112
Si Si6 0.918587 0.322113 0.977516
Si Si7 0.807080 0.320796 0.088674
Si Si8 0.582664 0.320672 0.928035
O O1 0.664061 0.500000 0.794664
O O2 0.742304 0.741728 0.778699
O O3 0.607814 0.745273 0.742867
O O4 0.634279 0.737395 0.868430
O O5 0.680091 0.500000 0.543609
O O6 0.631887 0.265870 0.616444
O O7 0.740745 0.233122 0.543074
O O8 0.609467 0.273036 0.491303
O O9 0.899259 0.500000 0.333209
O O10 0.879886 0.762464 0.276897
O O11 0.889078 0.736061 0.411340
O O12 0.000000 0.712710 0.331988
O O13 0.810940 0.500000 0.732834
O O14 0.810885 0.259745 0.660740
O O15 0.500000 0.247285 0.660561
O O16 0.427648 0.500000 0.674195
O O17 0.909804 0.500000 0.962183
O O18 0.000000 0.276067 0.991621
O O19 0.875712 0.275049 0.044311
O O20 0.802975 0.500000 0.101020
O O21 0.500000 0.281631 0.912986
O O22 0.591860 0.500000 0.940821
#
# Coordination Sequence:
#
# PCOD8180101 Si02
#       8
#     8   8   8   8   8   8   8   8
#     4   9  18  34  55  82 113 146 189 237 285 341
#     4  11  22  37  56  83 117 154 195 242 292 351
#     4  10  22  40  62  90 123 156 193 239 290 346
#     4  11  22  38  60  88 122 158 199 243 290 350
#     4   9  16  30  55  81 105 141 190 238 282 331
#     4   9  20  40  64  88 115 151 195 241 291 351
#     4  11  23  39  60  87 120 158 198 244 300 355
#     4  10  21  37  58  84 114 149 192 244 300 357
#
# _framework density 19.535523999999999
#
# number of rings (size 3 to 8) (size 9 to 14) (size 15 to 20)
#    0.000    2.000    1.250    2.250    1.750    4.500 
#    0.000    1.875    0.000    0.000    0.000    0.000 
#    0.000    0.000    0.000    0.000    0.000    0.000 
#
# Total GULP energy -396783.082453 kJ/mol
# GULP energy per Si atom -12399.471327 kJ/mol
# Density = 1.949106 g / cm^3
# Si number density = 19.535524 Si / 1000 Ang^3
#
#
#
# Elastic Constant Matrix: (Units=GPa)
#
#
# Indices 1 2 3 4 5 6 
#
# 1 99.9647 35.2914 43.6154 0.0000 0.0000 0.0000
# 2 35.2914 54.8606 35.6091 0.0000 0.0000 0.0000
# 3 43.6154 35.6091 106.3530 0.0000 0.0000 0.0000
# 4 0.0000 0.0000 0.0000 32.5031 0.0000 0.0000
# 5 0.0000 0.0000 0.0000 0.0000 36.8393 0.0000
# 6 0.0000 0.0000 0.0000 0.0000 0.0000 23.8660
#
#
#
# Elastic Compliance Matrix: (Units=1/GPa)
#
#
# Indices 1 2 3 4 5 6 
#
# 1 0.013868 -0.006682 -0.003450 0.000000 0.000000 0.000000
# 2 -0.006682 0.026509 -0.006136 0.000000 0.000000 0.000000
# 3 -0.003450 -0.006136 0.012872 0.000000 0.000000 0.000000
# 4 0.000000 0.000000 0.000000 0.030766 0.000000 0.000000
# 5 0.000000 0.000000 0.000000 0.000000 0.027145 0.000000
# 6 0.000000 0.000000 0.000000 0.000000 0.000000 0.041901
#
#
# Mechanical properties :
#
#
# Convention : Reuss Voigt Hill
#
# Bulk Modulus (GPa) = 48.27673 54.46778 51.37226
# Shear Modulus (GPa) = 25.97417 28.41917 27.19667
#
# Velocity S-wave (km/s) = 3.65031 3.81825 3.73522
# Velocity P-wave (km/s) = 6.52167 6.88336 6.70496
#
# Compressibility (1/GPa) = 0.02071391
#
# Stress axis : x y z
#
# Youngs Moduli (GPa) = 72.11020 37.72342 77.68932
#
# Poissons Ratio (x) = 0.25205 0.26803
# Poissons Ratio (y) = 0.48181 0.47666
# Poissons Ratio (z) = 0.24878 0.23145
#
# Static dielectric constant tensor:
#      x y z
#    x 3.768820 0.000000 0.000000 
#    y 0.000000 3.314550 0.000000 
#    z 0.000000 0.000000 3.660890 
# 
# 
# High freq. dielectric constant tensor:
#      x y z
#    x 1.772400 0.000000 0.000000 
#    y 0.000000 1.738000 0.000000 
#    z 0.000000 0.000000 1.770710 
# 
# From -- ./inp_files/18910.got.cif
#   From: 2010.03.12/outbox.cif.g09.slc.cpg/sg38_10_cif.got.tgz:18910.got - 2010.04.14 02:38:36.
