data_PCOD8180270
_publ_section_title
;
Structure prediction by ZEFSAII (Michael W. Deem and Ramdas Pophale) SiO2 
 PCOD8180270
Probable space group: A M M 2
;
_chemical_formula_sum "Si O2"
_cell_formula_units_Z 48
_cell_length_a 8.489495
_cell_length_b 18.292002
_cell_length_c 15.001553
_cell_angle_alpha 90.000000
_cell_angle_beta 90.000000
_cell_angle_gamma 90.000000
_cell_volume 2329.589058
_symmetry_space_group_name_H-M "A M M 2"
_symmetry_group_IT_number 38
_symmetry_cell_setting 'orthorhombic'
loop_
_space_group_symop_operation_xyz
x,y,z
-x,-y,z
-x,y,z
x,-y,z
x,1/2+y,1/2+z
-x,1/2-y,1/2+z
-x,1/2+y,1/2+z
x,1/2-y,1/2+z
loop_
_atom_site_type_symbol
_atom_site_label
_atom_site_fract_x
_atom_site_fract_y
_atom_site_fract_z
Si Si1 0.816947 0.379018 0.060130
Si Si2 0.681486 0.263822 0.617217
Si Si3 0.813024 0.156474 0.956471
Si Si4 0.681005 0.919825 0.381226
Si Si5 0.187167 0.000000 0.692295
Si Si6 0.184609 0.775053 0.308476
Si Si7 0.812701 0.000000 0.889318
O O1 0.709691 0.307375 0.057107
O O2 0.755167 0.427844 0.141685
O O3 0.000000 0.357662 0.069349
O O4 0.790234 0.421059 0.968292
O O5 0.500000 0.276155 0.641037
O O6 0.742246 0.329236 0.554463
O O7 0.779582 0.251114 0.707664
O O8 0.754556 0.214005 0.879829
O O9 0.000000 0.160011 0.961497
O O10 0.753146 0.074302 0.935612
O O11 0.500000 0.908930 0.408729
O O12 0.731631 0.853550 0.317741
O O13 0.704057 0.000000 0.334706
O O14 0.259758 0.000000 0.790226
O O15 0.000000 0.000000 0.692253
O O16 0.000000 0.785543 0.322056
O O17 0.000000 0.000000 0.883982
#
# Coordination Sequence:
#
# PCOD8180270 Si02
#       7
#     8   8   8   8   4   8   4
#     4  11  20  35  60  90 123 160 207 253 304 373
#     4  12  25  40  61  89 125 166 208 259 319 375
#     4  10  21  40  66  92 122 160 206 260 310 372
#     4  11  23  39  60  90 130 165 199 251 318 379
#     4   9  18  32  57  92 123 152 195 255 312 364
#     4  11  23  41  67  93 121 162 216 262 307 375
#     4   9  18  36  61  90 121 154 197 255 314 360
#
# _framework density 20.604493000000002
#
# number of rings (size 3 to 8) (size 9 to 14) (size 15 to 20)
#    0.000    1.333    2.500    4.000    0.000    4.333 
#    1.500    0.417    0.000    2.000    0.000    0.000 
#    0.000    0.000    0.000    0.000    0.000    0.000 
#
# Total GULP energy -297558.660706 kJ/mol
# GULP energy per Si atom -12398.277529 kJ/mol
# Density = 2.055760 g / cm^3
# Si number density = 20.604493 Si / 1000 Ang^3
#
#
#
# Elastic Constant Matrix: (Units=GPa)
#
#
# Indices 1 2 3 4 5 6 
#
# 1 50.7891 31.1471 17.5011 0.0000 0.0000 0.0000
# 2 31.1471 144.0846 31.0375 0.0000 0.0000 0.0000
# 3 17.5011 31.0375 88.1144 0.0000 0.0000 0.0000
# 4 0.0000 0.0000 0.0000 34.8794 0.0000 0.0000
# 5 0.0000 0.0000 0.0000 0.0000 23.9264 0.0000
# 6 0.0000 0.0000 0.0000 0.0000 0.0000 18.9383
#
#
#
# Elastic Compliance Matrix: (Units=1/GPa)
#
#
# Indices 1 2 3 4 5 6 
#
# 1 0.023460 -0.004402 -0.003109 0.000000 0.000000 0.000000
# 2 -0.004402 0.008336 -0.002062 0.000000 0.000000 0.000000
# 3 -0.003109 -0.002062 0.012693 0.000000 0.000000 0.000000
# 4 0.000000 0.000000 0.000000 0.028670 0.000000 0.000000
# 5 0.000000 0.000000 0.000000 0.000000 0.041795 0.000000
# 6 0.000000 0.000000 0.000000 0.000000 0.000000 0.052803
#
#
# Mechanical properties :
#
#
# Convention : Reuss Voigt Hill
#
# Bulk Modulus (GPa) = 39.45842 49.15105 44.30474
# Shear Modulus (GPa) = 25.59501 29.10229 27.34865
#
# Velocity S-wave (km/s) = 3.52832 3.76230 3.64719
# Velocity P-wave (km/s) = 5.98253 6.54061 6.26778
#
# Compressibility (1/GPa) = 0.02534313
#
# Stress axis : x y z
#
# Youngs Moduli (GPa) = 42.62572 119.96055 78.78509
#
# Poissons Ratio (x) = 0.52803 0.24495
# Poissons Ratio (y) = 0.18762 0.16246
# Poissons Ratio (z) = 0.13253 0.24737
#
# Static dielectric constant tensor:
#      x y z
#    x 3.431670 0.000000 0.000000 
#    y 0.000000 3.947850 0.000000 
#    z 0.000000 0.000000 3.691770 
# 
# 
# High freq. dielectric constant tensor:
#      x y z
#    x 1.786320 0.000000 0.000000 
#    y 0.000000 1.817700 0.000000 
#    z 0.000000 0.000000 1.799210 
# 
# From -- ./inp_files/12079.got.cif
#   From: 2010.03.12/outbox.cif.g09.slc.cpg/sg38_7_cif.got.tgz:12079.got - 2010.04.14 02:38:36.
