data_PCOD8180680
_publ_section_title
;
Structure prediction by ZEFSAII (Michael W. Deem and Ramdas Pophale) SiO2 
 PCOD8180680
Probable space group: A B M 2
;
_chemical_formula_sum "Si O2"
_cell_formula_units_Z 64
_cell_length_a 24.304683
_cell_length_b 8.869528
_cell_length_c 14.875240
_cell_angle_alpha 90.000000
_cell_angle_beta 90.000000
_cell_angle_gamma 90.000000
_cell_volume 3206.671350
_symmetry_space_group_name_H-M "A B M 2"
_symmetry_group_IT_number 39
_symmetry_cell_setting 'orthorhombic'
loop_
_space_group_symop_operation_xyz
x,y,z
-x,-y,z
-x,1/2+y,z
x,1/2-y,z
x,1/2+y,1/2+z
-x,1/2-y,1/2+z
-x,y,1/2+z
x,-y,1/2+z
loop_
_atom_site_type_symbol
_atom_site_label
_atom_site_fract_x
_atom_site_fract_y
_atom_site_fract_z
Si Si1 0.448811 0.075429 0.862380
Si Si2 0.336760 0.424369 0.056116
Si Si3 0.445986 0.572521 0.055667
Si Si4 0.135380 0.926996 0.201303
Si Si5 0.056939 0.571943 0.561489
Si Si6 0.944306 0.573849 0.857533
Si Si7 0.251766 0.575412 0.708705
Si Si8 0.327087 0.577461 0.349620
O O1 0.461246 0.250000 0.884219
O O2 0.390026 0.060532 0.813022
O O3 0.500000 0.000000 0.806515
O O4 0.445124 0.979160 0.952841
O O5 0.353718 0.250000 0.058277
O O6 0.388420 0.515632 0.097874
O O7 0.283858 0.459096 0.116612
O O8 0.322847 0.471660 0.953938
O O9 0.500000 0.500000 0.103590
O O10 0.449643 0.750000 0.066758
O O11 0.130399 0.750000 0.184068
O O12 0.105926 0.975375 0.294104
O O13 0.107961 0.012874 0.118439
O O14 0.198338 0.972662 0.208899
O O15 0.052375 0.750000 0.571431
O O16 0.068464 0.520638 0.458979
O O17 0.000000 0.500000 0.596609
O O18 0.954187 0.750000 0.854520
O O19 0.000000 0.500000 0.820364
O O20 0.235200 0.750000 0.715554
O O21 0.288856 0.534005 0.794074
O O22 0.307183 0.750000 0.337493
#
# Coordination Sequence:
#
# PCOD8180680 Si02
#       8
#     8   8   8   8   8   8   8   8
#     4   9  16  28  49  77 108 141 177 220 275 335
#     4   9  20  39  58  77 107 146 183 224 280 337
#     4  10  17  27  49  79 108 138 176 222 274 332
#     4  11  23  39  58  82 114 152 190 230 276 324
#     4  10  20  37  60  88 119 150 186 226 273 325
#     4   9  20  37  59  86 117 151 183 221 270 323
#     4  11  24  40  58  81 109 144 189 236 277 325
#     4   9  19  37  58  78 106 144 182 225 278 333
#
# _framework density 19.958390000000001
#
# number of rings (size 3 to 8) (size 9 to 14) (size 15 to 20)
#    0.000    2.250    0.000    4.500    0.000    7.000 
#    0.000    5.625    0.000    1.500    0.000    0.000 
#    0.000    0.000    0.000    0.000    0.000    0.000 
#
# Total GULP energy -396751.486213 kJ/mol
# GULP energy per Si atom -12398.483944 kJ/mol
# Density = 1.991296 g / cm^3
# Si number density = 19.958390 Si / 1000 Ang^3
#
#
#
# Elastic Constant Matrix: (Units=GPa)
#
#
# Indices 1 2 3 4 5 6 
#
# 1 132.2111 48.4437 49.8807 0.0000 0.0000 0.0000
# 2 48.4437 86.2698 32.5553 0.0000 0.0000 0.0000
# 3 49.8807 32.5553 80.0376 0.0000 0.0000 0.0000
# 4 0.0000 0.0000 0.0000 24.8109 0.0000 0.0000
# 5 0.0000 0.0000 0.0000 0.0000 29.4143 0.0000
# 6 0.0000 0.0000 0.0000 0.0000 0.0000 40.9794
#
#
#
# Elastic Compliance Matrix: (Units=1/GPa)
#
#
# Indices 1 2 3 4 5 6 
#
# 1 0.011078 -0.004271 -0.005167 0.000000 0.000000 0.000000
# 2 -0.004271 0.015340 -0.003578 0.000000 0.000000 0.000000
# 3 -0.005167 -0.003578 0.017169 0.000000 0.000000 0.000000
# 4 0.000000 0.000000 0.000000 0.040305 0.000000 0.000000
# 5 0.000000 0.000000 0.000000 0.000000 0.033997 0.000000
# 6 0.000000 0.000000 0.000000 0.000000 0.000000 0.024402
#
#
# Mechanical properties :
#
#
# Convention : Reuss Voigt Hill
#
# Bulk Modulus (GPa) = 56.95953 62.25311 59.60632
# Shear Modulus (GPa) = 28.70682 30.21685 29.46184
#
# Velocity S-wave (km/s) = 3.79665 3.89523 3.84625
# Velocity P-wave (km/s) = 6.91524 7.17562 7.04663
#
# Compressibility (1/GPa) = 0.01755632
#
# Stress axis : x y z
#
# Youngs Moduli (GPa) = 90.27001 65.18915 58.24312
#
# Poissons Ratio (x) = 0.27842 0.30093
# Poissons Ratio (y) = 0.38553 0.20839
# Poissons Ratio (z) = 0.46640 0.23324
#
# Static dielectric constant tensor:
#      x y z
#    x 3.909970 0.000000 0.000000 
#    y 0.000000 3.664500 0.000000 
#    z 0.000000 0.000000 3.560940 
# 
# 
# High freq. dielectric constant tensor:
#      x y z
#    x 1.783830 0.000000 0.000000 
#    y 0.000000 1.782200 0.000000 
#    z 0.000000 0.000000 1.764070 
# 
# From -- ./inp_files/10645.got.cif
#   From: 2010.03.12/outbox.cif.g09.slc.cpg/sg39_6_cif.got.tgz:10645.got - 2010.04.14 02:53:20.
