data_PCOD8180253
_publ_section_title
;
Structure prediction by ZEFSAII (Michael W. Deem and Ramdas Pophale) SiO2 
 PCOD8180253
Probable space group: A M M 2
;
_chemical_formula_sum "Si O2"
_cell_formula_units_Z 64
_cell_length_a 24.308612
_cell_length_b 8.701255
_cell_length_c 14.953648
_cell_angle_alpha 90.000000
_cell_angle_beta 90.000000
_cell_angle_gamma 90.000000
_cell_volume 3162.927312
_symmetry_space_group_name_H-M "A M M 2"
_symmetry_group_IT_number 38
_symmetry_cell_setting 'orthorhombic'
loop_
_space_group_symop_operation_xyz
x,y,z
-x,-y,z
-x,y,z
x,-y,z
x,1/2+y,1/2+z
-x,1/2-y,1/2+z
-x,1/2+y,1/2+z
x,1/2-y,1/2+z
loop_
_atom_site_type_symbol
_atom_site_label
_atom_site_fract_x
_atom_site_fract_y
_atom_site_fract_z
Si Si1 0.752882 0.319746 0.274090
Si Si2 0.129068 0.821427 0.271310
Si Si3 0.062789 0.177085 0.613384
Si Si4 0.558729 0.825865 0.438469
Si Si5 0.322625 0.822729 0.417288
Si Si6 0.329371 0.320453 0.124103
Si Si7 0.559440 0.321896 0.624676
Si Si8 0.936187 0.822777 0.927218
O O1 0.767010 0.500000 0.270089
O O2 0.807462 0.220167 0.279675
O O3 0.717120 0.287495 0.362388
O O4 0.720352 0.260903 0.186168
O O5 0.102167 0.720121 0.194119
O O6 0.099800 0.785145 0.364572
O O7 0.121941 0.000000 0.248855
O O8 0.078311 0.281358 0.528932
O O9 0.000000 0.206818 0.643516
O O10 0.072005 0.000000 0.587449
O O11 0.500000 0.808634 0.384826
O O12 0.614235 0.798277 0.380860
O O13 0.558548 0.706248 0.518795
O O14 0.563170 0.000000 0.477997
O O15 0.319408 0.770768 0.521405
O O16 0.304238 0.000000 0.406022
O O17 0.332507 0.500000 0.132543
O O18 0.387000 0.259855 0.165454
O O19 0.500000 0.264586 0.664342
O O20 0.566193 0.500000 0.644553
O O21 0.000000 0.789996 0.907304
O O22 0.921209 0.000000 0.909830
#
# Coordination Sequence:
#
# PCOD8180253 Si02
#       8
#     8   8   8   8   8   8   8   8
#     4  11  24  41  58  79 109 146 193 242 286 336
#     4  12  25  40  60  86 119 159 200 243 290 338
#     4  10  21  39  64  94 127 160 193 233 284 341
#     4   8  14  27  49  75 104 140 177 214 267 338
#     4   9  18  35  57  80 107 141 183 229 281 340
#     4   9  20  38  58  77 104 145 184 224 279 341
#     4   9  16  26  46  78 109 135 170 221 276 329
#     4  10  21  39  64  94 126 158 194 237 285 338
#
# _framework density 20.23442
#
# number of rings (size 3 to 8) (size 9 to 14) (size 15 to 20)
#    0.000    2.250    0.000    3.750    0.000    7.750 
#    0.000    4.375    0.000    2.250    0.000    0.000 
#    0.000    0.000    0.000    0.000    0.000    0.000 
#
# Total GULP energy -396640.799595 kJ/mol
# GULP energy per Si atom -12395.024987 kJ/mol
# Density = 2.018837 g / cm^3
# Si number density = 20.234420 Si / 1000 Ang^3
#
#
#
# Elastic Constant Matrix: (Units=GPa)
#
#
# Indices 1 2 3 4 5 6 
#
# 1 126.0260 29.5610 49.3002 0.0000 0.0000 0.0000
# 2 29.5610 47.8657 17.6158 0.0000 0.0000 0.0000
# 3 49.3002 17.6158 73.2942 0.0000 0.0000 0.0000
# 4 0.0000 0.0000 0.0000 28.4913 0.0000 0.0000
# 5 0.0000 0.0000 0.0000 0.0000 -102.9222 0.0000
# 6 0.0000 0.0000 0.0000 0.0000 0.0000 30.1827
#
#
#
# Elastic Compliance Matrix: (Units=1/GPa)
#
#
# Indices 1 2 3 4 5 6 
#
# 1 0.011672 -0.004738 -0.006712 0.000000 0.000000 0.000000
# 2 -0.004738 0.024842 -0.002784 0.000000 0.000000 0.000000
# 3 -0.006712 -0.002784 0.018828 0.000000 0.000000 0.000000
# 4 0.000000 0.000000 0.000000 0.035098 0.000000 0.000000
# 5 0.000000 0.000000 0.000000 0.000000 -0.009716 0.000000
# 6 0.000000 0.000000 0.000000 0.000000 0.000000 0.033132
#
#
# Mechanical properties :
#
#
# Convention : Reuss Voigt Hill
#
# Bulk Modulus (GPa) = 37.21081 48.90443 43.05762
# Shear Modulus (GPa) = 33.05086 1.19762 17.12424
#
# Velocity S-wave (km/s) = 4.04592 0.77017 2.91227
# Velocity P-wave (km/s) = 6.34474 5.00123 5.71262
#
# Compressibility (1/GPa) = 0.02687391
#
# Stress axis : x y z
#
# Youngs Moduli (GPa) = 85.67501 40.25363 53.11370
#
# Poissons Ratio (x) = 0.19073 0.35651
# Poissons Ratio (y) = 0.40594 0.14785
# Poissons Ratio (z) = 0.57507 0.11205
#
# Static dielectric constant tensor:
#      x y z
#    x 4.207520 0.000000 0.000000 
#    y 0.000000 3.598260 0.000000 
#    z 0.000000 0.000000 3.523410 
# 
# 
# High freq. dielectric constant tensor:
#      x y z
#    x 1.801640 0.000000 0.000000 
#    y 0.000000 1.787260 0.000000 
#    z 0.000000 0.000000 1.768050 
# 
# From -- ./inp_files/15872.got.cif
#   From: 2010.03.12/outbox.cif.g09.slc.cpg/sg38_8_cif.got.tgz:15872.got - 2010.04.14 02:38:36.
