data_PCOD8180254
_publ_section_title
;
Structure prediction by ZEFSAII (Michael W. Deem and Ramdas Pophale) SiO2 
 PCOD8180254
Probable space group: A M M 2
;
_chemical_formula_sum "Si O2"
_cell_formula_units_Z 64
_cell_length_a 8.566425
_cell_length_b 23.720480
_cell_length_c 15.302213
_cell_angle_alpha 90.000000
_cell_angle_beta 90.000000
_cell_angle_gamma 90.000000
_cell_volume 3109.405288
_symmetry_space_group_name_H-M "A M M 2"
_symmetry_group_IT_number 38
_symmetry_cell_setting 'orthorhombic'
loop_
_space_group_symop_operation_xyz
x,y,z
-x,-y,z
-x,y,z
x,-y,z
x,1/2+y,1/2+z
-x,1/2-y,1/2+z
-x,1/2+y,1/2+z
x,1/2-y,1/2+z
loop_
_atom_site_type_symbol
_atom_site_label
_atom_site_fract_x
_atom_site_fract_y
_atom_site_fract_z
Si Si1 0.817727 0.935226 0.315670
Si Si2 0.820264 0.371454 0.176108
Si Si3 0.680601 0.065054 0.832414
Si Si4 0.319418 0.134395 0.158721
Si Si5 0.819921 0.638186 0.980684
Si Si6 0.180601 0.140492 0.979823
Si Si7 0.180431 0.246093 0.226437
Si Si8 0.320197 0.252160 0.913532
O O1 0.723461 0.904478 0.240139
O O2 0.773343 0.907895 0.408537
O O3 0.000000 0.928360 0.295821
O O4 0.766274 0.000000 0.319044
O O5 0.712993 0.410075 0.236631
O O6 0.772948 0.306277 0.187256
O O7 0.000000 0.380333 0.203538
O O8 0.790383 0.389141 0.075788
O O9 0.500000 0.074004 0.855555
O O10 0.784767 0.095825 0.904294
O O11 0.728072 0.000000 0.832305
O O12 0.500000 0.127092 0.137832
O O13 0.283991 0.199459 0.178921
O O14 0.223738 0.113872 0.073678
O O15 0.713153 0.693279 0.972082
O O16 0.000000 0.656739 0.971419
O O17 0.282798 0.196645 0.968831
O O18 0.000000 0.156833 0.976117
O O19 0.210204 0.245762 0.329399
O O20 0.000000 0.231514 0.209343
O O21 0.500000 0.251262 0.884284
#
# Coordination Sequence:
#
# PCOD8180254 Si02
#       8
#     8   8   8   8   8   8   8   8
#     4  10  22  41  64  89 122 168 217 263 311 367
#     4  10  22  39  64  95 125 164 208 252 309 371
#     4  11  25  44  65  91 125 164 208 262 318 371
#     4  12  25  41  64  95 128 164 206 261 320 375
#     4  10  21  39  64  94 129 165 209 259 308 370
#     4  12  25  43  67  93 124 165 209 257 313 380
#     4  11  21  37  62  93 130 169 207 251 308 377
#     4  12  23  37  62  96 131 165 203 254 316 377
#
# _framework density 20.582715
#
# number of rings (size 3 to 8) (size 9 to 14) (size 15 to 20)
#    0.000    1.000    2.500    4.875    0.000    4.250 
#    0.000    1.250    0.000    0.000    0.000    0.000 
#    0.000    0.000    0.000    0.000    0.000    0.000 
#
# Total GULP energy -397036.921955 kJ/mol
# GULP energy per Si atom -12407.403811 kJ/mol
# Density = 2.053587 g / cm^3
# Si number density = 20.582715 Si / 1000 Ang^3
#
#
#
# Elastic Constant Matrix: (Units=GPa)
#
#
# Indices 1 2 3 4 5 6 
#
# 1 73.7846 41.0757 27.6793 0.0000 0.0000 0.0000
# 2 41.0757 114.8517 39.4523 0.0000 0.0000 0.0000
# 3 27.6793 39.4523 133.4661 0.0000 0.0000 0.0000
# 4 0.0000 0.0000 0.0000 1.0732 0.0000 0.0000
# 5 0.0000 0.0000 0.0000 0.0000 25.7344 0.0000
# 6 0.0000 0.0000 0.0000 0.0000 0.0000 26.7912
#
#
#
# Elastic Compliance Matrix: (Units=1/GPa)
#
#
# Indices 1 2 3 4 5 6 
#
# 1 0.017374 -0.005538 -0.001966 0.000000 0.000000 0.000000
# 2 -0.005538 0.011456 -0.002238 0.000000 0.000000 0.000000
# 3 -0.001966 -0.002238 0.008562 0.000000 0.000000 0.000000
# 4 0.000000 0.000000 0.000000 0.931826 0.000000 0.000000
# 5 0.000000 0.000000 0.000000 0.000000 0.038859 0.000000
# 6 0.000000 0.000000 0.000000 0.000000 0.000000 0.037326
#
#
# Mechanical properties :
#
#
# Convention : Reuss Voigt Hill
#
# Bulk Modulus (GPa) = 55.84257 59.83523 57.83890
# Shear Modulus (GPa) = 4.66917 24.97941 14.82429
#
# Velocity S-wave (km/s) = 1.50778 3.48747 2.68662
# Velocity P-wave (km/s) = 5.49736 6.73427 6.14700
#
# Compressibility (1/GPa) = 0.01790748
#
# Stress axis : x y z
#
# Youngs Moduli (GPa) = 57.55869 87.28822 116.79812
#
# Poissons Ratio (x) = 0.48342 0.22963
# Poissons Ratio (y) = 0.31877 0.26138
# Poissons Ratio (z) = 0.11316 0.19534
#
# Static dielectric constant tensor:
#      x y z
#    x 3.653050 0.000000 0.000000 
#    y 0.000000 3.689760 0.000000 
#    z 0.000000 0.000000 3.860170 
# 
# 
# High freq. dielectric constant tensor:
#      x y z
#    x 1.803320 0.000000 0.000000 
#    y 0.000000 1.797630 0.000000 
#    z 0.000000 0.000000 1.819720 
# 
# From -- ./inp_files/12713.got.cif
#   From: 2010.03.12/outbox.cif.g09.slc.cpg/sg38_7_cif.got.tgz:12713.got - 2010.04.14 02:38:36.
