data_PCOD8180977
_publ_section_title
;
Structure prediction by ZEFSAII (Michael W. Deem and Ramdas Pophale) SiO2 
 PCOD8180977
Probable space group: A B M 2
;
_chemical_formula_sum "Si O2"
_cell_formula_units_Z 64
_cell_length_a 20.754830
_cell_length_b 8.949348
_cell_length_c 19.487840
_cell_angle_alpha 90.000000
_cell_angle_beta 90.000000
_cell_angle_gamma 90.000000
_cell_volume 3619.714204
_symmetry_space_group_name_H-M "A B M 2"
_symmetry_group_IT_number 39
_symmetry_cell_setting 'orthorhombic'
loop_
_space_group_symop_operation_xyz
x,y,z
-x,-y,z
-x,1/2+y,z
x,1/2-y,z
x,1/2+y,1/2+z
-x,1/2-y,1/2+z
-x,y,1/2+z
x,-y,1/2+z
loop_
_atom_site_type_symbol
_atom_site_label
_atom_site_fract_x
_atom_site_fract_y
_atom_site_fract_z
Si Si1 0.439656 0.086894 0.265940
Si Si2 0.437675 0.082665 0.428443
Si Si3 0.699758 0.925439 0.280306
Si Si4 0.807856 0.425059 0.668684
Si Si5 0.937552 0.417662 0.179778
Si Si6 0.939230 0.586325 0.516989
Si Si7 0.695257 0.927926 0.923860
Si Si8 0.202480 0.070707 0.524437
O O1 0.443970 0.250000 0.232894
O O2 0.446622 0.093080 0.347403
O O3 0.369068 0.017901 0.249164
O O4 0.500000 0.000000 0.232935
O O5 0.432003 0.250000 0.459378
O O6 0.500000 0.000000 0.460737
O O7 0.374315 0.988468 0.446929
O O8 0.693811 0.750000 0.299795
O O9 0.754423 0.956593 0.225550
O O10 0.715869 0.016778 0.348686
O O11 0.814819 0.250000 0.651630
O O12 0.874742 0.486545 0.699315
O O13 0.786199 0.514938 0.601658
O O14 0.931945 0.250000 0.210278
O O15 0.945182 0.408260 0.098525
O O16 0.000000 0.500000 0.211709
O O17 0.943873 0.750000 0.484894
O O18 0.868955 0.518710 0.498845
O O19 0.000000 0.500000 0.484476
O O20 0.694507 0.750000 0.925978
O O21 0.746639 0.991560 0.976593
O O22 0.208814 0.250000 0.522804
#
# Coordination Sequence:
#
# PCOD8180977 Si02
#       8
#     8   8   8   8   8   8   8   8
#     4   8  14  25  42  65  91 120 154 192 234 278
#     4   9  16  28  46  69  97 126 159 201 246 289
#     4   9  19  34  50  70 100 133 161 198 248 296
#     4  10  19  32  51  74  99 129 165 204 248 296
#     4   9  16  27  44  68  96 125 159 200 244 287
#     4   8  15  26  43  66  91 120 153 193 238 283
#     4  11  21  32  50  75 100 130 168 206 246 293
#     4  10  20  34  50  71 101 133 164 202 249 296
#
# _framework density 17.680954
#
# number of rings (size 3 to 8) (size 9 to 14) (size 15 to 20)
#    0.000    2.750    0.000    4.125    0.000    7.500 
#    0.000    0.000    0.000    1.500    0.000    7.000 
#    0.000    0.000    0.000    0.000    0.000    0.000 
#
# Total GULP energy -396601.000367 kJ/mol
# GULP energy per Si atom -12393.781261 kJ/mol
# Density = 1.764071 g / cm^3
# Si number density = 17.680954 Si / 1000 Ang^3
#
#
#
# Elastic Constant Matrix: (Units=GPa)
#
#
# Indices 1 2 3 4 5 6 
#
# 1 171.9917 77.0571 54.7318 0.0000 0.0000 0.0000
# 2 77.0571 123.6366 37.8468 0.0000 0.0000 0.0000
# 3 54.7318 37.8468 40.1284 0.0000 0.0000 0.0000
# 4 0.0000 0.0000 0.0000 17.8972 0.0000 0.0000
# 5 0.0000 0.0000 0.0000 0.0000 23.3489 0.0000
# 6 0.0000 0.0000 0.0000 0.0000 0.0000 35.8185
#
#
#
# Elastic Compliance Matrix: (Units=1/GPa)
#
#
# Indices 1 2 3 4 5 6 
#
# 1 0.011113 -0.003214 -0.012126 0.000000 0.000000 0.000000
# 2 -0.003214 0.012301 -0.007217 0.000000 0.000000 0.000000
# 3 -0.012126 -0.007217 0.048265 0.000000 0.000000 0.000000
# 4 0.000000 0.000000 0.000000 0.055875 0.000000 0.000000
# 5 0.000000 0.000000 0.000000 0.000000 0.042829 0.000000
# 6 0.000000 0.000000 0.000000 0.000000 0.000000 0.027919
#
#
# Mechanical properties :
#
#
# Convention : Reuss Voigt Hill
#
# Bulk Modulus (GPa) = 37.64409 75.00311 56.32360
# Shear Modulus (GPa) = 19.81998 26.48766 23.15382
#
# Velocity S-wave (km/s) = 3.35173 3.87472 3.62267
# Velocity P-wave (km/s) = 6.02626 7.90761 7.03015
#
# Compressibility (1/GPa) = 0.02656459
#
# Stress axis : x y z
#
# Youngs Moduli (GPa) = 89.98424 81.29454 20.71881
#
# Poissons Ratio (x) = 0.26132 0.25123
# Poissons Ratio (y) = 0.28925 0.14953
# Poissons Ratio (z) = 1.09111 0.58673
#
# Static dielectric constant tensor:
#      x y z
#    x 3.671200 0.000000 0.000000 
#    y 0.000000 3.534650 0.000000 
#    z 0.000000 0.000000 2.690230 
# 
# 
# High freq. dielectric constant tensor:
#      x y z
#    x 1.706260 0.000000 0.000000 
#    y 0.000000 1.694330 0.000000 
#    z 0.000000 0.000000 1.615070 
# 
# From -- ./inp_files/13170.got.cif
#   From: 2010.03.12/outbox.cif.g09.slc.cpg/sg39_7_cif.got.tgz:13170.got - 2010.04.14 02:53:20.
