data_PCOD8180721
_publ_section_title
;
Structure prediction by ZEFSAII (Michael W. Deem and Ramdas Pophale) SiO2 
 PCOD8180721
Probable space group: A B M 2
;
_chemical_formula_sum "Si O2"
_cell_formula_units_Z 64
_cell_length_a 19.122828
_cell_length_b 9.170549
_cell_length_c 20.153817
_cell_angle_alpha 90.000000
_cell_angle_beta 90.000000
_cell_angle_gamma 90.000000
_cell_volume 3534.311024
_symmetry_space_group_name_H-M "A B M 2"
_symmetry_group_IT_number 39
_symmetry_cell_setting 'orthorhombic'
loop_
_space_group_symop_operation_xyz
x,y,z
-x,-y,z
-x,1/2+y,z
x,1/2-y,z
x,1/2+y,1/2+z
-x,1/2-y,1/2+z
-x,y,1/2+z
x,-y,1/2+z
loop_
_atom_site_type_symbol
_atom_site_label
_atom_site_fract_x
_atom_site_fract_y
_atom_site_fract_z
Si Si1 0.571755 0.581677 0.247600
Si Si2 0.661030 0.081080 0.623793
Si Si3 0.646928 0.918291 0.382641
Si Si4 0.430227 0.081125 0.996154
Si Si5 0.794853 0.420478 0.086881
Si Si6 0.067321 0.915351 0.586993
Si Si7 0.067174 0.085775 0.928913
Si Si8 0.796663 0.418360 0.932458
O O1 0.500000 0.500000 0.261465
O O2 0.552225 0.750000 0.240860
O O3 0.607930 0.525217 0.180278
O O4 0.626139 0.553673 0.306899
O O5 0.680651 0.250000 0.635270
O O6 0.627055 0.056046 0.552403
O O7 0.730554 0.984832 0.628445
O O8 0.636574 0.750000 0.403817
O O9 0.727849 0.963377 0.391400
O O10 0.597225 0.016689 0.427464
O O11 0.447543 0.250000 0.985420
O O12 0.500000 0.000000 0.019036
O O13 0.802308 0.250000 0.101372
O O14 0.864311 0.500724 0.112683
O O15 0.782412 0.453159 0.009407
O O16 0.067606 0.750000 0.614008
O O17 0.065251 0.916480 0.507928
O O18 0.000000 0.000000 0.615521
O O19 0.064893 0.250000 0.901423
O O20 0.138602 0.010832 0.903960
O O21 0.000000 0.000000 0.900369
O O22 0.816297 0.250000 0.922853
#
# Coordination Sequence:
#
# PCOD8180721 Si02
#       8
#     8   8   8   8   8   8   8   8
#     4  10  22  39  57  75 100 133 171 213 259 310
#     4  10  21  36  52  74 101 133 169 210 258 308
#     4  10  20  36  55  76 102 133 169 210 258 308
#     4  11  22  34  52  75 101 129 164 207 255 309
#     4  10  18  29  48  73 101 134 170 211 256 304
#     4   9  16  26  41  65 100 138 173 209 250 300
#     4   9  16  25  40  64  97 135 170 204 245 293
#     4   9  17  29  46  70 100 131 165 206 251 298
#
# _framework density 18.108196
#
# number of rings (size 3 to 8) (size 9 to 14) (size 15 to 20)
#    0.000    2.250    1.250    2.250    0.000    6.500 
#    0.000    0.000    0.000    0.000    0.000    0.875 
#    0.000    4.000    0.000    0.000    0.000    0.000 
#
# Total GULP energy -396887.944867 kJ/mol
# GULP energy per Si atom -12402.748277 kJ/mol
# Density = 1.806698 g / cm^3
# Si number density = 18.108196 Si / 1000 Ang^3
#
#
#
# Elastic Constant Matrix: (Units=GPa)
#
#
# Indices 1 2 3 4 5 6 
#
# 1 146.7827 75.4397 19.4179 0.0000 0.0000 0.0000
# 2 75.4397 111.7281 22.0207 0.0000 0.0000 0.0000
# 3 19.4179 22.0207 43.0426 0.0000 0.0000 0.0000
# 4 0.0000 0.0000 0.0000 16.4307 0.0000 0.0000
# 5 0.0000 0.0000 0.0000 0.0000 19.9672 0.0000
# 6 0.0000 0.0000 0.0000 0.0000 0.0000 41.3633
#
#
#
# Elastic Compliance Matrix: (Units=1/GPa)
#
#
# Indices 1 2 3 4 5 6 
#
# 1 0.010492 -0.006841 -0.001233 0.000000 0.000000 0.000000
# 2 -0.006841 0.014415 -0.004288 0.000000 0.000000 0.000000
# 3 -0.001233 -0.004288 0.025983 0.000000 0.000000 0.000000
# 4 0.000000 0.000000 0.000000 0.060862 0.000000 0.000000
# 5 0.000000 0.000000 0.000000 0.000000 0.050082 0.000000
# 6 0.000000 0.000000 0.000000 0.000000 0.000000 0.024176
#
#
# Mechanical properties :
#
#
# Convention : Reuss Voigt Hill
#
# Bulk Modulus (GPa) = 38.22023 59.47888 48.84955
# Shear Modulus (GPa) = 22.78354 27.86392 25.32373
#
# Velocity S-wave (km/s) = 3.55094 3.92694 3.74367
# Velocity P-wave (km/s) = 6.16155 7.31292 6.76179
#
# Compressibility (1/GPa) = 0.02616416
#
# Stress axis : x y z
#
# Youngs Moduli (GPa) = 95.31040 69.37336 38.48660
#
# Poissons Ratio (x) = 0.47460 0.04747
# Poissons Ratio (y) = 0.65204 0.16504
# Poissons Ratio (z) = 0.11755 0.29750
#
# Static dielectric constant tensor:
#      x y z
#    x 3.480890 0.000000 0.000000 
#    y 0.000000 3.425590 0.000000 
#    z 0.000000 0.000000 2.922970 
# 
# 
# High freq. dielectric constant tensor:
#      x y z
#    x 1.716540 0.000000 0.000000 
#    y 0.000000 1.708620 0.000000 
#    z 0.000000 0.000000 1.650130 
# 
# From -- ./inp_files/13243.got.cif
#   From: 2010.03.12/outbox.cif.g09.slc.cpg/sg39_7_cif.got.tgz:13243.got - 2010.04.14 02:53:20.
