data_PCOD8180919
_publ_section_title
;
Structure prediction by ZEFSAII (Michael W. Deem and Ramdas Pophale) SiO2 
 PCOD8180919
Probable space group: A B M 2
;
_chemical_formula_sum "Si O2"
_cell_formula_units_Z 48
_cell_length_a 9.894747
_cell_length_b 8.717833
_cell_length_c 30.906160
_cell_angle_alpha 90.000000
_cell_angle_beta 90.000000
_cell_angle_gamma 90.000000
_cell_volume 2665.988601
_symmetry_space_group_name_H-M "A B M 2"
_symmetry_group_IT_number 39
_symmetry_cell_setting 'orthorhombic'
loop_
_space_group_symop_operation_xyz
x,y,z
-x,-y,z
-x,1/2+y,z
x,1/2-y,z
x,1/2+y,1/2+z
-x,1/2-y,1/2+z
-x,y,1/2+z
x,-y,1/2+z
loop_
_atom_site_type_symbol
_atom_site_label
_atom_site_fract_x
_atom_site_fract_y
_atom_site_fract_z
Si Si1 0.851524 0.431365 0.282020
Si Si2 0.639711 0.930005 0.712136
Si Si3 0.149731 0.568375 0.547468
Si Si4 0.852594 0.429349 0.867825
Si Si5 0.642347 0.931481 0.613260
Si Si6 0.852548 0.429691 0.961527
O O1 0.861717 0.250000 0.282858
O O2 0.760816 0.490965 0.242238
O O3 0.780505 0.489334 0.326905
O O4 0.000000 0.500000 0.276034
O O5 0.625529 0.750000 0.716142
O O6 0.669196 0.979326 0.662889
O O7 0.500000 0.000000 0.729005
O O8 0.143045 0.750000 0.549196
O O9 0.237228 0.506479 0.586774
O O10 0.219863 0.513404 0.502073
O O11 0.000000 0.500000 0.551568
O O12 0.864174 0.250000 0.858171
O O13 0.779347 0.457871 0.914677
O O14 0.000000 0.500000 0.870639
O O15 0.640992 0.750000 0.606469
O O16 0.500000 0.000000 0.597237
O O17 0.862710 0.250000 0.971754
O O18 0.000000 0.500000 0.958096
#
# Coordination Sequence:
#
# PCOD8180919 Si02
#       6
#     8   8   8   8   8   8
#     4  10  19  31  48  74 103 130 163 203 246 290
#     4   9  20  36  54  74  97 129 167 204 244 295
#     4  11  21  33  51  77 105 134 168 208 254 297
#     4   9  16  26  43  68  97 130 164 199 242 290
#     4  10  20  37  56  75 100 131 169 208 250 303
#     4   9  16  27  44  68  98 130 164 202 244 293
#
# _framework density 18.004577999999999
#
# number of rings (size 3 to 8) (size 9 to 14) (size 15 to 20)
#    0.000    2.333    0.000    5.500    0.000    4.667 
#    0.000    1.667    0.000    1.000    0.000    2.333 
#    0.000    0.000    0.000    0.000    0.000    0.000 
#
# Total GULP energy -297412.229856 kJ/mol
# GULP energy per Si atom -12392.176244 kJ/mol
# Density = 1.796360 g / cm^3
# Si number density = 18.004578 Si / 1000 Ang^3
#
#
#
# Elastic Constant Matrix: (Units=GPa)
#
#
# Indices 1 2 3 4 5 6 
#
# 1 72.7238 38.0616 68.0199 0.0000 0.0000 0.0000
# 2 38.0616 104.4665 56.3041 0.0000 0.0000 0.0000
# 3 68.0199 56.3041 144.9057 0.0000 0.0000 0.0000
# 4 0.0000 0.0000 0.0000 15.9226 0.0000 0.0000
# 5 0.0000 0.0000 0.0000 0.0000 3.4787 0.0000
# 6 0.0000 0.0000 0.0000 0.0000 0.0000 24.5388
#
#
#
# Elastic Compliance Matrix: (Units=1/GPa)
#
#
# Indices 1 2 3 4 5 6 
#
# 1 0.025539 -0.003597 -0.010590 0.000000 0.000000 0.000000
# 2 -0.003597 0.012615 -0.003213 0.000000 0.000000 0.000000
# 3 -0.010590 -0.003213 0.013121 0.000000 0.000000 0.000000
# 4 0.000000 0.000000 0.000000 0.062804 0.000000 0.000000
# 5 0.000000 0.000000 0.000000 0.000000 0.287461 0.000000
# 6 0.000000 0.000000 0.000000 0.000000 0.000000 0.040752
#
#
# Mechanical properties :
#
#
# Convention : Reuss Voigt Hill
#
# Bulk Modulus (GPa) = 60.70478 71.87415 66.28947
# Shear Modulus (GPa) = 10.36092 19.43539 14.89815
#
# Velocity S-wave (km/s) = 2.40148 3.28909 2.87969
# Velocity P-wave (km/s) = 6.44042 7.37772 6.92494
#
# Compressibility (1/GPa) = 0.01647317
#
# Stress axis : x y z
#
# Youngs Moduli (GPa) = 39.15648 79.27247 76.21518
#
# Poissons Ratio (x) = 0.28513 0.80715
# Poissons Ratio (y) = 0.14084 0.24489
# Poissons Ratio (z) = 0.41468 0.25471
#
# Static dielectric constant tensor:
#      x y z
#    x 3.023410 0.000000 0.000000 
#    y 0.000000 3.495180 0.000000 
#    z 0.000000 0.000000 4.334790 
# 
# 
# High freq. dielectric constant tensor:
#      x y z
#    x 1.643470 0.000000 0.000000 
#    y 0.000000 1.713300 0.000000 
#    z 0.000000 0.000000 1.721600 
# 
# From -- ./inp_files/17775.got.cif
#   From: 2010.03.12/outbox.cif.g09.slc.cpg/sg39_9_cif.got.tgz:17775.got - 2010.04.14 02:53:20.
