data_PCOD8180636
_publ_section_title
;
Structure prediction by ZEFSAII (Michael W. Deem and Ramdas Pophale) SiO2 
 PCOD8180636
Probable space group: A B M 2
;
_chemical_formula_sum "Si O2"
_cell_formula_units_Z 64
_cell_length_a 21.020769
_cell_length_b 8.532919
_cell_length_c 19.465654
_cell_angle_alpha 90.000000
_cell_angle_beta 90.000000
_cell_angle_gamma 90.000000
_cell_volume 3491.525533
_symmetry_space_group_name_H-M "A B M 2"
_symmetry_group_IT_number 39
_symmetry_cell_setting 'orthorhombic'
loop_
_space_group_symop_operation_xyz
x,y,z
-x,-y,z
-x,1/2+y,z
x,1/2-y,z
x,1/2+y,1/2+z
-x,1/2-y,1/2+z
-x,y,1/2+z
x,-y,1/2+z
loop_
_atom_site_type_symbol
_atom_site_label
_atom_site_fract_x
_atom_site_fract_y
_atom_site_fract_z
Si Si1 0.672320 0.432225 0.782230
Si Si2 0.064623 0.934413 0.127766
Si Si3 0.568951 0.935394 0.883960
Si Si4 0.063160 0.433399 0.785643
Si Si5 0.680452 0.566893 0.632345
Si Si6 0.800445 0.567796 0.788532
Si Si7 0.567547 0.064703 0.032006
Si Si8 0.191537 0.566928 0.639655
O O1 0.667085 0.250000 0.766147
O O2 0.617999 0.484562 0.833153
O O3 0.665797 0.525338 0.711206
O O4 0.741081 0.469043 0.817880
O O5 0.068220 0.750000 0.117174
O O6 0.063234 0.990899 0.206907
O O7 0.128756 0.014600 0.096170
O O8 0.000000 0.000000 0.092000
O O9 0.570912 0.750000 0.875068
O O10 0.500000 0.000000 0.864058
O O11 0.587153 0.982433 0.961107
O O12 0.057915 0.250000 0.788049
O O13 0.130627 0.485223 0.820578
O O14 0.000000 0.500000 0.823720
O O15 0.693887 0.750000 0.625482
O O16 0.619490 0.517184 0.588154
O O17 0.741879 0.473441 0.601594
O O18 0.787789 0.750000 0.803126
O O19 0.805534 0.540892 0.707194
O O20 0.562712 0.250000 0.019854
O O21 0.500000 0.000000 0.058514
O O22 0.188408 0.750000 0.657718
#
# Coordination Sequence:
#
# PCOD8180636 Si02
#       8
#     8   8   8   8   8   8   8   8
#     4  11  21  33  51  75 102 132 168 206 247 296
#     4   9  15  23  34  51  78 114 155 196 238 286
#     4  11  22  38  58  77 101 130 162 201 245 294
#     4   8  14  21  32  50  76 112 152 192 232 280
#     4  10  20  34  51  73 102 134 167 205 249 294
#     4   9  16  27  40  58  87 122 159 199 244 288
#     4  10  21  37  57  78 101 129 162 201 245 294
#     4  10  17  25  39  60  87 121 159 198 242 290
#
# _framework density 18.330096000000001
#
# number of rings (size 3 to 8) (size 9 to 14) (size 15 to 20)
#    0.000    2.250    0.000    7.875    0.000    6.000 
#    0.000    1.250    0.000    0.000    0.000    0.000 
#    0.000    1.000    0.000    7.000    0.000   13.375 
#
# Total GULP energy -396549.080998 kJ/mol
# GULP energy per Si atom -12392.158781 kJ/mol
# Density = 1.828838 g / cm^3
# Si number density = 18.330096 Si / 1000 Ang^3
#
#
#
# Elastic Constant Matrix: (Units=GPa)
#
#
# Indices 1 2 3 4 5 6 
#
# 1 174.8619 34.4656 48.1779 0.0000 0.0000 0.0000
# 2 34.4656 59.1688 5.3752 0.0000 0.0000 0.0000
# 3 48.1779 5.3752 28.7114 0.0000 0.0000 0.0000
# 4 0.0000 0.0000 0.0000 16.5174 0.0000 0.0000
# 5 0.0000 0.0000 0.0000 0.0000 -3.0275 0.0000
# 6 0.0000 0.0000 0.0000 0.0000 0.0000 38.1904
#
#
#
# Elastic Compliance Matrix: (Units=1/GPa)
#
#
# Indices 1 2 3 4 5 6 
#
# 1 0.012065 -0.005278 -0.019256 0.000000 0.000000 0.000000
# 2 -0.005278 0.019502 0.005206 0.000000 0.000000 0.000000
# 3 -0.019256 0.005206 0.066167 0.000000 0.000000 0.000000
# 4 0.000000 0.000000 0.000000 0.060542 0.000000 0.000000
# 5 0.000000 0.000000 0.000000 0.000000 -0.330310 0.000000
# 6 0.000000 0.000000 0.000000 0.000000 0.000000 0.026185
#
#
# Mechanical properties :
#
#
# Convention : Reuss Voigt Hill
#
# Bulk Modulus (GPa) = 16.92718 48.75328 32.84023
# Shear Modulus (GPa) = -57.14390 21.98429 -17.57980
#
# Velocity S-wave (km/s) = -5.58951 3.46693 -3.10024
# Velocity P-wave (km/s) = 5.69228 6.53309 2.26706
#
# Compressibility (1/GPa) = 0.05907659
#
# Stress axis : x y z
#
# Youngs Moduli (GPa) = 82.88654 51.27558 15.11322
#
# Poissons Ratio (x) = 0.27065 0.29103
# Poissons Ratio (y) = 0.43750 -0.07868
# Poissons Ratio (z) = 1.59610 -0.26693
#
# Static dielectric constant tensor:
#      x y z
#    x 4.285840 0.000000 0.000000 
#    y 0.000000 3.382710 0.000000 
#    z 0.000000 0.000000 2.745390 
# 
# 
# High freq. dielectric constant tensor:
#      x y z
#    x 1.746260 0.000000 0.000000 
#    y 0.000000 1.724590 0.000000 
#    z 0.000000 0.000000 1.625320 
# 
# From -- ./inp_files/15065.got.cif
#   From: 2010.03.12/outbox.cif.g09.slc.cpg/sg39_8_cif.got.tgz:15065.got - 2010.04.14 02:53:20.
