data_PCOD8180129
_publ_section_title
;
Structure prediction by ZEFSAII (Michael W. Deem and Ramdas Pophale) SiO2 
 PCOD8180129
Probable space group: A M M 2
;
_chemical_formula_sum "Si O2"
_cell_formula_units_Z 64
_cell_length_a 8.923926
_cell_length_b 30.605526
_cell_length_c 11.915044
_cell_angle_alpha 90.000000
_cell_angle_beta 90.000000
_cell_angle_gamma 90.000000
_cell_volume 3254.254085
_symmetry_space_group_name_H-M "A M M 2"
_symmetry_group_IT_number 38
_symmetry_cell_setting 'orthorhombic'
loop_
_space_group_symop_operation_xyz
x,y,z
-x,-y,z
-x,y,z
x,-y,z
x,1/2+y,1/2+z
-x,1/2-y,1/2+z
-x,1/2+y,1/2+z
x,1/2-y,1/2+z
loop_
_atom_site_type_symbol
_atom_site_label
_atom_site_fract_x
_atom_site_fract_y
_atom_site_fract_z
Si Si1 0.676510 0.376371 0.820950
Si Si2 0.328145 0.703630 0.973572
Si Si3 0.671259 0.952063 0.919080
Si Si4 0.328116 0.170324 0.722488
Si Si5 0.822998 0.049605 0.465722
Si Si6 0.176710 0.792321 0.926047
Si Si7 0.676666 0.369890 0.564269
Si Si8 0.176795 0.920792 0.710696
O O1 0.500000 0.382738 0.832367
O O2 0.727485 0.332214 0.883985
O O3 0.751277 0.418922 0.874123
O O4 0.729342 0.372198 0.692942
O O5 0.500000 0.717578 0.950452
O O6 0.221098 0.745127 0.972282
O O7 0.309274 0.682463 0.094318
O O8 0.500000 0.942811 0.883389
O O9 0.773917 0.953929 0.807902
O O10 0.685965 0.000000 0.976373
O O11 0.725797 0.915360 0.006690
O O12 0.500000 0.168992 0.760457
O O13 0.242580 0.204906 0.800551
O O14 0.256596 0.123736 0.744730
O O15 0.766528 0.062100 0.590361
O O16 0.000000 0.054611 0.459294
O O17 0.773093 0.000000 0.439685
O O18 0.000000 0.797021 0.922869
O O19 0.241857 0.829670 0.005810
O O20 0.500000 0.361815 0.556252
O O21 0.000000 0.914184 0.710891
#
# Coordination Sequence:
#
# PCOD8180129 Si02
#       8
#     8   8   8   8   8   8   8   8
#     4  10  22  41  64  90 117 155 208 255 297 352
#     4  10  23  42  64  90 121 159 203 249 302 357
#     4  10  21  37  59  87 119 160 205 249 303 361
#     4  11  22  40  66  91 122 159 200 250 303 357
#     4  10  22  39  59  87 125 164 198 242 305 366
#     4  12  26  41  62  93 126 159 201 247 299 362
#     4  10  22  41  63  87 122 161 201 253 303 353
#     4  11  21  36  60  90 124 158 199 251 307 357
#
# _framework density 19.666564999999999
#
# number of rings (size 3 to 8) (size 9 to 14) (size 15 to 20)
#    0.000    1.500    2.500    2.250    1.750    4.000 
#    0.000    1.250    0.000    0.000    0.000    0.000 
#    0.000    0.000    0.000    0.000    0.000    0.000 
#
# Total GULP energy -396913.897462 kJ/mol
# GULP energy per Si atom -12403.559296 kJ/mol
# Density = 1.962180 g / cm^3
# Si number density = 19.666565 Si / 1000 Ang^3
#
#
#
# Elastic Constant Matrix: (Units=GPa)
#
#
# Indices 1 2 3 4 5 6 
#
# 1 68.8340 40.8683 43.2039 0.0000 0.0000 0.0000
# 2 40.8683 125.5195 47.5066 0.0000 0.0000 0.0000
# 3 43.2039 47.5066 125.5871 0.0000 0.0000 0.0000
# 4 0.0000 0.0000 0.0000 17.1210 0.0000 0.0000
# 5 0.0000 0.0000 0.0000 0.0000 27.4753 0.0000
# 6 0.0000 0.0000 0.0000 0.0000 0.0000 23.6908
#
#
#
# Elastic Compliance Matrix: (Units=1/GPa)
#
#
# Indices 1 2 3 4 5 6 
#
# 1 0.020670 -0.004714 -0.005328 0.000000 0.000000 0.000000
# 2 -0.004714 0.010373 -0.002302 0.000000 0.000000 0.000000
# 3 -0.005328 -0.002302 0.010666 0.000000 0.000000 0.000000
# 4 0.000000 0.000000 0.000000 0.058408 0.000000 0.000000
# 5 0.000000 0.000000 0.000000 0.000000 0.036396 0.000000
# 6 0.000000 0.000000 0.000000 0.000000 0.000000 0.042211
#
#
# Mechanical properties :
#
#
# Convention : Reuss Voigt Hill
#
# Bulk Modulus (GPa) = 58.74706 64.78868 61.76787
# Shear Modulus (GPa) = 23.91360 26.21487 25.06424
#
# Velocity S-wave (km/s) = 3.49083 3.65494 3.57383
# Velocity P-wave (km/s) = 6.79590 7.12927 6.96458
#
# Compressibility (1/GPa) = 0.01702213
#
# Stress axis : x y z
#
# Youngs Moduli (GPa) = 48.37846 96.40431 93.75260
#
# Poissons Ratio (x) = 0.45441 0.49950
# Poissons Ratio (y) = 0.22804 0.21585
# Poissons Ratio (z) = 0.25775 0.22195
#
# Static dielectric constant tensor:
#      x y z
#    x 3.500630 0.000000 0.000000 
#    y 0.000000 3.679640 0.000000 
#    z 0.000000 0.000000 3.703780 
# 
# 
# High freq. dielectric constant tensor:
#      x y z
#    x 1.758280 0.000000 0.000000 
#    y 0.000000 1.778420 0.000000 
#    z 0.000000 0.000000 1.772330 
# 
# From -- ./inp_files/8587.got.cif
#   From: 2010.03.12/outbox.cif.g09.slc.cpg/sg38_5_cif.got.tgz:8587.got - 2010.04.14 02:38:36.
