data_PCOD8180507
_publ_section_title
;
Structure prediction by ZEFSAII (Michael W. Deem and Ramdas Pophale) SiO2 
 PCOD8180507
Probable space group: A M M 2
;
_chemical_formula_sum "Si O2"
_cell_formula_units_Z 40
_cell_length_a 17.506276
_cell_length_b 12.943706
_cell_length_c 7.026181
_cell_angle_alpha 90.000000
_cell_angle_beta 90.000000
_cell_angle_gamma 90.000000
_cell_volume 1592.105140
_symmetry_space_group_name_H-M "A M M 2"
_symmetry_group_IT_number 38
_symmetry_cell_setting 'orthorhombic'
loop_
_space_group_symop_operation_xyz
x,y,z
-x,-y,z
-x,y,z
x,-y,z
x,1/2+y,1/2+z
-x,1/2-y,1/2+z
-x,1/2+y,1/2+z
x,1/2-y,1/2+z
loop_
_atom_site_type_symbol
_atom_site_label
_atom_site_fract_x
_atom_site_fract_y
_atom_site_fract_z
Si Si1 0.798806 0.618767 0.452110
Si Si2 0.675029 0.802787 0.679074
Si Si3 0.215005 0.620626 0.882669
Si Si4 0.083759 0.619419 0.150712
Si Si5 0.412618 0.118047 0.006112
O O1 0.768958 0.500000 0.428770
O O2 0.745049 0.698904 0.334814
O O3 0.883913 0.627872 0.367044
O O4 0.642731 0.687954 0.636754
O O5 0.791451 0.660786 0.665856
O O6 0.703316 0.857911 0.485866
O O7 0.607703 0.867591 0.781876
O O8 0.201952 0.500000 0.879743
O O9 0.144003 0.670766 0.001530
O O10 0.074699 0.500000 0.096943
O O11 0.000000 0.673170 0.139737
O O12 0.500000 0.150439 0.038723
O O13 0.398359 0.000000 0.067379
#
# Coordination Sequence:
#
# PCOD8180507 Si02
#       5
#     8   8   8   8   8
#     4   9  18  34  60  98 143 194 251 304 357 423
#     4  11  23  43  71 101 140 187 234 292 355 423
#     4   9  18  34  61  99 143 196 251 302 361 424
#     4   8  14  26  48  89 147 202 251 303 360 422
#     4  11  26  49  76 107 143 184 234 292 359 435
#
# _framework density 25.123968000000001
#
# number of rings (size 3 to 8) (size 9 to 14) (size 15 to 20)
#    0.000    2.400    0.000    3.600    2.800    0.800 
#    0.000    6.000    0.000    4.800    0.000   22.400 
#    0.000   38.400    0.000   17.600    0.000    1.600 
#
# Total GULP energy -247871.326142 kJ/mol
# GULP energy per Si atom -12393.566307 kJ/mol
# Density = 2.506678 g / cm^3
# Si number density = 25.123968 Si / 1000 Ang^3
#
#
#
# Elastic Constant Matrix: (Units=GPa)
#
#
# Indices 1 2 3 4 5 6 
#
# 1 181.5702 43.6371 88.1496 0.0000 0.0000 0.0000
# 2 43.6371 100.3884 60.1641 0.0000 0.0000 0.0000
# 3 88.1496 60.1641 197.7011 0.0000 0.0000 0.0000
# 4 0.0000 0.0000 0.0000 42.1883 0.0000 0.0000
# 5 0.0000 0.0000 0.0000 0.0000 34.2055 0.0000
# 6 0.0000 0.0000 0.0000 0.0000 0.0000 11.6594
#
#
#
# Elastic Compliance Matrix: (Units=1/GPa)
#
#
# Indices 1 2 3 4 5 6 
#
# 1 0.007203 -0.001475 -0.002763 0.000000 0.000000 0.000000
# 2 -0.001475 0.012486 -0.003142 0.000000 0.000000 0.000000
# 3 -0.002763 -0.003142 0.007246 0.000000 0.000000 0.000000
# 4 0.000000 0.000000 0.000000 0.023703 0.000000 0.000000
# 5 0.000000 0.000000 0.000000 0.000000 0.029235 0.000000
# 6 0.000000 0.000000 0.000000 0.000000 0.000000 0.085768
#
#
# Mechanical properties :
#
#
# Convention : Reuss Voigt Hill
#
# Bulk Modulus (GPa) = 82.13469 95.95125 89.04297
# Shear Modulus (GPa) = 27.10622 36.79123 31.94873
#
# Velocity S-wave (km/s) = 3.28822 3.83088 3.56988
# Velocity P-wave (km/s) = 6.86872 7.60537 7.24641
#
# Compressibility (1/GPa) = 0.01217512
#
# Stress axis : x y z
#
# Youngs Moduli (GPa) = 138.82328 80.09277 138.00538
#
# Poissons Ratio (x) = 0.11817 0.38128
# Poissons Ratio (y) = 0.20482 0.43358
# Poissons Ratio (z) = 0.38354 0.25163
#
# Static dielectric constant tensor:
#      x y z
#    x 4.889480 0.000000 0.000000 
#    y 0.000000 4.650610 0.000000 
#    z 0.000000 0.000000 4.929350 
# 
# 
# High freq. dielectric constant tensor:
#      x y z
#    x 1.994370 0.000000 0.000000 
#    y 0.000000 2.024190 0.000000 
#    z 0.000000 0.000000 2.006550 
# 
# From -- ./inp_files/6111.got.cif
#   From: 2010.03.12/outbox.cif.g09.slc.cpg/sg38_4_cif.got.tgz:6111.got - 2010.04.14 02:38:36.
