data_PCOD8180185
_publ_section_title
;
Structure prediction by ZEFSAII (Michael W. Deem and Ramdas Pophale) SiO2 
 PCOD8180185
Probable space group: A M M 2
;
_chemical_formula_sum "Si O2"
_cell_formula_units_Z 48
_cell_length_a 8.570330
_cell_length_b 18.537950
_cell_length_c 15.338951
_cell_angle_alpha 90.000000
_cell_angle_beta 90.000000
_cell_angle_gamma 90.000000
_cell_volume 2436.996533
_symmetry_space_group_name_H-M "A M M 2"
_symmetry_group_IT_number 38
_symmetry_cell_setting 'orthorhombic'
loop_
_space_group_symop_operation_xyz
x,y,z
-x,-y,z
-x,y,z
x,-y,z
x,1/2+y,1/2+z
-x,1/2-y,1/2+z
-x,1/2+y,1/2+z
x,1/2-y,1/2+z
loop_
_atom_site_type_symbol
_atom_site_label
_atom_site_fract_x
_atom_site_fract_y
_atom_site_fract_z
Si Si1 0.682715 0.323797 0.264870
Si Si2 0.816362 0.917828 0.105455
Si Si3 0.182758 0.332101 0.773464
Si Si4 0.681012 0.082026 0.431445
Si Si5 0.315750 0.919198 0.925141
Si Si6 0.819343 0.916550 0.615308
O O1 0.500000 0.305718 0.272535
O O2 0.783147 0.251729 0.263178
O O3 0.745545 0.369479 0.347073
O O4 0.712336 0.368734 0.177574
O O5 0.755413 0.871224 0.186401
O O6 0.000000 0.911574 0.095486
O O7 0.762149 0.000000 0.120892
O O8 0.740654 0.886495 0.017140
O O9 0.275297 0.363965 0.854752
O O10 0.000000 0.346011 0.787188
O O11 0.500000 0.090596 0.454588
O O12 0.780133 0.103915 0.516047
O O13 0.720439 0.000000 0.402925
O O14 0.500000 0.921880 0.923681
O O15 0.246564 0.000000 0.912932
O O16 0.000000 0.899839 0.633197
O O17 0.778633 0.000000 0.632866
#
# Coordination Sequence:
#
# PCOD8180185 Si02
#       6
#     8   8   8   8   8   8
#     4  11  23  38  56  81 116 153 189 231 281 337
#     4   9  19  36  58  82 107 139 180 226 275 326
#     4  11  23  38  56  81 116 153 189 231 281 337
#     4  10  21  38  61  87 113 145 188 236 286 341
#     4   9  19  36  58  82 107 139 180 226 275 326
#     4  10  21  38  61  87 113 145 188 236 286 341
#
# _framework density 19.696376000000001
#
# number of rings (size 3 to 8) (size 9 to 14) (size 15 to 20)
#    0.000    2.000    0.000    3.000    0.000    7.333 
#    0.000    6.667    0.000    0.000    0.000    0.000 
#    0.000    0.000    0.000    0.000    0.000    0.000 
#
# Total GULP energy -297718.562242 kJ/mol
# GULP energy per Si atom -12404.940093 kJ/mol
# Density = 1.965155 g / cm^3
# Si number density = 19.696376 Si / 1000 Ang^3
#
#
#
# Elastic Constant Matrix: (Units=GPa)
#
#
# Indices 1 2 3 4 5 6 
#
# 1 35.7890 14.5600 14.5175 0.0000 0.0000 0.0000
# 2 14.5600 94.8046 66.5068 0.0000 0.0000 0.0000
# 3 14.5175 66.5068 132.5837 0.0000 0.0000 0.0000
# 4 0.0000 0.0000 0.0000 8.1767 0.0000 0.0000
# 5 0.0000 0.0000 0.0000 0.0000 36.3346 0.0000
# 6 0.0000 0.0000 0.0000 0.0000 0.0000 30.4111
#
#
#
# Elastic Compliance Matrix: (Units=1/GPa)
#
#
# Indices 1 2 3 4 5 6 
#
# 1 0.029996 -0.003553 -0.001502 0.000000 0.000000 0.000000
# 2 -0.003553 0.016696 -0.007986 0.000000 0.000000 0.000000
# 3 -0.001502 -0.007986 0.011713 0.000000 0.000000 0.000000
# 4 0.000000 0.000000 0.000000 0.122299 0.000000 0.000000
# 5 0.000000 0.000000 0.000000 0.000000 0.027522 0.000000
# 6 0.000000 0.000000 0.000000 0.000000 0.000000 0.032883
#
#
# Mechanical properties :
#
#
# Convention : Reuss Voigt Hill
#
# Bulk Modulus (GPa) = 30.93796 50.48287 40.71042
# Shear Modulus (GPa) = 17.98783 26.15735 22.07259
#
# Velocity S-wave (km/s) = 3.02529 3.64817 3.35123
# Velocity P-wave (km/s) = 5.28628 6.59027 5.97396
#
# Compressibility (1/GPa) = 0.03232275
#
# Stress axis : x y z
#
# Youngs Moduli (GPa) = 33.33732 59.89470 85.37633
#
# Poissons Ratio (x) = 0.21280 0.12826
# Poissons Ratio (y) = 0.11845 0.68182
# Poissons Ratio (z) = 0.05008 0.47832
#
# Static dielectric constant tensor:
#      x y z
#    x 3.468300 0.000000 0.000000 
#    y 0.000000 3.510450 0.000000 
#    z 0.000000 0.000000 3.700440 
# 
# 
# High freq. dielectric constant tensor:
#      x y z
#    x 1.766880 0.000000 0.000000 
#    y 0.000000 1.761530 0.000000 
#    z 0.000000 0.000000 1.779770 
# 
# From -- ./inp_files/12005.got.cif
#   From: 2010.03.12/outbox.cif.g09.slc.cpg/sg38_7_cif.got.tgz:12005.got - 2010.04.14 02:38:36.
