data_PCOD8180759
_publ_section_title
;
Structure prediction by ZEFSAII (Michael W. Deem and Ramdas Pophale) SiO2 
 PCOD8180759
Probable space group: A B M 2
;
_chemical_formula_sum "Si O2"
_cell_formula_units_Z 64
_cell_length_a 14.243146
_cell_length_b 8.643981
_cell_length_c 31.155207
_cell_angle_alpha 90.000000
_cell_angle_beta 90.000000
_cell_angle_gamma 90.000000
_cell_volume 3835.750681
_symmetry_space_group_name_H-M "A B M 2"
_symmetry_group_IT_number 39
_symmetry_cell_setting 'orthorhombic'
loop_
_space_group_symop_operation_xyz
x,y,z
-x,-y,z
-x,1/2+y,z
x,1/2-y,z
x,1/2+y,1/2+z
-x,1/2-y,1/2+z
-x,y,1/2+z
x,-y,1/2+z
loop_
_atom_site_type_symbol
_atom_site_label
_atom_site_fract_x
_atom_site_fract_y
_atom_site_fract_z
Si Si1 0.895908 0.566367 0.755480
Si Si2 0.783811 0.067383 0.090483
Si Si3 0.103169 0.067099 0.342206
Si Si4 0.217373 0.067469 0.425627
Si Si5 0.102539 0.567702 0.006811
Si Si6 0.896608 0.567391 0.168203
Si Si7 0.599266 0.433466 0.556214
Si Si8 0.402075 0.068470 0.957820
O O1 0.894773 0.750000 0.754725
O O2 0.848199 0.503493 0.799208
O O3 0.849694 0.500584 0.711911
O O4 0.000000 0.500000 0.756498
O O5 0.789969 0.250000 0.098232
O O6 0.839536 0.014406 0.048221
O O7 0.827813 0.977722 0.130181
O O8 0.676647 0.014395 0.085870
O O9 0.094658 0.250000 0.337558
O O10 0.169278 0.017171 0.381363
O O11 0.000000 0.000000 0.350698
O O12 0.228158 0.250000 0.429504
O O13 0.154328 0.001959 0.464649
O O14 0.320154 0.993665 0.427309
O O15 0.094278 0.750000 0.004169
O O16 0.000000 0.500000 0.010051
O O17 0.905761 0.750000 0.172117
O O18 0.000000 0.500000 0.159482
O O19 0.500000 0.500000 0.571970
O O20 0.602178 0.250000 0.562130
O O21 0.616979 0.483481 0.506877
O O22 0.408103 0.250000 0.953981
O O23 0.500000 0.000000 0.941071
#
# Coordination Sequence:
#
# PCOD8180759 Si02
#       8
#     8   8   8   8   8   8   8   8
#     4  10  18  31  50  71  97 128 166 208 252 296
#     4  11  21  34  51  72 100 134 170 208 250 296
#     4  10  19  31  49  72 101 134 168 207 249 294
#     4  10  20  34  49  70  99 133 169 206 248 294
#     4  10  21  33  46  65  96 135 170 203 238 284
#     4  11  21  34  51  73 102 133 170 209 251 300
#     4  10  20  34  52  74  97 128 166 211 257 300
#     4  10  20  33  52  73  96 127 165 210 255 298
#
# _framework density 16.685130000000001
#
# number of rings (size 3 to 8) (size 9 to 14) (size 15 to 20)
#    0.000    1.750    1.250    6.000    0.000    4.500 
#    0.000    0.000    0.000    0.000    0.000    0.875 
#    0.000    4.000    0.000    0.000    0.000    0.000 
#
# Total GULP energy -396852.776068 kJ/mol
# GULP energy per Si atom -12401.649252 kJ/mol
# Density = 1.664715 g / cm^3
# Si number density = 16.685130 Si / 1000 Ang^3
#
#
#
# Elastic Constant Matrix: (Units=GPa)
#
#
# Indices 1 2 3 4 5 6 
#
# 1 109.1616 34.2584 58.1925 0.0000 0.0000 0.0000
# 2 34.2584 81.9459 50.2691 0.0000 0.0000 0.0000
# 3 58.1925 50.2691 132.7395 0.0000 0.0000 0.0000
# 4 0.0000 0.0000 0.0000 25.3779 0.0000 0.0000
# 5 0.0000 0.0000 0.0000 0.0000 100.3901 0.0000
# 6 0.0000 0.0000 0.0000 0.0000 0.0000 29.3582
#
#
#
# Elastic Compliance Matrix: (Units=1/GPa)
#
#
# Indices 1 2 3 4 5 6 
#
# 1 0.012304 -0.002390 -0.004489 0.000000 0.000000 0.000000
# 2 -0.002390 0.016360 -0.005148 0.000000 0.000000 0.000000
# 3 -0.004489 -0.005148 0.011451 0.000000 0.000000 0.000000
# 4 0.000000 0.000000 0.000000 0.039404 0.000000 0.000000
# 5 0.000000 0.000000 0.000000 0.000000 0.009961 0.000000
# 6 0.000000 0.000000 0.000000 0.000000 0.000000 0.034062
#
#
# Mechanical properties :
#
#
# Convention : Reuss Voigt Hill
#
# Bulk Modulus (GPa) = 62.26098 67.69855 64.97977
# Shear Modulus (GPa) = 32.69044 43.10038 37.89541
#
# Velocity S-wave (km/s) = 4.43115 5.08799 4.77089
# Velocity P-wave (km/s) = 7.97348 8.67059 8.32933
#
# Compressibility (1/GPa) = 0.01606142
#
# Stress axis : x y z
#
# Youngs Moduli (GPa) = 81.27628 61.12346 87.32896
#
# Poissons Ratio (x) = 0.14609 0.39200
# Poissons Ratio (y) = 0.19426 0.44956
# Poissons Ratio (z) = 0.36483 0.31466
#
# Static dielectric constant tensor:
#      x y z
#    x 2.519650 0.000000 0.000000 
#    y 0.000000 3.202690 0.000000 
#    z 0.000000 0.000000 3.563310 
# 
# 
# High freq. dielectric constant tensor:
#      x y z
#    x 1.620770 0.000000 0.000000 
#    y 0.000000 1.657800 0.000000 
#    z 0.000000 0.000000 1.638010 
# 
# From -- ./inp_files/17977.got.cif
#   From: 2010.03.12/outbox.cif.g09.slc.cpg/sg39_9_cif.got.tgz:17977.got - 2010.04.14 02:53:20.
