data_PCOD8180943
_publ_section_title
;
Structure prediction by ZEFSAII (Michael W. Deem and Ramdas Pophale) SiO2 
 PCOD8180943
Probable space group: A B M 2
;
_chemical_formula_sum "Si O2"
_cell_formula_units_Z 64
_cell_length_a 14.592831
_cell_length_b 9.101575
_cell_length_c 24.485541
_cell_angle_alpha 90.000000
_cell_angle_beta 90.000000
_cell_angle_gamma 90.000000
_cell_volume 3252.114361
_symmetry_space_group_name_H-M "A B M 2"
_symmetry_group_IT_number 39
_symmetry_cell_setting 'orthorhombic'
loop_
_space_group_symop_operation_xyz
x,y,z
-x,-y,z
-x,1/2+y,z
x,1/2-y,z
x,1/2+y,1/2+z
-x,1/2-y,1/2+z
-x,y,1/2+z
x,-y,1/2+z
loop_
_atom_site_type_symbol
_atom_site_label
_atom_site_fract_x
_atom_site_fract_y
_atom_site_fract_z
Si Si1 0.189643 0.083772 0.279770
Si Si2 0.900283 0.424474 0.000406
Si Si3 0.774673 0.919181 0.400285
Si Si4 0.409166 0.078058 0.870412
Si Si5 0.361674 0.580411 0.247515
Si Si6 0.588846 0.576185 0.137821
Si Si7 0.082991 0.911182 0.680147
Si Si8 0.779610 0.419050 0.589608
O O1 0.228601 0.250000 0.270039
O O2 0.170917 0.058125 0.343493
O O3 0.096604 0.062984 0.245071
O O4 0.256667 0.961979 0.255855
O O5 0.914743 0.250000 0.003795
O O6 0.846719 0.472823 0.945622
O O7 0.000000 0.500000 0.003093
O O8 0.833441 0.475817 0.048674
O O9 0.746923 0.750000 0.409706
O O10 0.680796 0.012154 0.400055
O O11 0.411990 0.250000 0.884024
O O12 0.410143 0.048347 0.805442
O O13 0.500000 0.000000 0.894613
O O14 0.369244 0.750000 0.230429
O O15 0.404313 0.482415 0.199791
O O16 0.500000 0.500000 0.110620
O O17 0.576681 0.750000 0.141214
O O18 0.673866 0.534436 0.098283
O O19 0.049095 0.750000 0.667501
O O20 0.177734 0.942940 0.649466
O O21 0.000000 0.000000 0.654926
O O22 0.787698 0.250000 0.569784
#
# Coordination Sequence:
#
# PCOD8180943 Si02
#       8
#     8   8   8   8   8   8   8   8
#     4   9  17  34  55  77 114 156 189 233 287 339
#     4  11  24  42  65  91 114 147 195 243 295 349
#     4   9  20  38  60  84 113 151 195 240 289 343
#     4  10  20  33  53  84 120 158 198 238 283 339
#     4  10  19  31  51  82 117 156 198 235 279 335
#     4  11  22  37  57  84 117 154 195 237 287 345
#     4  10  20  34  53  81 112 147 187 228 286 347
#     4  10  22  41  61  83 114 152 195 241 291 342
#
# _framework density 19.679504000000001
#
# number of rings (size 3 to 8) (size 9 to 14) (size 15 to 20)
#    0.000    2.000    1.250    2.250    0.000    7.000 
#    0.000    0.625    0.000    1.500    0.000    0.000 
#    0.000    0.000    0.000    0.000    0.000    0.000 
#
# Total GULP energy -396636.003860 kJ/mol
# GULP energy per Si atom -12394.875121 kJ/mol
# Density = 1.963471 g / cm^3
# Si number density = 19.679504 Si / 1000 Ang^3
#
#
#
# Elastic Constant Matrix: (Units=GPa)
#
#
# Indices 1 2 3 4 5 6 
#
# 1 145.7485 73.5164 55.0645 0.0000 0.0000 0.0000
# 2 73.5164 99.3429 45.6341 0.0000 0.0000 0.0000
# 3 55.0645 45.6341 83.0467 0.0000 0.0000 0.0000
# 4 0.0000 0.0000 0.0000 24.8860 0.0000 0.0000
# 5 0.0000 0.0000 0.0000 0.0000 135.7037 0.0000
# 6 0.0000 0.0000 0.0000 0.0000 0.0000 35.4260
#
#
#
# Elastic Compliance Matrix: (Units=1/GPa)
#
#
# Indices 1 2 3 4 5 6 
#
# 1 0.011899 -0.006931 -0.004081 0.000000 0.000000 0.000000
# 2 -0.006931 0.017502 -0.005022 0.000000 0.000000 0.000000
# 3 -0.004081 -0.005022 0.017507 0.000000 0.000000 0.000000
# 4 0.000000 0.000000 0.000000 0.040183 0.000000 0.000000
# 5 0.000000 0.000000 0.000000 0.000000 0.007369 0.000000
# 6 0.000000 0.000000 0.000000 0.000000 0.000000 0.028228
#
#
# Mechanical properties :
#
#
# Convention : Reuss Voigt Hill
#
# Bulk Modulus (GPa) = 67.38432 75.17424 71.27928
# Shear Modulus (GPa) = 31.30825 49.46468 40.38647
#
# Velocity S-wave (km/s) = 3.99294 5.01893 4.53505
# Velocity P-wave (km/s) = 7.45475 8.47753 7.98254
#
# Compressibility (1/GPa) = 0.01484025
#
# Stress axis : x y z
#
# Youngs Moduli (GPa) = 84.04089 57.13650 57.12024
#
# Poissons Ratio (x) = 0.39600 0.23312
# Poissons Ratio (y) = 0.58247 0.28685
# Poissons Ratio (z) = 0.34299 0.28693
#
# Static dielectric constant tensor:
#      x y z
#    x 3.329700 0.000000 0.000000 
#    y 0.000000 3.614860 0.000000 
#    z 0.000000 0.000000 3.517580 
# 
# 
# High freq. dielectric constant tensor:
#      x y z
#    x 1.767210 0.000000 0.000000 
#    y 0.000000 1.770160 0.000000 
#    z 0.000000 0.000000 1.750520 
# 
# From -- ./inp_files/16263.got.cif
#   From: 2010.03.12/outbox.cif.g09.slc.cpg/sg39_9_cif.got.tgz:16263.got - 2010.04.14 02:53:20.
