data_PCOD8180931
_publ_section_title
;
Structure prediction by ZEFSAII (Michael W. Deem and Ramdas Pophale) SiO2 
 PCOD8180931
Probable space group: A B M 2
;
_chemical_formula_sum "Si O2"
_cell_formula_units_Z 56
_cell_length_a 17.652398
_cell_length_b 8.918373
_cell_length_c 19.224017
_cell_angle_alpha 90.000000
_cell_angle_beta 90.000000
_cell_angle_gamma 90.000000
_cell_volume 3026.449871
_symmetry_space_group_name_H-M "A B M 2"
_symmetry_group_IT_number 39
_symmetry_cell_setting 'orthorhombic'
loop_
_space_group_symop_operation_xyz
x,y,z
-x,-y,z
-x,1/2+y,z
x,1/2-y,z
x,1/2+y,1/2+z
-x,1/2-y,1/2+z
-x,y,1/2+z
x,-y,1/2+z
loop_
_atom_site_type_symbol
_atom_site_label
_atom_site_fract_x
_atom_site_fract_y
_atom_site_fract_z
Si Si1 0.082322 0.579184 0.253120
Si Si2 0.075725 0.418620 0.908689
Si Si3 0.708060 0.921791 0.080665
Si Si4 0.299295 0.425947 0.863964
Si Si5 0.801938 0.423932 0.975923
Si Si6 0.580395 0.924496 0.974879
Si Si7 0.235638 0.923224 0.730055
O O1 0.073672 0.750000 0.225681
O O2 0.114001 0.581932 0.332335
O O3 0.153201 0.497791 0.214775
O O4 0.000000 0.500000 0.241266
O O5 0.066806 0.250000 0.937871
O O6 0.111390 0.526328 0.967700
O O7 0.000000 0.500000 0.889710
O O8 0.726595 0.750000 0.059847
O O9 0.709098 0.942962 0.163349
O O10 0.629269 0.969843 0.043603
O O11 0.773067 0.031899 0.051806
O O12 0.295843 0.250000 0.849689
O O13 0.234705 0.470122 0.917850
O O14 0.377867 0.472487 0.902797
O O15 0.287023 0.509744 0.791508
O O16 0.788853 0.250000 0.960217
O O17 0.565771 0.750000 0.974552
O O18 0.500000 0.000000 0.980331
O O19 0.219623 0.750000 0.746598
#
# Coordination Sequence:
#
# PCOD8180931 Si02
#       7
#     8   8   8   8   8   8   8
#     4  10  20  33  52  77 110 148 186 232 283 330
#     4  10  19  31  49  74 106 141 178 230 282 326
#     4   9  21  39  56  78 112 149 181 222 276 329
#     4  10  20  35  55  80 111 143 176 222 273 322
#     4  11  20  32  53  79 104 137 182 226 267 325
#     4   9  19  37  60  83 110 143 181 223 274 330
#     4  11  21  35  57  83 112 147 189 233 275 328
#
# _framework density 18.503526999999998
#
# number of rings (size 3 to 8) (size 9 to 14) (size 15 to 20)
#    0.000    2.000    1.429    3.857    0.000    5.143 
#    0.000    1.429    0.000    6.857    0.000    0.000 
#    0.000    0.000    0.000    0.000    0.000    0.000 
#
# Total GULP energy -346938.202282 kJ/mol
# GULP energy per Si atom -12390.650082 kJ/mol
# Density = 1.846141 g / cm^3
# Si number density = 18.503527 Si / 1000 Ang^3
#
#
#
# Elastic Constant Matrix: (Units=GPa)
#
#
# Indices 1 2 3 4 5 6 
#
# 1 86.6689 49.3155 46.7851 0.0000 0.0000 0.0000
# 2 49.3155 100.8788 44.9660 0.0000 0.0000 0.0000
# 3 46.7851 44.9660 97.0023 0.0000 0.0000 0.0000
# 4 0.0000 0.0000 0.0000 26.2148 0.0000 0.0000
# 5 0.0000 0.0000 0.0000 0.0000 23.5107 0.0000
# 6 0.0000 0.0000 0.0000 0.0000 0.0000 34.2186
#
#
#
# Elastic Compliance Matrix: (Units=1/GPa)
#
#
# Indices 1 2 3 4 5 6 
#
# 1 0.018326 -0.006326 -0.005906 0.000000 0.000000 0.000000
# 2 -0.006326 0.014678 -0.003753 0.000000 0.000000 0.000000
# 3 -0.005906 -0.003753 0.014897 0.000000 0.000000 0.000000
# 4 0.000000 0.000000 0.000000 0.038146 0.000000 0.000000
# 5 0.000000 0.000000 0.000000 0.000000 0.042534 0.000000
# 6 0.000000 0.000000 0.000000 0.000000 0.000000 0.029224
#
#
# Mechanical properties :
#
#
# Convention : Reuss Voigt Hill
#
# Bulk Modulus (GPa) = 62.77136 62.96478 62.86807
# Shear Modulus (GPa) = 25.62950 26.35436 25.99193
#
# Velocity S-wave (km/s) = 3.72575 3.77807 3.75200
# Velocity P-wave (km/s) = 7.24610 7.28932 7.26774
#
# Compressibility (1/GPa) = 0.01593083
#
# Stress axis : x y z
#
# Youngs Moduli (GPa) = 54.56689 68.12722 67.12548
#
# Poissons Ratio (x) = 0.43099 0.39646
# Poissons Ratio (y) = 0.34520 0.25193
# Poissons Ratio (z) = 0.32229 0.25569
#
# Static dielectric constant tensor:
#      x y z
#    x 3.400360 0.000000 0.000000 
#    y 0.000000 3.446070 0.000000 
#    z 0.000000 0.000000 3.361330 
# 
# 
# High freq. dielectric constant tensor:
#      x y z
#    x 1.706790 0.000000 0.000000 
#    y 0.000000 1.728850 0.000000 
#    z 0.000000 0.000000 1.699030 
# 
# From -- ./inp_files/14948.got.cif
#   From: 2010.03.12/outbox.cif.g09.slc.cpg/sg39_8_cif.got.tgz:14948.got - 2010.04.14 02:53:20.
