data_PCOD8180770
_publ_section_title
;
Structure prediction by ZEFSAII (Michael W. Deem and Ramdas Pophale) SiO2 
 PCOD8180770
Probable space group: A B M 2
;
_chemical_formula_sum "Si O2"
_cell_formula_units_Z 48
_cell_length_a 16.518575
_cell_length_b 8.591119
_cell_length_c 18.235362
_cell_angle_alpha 90.000000
_cell_angle_beta 90.000000
_cell_angle_gamma 90.000000
_cell_volume 2587.835721
_symmetry_space_group_name_H-M "A B M 2"
_symmetry_group_IT_number 39
_symmetry_cell_setting 'orthorhombic'
loop_
_space_group_symop_operation_xyz
x,y,z
-x,-y,z
-x,1/2+y,z
x,1/2-y,z
x,1/2+y,1/2+z
-x,1/2-y,1/2+z
-x,y,1/2+z
x,-y,1/2+z
loop_
_atom_site_type_symbol
_atom_site_label
_atom_site_fract_x
_atom_site_fract_y
_atom_site_fract_z
Si Si1 0.327636 0.430329 0.618760
Si Si2 0.737922 0.428099 0.843795
Si Si3 0.583756 0.932669 0.247279
Si Si4 0.180647 0.429513 0.200028
Si Si5 0.233410 0.430525 0.997106
Si Si6 0.083947 0.066439 0.582148
O O1 0.343276 0.250000 0.604091
O O2 0.402029 0.498998 0.665563
O O3 0.246599 0.456781 0.664963
O O4 0.314635 0.515455 0.540391
O O5 0.731407 0.250000 0.870823
O O6 0.655628 0.479833 0.802670
O O7 0.814473 0.447765 0.788041
O O8 0.753075 0.540069 0.911553
O O9 0.578106 0.750000 0.239655
O O10 0.500000 0.000000 0.279007
O O11 0.199913 0.250000 0.179069
O O12 0.097100 0.485585 0.162712
O O13 0.217577 0.250000 0.010639
O O14 0.155161 0.524075 0.025482
O O15 0.078848 0.250000 0.591331
O O16 0.000000 0.000000 0.550256
#
# Coordination Sequence:
#
# PCOD8180770 Si02
#       6
#     8   8   8   8   8   8
#     4  10  18  31  52  75 101 134 173 211 252 304
#     4   9  19  35  54  77 107 141 175 213 259 314
#     4  10  20  35  55  79 107 137 174 219 265 312
#     4   9  17  32  53  76 102 132 170 211 252 303
#     4  11  21  34  54  79 107 139 178 218 261 314
#     4  11  21  35  55  78 106 137 174 218 265 313
#
# _framework density 18.548317000000001
#
# number of rings (size 3 to 8) (size 9 to 14) (size 15 to 20)
#    0.000    2.000    0.000    8.500    0.000    4.000 
#    0.000    1.667    0.000    6.000    0.000    0.000 
#    0.000    0.000    0.000    0.000    0.000    0.000 
#
# Total GULP energy -297503.754269 kJ/mol
# GULP energy per Si atom -12395.989761 kJ/mol
# Density = 1.850610 g / cm^3
# Si number density = 18.548317 Si / 1000 Ang^3
#
#
#
# Elastic Constant Matrix: (Units=GPa)
#
#
# Indices 1 2 3 4 5 6 
#
# 1 79.6636 29.1874 34.1666 0.0000 0.0000 0.0000
# 2 29.1874 107.1283 43.0552 0.0000 0.0000 0.0000
# 3 34.1666 43.0552 115.5230 0.0000 0.0000 0.0000
# 4 0.0000 0.0000 0.0000 31.1636 0.0000 0.0000
# 5 0.0000 0.0000 0.0000 0.0000 19.6534 0.0000
# 6 0.0000 0.0000 0.0000 0.0000 0.0000 30.3902
#
#
#
# Elastic Compliance Matrix: (Units=1/GPa)
#
#
# Indices 1 2 3 4 5 6 
#
# 1 0.015018 -0.002713 -0.003431 0.000000 0.000000 0.000000
# 2 -0.002713 0.011469 -0.003472 0.000000 0.000000 0.000000
# 3 -0.003431 -0.003472 0.010965 0.000000 0.000000 0.000000
# 4 0.000000 0.000000 0.000000 0.032089 0.000000 0.000000
# 5 0.000000 0.000000 0.000000 0.000000 0.050882 0.000000
# 6 0.000000 0.000000 0.000000 0.000000 0.000000 0.032905
#
#
# Mechanical properties :
#
#
# Convention : Reuss Voigt Hill
#
# Bulk Modulus (GPa) = 54.88217 57.23705 56.05961
# Shear Modulus (GPa) = 27.99032 29.30183 28.64607
#
# Velocity S-wave (km/s) = 3.88886 3.97893 3.93415
# Velocity P-wave (km/s) = 7.05814 7.21349 7.13624
#
# Compressibility (1/GPa) = 0.01822085
#
# Stress axis : x y z
#
# Youngs Moduli (GPa) = 66.58632 87.18974 91.19950
#
# Poissons Ratio (x) = 0.23654 0.31287
# Poissons Ratio (y) = 0.18065 0.31666
# Poissons Ratio (z) = 0.22843 0.30274
#
# Static dielectric constant tensor:
#      x y z
#    x 3.254580 0.000000 0.000000 
#    y 0.000000 3.400190 0.000000 
#    z 0.000000 0.000000 3.455410 
# 
# 
# High freq. dielectric constant tensor:
#      x y z
#    x 1.695580 0.000000 0.000000 
#    y 0.000000 1.733960 0.000000 
#    z 0.000000 0.000000 1.709110 
# 
# From -- ./inp_files/12844.got.cif
#   From: 2010.03.12/outbox.cif.g09.slc.cpg/sg39_7_cif.got.tgz:12844.got - 2010.04.14 02:53:20.
