data_PCOD8180468
_publ_section_title
;
Structure prediction by ZEFSAII (Michael W. Deem and Ramdas Pophale) SiO2 
 PCOD8180468
Probable space group: A M M 2
;
_chemical_formula_sum "Si O2"
_cell_formula_units_Z 64
_cell_length_a 14.279841
_cell_length_b 9.026952
_cell_length_c 28.098116
_cell_angle_alpha 90.000000
_cell_angle_beta 90.000000
_cell_angle_gamma 90.000000
_cell_volume 3621.943790
_symmetry_space_group_name_H-M "A M M 2"
_symmetry_group_IT_number 38
_symmetry_cell_setting 'orthorhombic'
loop_
_space_group_symop_operation_xyz
x,y,z
-x,-y,z
-x,y,z
x,-y,z
x,1/2+y,1/2+z
-x,1/2-y,1/2+z
-x,1/2+y,1/2+z
x,1/2-y,1/2+z
loop_
_atom_site_type_symbol
_atom_site_label
_atom_site_fract_x
_atom_site_fract_y
_atom_site_fract_z
Si Si1 0.743636 0.830514 0.289890
Si Si2 0.756357 0.326272 0.542483
Si Si3 0.607467 0.672850 0.705941
Si Si4 0.107549 0.672514 0.712471
Si Si5 0.743709 0.675695 0.389288
Si Si6 0.896492 0.175232 0.960711
Si Si7 0.603594 0.175402 0.967557
Si Si8 0.755599 0.175312 0.642606
O O1 0.654760 0.793216 0.256723
O O2 0.839280 0.793406 0.261792
O O3 0.737340 0.730130 0.335865
O O4 0.741955 0.000000 0.306316
O O5 0.757031 0.500000 0.555890
O O6 0.844852 0.283589 0.509727
O O7 0.661519 0.282110 0.514669
O O8 0.762972 0.226209 0.588624
O O9 0.500000 0.724119 0.708162
O O10 0.617177 0.500000 0.693500
O O11 0.659534 0.762719 0.664734
O O12 0.118124 0.500000 0.699311
O O13 0.153274 0.765339 0.670078
O O14 0.000000 0.720159 0.718576
O O15 0.743726 0.500000 0.388847
O O16 0.838103 0.734624 0.415181
O O17 0.655274 0.734638 0.419992
O O18 0.000000 0.247522 0.960221
O O19 0.903431 0.000000 0.957007
O O20 0.500000 0.246654 0.970560
O O21 0.597232 0.000000 0.964306
O O22 0.754174 0.000000 0.645671
#
# Coordination Sequence:
#
# PCOD8180468 Si02
#       8
#     8   8   8   8   8   8   8   8
#     4   9  18  32  50  74 101 126 158 204 253 294
#     4   9  17  31  51  71  91 124 170 206 237 287
#     4   9  19  37  57  73  94 131 177 214 242 286
#     4   9  19  37  57  73  94 131 177 214 242 286
#     4   9  17  29  47  71  97 126 160 196 239 293
#     4   8  15  29  48  69  93 123 163 207 241 276
#     4   8  15  29  48  69  93 123 163 207 241 276
#     4  11  22  34  50  76 109 134 156 200 261 312
#
# _framework density 17.670069999999999
#
# number of rings (size 3 to 8) (size 9 to 14) (size 15 to 20)
#    0.000    3.000    0.000    3.375    0.000    4.500 
#    0.000    5.000    0.000    1.500    0.000    0.000 
#    0.000    0.000    0.000    0.000    0.000    0.000 
#
# Total GULP energy -396714.233081 kJ/mol
# GULP energy per Si atom -12397.319784 kJ/mol
# Density = 1.762985 g / cm^3
# Si number density = 17.670070 Si / 1000 Ang^3
#
#
#
# Elastic Constant Matrix: (Units=GPa)
#
#
# Indices 1 2 3 4 5 6 
#
# 1 72.5727 3.9671 -18.2227 0.0000 0.0000 0.0000
# 2 3.9671 39.3895 13.6383 0.0000 0.0000 0.0000
# 3 -18.2227 13.6383 52.2436 0.0000 0.0000 0.0000
# 4 0.0000 0.0000 0.0000 32.5847 0.0000 0.0000
# 5 0.0000 0.0000 0.0000 0.0000 13.4923 0.0000
# 6 0.0000 0.0000 0.0000 0.0000 0.0000 11.0151
#
#
#
# Elastic Compliance Matrix: (Units=1/GPa)
#
#
# Indices 1 2 3 4 5 6 
#
# 1 0.015602 -0.003799 0.006434 0.000000 0.000000 0.000000
# 2 -0.003799 0.028835 -0.008853 0.000000 0.000000 0.000000
# 3 0.006434 -0.008853 0.023696 0.000000 0.000000 0.000000
# 4 0.000000 0.000000 0.000000 0.030689 0.000000 0.000000
# 5 0.000000 0.000000 0.000000 0.000000 0.074116 0.000000
# 6 0.000000 0.000000 0.000000 0.000000 0.000000 0.090785
#
#
# Mechanical properties :
#
#
# Convention : Reuss Voigt Hill
#
# Bulk Modulus (GPa) = 17.95384 18.10793 18.03089
# Shear Modulus (GPa) = 16.96490 22.40663 19.68577
#
# Velocity S-wave (km/s) = 3.10190 3.56484 3.34140
# Velocity P-wave (km/s) = 4.79705 5.21672 5.01128
#
# Compressibility (1/GPa) = 0.05569839
#
# Stress axis : x y z
#
# Youngs Moduli (GPa) = 64.09235 34.67973 42.20073
#
# Poissons Ratio (x) = 0.13175 -0.27152
# Poissons Ratio (y) = 0.24349 0.37359
# Poissons Ratio (z) = -0.41237 0.30701
#
# Static dielectric constant tensor:
#      x y z
#    x 4.055160 0.000000 0.000000 
#    y 0.000000 2.910030 0.000000 
#    z 0.000000 0.000000 3.192600 
# 
# 
# High freq. dielectric constant tensor:
#      x y z
#    x 1.692900 0.000000 0.000000 
#    y 0.000000 1.648490 0.000000 
#    z 0.000000 0.000000 1.684560 
# 
# From -- ./inp_files/25073.got.cif
#   From: 2010.03.12/outbox.cif.g09.slc.cpg/sg38_13_cif.got.tgz:25073.got - 2010.04.14 02:38:36.
