data_PCOD8180156
_publ_section_title
;
Structure prediction by ZEFSAII (Michael W. Deem and Ramdas Pophale) SiO2 
 PCOD8180156
Probable space group: A M M 2
;
_chemical_formula_sum "Si O2"
_cell_formula_units_Z 64
_cell_length_a 9.125519
_cell_length_b 14.715340
_cell_length_c 24.127624
_cell_angle_alpha 90.000000
_cell_angle_beta 90.000000
_cell_angle_gamma 90.000000
_cell_volume 3239.980758
_symmetry_space_group_name_H-M "A M M 2"
_symmetry_group_IT_number 38
_symmetry_cell_setting 'orthorhombic'
loop_
_space_group_symop_operation_xyz
x,y,z
-x,-y,z
-x,y,z
x,-y,z
x,1/2+y,1/2+z
-x,1/2-y,1/2+z
-x,1/2+y,1/2+z
x,1/2-y,1/2+z
loop_
_atom_site_type_symbol
_atom_site_label
_atom_site_fract_x
_atom_site_fract_y
_atom_site_fract_z
Si Si1 0.161956 0.891934 0.413250
Si Si2 0.670520 0.268346 0.591082
Si Si3 0.328514 0.893584 0.770188
Si Si4 0.165293 0.607805 0.380495
Si Si5 0.825730 0.753365 0.203400
Si Si6 0.670118 0.105364 0.989182
Si Si7 0.174336 0.398849 0.792608
Si Si8 0.329861 0.601309 0.019017
O O1 0.226657 0.862332 0.353213
O O2 0.260413 0.855909 0.463506
O O3 0.000000 0.850978 0.421770
O O4 0.156179 0.000000 0.413931
O O5 0.500000 0.279321 0.607065
O O6 0.772521 0.286617 0.643537
O O7 0.715907 0.340037 0.543927
O O8 0.704945 0.166232 0.570503
O O9 0.500000 0.871262 0.771550
O O10 0.256686 0.858656 0.827429
O O11 0.251589 0.841398 0.719382
O O12 0.299877 0.000000 0.760680
O O13 0.166312 0.500000 0.382076
O O14 0.238990 0.644325 0.436903
O O15 0.000000 0.646060 0.375816
O O16 0.769822 0.830125 0.245986
O O17 0.000000 0.740991 0.203867
O O18 0.500000 0.120027 0.975162
O O19 0.706064 0.000000 0.000234
O O20 0.237640 0.500000 0.780326
O O21 0.000000 0.404068 0.793419
O O22 0.500000 0.597987 0.006528
O O23 0.269413 0.500000 0.032710
#
# Coordination Sequence:
#
# PCOD8180156 Si02
#       8
#     8   8   8   8   8   8   8   8
#     4   8  14  28  52  78 102 129 162 200 246 305
#     4  10  22  38  52  71 102 140 183 223 260 314
#     4  10  21  38  59  80 107 145 181 216 268 332
#     4   9  17  31  54  84 113 137 169 218 271 323
#     4  11  23  37  55  80 107 138 182 232 272 311
#     4   9  18  34  55  77 105 142 179 218 268 322
#     4   8  16  33  55  79 109 142 171 205 259 322
#     4   9  18  33  52  73  99 130 163 204 254 304
#
# _framework density 19.753202999999999
#
# number of rings (size 3 to 8) (size 9 to 14) (size 15 to 20)
#    0.000    2.750    0.000    1.875    0.000    5.250 
#    0.000    5.000    0.000    2.625    0.000    0.000 
#    0.000    0.000    0.000    0.000    0.000    0.000 
#
# Total GULP energy -396753.120910 kJ/mol
# GULP energy per Si atom -12398.535028 kJ/mol
# Density = 1.970824 g / cm^3
# Si number density = 19.753203 Si / 1000 Ang^3
#
#
#
# Elastic Constant Matrix: (Units=GPa)
#
#
# Indices 1 2 3 4 5 6 
#
# 1 71.5764 14.9571 38.0788 0.0000 0.0000 0.0000
# 2 14.9571 36.9221 7.9977 0.0000 0.0000 0.0000
# 3 38.0788 7.9977 97.6218 0.0000 0.0000 0.0000
# 4 0.0000 0.0000 0.0000 26.8424 0.0000 0.0000
# 5 0.0000 0.0000 0.0000 0.0000 34.6069 0.0000
# 6 0.0000 0.0000 0.0000 0.0000 0.0000 15.9541
#
#
#
# Elastic Compliance Matrix: (Units=1/GPa)
#
#
# Indices 1 2 3 4 5 6 
#
# 1 0.018918 -0.006175 -0.006873 0.000000 0.000000 0.000000
# 2 -0.006175 0.029589 -0.000016 0.000000 0.000000 0.000000
# 3 -0.006873 -0.000016 0.012926 0.000000 0.000000 0.000000
# 4 0.000000 0.000000 0.000000 0.037255 0.000000 0.000000
# 5 0.000000 0.000000 0.000000 0.000000 0.028896 0.000000
# 6 0.000000 0.000000 0.000000 0.000000 0.000000 0.062680
#
#
# Mechanical properties :
#
#
# Convention : Reuss Voigt Hill
#
# Bulk Modulus (GPa) = 28.32428 36.46528 32.39478
# Shear Modulus (GPa) = 21.91454 25.15313 23.53383
#
# Velocity S-wave (km/s) = 3.33440 3.57230 3.45540
# Velocity P-wave (km/s) = 5.40320 5.95950 5.68815
#
# Compressibility (1/GPa) = 0.03530539
#
# Stress axis : x y z
#
# Youngs Moduli (GPa) = 52.85950 33.79655 77.36373
#
# Poissons Ratio (x) = 0.20869 0.53175
# Poissons Ratio (y) = 0.32640 0.00120
# Poissons Ratio (z) = 0.36332 0.00052
#
# Static dielectric constant tensor:
#      x y z
#    x 3.568660 0.000000 0.000000 
#    y 0.000000 3.751070 0.000000 
#    z 0.000000 0.000000 3.654340 
# 
# 
# High freq. dielectric constant tensor:
#      x y z
#    x 1.753070 0.000000 0.000000 
#    y 0.000000 1.767890 0.000000 
#    z 0.000000 0.000000 1.769210 
# 
# From -- ./inp_files/22165.got.cif
#   From: 2010.03.12/outbox.cif.g09.slc.cpg/sg38_12_cif.got.tgz:22165.got - 2010.04.14 02:38:36.
