data_PCOD8180563
_publ_section_title
;
Structure prediction by ZEFSAII (Michael W. Deem and Ramdas Pophale) SiO2 
 PCOD8180563
Probable space group: A M M 2
;
_chemical_formula_sum "Si O2"
_cell_formula_units_Z 56
_cell_length_a 23.627575
_cell_length_b 9.553912
_cell_length_c 14.415061
_cell_angle_alpha 90.000000
_cell_angle_beta 90.000000
_cell_angle_gamma 90.000000
_cell_volume 3253.994928
_symmetry_space_group_name_H-M "A M M 2"
_symmetry_group_IT_number 38
_symmetry_cell_setting 'orthorhombic'
loop_
_space_group_symop_operation_xyz
x,y,z
-x,-y,z
-x,y,z
x,-y,z
x,1/2+y,1/2+z
-x,1/2-y,1/2+z
-x,1/2+y,1/2+z
x,1/2-y,1/2+z
loop_
_atom_site_type_symbol
_atom_site_label
_atom_site_fract_x
_atom_site_fract_y
_atom_site_fract_z
Si Si1 0.229170 0.336465 0.887140
Si Si2 0.845463 0.663168 0.253562
Si Si3 0.563469 0.161147 0.563520
Si Si4 0.436544 0.339342 0.744441
Si Si5 0.064832 0.661425 0.407723
Si Si6 0.861805 0.337312 0.040729
Si Si7 0.356823 0.166099 0.404461
O O1 0.227887 0.500000 0.861165
O O2 0.204737 0.252001 0.799670
O O3 0.292482 0.280265 0.904277
O O4 0.195079 0.307391 0.982116
O O5 0.828862 0.500000 0.257323
O O6 0.902510 0.693991 0.311749
O O7 0.853573 0.712050 0.147068
O O8 0.500000 0.178435 0.522470
O O9 0.571419 0.248732 0.654638
O O10 0.609670 0.223689 0.493216
O O11 0.575683 0.000000 0.587021
O O12 0.500000 0.323526 0.785675
O O13 0.424182 0.500000 0.719319
O O14 0.390526 0.278661 0.815407
O O15 0.072240 0.500000 0.435746
O O16 0.087287 0.751692 0.494093
O O17 0.000000 0.701413 0.389485
O O18 0.878485 0.500000 0.037707
O O19 0.359287 0.000000 0.406365
#
# Coordination Sequence:
#
# PCOD8180563 Si02
#       7
#     8   8   8   8   8   8   8
#     4   9  18  32  48  68  93 121 158 198 229 266
#     4   9  18  33  51  70  95 126 155 186 230 276
#     4   9  17  30  48  69  92 119 152 190 233 280
#     4   9  17  30  47  66  89 118 152 189 231 281
#     4   9  18  32  49  71  98 124 152 187 225 269
#     4   9  18  32  50  70  93 124 158 191 229 271
#     4   9  17  30  48  67  90 123 157 188 229 281
#
# _framework density 17.209613999999998
#
# number of rings (size 3 to 8) (size 9 to 14) (size 15 to 20)
#    0.000    3.000    0.000    0.429    0.000    4.286 
#    0.000    5.000    0.000    3.429    0.000    0.000 
#    0.000    0.000    0.000    0.000    0.000    0.000 
#
# Total GULP energy -347138.142850 kJ/mol
# GULP energy per Si atom -12397.790816 kJ/mol
# Density = 1.717044 g / cm^3
# Si number density = 17.209614 Si / 1000 Ang^3
#
#
#
# Elastic Constant Matrix: (Units=GPa)
#
#
# Indices 1 2 3 4 5 6 
#
# 1 139.1734 42.2726 69.1317 0.0000 0.0000 0.0000
# 2 42.2726 45.2797 45.7504 0.0000 0.0000 0.0000
# 3 69.1317 45.7504 131.1897 0.0000 0.0000 0.0000
# 4 0.0000 0.0000 0.0000 20.9359 0.0000 0.0000
# 5 0.0000 0.0000 0.0000 0.0000 52.2681 0.0000
# 6 0.0000 0.0000 0.0000 0.0000 0.0000 22.2728
#
#
#
# Elastic Compliance Matrix: (Units=1/GPa)
#
#
# Indices 1 2 3 4 5 6 
#
# 1 0.010930 -0.006770 -0.003399 0.000000 0.000000 0.000000
# 2 -0.006770 0.038294 -0.009787 0.000000 0.000000 0.000000
# 3 -0.003399 -0.009787 0.012827 0.000000 0.000000 0.000000
# 4 0.000000 0.000000 0.000000 0.047765 0.000000 0.000000
# 5 0.000000 0.000000 0.000000 0.000000 0.019132 0.000000
# 6 0.000000 0.000000 0.000000 0.000000 0.000000 0.044898
#
#
# Mechanical properties :
#
#
# Convention : Reuss Voigt Hill
#
# Bulk Modulus (GPa) = 45.16872 69.99469 57.58171
# Shear Modulus (GPa) = 22.61054 29.66125 26.13589
#
# Velocity S-wave (km/s) = 3.62861 4.15604 3.90125
# Velocity P-wave (km/s) = 6.62261 7.98689 7.33653
#
# Compressibility (1/GPa) = 0.02213921
#
# Stress axis : x y z
#
# Youngs Moduli (GPa) = 91.49300 26.11379 77.96334
#
# Poissons Ratio (x) = 0.17679 0.26497
# Poissons Ratio (y) = 0.61940 0.76302
# Poissons Ratio (z) = 0.31095 0.25557
#
# Static dielectric constant tensor:
#      x y z
#    x 3.393120 0.000000 0.000000 
#    y 0.000000 3.053260 0.000000 
#    z 0.000000 0.000000 3.221030 
# 
# 
# High freq. dielectric constant tensor:
#      x y z
#    x 1.667100 0.000000 0.000000 
#    y 0.000000 1.646950 0.000000 
#    z 0.000000 0.000000 1.665140 
# 
# From -- ./inp_files/10745.got.cif
#   From: 2010.03.12/outbox.cif.g09.slc.cpg/sg38_6_cif.got.tgz:10745.got - 2010.04.14 02:38:36.
