data_PCOD8180632
_publ_section_title
;
Structure prediction by ZEFSAII (Michael W. Deem and Ramdas Pophale) SiO2 
 PCOD8180632
Probable space group: A B M 2
;
_chemical_formula_sum "Si O2"
_cell_formula_units_Z 56
_cell_length_a 15.973926
_cell_length_b 24.350158
_cell_length_c 5.535380
_cell_angle_alpha 90.000000
_cell_angle_beta 90.000000
_cell_angle_gamma 90.000000
_cell_volume 2153.083595
_symmetry_space_group_name_H-M "A B M 2"
_symmetry_group_IT_number 39
_symmetry_cell_setting 'orthorhombic'
loop_
_space_group_symop_operation_xyz
x,y,z
-x,-y,z
-x,1/2+y,z
x,1/2-y,z
x,1/2+y,1/2+z
-x,1/2-y,1/2+z
-x,y,1/2+z
x,-y,1/2+z
loop_
_atom_site_type_symbol
_atom_site_label
_atom_site_fract_x
_atom_site_fract_y
_atom_site_fract_z
Si Si1 0.459730 0.314749 0.397360
Si Si2 0.532325 0.938205 0.659971
Si Si3 0.811962 0.375133 0.386005
Si Si4 0.719935 0.811408 0.231451
Si Si5 0.280376 0.967189 0.167131
Si Si6 0.978425 0.408930 0.518272
Si Si7 0.105074 0.811340 0.006821
O O1 0.477578 0.250000 0.397440
O O2 0.493964 0.339212 0.654180
O O3 0.359864 0.328025 0.393769
O O4 0.488588 0.909623 0.897593
O O5 0.630509 0.938849 0.695316
O O6 0.500000 0.000000 0.624803
O O7 0.726262 0.354489 0.510800
O O8 0.788066 0.418996 0.179272
O O9 0.879758 0.400792 0.572501
O O10 0.863010 0.324027 0.275848
O O11 0.703989 0.750000 0.131576
O O12 0.810048 0.816103 0.353067
O O13 0.267859 0.995212 0.906863
O O14 0.983936 0.440379 0.253947
O O15 0.030832 0.353559 0.437453
O O16 0.067583 0.750000 0.990546
#
# Coordination Sequence:
#
# PCOD8180632 Si02
#       7
#     8   8   8   8   8   8   8
#     4   9  19  35  57  81 120 177 222 261 317 386
#     4  10  16  35  64  94 127 164 215 288 354 406
#     4  11  25  41  65 100 142 173 227 284 349 415
#     4  10  21  39  64  96 132 174 223 277 338 407
#     4  12  25  42  70  98 132 185 227 283 356 415
#     4  10  21  40  64  93 133 175 211 271 337 398
#     4  10  22  40  68 102 136 179 226 281 348 413
#
# _framework density 26.009207
#
# number of rings (size 3 to 8) (size 9 to 14) (size 15 to 20)
#    0.000    1.714    4.286    0.429    4.000    2.857 
#    0.000    1.429    0.000   10.286    0.000    0.000 
#    0.000    0.000    0.000    0.000    0.000    0.000 
#
# Total GULP energy -346927.355179 kJ/mol
# GULP energy per Si atom -12390.262685 kJ/mol
# Density = 2.595001 g / cm^3
# Si number density = 26.009207 Si / 1000 Ang^3
#
#
#
# Elastic Constant Matrix: (Units=GPa)
#
#
# Indices 1 2 3 4 5 6 
#
# 1 117.8086 29.3566 27.5334 0.0000 0.0000 0.0000
# 2 29.3566 61.5480 49.6323 0.0000 0.0000 0.0000
# 3 27.5334 49.6323 179.5368 0.0000 0.0000 0.0000
# 4 0.0000 0.0000 0.0000 32.1038 0.0000 0.0000
# 5 0.0000 0.0000 0.0000 0.0000 35.0899 0.0000
# 6 0.0000 0.0000 0.0000 0.0000 0.0000 22.6407
#
#
#
# Elastic Compliance Matrix: (Units=1/GPa)
#
#
# Indices 1 2 3 4 5 6 
#
# 1 0.009643 -0.004384 -0.000267 0.000000 0.000000 0.000000
# 2 -0.004384 0.022902 -0.005659 0.000000 0.000000 0.000000
# 3 -0.000267 -0.005659 0.007175 0.000000 0.000000 0.000000
# 4 0.000000 0.000000 0.000000 0.031149 0.000000 0.000000
# 5 0.000000 0.000000 0.000000 0.000000 0.028498 0.000000
# 6 0.000000 0.000000 0.000000 0.000000 0.000000 0.044168
#
#
# Mechanical properties :
#
#
# Convention : Reuss Voigt Hill
#
# Bulk Modulus (GPa) = 52.35500 63.54867 57.95184
# Shear Modulus (GPa) = 29.32163 34.79162 32.05663
#
# Velocity S-wave (km/s) = 3.36125 3.66138 3.51452
# Velocity P-wave (km/s) = 5.93609 6.50849 6.22887
#
# Compressibility (1/GPa) = 0.01910037
#
# Stress axis : x y z
#
# Youngs Moduli (GPa) = 103.69950 43.66443 139.36983
#
# Poissons Ratio (x) = 0.19144 0.03719
# Poissons Ratio (y) = 0.45466 0.78866
# Poissons Ratio (z) = 0.02767 0.24709
#
# Static dielectric constant tensor:
#      x y z
#    x 4.734860 0.000000 0.000000 
#    y 0.000000 4.576600 0.000000 
#    z 0.000000 0.000000 5.143870 
# 
# 
# High freq. dielectric constant tensor:
#      x y z
#    x 2.045710 0.000000 0.000000 
#    y 0.000000 2.041390 0.000000 
#    z 0.000000 0.000000 2.059420 
# 
# From -- ./inp_files/655.got.cif
#   From: 2010.03.12/outbox.cif.g09.slc.cpg/sg39_1_cif.got.tgz:655.got - 2010.04.14 02:53:20.
