data_PCOD8180194
_publ_section_title
;
Structure prediction by ZEFSAII (Michael W. Deem and Ramdas Pophale) SiO2 
 PCOD8180194
Probable space group: A M M 2
;
_chemical_formula_sum "Si O2"
_cell_formula_units_Z 56
_cell_length_a 21.132549
_cell_length_b 8.782113
_cell_length_c 15.297126
_cell_angle_alpha 90.000000
_cell_angle_beta 90.000000
_cell_angle_gamma 90.000000
_cell_volume 2838.969648
_symmetry_space_group_name_H-M "A M M 2"
_symmetry_group_IT_number 38
_symmetry_cell_setting 'orthorhombic'
loop_
_space_group_symop_operation_xyz
x,y,z
-x,-y,z
-x,y,z
x,-y,z
x,1/2+y,1/2+z
-x,1/2-y,1/2+z
-x,1/2+y,1/2+z
x,1/2-y,1/2+z
loop_
_atom_site_type_symbol
_atom_site_label
_atom_site_fract_x
_atom_site_fract_y
_atom_site_fract_z
Si Si1 0.143802 0.821940 0.582060
Si Si2 0.500000 0.320913 0.176874
Si Si3 0.927095 0.676652 0.741991
Si Si4 0.710367 0.177634 0.586435
Si Si5 0.377270 0.174680 0.428080
Si Si6 0.371710 0.674204 0.732305
Si Si7 0.074004 0.323858 0.423150
Si Si8 0.500000 0.322863 0.489204
O O1 0.114176 0.726189 0.660168
O O2 0.217010 0.776983 0.575359
O O3 0.111623 0.778498 0.491238
O O4 0.133707 0.000000 0.600011
O O5 0.500000 0.500000 0.184661
O O6 0.437815 0.260091 0.223863
O O7 0.500000 0.275335 0.076394
O O8 0.915377 0.500000 0.762231
O O9 0.905905 0.772952 0.826192
O O10 0.000000 0.708789 0.718552
O O11 0.674328 0.229306 0.498580
O O12 0.682460 0.261904 0.670137
O O13 0.701571 0.000000 0.602947
O O14 0.347255 0.192404 0.331761
O O15 0.438422 0.281622 0.433328
O O16 0.397546 0.000000 0.445387
O O17 0.383977 0.500000 0.707180
O O18 0.091610 0.500000 0.436245
O O19 0.000000 0.294490 0.438158
O O20 0.500000 0.500000 0.512541
#
# Coordination Sequence:
#
# PCOD8180194 Si02
#       8
#     8   4   8   8   8   8   8   4
#     4  11  23  38  59  88 122 161 204 245 293 359
#     4  12  23  38  61  86 120 158 187 237 304 353
#     4  10  21  38  61  89 120 156 199 248 303 359
#     4  10  23  42  60  82 117 162 200 239 293 351
#     4  10  22  41  62  84 117 156 189 234 300 354
#     4  11  23  39  62  91 117 150 198 246 291 350
#     4  10  21  38  61  90 122 156 197 248 303 356
#     4  12  23  36  61  94 118 144 195 247 290 349
#
# _framework density 19.725465
#
# number of rings (size 3 to 8) (size 9 to 14) (size 15 to 20)
#    0.000    1.429    1.429    3.857    0.000    8.571 
#    0.000    1.429    0.000    0.000    0.000    0.000 
#    0.000    0.000    0.000    0.000    0.000    0.000 
#
# Total GULP energy -347359.255995 kJ/mol
# GULP energy per Si atom -12405.687714 kJ/mol
# Density = 1.968057 g / cm^3
# Si number density = 19.725465 Si / 1000 Ang^3
#
#
#
# Elastic Constant Matrix: (Units=GPa)
#
#
# Indices 1 2 3 4 5 6 
#
# 1 103.5023 47.4025 58.7207 0.0000 0.0000 0.0000
# 2 47.4025 76.3282 32.2206 0.0000 0.0000 0.0000
# 3 58.7207 32.2206 126.7156 0.0000 0.0000 0.0000
# 4 0.0000 0.0000 0.0000 36.9531 0.0000 0.0000
# 5 0.0000 0.0000 0.0000 0.0000 43.6903 0.0000
# 6 0.0000 0.0000 0.0000 0.0000 0.0000 28.0401
#
#
#
# Elastic Compliance Matrix: (Units=1/GPa)
#
#
# Indices 1 2 3 4 5 6 
#
# 1 0.016443 -0.007836 -0.005627 0.000000 0.000000 0.000000
# 2 -0.007836 0.018411 -0.001050 0.000000 0.000000 0.000000
# 3 -0.005627 -0.001050 0.010766 0.000000 0.000000 0.000000
# 4 0.000000 0.000000 0.000000 0.027061 0.000000 0.000000
# 5 0.000000 0.000000 0.000000 0.000000 0.022888 0.000000
# 6 0.000000 0.000000 0.000000 0.000000 0.000000 0.035663
#
#
# Mechanical properties :
#
#
# Convention : Reuss Voigt Hill
#
# Bulk Modulus (GPa) = 60.26499 64.80374 62.53437
# Shear Modulus (GPa) = 30.15825 32.95016 31.55421
#
# Velocity S-wave (km/s) = 3.91436 4.09153 4.00392
# Velocity P-wave (km/s) = 7.14477 7.43270 7.29016
#
# Compressibility (1/GPa) = 0.01659338
#
# Stress axis : x y z
#
# Youngs Moduli (GPa) = 60.81593 54.31473 92.88151
#
# Poissons Ratio (x) = 0.42563 0.52267
# Poissons Ratio (y) = 0.47657 0.09754
# Poissons Ratio (z) = 0.34223 0.05704
#
# Static dielectric constant tensor:
#      x y z
#    x 3.550890 0.000000 0.000000 
#    y 0.000000 3.663350 0.000000 
#    z 0.000000 0.000000 3.686900 
# 
# 
# High freq. dielectric constant tensor:
#      x y z
#    x 1.761650 0.000000 0.000000 
#    y 0.000000 1.776970 0.000000 
#    z 0.000000 0.000000 1.783780 
# 
# From -- ./inp_files/15516.got.cif
#   From: 2010.03.12/outbox.cif.g09.slc.cpg/sg38_8_cif.got.tgz:15516.got - 2010.04.14 02:38:36.
