data_PCOD8180461
_publ_section_title
;
Structure prediction by ZEFSAII (Michael W. Deem and Ramdas Pophale) SiO2 
 PCOD8180461
Probable space group: A M M 2
;
_chemical_formula_sum "Si O2"
_cell_formula_units_Z 40
_cell_length_a 14.040625
_cell_length_b 18.911232
_cell_length_c 7.483626
_cell_angle_alpha 90.000000
_cell_angle_beta 90.000000
_cell_angle_gamma 90.000000
_cell_volume 1987.093661
_symmetry_space_group_name_H-M "A M M 2"
_symmetry_group_IT_number 38
_symmetry_cell_setting 'orthorhombic'
loop_
_space_group_symop_operation_xyz
x,y,z
-x,-y,z
-x,y,z
x,-y,z
x,1/2+y,1/2+z
-x,1/2-y,1/2+z
-x,1/2+y,1/2+z
x,1/2-y,1/2+z
loop_
_atom_site_type_symbol
_atom_site_label
_atom_site_fract_x
_atom_site_fract_y
_atom_site_fract_z
Si Si1 0.396090 0.862108 0.557400
Si Si2 0.111249 0.318012 0.265842
Si Si3 0.799963 0.580535 0.981340
Si Si4 0.198820 0.327429 0.638123
Si Si5 0.395838 0.719471 0.692590
O O1 0.500000 0.900831 0.567833
O O2 0.310662 0.918023 0.546488
O O3 0.382403 0.804873 0.715880
O O4 0.390891 0.808916 0.391765
O O5 0.135093 0.376009 0.117394
O O6 0.140427 0.347081 0.460972
O O7 0.164347 0.244986 0.228713
O O8 0.000000 0.302520 0.262523
O O9 0.834609 0.500000 0.982799
O O10 0.813498 0.609868 0.781349
O O11 0.309847 0.317716 0.583991
O O12 0.500000 0.701658 0.606508
#
# Coordination Sequence:
#
# PCOD8180461 Si02
#       5
#     8   8   8   8   8
#     4   9  17  31  56  88 121 157 199 245 303 367
#     4  12  24  40  66  94 118 156 214 266 309 365
#     4  11  25  42  61  91 132 166 200 255 316 370
#     4  11  21  40  66  93 123 160 209 256 308 371
#     4   9  16  29  54  90 119 149 196 253 299 351
#
# _framework density 20.129902999999999
#
# number of rings (size 3 to 8) (size 9 to 14) (size 15 to 20)
#    0.000    1.600    4.000    1.800    0.000    2.400 
#    0.000    0.000    0.000    0.000    0.000    2.800 
#    0.000    0.000    0.000    0.000    0.000    0.000 
#
# Total GULP energy -247884.121014 kJ/mol
# GULP energy per Si atom -12394.206051 kJ/mol
# Density = 2.008409 g / cm^3
# Si number density = 20.129903 Si / 1000 Ang^3
#
#
#
# Elastic Constant Matrix: (Units=GPa)
#
#
# Indices 1 2 3 4 5 6 
#
# 1 110.2527 15.9448 28.9853 0.0000 0.0000 0.0000
# 2 15.9448 83.3529 9.0959 0.0000 0.0000 0.0000
# 3 28.9853 9.0959 59.0424 0.0000 0.0000 0.0000
# 4 0.0000 0.0000 0.0000 23.3376 0.0000 0.0000
# 5 0.0000 0.0000 0.0000 0.0000 29.1901 0.0000
# 6 0.0000 0.0000 0.0000 0.0000 0.0000 10.6160
#
#
#
# Elastic Compliance Matrix: (Units=1/GPa)
#
#
# Indices 1 2 3 4 5 6 
#
# 1 0.010592 -0.001484 -0.004971 0.000000 0.000000 0.000000
# 2 -0.001484 0.012410 -0.001184 0.000000 0.000000 0.000000
# 3 -0.004971 -0.001184 0.019560 0.000000 0.000000 0.000000
# 4 0.000000 0.000000 0.000000 0.042849 0.000000 0.000000
# 5 0.000000 0.000000 0.000000 0.000000 0.034258 0.000000
# 6 0.000000 0.000000 0.000000 0.000000 0.000000 0.094197
#
#
# Mechanical properties :
#
#
# Convention : Reuss Voigt Hill
#
# Bulk Modulus (GPa) = 36.65022 40.07778 38.36400
# Shear Modulus (GPa) = 20.98745 25.87021 23.42883
#
# Velocity S-wave (km/s) = 3.23244 3.58881 3.41527
# Velocity P-wave (km/s) = 5.67256 6.09307 5.88657
#
# Compressibility (1/GPa) = 0.02728497
#
# Stress axis : x y z
#
# Youngs Moduli (GPa) = 94.41519 80.57928 51.12549
#
# Poissons Ratio (x) = 0.11955 0.25415
# Poissons Ratio (y) = 0.14008 0.06051
# Poissons Ratio (z) = 0.46934 0.09537
#
# Static dielectric constant tensor:
#      x y z
#    x 4.070150 0.000000 0.000000 
#    y 0.000000 3.217330 0.000000 
#    z 0.000000 0.000000 3.703800 
# 
# 
# High freq. dielectric constant tensor:
#      x y z
#    x 1.806010 0.000000 0.000000 
#    y 0.000000 1.737950 0.000000 
#    z 0.000000 0.000000 1.787300 
# 
# From -- ./inp_files/5238.got.cif
#   From: 2010.03.12/outbox.cif.g09.slc.cpg/sg38_3_cif.got.tgz:5238.got - 2010.04.14 02:38:36.
