data_PCOD8180124
_publ_section_title
;
Structure prediction by ZEFSAII (Michael W. Deem and Ramdas Pophale) SiO2 
 PCOD8180124
Probable space group: A M M 2
;
_chemical_formula_sum "Si O2"
_cell_formula_units_Z 48
_cell_length_a 19.004552
_cell_length_b 8.862308
_cell_length_c 15.030854
_cell_angle_alpha 90.000000
_cell_angle_beta 90.000000
_cell_angle_gamma 90.000000
_cell_volume 2531.559458
_symmetry_space_group_name_H-M "A M M 2"
_symmetry_group_IT_number 38
_symmetry_cell_setting 'orthorhombic'
loop_
_space_group_symop_operation_xyz
x,y,z
-x,-y,z
-x,y,z
x,-y,z
x,1/2+y,1/2+z
-x,1/2-y,1/2+z
-x,1/2+y,1/2+z
x,1/2-y,1/2+z
loop_
_atom_site_type_symbol
_atom_site_label
_atom_site_fract_x
_atom_site_fract_y
_atom_site_fract_z
Si Si1 0.319897 0.821211 0.193180
Si Si2 0.825365 0.674742 0.139818
Si Si3 0.421380 0.679073 0.539856
Si Si4 0.673525 0.322554 0.378365
Si Si5 0.815254 0.826117 0.436403
Si Si6 0.919406 0.824710 0.279823
O O1 0.242104 0.766291 0.171617
O O2 0.374814 0.756751 0.120930
O O3 0.345112 0.762453 0.288099
O O4 0.318608 0.000000 0.193612
O O5 0.810898 0.500000 0.158762
O O6 0.892088 0.729225 0.196164
O O7 0.841889 0.704759 0.036312
O O8 0.500000 0.747346 0.545165
O O9 0.423893 0.500000 0.545903
O O10 0.385901 0.729589 0.447810
O O11 0.672330 0.500000 0.361431
O O12 0.749420 0.279416 0.416239
O O13 0.877822 0.782406 0.369648
O O14 0.792269 0.000000 0.423824
O O15 0.000000 0.781030 0.296759
O O16 0.910336 0.000000 0.256557
#
# Coordination Sequence:
#
# PCOD8180124 Si02
#       6
#     8   8   8   8   8   8
#     4  11  21  36  59  85 115 154 196 237 287 346
#     4  11  22  36  59  89 117 149 195 243 287 339
#     4   9  20  38  58  83 118 156 191 235 293 349
#     4  11  21  35  59  88 115 149 194 240 285 341
#     4  10  21  37  59  85 116 152 190 235 286 344
#     4  10  22  40  60  84 117 157 194 234 290 348
#
# _framework density 18.960645
#
# number of rings (size 3 to 8) (size 9 to 14) (size 15 to 20)
#    0.000    1.667    3.333    1.500    0.000    2.333 
#    0.000    1.667    0.000    7.000    0.000    0.000 
#    0.000    0.000    0.000    0.000    0.000    0.000 
#
# Total GULP energy -297692.468445 kJ/mol
# GULP energy per Si atom -12403.852852 kJ/mol
# Density = 1.891749 g / cm^3
# Si number density = 18.960645 Si / 1000 Ang^3
#
#
#
# Elastic Constant Matrix: (Units=GPa)
#
#
# Indices 1 2 3 4 5 6 
#
# 1 121.7799 27.6840 48.3753 0.0000 0.0000 0.0000
# 2 27.6840 60.6340 36.6711 0.0000 0.0000 0.0000
# 3 48.3753 36.6711 134.6083 0.0000 0.0000 0.0000
# 4 0.0000 0.0000 0.0000 31.0215 0.0000 0.0000
# 5 0.0000 0.0000 0.0000 0.0000 34.7416 0.0000
# 6 0.0000 0.0000 0.0000 0.0000 0.0000 17.6197
#
#
#
# Elastic Compliance Matrix: (Units=1/GPa)
#
#
# Indices 1 2 3 4 5 6 
#
# 1 0.009976 -0.002857 -0.002807 0.000000 0.000000 0.000000
# 2 -0.002857 0.020564 -0.004575 0.000000 0.000000 0.000000
# 3 -0.002807 -0.004575 0.009684 0.000000 0.000000 0.000000
# 4 0.000000 0.000000 0.000000 0.032236 0.000000 0.000000
# 5 0.000000 0.000000 0.000000 0.000000 0.028784 0.000000
# 6 0.000000 0.000000 0.000000 0.000000 0.000000 0.056755
#
#
# Mechanical properties :
#
#
# Convention : Reuss Voigt Hill
#
# Bulk Modulus (GPa) = 50.64476 60.27587 55.46031
# Shear Modulus (GPa) = 27.01837 30.29602 28.65720
#
# Velocity S-wave (km/s) = 3.77897 4.00163 3.89190
# Velocity P-wave (km/s) = 6.76826 7.29450 7.03630
#
# Compressibility (1/GPa) = 0.01974538
#
# Stress axis : x y z
#
# Youngs Moduli (GPa) = 100.24039 48.62831 103.26180
#
# Poissons Ratio (x) = 0.13895 0.28983
# Poissons Ratio (y) = 0.28642 0.47247
# Poissons Ratio (z) = 0.28135 0.22249
#
# Static dielectric constant tensor:
#      x y z
#    x 3.538970 0.000000 0.000000 
#    y 0.000000 3.364070 0.000000 
#    z 0.000000 0.000000 3.800280 
# 
# 
# High freq. dielectric constant tensor:
#      x y z
#    x 1.733010 0.000000 0.000000 
#    y 0.000000 1.725920 0.000000 
#    z 0.000000 0.000000 1.755200 
# 
# From -- ./inp_files/14955.got.cif
#   From: 2010.03.12/outbox.cif.g09.slc.cpg/sg38_8_cif.got.tgz:14955.got - 2010.04.14 02:38:36.
