data_PCOD8180896
_publ_section_title
;
Structure prediction by ZEFSAII (Michael W. Deem and Ramdas Pophale) SiO2 
 PCOD8180896
Probable space group: A B M 2
;
_chemical_formula_sum "Si O2"
_cell_formula_units_Z 64
_cell_length_a 20.676449
_cell_length_b 9.067123
_cell_length_c 18.682475
_cell_angle_alpha 90.000000
_cell_angle_beta 90.000000
_cell_angle_gamma 90.000000
_cell_volume 3502.513932
_symmetry_space_group_name_H-M "A B M 2"
_symmetry_group_IT_number 39
_symmetry_cell_setting 'orthorhombic'
loop_
_space_group_symop_operation_xyz
x,y,z
-x,-y,z
-x,1/2+y,z
x,1/2-y,z
x,1/2+y,1/2+z
-x,1/2-y,1/2+z
-x,y,1/2+z
x,-y,1/2+z
loop_
_atom_site_type_symbol
_atom_site_label
_atom_site_fract_x
_atom_site_fract_y
_atom_site_fract_z
Si Si1 0.180606 0.421541 0.208440
Si Si2 0.064658 0.077225 0.956092
Si Si3 0.299801 0.926429 0.447626
Si Si4 0.440418 0.588503 0.456839
Si Si5 0.307328 0.922201 0.799039
Si Si6 0.815142 0.924861 0.046197
Si Si7 0.437530 0.415894 0.786907
Si Si8 0.933929 0.576515 0.791102
O O1 0.160897 0.250000 0.211996
O O2 0.250609 0.448089 0.242296
O O3 0.184319 0.480980 0.127319
O O4 0.126421 0.515944 0.247554
O O5 0.055737 0.250000 0.966706
O O6 0.079014 0.037374 0.873840
O O7 0.122634 0.013573 0.004178
O O8 0.000000 0.000000 0.983816
O O9 0.298754 0.750000 0.435125
O O10 0.370220 0.978263 0.476730
O O11 0.248646 0.982780 0.505841
O O12 0.284151 0.002912 0.372435
O O13 0.500000 0.500000 0.491078
O O14 0.446491 0.750000 0.490137
O O15 0.445390 0.592402 0.371684
O O16 0.321089 0.750000 0.812334
O O17 0.372155 0.996280 0.767246
O O18 0.814860 0.750000 0.043473
O O19 0.500000 0.500000 0.754068
O O20 0.433995 0.250000 0.755213
O O21 0.940602 0.750000 0.778366
O O22 0.000000 0.500000 0.764420
#
# Coordination Sequence:
#
# PCOD8180896 Si02
#       8
#     8   8   8   8   8   8   8   8
#     4  10  21  35  51  73 102 135 169 206 247 294
#     4   9  18  33  54  76  97 124 158 198 242 289
#     4   9  17  31  51  71  92 126 170 209 247 293
#     4   8  14  23  39  65  92 117 148 191 240 285
#     4  10  19  30  47  73 103 133 166 206 251 298
#     4   9  18  34  53  71  95 129 168 205 243 289
#     4   9  16  27  45  70  99 129 164 207 253 300
#     4  10  20  35  56  79 102 129 162 202 247 296
#
# _framework density 18.272590999999998
#
# number of rings (size 3 to 8) (size 9 to 14) (size 15 to 20)
#    0.000    2.750    0.000    2.625    0.000    6.000 
#    0.000    3.125    0.000    0.750    0.000    1.750 
#    0.000    0.000    0.000    0.000    0.000    0.000 
#
# Total GULP energy -396733.641774 kJ/mol
# GULP energy per Si atom -12397.926305 kJ/mol
# Density = 1.823100 g / cm^3
# Si number density = 18.272591 Si / 1000 Ang^3
#
#
#
# Elastic Constant Matrix: (Units=GPa)
#
#
# Indices 1 2 3 4 5 6 
#
# 1 169.2496 57.8941 70.1450 0.0000 0.0000 0.0000
# 2 57.8941 74.7942 34.8790 0.0000 0.0000 0.0000
# 3 70.1450 34.8790 81.7089 0.0000 0.0000 0.0000
# 4 0.0000 0.0000 0.0000 14.6483 0.0000 0.0000
# 5 0.0000 0.0000 0.0000 0.0000 3.0696 0.0000
# 6 0.0000 0.0000 0.0000 0.0000 0.0000 34.5699
#
#
#
# Elastic Compliance Matrix: (Units=1/GPa)
#
#
# Indices 1 2 3 4 5 6 
#
# 1 0.010418 -0.004861 -0.006868 0.000000 0.000000 0.000000
# 2 -0.004861 0.018961 -0.003921 0.000000 0.000000 0.000000
# 3 -0.006868 -0.003921 0.019809 0.000000 0.000000 0.000000
# 4 0.000000 0.000000 0.000000 0.068267 0.000000 0.000000
# 5 0.000000 0.000000 0.000000 0.000000 0.325780 0.000000
# 6 0.000000 0.000000 0.000000 0.000000 0.000000 0.028927
#
#
# Mechanical properties :
#
#
# Convention : Reuss Voigt Hill
#
# Bulk Modulus (GPa) = 55.90663 72.39876 64.15269
# Shear Modulus (GPa) = 9.81499 21.31319 15.56409
#
# Velocity S-wave (km/s) = 2.32015 3.41897 2.92168
# Velocity P-wave (km/s) = 6.15140 7.43595 6.82397
#
# Compressibility (1/GPa) = 0.01788697
#
# Stress axis : x y z
#
# Youngs Moduli (GPa) = 95.99005 52.73987 50.48294
#
# Poissons Ratio (x) = 0.25636 0.34674
# Poissons Ratio (y) = 0.46659 0.19794
# Poissons Ratio (z) = 0.65930 0.20679
#
# Static dielectric constant tensor:
#      x y z
#    x 3.675350 0.000000 0.000000 
#    y 0.000000 3.353930 0.000000 
#    z 0.000000 0.000000 3.129760 
# 
# 
# High freq. dielectric constant tensor:
#      x y z
#    x 1.728160 0.000000 0.000000 
#    y 0.000000 1.698170 0.000000 
#    z 0.000000 0.000000 1.670100 
# 
# From -- ./inp_files/13125.got.cif
#   From: 2010.03.12/outbox.cif.g09.slc.cpg/sg39_7_cif.got.tgz:13125.got - 2010.04.14 02:53:20.
