data_PCOD8180013
_publ_section_title
;
Structure prediction by ZEFSAII (Michael W. Deem and Ramdas Pophale) SiO2 
 PCOD8180013
Probable space group: A M M 2
;
_chemical_formula_sum "Si O2"
_cell_formula_units_Z 64
_cell_length_a 23.526079
_cell_length_b 8.988714
_cell_length_c 15.093040
_cell_angle_alpha 90.000000
_cell_angle_beta 90.000000
_cell_angle_gamma 90.000000
_cell_volume 3191.713029
_symmetry_space_group_name_H-M "A M M 2"
_symmetry_group_IT_number 38
_symmetry_cell_setting 'orthorhombic'
loop_
_space_group_symop_operation_xyz
x,y,z
-x,-y,z
-x,y,z
x,-y,z
x,1/2+y,1/2+z
-x,1/2-y,1/2+z
-x,1/2+y,1/2+z
x,1/2-y,1/2+z
loop_
_atom_site_type_symbol
_atom_site_label
_atom_site_fract_x
_atom_site_fract_y
_atom_site_fract_z
Si Si1 0.384455 0.823756 0.061790
Si Si2 0.863492 0.824730 0.308827
Si Si3 0.065086 0.174798 0.663850
Si Si4 0.739136 0.670336 0.500668
Si Si5 0.434345 0.171084 0.397509
Si Si6 0.628065 0.174533 0.738996
Si Si7 0.147381 0.675531 0.009482
Si Si8 0.249076 0.331044 0.295899
O O1 0.319500 0.776180 0.043705
O O2 0.400684 0.765524 0.159248
O O3 0.393705 0.000000 0.054663
O O4 0.426025 0.740866 0.994366
O O5 0.914421 0.753481 0.253423
O O6 0.868452 0.767602 0.410591
O O7 0.802879 0.775020 0.267847
O O8 0.868766 0.000000 0.302591
O O9 0.100137 0.232767 0.578549
O O10 0.000000 0.218256 0.647047
O O11 0.073196 0.000000 0.676632
O O12 0.751600 0.500000 0.523334
O O13 0.791368 0.764088 0.540282
O O14 0.732856 0.697979 0.396565
O O15 0.500000 0.182481 0.370991
O O16 0.397661 0.267371 0.330058
O O17 0.413743 0.000000 0.396869
O O18 0.695849 0.204683 0.736903
O O19 0.614836 0.000000 0.730440
O O20 0.151139 0.500000 0.009391
O O21 0.228461 0.500000 0.281972
#
# Coordination Sequence:
#
# PCOD8180013 Si02
#       8
#     8   8   8   8   8   8   8   8
#     4  11  23  40  62  93 127 163 204 251 307 364
#     4  10  21  36  57  87 117 149 191 243 298 348
#     4  10  22  40  59  80 112 156 201 241 289 355
#     4   9  18  35  58  86 120 154 192 241 296 353
#     4  11  25  45  67  91 122 163 210 258 306 362
#     4  11  23  40  63  93 125 164 206 251 307 364
#     4   9  20  37  57  83 113 152 194 236 291 351
#     4   9  18  36  59  85 120 158 196 238 293 360
#
# _framework density 20.051928
#
# number of rings (size 3 to 8) (size 9 to 14) (size 15 to 20)
#    0.000    2.000    1.250    1.500    1.750    5.250 
#    0.000    1.250    0.000    0.000    0.000    0.000 
#    0.000    0.000    0.000    0.000    0.000    0.000 
#
# Total GULP energy -396916.590855 kJ/mol
# GULP energy per Si atom -12403.643464 kJ/mol
# Density = 2.000629 g / cm^3
# Si number density = 20.051928 Si / 1000 Ang^3
#
#
#
# Elastic Constant Matrix: (Units=GPa)
#
#
# Indices 1 2 3 4 5 6 
#
# 1 75.8030 32.8233 20.5819 0.0000 0.0000 0.0000
# 2 32.8233 61.2380 22.8935 0.0000 0.0000 0.0000
# 3 20.5819 22.8935 68.7266 0.0000 0.0000 0.0000
# 4 0.0000 0.0000 0.0000 33.6980 0.0000 0.0000
# 5 0.0000 0.0000 0.0000 0.0000 27.8645 0.0000
# 6 0.0000 0.0000 0.0000 0.0000 0.0000 32.1024
#
#
#
# Elastic Compliance Matrix: (Units=1/GPa)
#
#
# Indices 1 2 3 4 5 6 
#
# 1 0.017525 -0.008488 -0.002421 0.000000 0.000000 0.000000
# 2 -0.008488 0.022764 -0.005041 0.000000 0.000000 0.000000
# 3 -0.002421 -0.005041 0.016955 0.000000 0.000000 0.000000
# 4 0.000000 0.000000 0.000000 0.029675 0.000000 0.000000
# 5 0.000000 0.000000 0.000000 0.000000 0.035888 0.000000
# 6 0.000000 0.000000 0.000000 0.000000 0.000000 0.031150
#
#
# Mechanical properties :
#
#
# Convention : Reuss Voigt Hill
#
# Bulk Modulus (GPa) = 39.45774 39.81832 39.63803
# Shear Modulus (GPa) = 25.73283 27.36426 26.54854
#
# Velocity S-wave (km/s) = 3.58622 3.69815 3.64261
# Velocity P-wave (km/s) = 6.07194 6.17542 6.12390
#
# Compressibility (1/GPa) = 0.02534357
#
# Stress axis : x y z
#
# Youngs Moduli (GPa) = 57.06187 43.92924 58.98133
#
# Poissons Ratio (x) = 0.37288 0.14278
# Poissons Ratio (y) = 0.48436 0.29732
# Poissons Ratio (z) = 0.13813 0.22144
#
# Static dielectric constant tensor:
#      x y z
#    x 3.620110 0.000000 0.000000 
#    y 0.000000 3.562830 0.000000 
#    z 0.000000 0.000000 3.703970 
# 
# 
# High freq. dielectric constant tensor:
#      x y z
#    x 1.776630 0.000000 0.000000 
#    y 0.000000 1.780440 0.000000 
#    z 0.000000 0.000000 1.787150 
# 
# From -- ./inp_files/15817.got.cif
#   From: 2010.03.12/outbox.cif.g09.slc.cpg/sg38_8_cif.got.tgz:15817.got - 2010.04.14 02:38:36.
