data_PCOD8180838
_publ_section_title
;
Structure prediction by ZEFSAII (Michael W. Deem and Ramdas Pophale) SiO2 
 PCOD8180838
Probable space group: A B M 2
;
_chemical_formula_sum "Si O2"
_cell_formula_units_Z 64
_cell_length_a 23.650673
_cell_length_b 9.172061
_cell_length_c 15.347619
_cell_angle_alpha 90.000000
_cell_angle_beta 90.000000
_cell_angle_gamma 90.000000
_cell_volume 3329.288628
_symmetry_space_group_name_H-M "A B M 2"
_symmetry_group_IT_number 39
_symmetry_cell_setting 'orthorhombic'
loop_
_space_group_symop_operation_xyz
x,y,z
-x,-y,z
-x,1/2+y,z
x,1/2-y,z
x,1/2+y,1/2+z
-x,1/2-y,1/2+z
-x,y,1/2+z
x,-y,1/2+z
loop_
_atom_site_type_symbol
_atom_site_label
_atom_site_fract_x
_atom_site_fract_y
_atom_site_fract_z
Si Si1 0.747367 0.077394 0.110900
Si Si2 0.639452 0.082217 0.559394
Si Si3 0.622668 0.418148 0.366245
Si Si4 0.058850 0.578927 0.212716
Si Si5 0.441241 0.422924 0.217051
Si Si6 0.745360 0.921616 0.806135
Si Si7 0.869804 0.078083 0.047229
Si Si8 0.863285 0.921650 0.874729
O O1 0.740757 0.250000 0.109884
O O2 0.743814 0.013637 0.208760
O O3 0.696653 0.009835 0.055486
O O4 0.806419 0.027344 0.069872
O O5 0.656574 0.250000 0.570957
O O6 0.606703 0.059288 0.467668
O O7 0.599926 0.030117 0.638468
O O8 0.613983 0.250000 0.337302
O O9 0.582982 0.520693 0.308716
O O10 0.687980 0.465303 0.355002
O O11 0.047919 0.750000 0.211104
O O12 0.099249 0.534978 0.292089
O O13 0.000000 0.500000 0.225011
O O14 0.088388 0.526767 0.123671
O O15 0.500000 0.500000 0.197250
O O16 0.449707 0.250000 0.222163
O O17 0.753481 0.750000 0.798347
O O18 0.799627 0.982408 0.858281
O O19 0.872879 0.250000 0.034445
O O20 0.889385 0.000326 0.958837
O O21 0.863916 0.750000 0.891593
#
# Coordination Sequence:
#
# PCOD8180838 Si02
#       8
#     8   8   8   8   8   8   8   8
#     4  10  18  33  59  86 114 151 187 223 276 339
#     4  10  22  38  58  88 120 147 183 232 281 332
#     4  10  20  37  61  86 114 149 185 225 277 336
#     4  10  22  40  59  79 110 150 192 237 283 335
#     4  11  24  41  59  82 113 148 190 237 280 326
#     4   9  16  31  58  85 111 147 184 220 273 337
#     4  10  21  37  57  84 116 147 185 233 282 334
#     4  10  20  37  60  84 112 149 189 229 280 339
#
# _framework density 19.223327000000001
#
# number of rings (size 3 to 8) (size 9 to 14) (size 15 to 20)
#    0.000    2.000    2.500    1.125    0.000    4.500 
#    0.000    5.000    0.000    0.000    0.000    0.000 
#    0.000    0.000    0.000    0.000    0.000    0.000 
#
# Total GULP energy -396878.666708 kJ/mol
# GULP energy per Si atom -12402.458335 kJ/mol
# Density = 1.917957 g / cm^3
# Si number density = 19.223327 Si / 1000 Ang^3
#
#
#
# Elastic Constant Matrix: (Units=GPa)
#
#
# Indices 1 2 3 4 5 6 
#
# 1 88.5083 29.8120 15.5614 0.0000 0.0000 0.0000
# 2 29.8120 37.0128 24.6720 0.0000 0.0000 0.0000
# 3 15.5614 24.6720 108.0105 0.0000 0.0000 0.0000
# 4 0.0000 0.0000 0.0000 30.3717 0.0000 0.0000
# 5 0.0000 0.0000 0.0000 0.0000 12.7769 0.0000
# 6 0.0000 0.0000 0.0000 0.0000 0.0000 32.6082
#
#
#
# Elastic Compliance Matrix: (Units=1/GPa)
#
#
# Indices 1 2 3 4 5 6 
#
# 1 0.015554 -0.013016 0.000732 0.000000 0.000000 0.000000
# 2 -0.013016 0.042762 -0.007893 0.000000 0.000000 0.000000
# 3 0.000732 -0.007893 0.010956 0.000000 0.000000 0.000000
# 4 0.000000 0.000000 0.000000 0.032925 0.000000 0.000000
# 5 0.000000 0.000000 0.000000 0.000000 0.078266 0.000000
# 6 0.000000 0.000000 0.000000 0.000000 0.000000 0.030667
#
#
# Mechanical properties :
#
#
# Convention : Reuss Voigt Hill
#
# Bulk Modulus (GPa) = 34.57894 41.51359 38.04626
# Shear Modulus (GPa) = 19.14806 26.05044 22.59925
#
# Velocity S-wave (km/s) = 3.15950 3.68523 3.43245
# Velocity P-wave (km/s) = 5.59795 6.30477 5.96184
#
# Compressibility (1/GPa) = 0.02891933
#
# Stress axis : x y z
#
# Youngs Moduli (GPa) = 64.29333 23.38500 91.27652
#
# Poissons Ratio (x) = 0.30438 -0.06684
# Poissons Ratio (y) = 0.83683 0.72041
# Poissons Ratio (z) = -0.04708 0.18457
#
# Static dielectric constant tensor:
#      x y z
#    x 3.492730 0.000000 0.000000 
#    y 0.000000 3.227030 0.000000 
#    z 0.000000 0.000000 3.649300 
# 
# 
# High freq. dielectric constant tensor:
#      x y z
#    x 1.745700 0.000000 0.000000 
#    y 0.000000 1.724940 0.000000 
#    z 0.000000 0.000000 1.762740 
# 
# From -- ./inp_files/10626.got.cif
#   From: 2010.03.12/outbox.cif.g09.slc.cpg/sg39_6_cif.got.tgz:10626.got - 2010.04.14 02:53:20.
