data_PCOD8180616
_publ_section_title
;
Structure prediction by ZEFSAII (Michael W. Deem and Ramdas Pophale) SiO2 
 PCOD8180616
Probable space group: A B M 2
;
_chemical_formula_sum "Si O2"
_cell_formula_units_Z 64
_cell_length_a 27.458639
_cell_length_b 23.739915
_cell_length_c 5.195068
_cell_angle_alpha 90.000000
_cell_angle_beta 90.000000
_cell_angle_gamma 90.000000
_cell_volume 3386.486929
_symmetry_space_group_name_H-M "A B M 2"
_symmetry_group_IT_number 39
_symmetry_cell_setting 'orthorhombic'
loop_
_space_group_symop_operation_xyz
x,y,z
-x,-y,z
-x,1/2+y,z
x,1/2-y,z
x,1/2+y,1/2+z
-x,1/2-y,1/2+z
-x,y,1/2+z
x,-y,1/2+z
loop_
_atom_site_type_symbol
_atom_site_label
_atom_site_fract_x
_atom_site_fract_y
_atom_site_fract_z
Si Si1 0.636926 0.815345 0.629470
Si Si2 0.250191 0.183252 0.625602
Si Si3 0.780686 0.619129 0.126492
Si Si4 0.132848 0.962780 0.597573
Si Si5 0.692715 0.536084 0.157787
Si Si6 0.446023 0.475916 0.022293
Si Si7 0.392290 0.125174 0.129249
Si Si8 0.021171 0.062095 0.067344
O O1 0.630977 0.750000 0.575979
O O2 0.693021 0.833839 0.611695
O O3 0.606342 0.847011 0.409211
O O4 0.615082 0.828124 0.910082
O O5 0.243479 0.250000 0.613996
O O6 0.223106 0.155158 0.386369
O O7 0.227493 0.161123 0.889362
O O8 0.743341 0.567816 0.119676
O O9 0.834084 0.592601 0.110239
O O10 0.078420 0.939314 0.611310
O O11 0.143525 0.003863 0.835642
O O12 0.690071 0.513643 0.448983
O O13 0.649289 0.578766 0.102583
O O14 0.500000 0.500000 0.971233
O O15 0.418855 0.509781 0.253137
O O16 0.443145 0.408889 0.080428
O O17 0.993789 0.093874 0.302575
O O18 0.000000 0.000000 0.013357
#
# Coordination Sequence:
#
# PCOD8180616 Si02
#       8
#     8   8   8   8   8   8   8   8
#     4  11  22  38  60  86 111 147 196 247 290 323
#     4  11  22  41  59  75 106 149 197 249 282 320
#     4  12  23  37  52  81 111 150 197 220 286 341
#     4  12  21  33  51  76 114 157 180 223 271 335
#     4  12  22  34  49  75 117 154 181 216 257 328
#     4  10  21  38  59  88 117 148 191 225 272 332
#     4  12  21  37  59  85 116 151 190 233 274 331
#     4  10  16  30  49  70 101 144 185 225 265 320
#
# _framework density 18.898641999999999
#
# number of rings (size 3 to 8) (size 9 to 14) (size 15 to 20)
#    0.000    0.750    5.000    5.250    0.000    2.000 
#    0.000    0.000    0.000    0.000    0.000   35.000 
#    0.000   10.000    0.000    0.000    0.000    0.000 
#
# Total GULP energy -396786.585249 kJ/mol
# GULP energy per Si atom -12399.580789 kJ/mol
# Density = 1.885563 g / cm^3
# Si number density = 18.898642 Si / 1000 Ang^3
#
#
#
# Elastic Constant Matrix: (Units=GPa)
#
#
# Indices 1 2 3 4 5 6 
#
# 1 61.6142 22.6507 -8.3394 0.0000 0.0000 0.0000
# 2 22.6507 60.6360 16.7545 0.0000 0.0000 0.0000
# 3 -8.3394 16.7545 113.3202 0.0000 0.0000 0.0000
# 4 0.0000 0.0000 0.0000 38.1151 0.0000 0.0000
# 5 0.0000 0.0000 0.0000 0.0000 8.0016 0.0000
# 6 0.0000 0.0000 0.0000 0.0000 0.0000 18.7332
#
#
#
# Elastic Compliance Matrix: (Units=1/GPa)
#
#
# Indices 1 2 3 4 5 6 
#
# 1 0.019534 -0.008022 0.002624 0.000000 0.000000 0.000000
# 2 -0.008022 0.020489 -0.003620 0.000000 0.000000 0.000000
# 3 0.002624 -0.003620 0.009553 0.000000 0.000000 0.000000
# 4 0.000000 0.000000 0.000000 0.026236 0.000000 0.000000
# 5 0.000000 0.000000 0.000000 0.000000 0.124975 0.000000
# 6 0.000000 0.000000 0.000000 0.000000 0.000000 0.053381
#
#
# Mechanical properties :
#
#
# Convention : Reuss Voigt Hill
#
# Bulk Modulus (GPa) = 31.70616 33.07803 32.39209
# Shear Modulus (GPa) = 17.68548 26.60361 22.14455
#
# Velocity S-wave (km/s) = 3.06242 3.75600 3.42680
# Velocity P-wave (km/s) = 5.41460 6.02917 5.73013
#
# Compressibility (1/GPa) = 0.03153961
#
# Stress axis : x y z
#
# Youngs Moduli (GPa) = 51.19232 48.80761 104.68152
#
# Poissons Ratio (x) = 0.39153 -0.27464
# Poissons Ratio (y) = 0.41066 0.37891
# Poissons Ratio (z) = -0.13431 0.17666
#
# Static dielectric constant tensor:
#      x y z
#    x 3.539260 0.000000 0.000000 
#    y 0.000000 3.331210 0.000000 
#    z 0.000000 0.000000 4.127680 
# 
# 
# High freq. dielectric constant tensor:
#      x y z
#    x 1.717730 0.000000 0.000000 
#    y 0.000000 1.706650 0.000000 
#    z 0.000000 0.000000 1.771380 
# 
# From -- ./inp_files/1453.got.cif
#   From: 2010.03.12/outbox.cif.g09.slc.cpg/sg39_1_cif.got.tgz:1453.got - 2010.04.14 02:53:20.
