data_PCOD8180699
_publ_section_title
;
Structure prediction by ZEFSAII (Michael W. Deem and Ramdas Pophale) SiO2 
 PCOD8180699
Probable space group: A B M 2
;
_chemical_formula_sum "Si O2"
_cell_formula_units_Z 56
_cell_length_a 8.741023
_cell_length_b 19.604515
_cell_length_c 18.509563
_cell_angle_alpha 90.000000
_cell_angle_beta 90.000000
_cell_angle_gamma 90.000000
_cell_volume 3171.863805
_symmetry_space_group_name_H-M "A B M 2"
_symmetry_group_IT_number 39
_symmetry_cell_setting 'orthorhombic'
loop_
_space_group_symop_operation_xyz
x,y,z
-x,-y,z
-x,1/2+y,z
x,1/2-y,z
x,1/2+y,1/2+z
-x,1/2-y,1/2+z
-x,y,1/2+z
x,-y,1/2+z
loop_
_atom_site_type_symbol
_atom_site_label
_atom_site_fract_x
_atom_site_fract_y
_atom_site_fract_z
Si Si1 0.923015 0.933093 0.894880
Si Si2 0.673580 0.326982 0.871142
Si Si3 0.416057 0.569649 0.355756
Si Si4 0.657517 0.527966 0.708010
Si Si5 0.078667 0.671356 0.988426
Si Si6 0.062693 0.574798 0.125065
Si Si7 0.128271 0.590194 0.762837
O O1 0.741699 0.936659 0.898443
O O2 0.956495 0.862686 0.935349
O O3 0.988245 0.932951 0.813429
O O4 0.000000 0.000000 0.933416
O O5 0.628319 0.250000 0.854358
O O6 0.517331 0.367702 0.882711
O O7 0.759141 0.333953 0.947935
O O8 0.778707 0.350063 0.803072
O O9 0.500000 0.500000 0.373145
O O10 0.391306 0.581185 0.270133
O O11 0.500000 0.500000 0.671115
O O12 0.761996 0.565605 0.649945
O O13 0.750019 0.469468 0.750658
O O14 0.034246 0.750000 0.003458
O O15 0.073674 0.629200 0.061985
O O16 0.000000 0.500000 0.101648
O O17 0.951999 0.608127 0.186338
#
# Coordination Sequence:
#
# PCOD8180699 Si02
#       7
#     8   8   8   8   8   8   8
#     4  11  18  33  59  87 106 137 186 232 275 327
#     4  10  21  36  54  80 114 150 182 225 278 332
#     4  11  18  31  58  87 111 139 174 230 280 329
#     4  10  17  31  57  85 113 136 171 227 284 319
#     4  10  23  40  54  73 115 155 187 228 275 323
#     4  10  20  35  57  85 109 146 187 231 274 327
#     4  10  17  32  57  83 110 137 178 231 276 319
#
# _framework density 17.655235000000001
#
# number of rings (size 3 to 8) (size 9 to 14) (size 15 to 20)
#    0.000    1.714    5.714    1.714    0.000    1.143 
#    0.000    5.714    0.000    0.000    0.000    0.000 
#    0.000    0.000    0.000    0.000    0.000    0.000 
#
# Total GULP energy -346999.480897 kJ/mol
# GULP energy per Si atom -12392.838603 kJ/mol
# Density = 1.761505 g / cm^3
# Si number density = 17.655235 Si / 1000 Ang^3
#
#
#
# Elastic Constant Matrix: (Units=GPa)
#
#
# Indices 1 2 3 4 5 6 
#
# 1 140.7427 61.5149 40.4145 0.0000 0.0000 0.0000
# 2 61.5149 136.5963 59.1750 0.0000 0.0000 0.0000
# 3 40.4145 59.1750 92.6185 0.0000 0.0000 0.0000
# 4 0.0000 0.0000 0.0000 25.7761 0.0000 0.0000
# 5 0.0000 0.0000 0.0000 0.0000 10.8636 0.0000
# 6 0.0000 0.0000 0.0000 0.0000 0.0000 26.4252
#
#
#
# Elastic Compliance Matrix: (Units=1/GPa)
#
#
# Indices 1 2 3 4 5 6 
#
# 1 0.009074 -0.003278 -0.001865 0.000000 0.000000 0.000000
# 2 -0.003278 0.011307 -0.005794 0.000000 0.000000 0.000000
# 3 -0.001865 -0.005794 0.015312 0.000000 0.000000 0.000000
# 4 0.000000 0.000000 0.000000 0.038796 0.000000 0.000000
# 5 0.000000 0.000000 0.000000 0.000000 0.092051 0.000000
# 6 0.000000 0.000000 0.000000 0.000000 0.000000 0.037843
#
#
# Mechanical properties :
#
#
# Convention : Reuss Voigt Hill
#
# Bulk Modulus (GPa) = 72.36201 76.90739 74.63470
# Shear Modulus (GPa) = 21.65795 26.53650 24.09722
#
# Velocity S-wave (km/s) = 3.50625 3.88111 3.69843
# Velocity P-wave (km/s) = 7.58069 7.98369 7.78480
#
# Compressibility (1/GPa) = 0.01381941
#
# Stress axis : x y z
#
# Youngs Moduli (GPa) = 110.21101 88.43974 65.30692
#
# Poissons Ratio (x) = 0.28994 0.12178
# Poissons Ratio (y) = 0.36131 0.37837
# Poissons Ratio (z) = 0.20551 0.51240
#
# Static dielectric constant tensor:
#      x y z
#    x 3.486240 0.000000 0.000000 
#    y 0.000000 3.202630 0.000000 
#    z 0.000000 0.000000 3.146160 
# 
# 
# High freq. dielectric constant tensor:
#      x y z
#    x 1.694370 0.000000 0.000000 
#    y 0.000000 1.667870 0.000000 
#    z 0.000000 0.000000 1.665180 
# 
# From -- ./inp_files/11864.got.cif
#   From: 2010.03.12/outbox.cif.g09.slc.cpg/sg39_6_cif.got.tgz:11864.got - 2010.04.14 02:53:20.
