data_PCOD8180562
_publ_section_title
;
Structure prediction by ZEFSAII (Michael W. Deem and Ramdas Pophale) SiO2 
 PCOD8180562
Probable space group: A M M 2
;
_chemical_formula_sum "Si O2"
_cell_formula_units_Z 56
_cell_length_a 9.216931
_cell_length_b 14.319142
_cell_length_c 22.882778
_cell_angle_alpha 90.000000
_cell_angle_beta 90.000000
_cell_angle_gamma 90.000000
_cell_volume 3020.035718
_symmetry_space_group_name_H-M "A M M 2"
_symmetry_group_IT_number 38
_symmetry_cell_setting 'orthorhombic'
loop_
_space_group_symop_operation_xyz
x,y,z
-x,-y,z
-x,y,z
x,-y,z
x,1/2+y,1/2+z
-x,1/2-y,1/2+z
-x,1/2+y,1/2+z
x,1/2-y,1/2+z
loop_
_atom_site_type_symbol
_atom_site_label
_atom_site_fract_x
_atom_site_fract_y
_atom_site_fract_z
Si Si1 0.327688 0.394038 0.611430
Si Si2 0.665612 0.399289 0.274559
Si Si3 0.838765 0.354172 0.839307
Si Si4 0.328642 0.201697 0.993425
Si Si5 0.161235 0.145828 0.883552
Si Si6 0.328642 0.298303 0.729434
Si Si7 0.334389 0.600711 0.948300
O O1 0.500000 0.396651 0.611431
O O2 0.266305 0.500000 0.611429
O O3 0.271225 0.337508 0.555015
O O4 0.271222 0.337508 0.667845
O O5 0.500000 0.381292 0.293544
O O6 0.680969 0.500000 0.241185
O O7 0.757634 0.411420 0.333505
O O8 0.715168 0.312016 0.234145
O O9 0.849203 0.250000 0.861429
O O10 0.748958 0.359180 0.779290
O O11 0.757637 0.411420 0.889355
O O12 0.000000 0.395561 0.829042
O O13 0.500000 0.187384 0.986799
O O14 0.251039 0.140820 0.943570
O O15 0.284834 0.312017 0.988715
O O16 0.000000 0.104437 0.893815
O O17 0.500000 0.312615 0.736058
O O18 0.500000 0.618708 0.929314
O O19 0.319033 0.500000 0.981674
#
# Coordination Sequence:
#
# PCOD8180562 Si02
#       7
#     8   8   8   8   8   8   8
#     4   9  18  32  50  70  90 117 155 195 234 276
#     4   9  17  29  46  69  96 125 155 187 228 279
#     4   9  17  29  46  69  96 124 153 188 231 275
#     4   9  17  31  49  68  93 124 157 193 231 274
#     4   9  17  29  46  69  96 124 153 188 231 275
#     4   9  17  31  49  68  93 124 157 193 231 274
#     4   9  17  29  46  69  96 125 155 187 228 279
#
# _framework density 18.542828
#
# number of rings (size 3 to 8) (size 9 to 14) (size 15 to 20)
#    0.000    3.000    0.000    0.857    0.000    5.143 
#    0.000    4.286    0.000    5.143    0.000    0.000 
#    0.000    9.143    0.000    0.000    0.000    0.000 
#
# Total GULP energy -346955.678358 kJ/mol
# GULP energy per Si atom -12391.274227 kJ/mol
# Density = 1.850062 g / cm^3
# Si number density = 18.542828 Si / 1000 Ang^3
#
#
#
# Elastic Constant Matrix: (Units=GPa)
#
#
# Indices 1 2 3 4 5 6 
#
# 1 56.3765 22.6442 34.9054 0.0000 0.0000 0.0000
# 2 22.6442 125.4112 62.7940 0.0000 0.0000 0.0000
# 3 34.9054 62.7940 138.1667 0.0000 0.0000 0.0000
# 4 0.0000 0.0000 0.0000 20.7352 0.0000 0.0000
# 5 0.0000 0.0000 0.0000 0.0000 6.7819 0.0000
# 6 0.0000 0.0000 0.0000 0.0000 0.0000 6.4354
#
#
#
# Elastic Compliance Matrix: (Units=1/GPa)
#
#
# Indices 1 2 3 4 5 6 
#
# 1 0.021239 -0.001487 -0.004690 0.000000 0.000000 0.000000
# 2 -0.001487 0.010427 -0.004363 0.000000 0.000000 0.000000
# 3 -0.004690 -0.004363 0.010405 0.000000 0.000000 0.000000
# 4 0.000000 0.000000 0.000000 0.048227 0.000000 0.000000
# 5 0.000000 0.000000 0.000000 0.000000 0.147451 0.000000
# 6 0.000000 0.000000 0.000000 0.000000 0.000000 0.155391
#
#
# Mechanical properties :
#
#
# Convention : Reuss Voigt Hill
#
# Bulk Modulus (GPa) = 47.63828 62.29352 54.96590
# Shear Modulus (GPa) = 11.87035 20.09787 15.98411
#
# Velocity S-wave (km/s) = 2.53288 3.29578 2.93919
# Velocity P-wave (km/s) = 5.85668 6.93903 6.42070
#
# Compressibility (1/GPa) = 0.02099152
#
# Stress axis : x y z
#
# Youngs Moduli (GPa) = 47.08371 95.90588 96.10312
#
# Poissons Ratio (x) = 0.14257 0.45072
# Poissons Ratio (y) = 0.06999 0.41932
# Poissons Ratio (z) = 0.22082 0.41846
#
# Static dielectric constant tensor:
#      x y z
#    x 3.450630 0.000000 0.000000 
#    y 0.000000 3.536490 0.000000 
#    z 0.000000 0.000000 3.323250 
# 
# 
# High freq. dielectric constant tensor:
#      x y z
#    x 1.699660 0.000000 0.000000 
#    y 0.000000 1.730080 0.000000 
#    z 0.000000 0.000000 1.689330 
# 
# From -- ./inp_files/19814.got.cif
#   From: 2010.03.12/outbox.cif.g09.slc.cpg/sg38_10_cif.got.tgz:19814.got - 2010.04.14 02:38:36.
