data_PCOD8180042
_publ_section_title
;
Structure prediction by ZEFSAII (Michael W. Deem and Ramdas Pophale) SiO2 
 PCOD8180042
Probable space group: A M M 2
;
_chemical_formula_sum "Si O2"
_cell_formula_units_Z 64
_cell_length_a 19.810979
_cell_length_b 8.988358
_cell_length_c 20.061648
_cell_angle_alpha 90.000000
_cell_angle_beta 90.000000
_cell_angle_gamma 90.000000
_cell_volume 3572.340978
_symmetry_space_group_name_H-M "A M M 2"
_symmetry_group_IT_number 38
_symmetry_cell_setting 'orthorhombic'
loop_
_space_group_symop_operation_xyz
x,y,z
-x,-y,z
-x,y,z
x,-y,z
x,1/2+y,1/2+z
-x,1/2-y,1/2+z
-x,1/2+y,1/2+z
x,1/2-y,1/2+z
loop_
_atom_site_type_symbol
_atom_site_label
_atom_site_fract_x
_atom_site_fract_y
_atom_site_fract_z
Si Si1 0.327171 0.176239 0.355950
Si Si2 0.924919 0.675750 0.614508
Si Si3 0.075124 0.676820 0.465679
Si Si4 0.670470 0.672611 0.217613
Si Si5 0.579359 0.328880 0.460631
Si Si6 0.422062 0.328007 0.095786
Si Si7 0.824457 0.330531 0.212428
Si Si8 0.186818 0.824627 0.864148
O O1 0.346344 0.230584 0.282189
O O2 0.385289 0.230223 0.405038
O O3 0.256220 0.242192 0.380810
O O4 0.323021 0.000000 0.356695
O O5 0.924374 0.500000 0.615092
O O6 0.905952 0.732073 0.540104
O O7 0.871038 0.729728 0.667296
O O8 0.000000 0.733726 0.633347
O O9 0.075673 0.500000 0.462661
O O10 0.129763 0.739759 0.413633
O O11 0.000000 0.734371 0.446490
O O12 0.659726 0.500000 0.236609
O O13 0.621121 0.724808 0.159030
O O14 0.746867 0.699909 0.193460
O O15 0.500000 0.308924 0.450199
O O16 0.601756 0.500000 0.454172
O O17 0.600926 0.270310 0.533277
O O18 0.500000 0.301143 0.113691
O O19 0.407777 0.500000 0.078724
O O20 0.844472 0.500000 0.198707
O O21 0.837130 0.288583 0.289356
O O22 0.199492 0.000000 0.873065
#
# Coordination Sequence:
#
# PCOD8180042 Si02
#       8
#     8   8   8   8   8   8   8   8
#     4  11  22  35  53  77 106 138 173 215 258 304
#     4   9  18  32  49  70  97 127 160 202 250 300
#     4   8  15  30  52  75  97 126 168 212 250 294
#     4   9  19  36  54  75 105 137 171 212 257 305
#     4  10  21  37  56  77 104 138 174 212 254 303
#     4   9  18  34  56  80 106 135 167 207 255 304
#     4   9  18  31  48  71  99 129 162 203 247 295
#     4   9  18  34  54  74  98 130 169 212 255 301
#
# _framework density 17.915424000000002
#
# number of rings (size 3 to 8) (size 9 to 14) (size 15 to 20)
#    0.000    2.750    0.000    3.000    0.000    5.500 
#    0.000    5.625    0.000    1.125    0.000    0.000 
#    0.000    0.000    0.000    0.000    0.000    0.000 
#
# Total GULP energy -396799.417097 kJ/mol
# GULP energy per Si atom -12399.981784 kJ/mol
# Density = 1.787465 g / cm^3
# Si number density = 17.915424 Si / 1000 Ang^3
#
#
#
# Elastic Constant Matrix: (Units=GPa)
#
#
# Indices 1 2 3 4 5 6 
#
# 1 90.2563 39.7220 76.3761 0.0000 0.0000 0.0000
# 2 39.7220 64.8116 45.0756 0.0000 0.0000 0.0000
# 3 76.3761 45.0756 112.5761 0.0000 0.0000 0.0000
# 4 0.0000 0.0000 0.0000 28.9551 0.0000 0.0000
# 5 0.0000 0.0000 0.0000 0.0000 37.5573 0.0000
# 6 0.0000 0.0000 0.0000 0.0000 0.0000 26.1075
#
#
#
# Elastic Compliance Matrix: (Units=1/GPa)
#
#
# Indices 1 2 3 4 5 6 
#
# 1 0.027283 -0.005333 -0.016374 0.000000 0.000000 0.000000
# 2 -0.005333 0.022427 -0.005362 0.000000 0.000000 0.000000
# 3 -0.016374 -0.005362 0.022139 0.000000 0.000000 0.000000
# 4 0.000000 0.000000 0.000000 0.034536 0.000000 0.000000
# 5 0.000000 0.000000 0.000000 0.000000 0.026626 0.000000
# 6 0.000000 0.000000 0.000000 0.000000 0.000000 0.038303
#
#
# Mechanical properties :
#
#
# Convention : Reuss Voigt Hill
#
# Bulk Modulus (GPa) = 56.46430 65.55460 61.00945
# Shear Modulus (GPa) = 21.61180 25.62203 23.61691
#
# Velocity S-wave (km/s) = 3.47698 3.78586 3.63470
# Velocity P-wave (km/s) = 6.90687 7.46866 7.19325
#
# Compressibility (1/GPa) = 0.01771030
#
# Stress axis : x y z
#
# Youngs Moduli (GPa) = 36.65303 44.58957 45.16975
#
# Poissons Ratio (x) = 0.23780 0.73963
# Poissons Ratio (y) = 0.19547 0.24218
# Poissons Ratio (z) = 0.60017 0.23907
#
# Static dielectric constant tensor:
#      x y z
#    x 3.498700 0.000000 0.000000 
#    y 0.000000 3.127190 0.000000 
#    z 0.000000 0.000000 3.423310 
# 
# 
# High freq. dielectric constant tensor:
#      x y z
#    x 1.696370 0.000000 0.000000 
#    y 0.000000 1.676060 0.000000 
#    z 0.000000 0.000000 1.697690 
# 
# From -- ./inp_files/15884.got.cif
#   From: 2010.03.12/outbox.cif.g09.slc.cpg/sg38_8_cif.got.tgz:15884.got - 2010.04.14 02:38:36.
