data_PCOD8180338
_publ_section_title
;
Structure prediction by ZEFSAII (Michael W. Deem and Ramdas Pophale) SiO2 
 PCOD8180338
Probable space group: A M M 2
;
_chemical_formula_sum "Si O2"
_cell_formula_units_Z 48
_cell_length_a 17.616804
_cell_length_b 14.201123
_cell_length_c 9.311267
_cell_angle_alpha 90.000000
_cell_angle_beta 90.000000
_cell_angle_gamma 90.000000
_cell_volume 2329.477884
_symmetry_space_group_name_H-M "A M M 2"
_symmetry_group_IT_number 38
_symmetry_cell_setting 'orthorhombic'
loop_
_space_group_symop_operation_xyz
x,y,z
-x,-y,z
-x,y,z
x,-y,z
x,1/2+y,1/2+z
-x,1/2-y,1/2+z
-x,1/2+y,1/2+z
x,1/2-y,1/2+z
loop_
_atom_site_type_symbol
_atom_site_label
_atom_site_fract_x
_atom_site_fract_y
_atom_site_fract_z
Si Si1 0.123626 0.748865 0.411760
Si Si2 0.354245 0.889068 0.277562
Si Si3 0.000000 0.890039 0.516318
Si Si4 0.230246 0.756997 0.161730
Si Si5 0.500000 0.612163 0.605662
Si Si6 0.000000 0.892359 0.856771
Si Si7 0.500000 0.388312 0.280770
Si Si8 0.352358 0.889227 0.609785
O O1 0.151622 0.755500 0.248575
O O2 0.201806 0.736346 0.498616
O O3 0.073180 0.655660 0.427841
O O4 0.075690 0.842107 0.451811
O O5 0.279162 0.847152 0.205886
O O6 0.426585 0.849775 0.190309
O O7 0.362858 0.860200 0.443769
O O8 0.347329 0.000000 0.261914
O O9 0.000000 0.877305 0.686637
O O10 0.000000 0.000000 0.473200
O O11 0.279766 0.662126 0.178770
O O12 0.500000 0.500000 0.605596
O O13 0.500000 0.651792 0.443062
O O14 0.000000 0.000000 0.903034
O O15 0.500000 0.500000 0.283787
O O16 0.425960 0.353041 0.195837
O O17 0.339037 0.000000 0.627791
#
# Coordination Sequence:
#
# PCOD8180338 Si02
#       8
#     8   8   4   8   4   4   4   8
#     4  11  24  42  63  95 129 156 195 255 300 358
#     4  10  22  40  61  86 121 167 211 253 307 363
#     4  10  22  43  72  93 118 165 205 236 294 372
#     4  12  24  40  61  93 131 159 197 254 310 358
#     4   9  19  36  59  88 122 158 208 268 307 347
#     4  10  22  43  70  95 120 161 203 240 298 366
#     4   9  19  36  59  88 120 158 212 266 303 353
#     4  10  22  40  62  86 119 168 214 250 303 369
#
# _framework density 20.605477
#
# number of rings (size 3 to 8) (size 9 to 14) (size 15 to 20)
#    0.000    1.667    3.333    0.500    2.333    5.333 
#    0.000    0.833    0.000    0.000    0.000    0.000 
#    0.000    0.000    0.000    0.000    0.000    0.000 
#
# Total GULP energy -297665.775109 kJ/mol
# GULP energy per Si atom -12402.740630 kJ/mol
# Density = 2.055858 g / cm^3
# Si number density = 20.605477 Si / 1000 Ang^3
#
#
#
# Elastic Constant Matrix: (Units=GPa)
#
#
# Indices 1 2 3 4 5 6 
#
# 1 137.8377 53.3724 43.5261 0.0000 0.0000 0.0000
# 2 53.3724 96.6142 38.6522 0.0000 0.0000 0.0000
# 3 43.5261 38.6522 88.5674 0.0000 0.0000 0.0000
# 4 0.0000 0.0000 0.0000 26.0397 0.0000 0.0000
# 5 0.0000 0.0000 0.0000 0.0000 47.7498 0.0000
# 6 0.0000 0.0000 0.0000 0.0000 0.0000 23.4779
#
#
#
# Elastic Compliance Matrix: (Units=1/GPa)
#
#
# Indices 1 2 3 4 5 6 
#
# 1 0.009840 -0.004242 -0.002985 0.000000 0.000000 0.000000
# 2 -0.004242 0.014368 -0.004186 0.000000 0.000000 0.000000
# 3 -0.002985 -0.004186 0.014584 0.000000 0.000000 0.000000
# 4 0.000000 0.000000 0.000000 0.038403 0.000000 0.000000
# 5 0.000000 0.000000 0.000000 0.000000 0.020942 0.000000
# 6 0.000000 0.000000 0.000000 0.000000 0.000000 0.042593
#
#
# Mechanical properties :
#
#
# Convention : Reuss Voigt Hill
#
# Bulk Modulus (GPa) = 62.62530 66.01341 64.31936
# Shear Modulus (GPa) = 29.60709 31.95141 30.77925
#
# Velocity S-wave (km/s) = 3.79470 3.94207 3.86909
# Velocity P-wave (km/s) = 7.04686 7.26817 7.15837
#
# Compressibility (1/GPa) = 0.01596799
#
# Stress axis : x y z
#
# Youngs Moduli (GPa) = 101.62777 69.59724 68.56631
#
# Poissons Ratio (x) = 0.29522 0.20464
# Poissons Ratio (y) = 0.43108 0.28702
# Poissons Ratio (z) = 0.30332 0.29133
#
# Static dielectric constant tensor:
#      x y z
#    x 3.779600 0.000000 0.000000 
#    y 0.000000 3.535380 0.000000 
#    z 0.000000 0.000000 3.840780 
# 
# 
# High freq. dielectric constant tensor:
#      x y z
#    x 1.814470 0.000000 0.000000 
#    y 0.000000 1.800030 0.000000 
#    z 0.000000 0.000000 1.813700 
# 
# From -- ./inp_files/6241.got.cif
#   From: 2010.03.12/outbox.cif.g09.slc.cpg/sg38_4_cif.got.tgz:6241.got - 2010.04.14 02:38:36.
