data_PCOD8180714
_publ_section_title
;
Structure prediction by ZEFSAII (Michael W. Deem and Ramdas Pophale) SiO2 
 PCOD8180714
Probable space group: A B M 2
;
_chemical_formula_sum "Si O2"
_cell_formula_units_Z 56
_cell_length_a 19.643619
_cell_length_b 9.094277
_cell_length_c 15.531063
_cell_angle_alpha 90.000000
_cell_angle_beta 90.000000
_cell_angle_gamma 90.000000
_cell_volume 2774.539178
_symmetry_space_group_name_H-M "A B M 2"
_symmetry_group_IT_number 39
_symmetry_cell_setting 'orthorhombic'
loop_
_space_group_symop_operation_xyz
x,y,z
-x,-y,z
-x,1/2+y,z
x,1/2-y,z
x,1/2+y,1/2+z
-x,1/2-y,1/2+z
-x,y,1/2+z
x,-y,1/2+z
loop_
_atom_site_type_symbol
_atom_site_label
_atom_site_fract_x
_atom_site_fract_y
_atom_site_fract_z
Si Si1 0.428465 0.575068 0.353260
Si Si2 0.348859 0.423579 0.687897
Si Si3 0.209977 0.425175 0.764480
Si Si4 0.346193 0.918319 0.998226
Si Si5 0.801931 0.418346 0.942397
Si Si6 0.065994 0.916449 0.456661
Si Si7 0.936658 0.087522 0.250885
O O1 0.500000 0.500000 0.371561
O O2 0.436167 0.750000 0.355663
O O3 0.400338 0.516979 0.261073
O O4 0.376557 0.527040 0.427614
O O5 0.347662 0.250000 0.694235
O O6 0.271846 0.478963 0.704780
O O7 0.372718 0.471658 0.592499
O O8 0.209727 0.250000 0.782128
O O9 0.219947 0.506110 0.854211
O O10 0.137666 0.471622 0.720612
O O11 0.368873 0.750000 0.978805
O O12 0.264237 0.927269 0.003089
O O13 0.823720 0.250000 0.925498
O O14 0.865432 0.500763 0.987513
O O15 0.066673 0.750000 0.491587
O O16 0.063370 0.919306 0.353785
O O17 0.000000 0.000000 0.494612
O O18 0.947675 0.250000 0.215923
O O19 0.000000 0.000000 0.210780
#
# Coordination Sequence:
#
# PCOD8180714 Si02
#       7
#     8   8   8   8   8   8   8
#     4  11  23  41  65  89 117 150 185 228 280 340
#     4   9  19  37  61  85 113 151 192 232 280 336
#     4   9  16  30  51  73 101 143 191 231 278 333
#     4  10  21  38  60  88 119 151 192 236 280 336
#     4  10  18  28  48  77 110 145 184 234 285 334
#     4   9  16  26  42  67 102 142 189 238 285 339
#     4   8  14  22  37  63  95 131 173 223 269 319
#
# _framework density 20.183532
#
# number of rings (size 3 to 8) (size 9 to 14) (size 15 to 20)
#    0.000    2.571    1.429    2.143    0.000    4.571 
#    0.000    3.571    0.000    0.857    0.000    2.000 
#    0.000    0.000    0.000    0.000    0.000    0.000 
#
# Total GULP energy -347050.711867 kJ/mol
# GULP energy per Si atom -12394.668281 kJ/mol
# Density = 2.013759 g / cm^3
# Si number density = 20.183532 Si / 1000 Ang^3
#
#
#
# Elastic Constant Matrix: (Units=GPa)
#
#
# Indices 1 2 3 4 5 6 
#
# 1 116.2251 41.5494 25.4108 0.0000 0.0000 0.0000
# 2 41.5494 84.1063 26.3312 0.0000 0.0000 0.0000
# 3 25.4108 26.3312 75.5543 0.0000 0.0000 0.0000
# 4 0.0000 0.0000 0.0000 16.6490 0.0000 0.0000
# 5 0.0000 0.0000 0.0000 0.0000 7.3233 0.0000
# 6 0.0000 0.0000 0.0000 0.0000 0.0000 32.8260
#
#
#
# Elastic Compliance Matrix: (Units=1/GPa)
#
#
# Indices 1 2 3 4 5 6 
#
# 1 0.010705 -0.004671 -0.001973 0.000000 0.000000 0.000000
# 2 -0.004671 0.015384 -0.003790 0.000000 0.000000 0.000000
# 3 -0.001973 -0.003790 0.015220 0.000000 0.000000 0.000000
# 4 0.000000 0.000000 0.000000 0.060064 0.000000 0.000000
# 5 0.000000 0.000000 0.000000 0.000000 0.136550 0.000000
# 6 0.000000 0.000000 0.000000 0.000000 0.000000 0.030464
#
#
# Mechanical properties :
#
#
# Convention : Reuss Voigt Hill
#
# Bulk Modulus (GPa) = 48.92101 51.38538 50.15320
# Shear Modulus (GPa) = 16.88804 23.53262 20.21033
#
# Velocity S-wave (km/s) = 2.89576 3.41828 3.16781
# Velocity P-wave (km/s) = 5.95577 6.41045 6.18729
#
# Compressibility (1/GPa) = 0.02044111
#
# Stress axis : x y z
#
# Youngs Moduli (GPa) = 93.41382 65.00329 65.70330
#
# Poissons Ratio (x) = 0.30362 0.12960
# Poissons Ratio (y) = 0.43632 0.24904
# Poissons Ratio (z) = 0.18426 0.24639
#
# Static dielectric constant tensor:
#      x y z
#    x 3.931690 0.000000 0.000000 
#    y 0.000000 3.569800 0.000000 
#    z 0.000000 0.000000 3.424620 
# 
# 
# High freq. dielectric constant tensor:
#      x y z
#    x 1.799240 0.000000 0.000000 
#    y 0.000000 1.772390 0.000000 
#    z 0.000000 0.000000 1.756900 
# 
# From -- ./inp_files/10383.got.cif
#   From: 2010.03.12/outbox.cif.g09.slc.cpg/sg39_6_cif.got.tgz:10383.got - 2010.04.14 02:53:20.
