data_PCOD8180668
_publ_section_title
;
Structure prediction by ZEFSAII (Michael W. Deem and Ramdas Pophale) SiO2 
 PCOD8180668
Probable space group: A B M 2
;
_chemical_formula_sum "Si O2"
_cell_formula_units_Z 64
_cell_length_a 15.219611
_cell_length_b 8.686872
_cell_length_c 30.727551
_cell_angle_alpha 90.000000
_cell_angle_beta 90.000000
_cell_angle_gamma 90.000000
_cell_volume 4062.514488
_symmetry_space_group_name_H-M "A B M 2"
_symmetry_group_IT_number 39
_symmetry_cell_setting 'orthorhombic'
loop_
_space_group_symop_operation_xyz
x,y,z
-x,-y,z
-x,1/2+y,z
x,1/2-y,z
x,1/2+y,1/2+z
-x,1/2-y,1/2+z
-x,y,1/2+z
x,-y,1/2+z
loop_
_atom_site_type_symbol
_atom_site_label
_atom_site_fract_x
_atom_site_fract_y
_atom_site_fract_z
Si Si1 0.084342 0.082323 0.722400
Si Si2 0.403050 0.067669 0.891874
Si Si3 0.912685 0.578344 0.825438
Si Si4 0.594807 0.427465 0.564809
Si Si5 0.403801 0.570932 0.660752
Si Si6 0.274095 0.433243 0.729189
Si Si7 0.597499 0.567925 0.480236
Si Si8 0.271790 0.431719 0.322838
O O1 0.082600 0.250000 0.701371
O O2 0.074922 0.089231 0.774073
O O3 0.178927 0.005885 0.711722
O O4 0.000000 0.000000 0.701319
O O5 0.410054 0.250000 0.894078
O O6 0.500000 0.000000 0.884600
O O7 0.359693 0.003699 0.936779
O O8 0.341406 0.017285 0.852831
O O9 0.902173 0.750000 0.845020
O O10 0.826556 0.479464 0.836954
O O11 0.000000 0.500000 0.845908
O O12 0.500000 0.500000 0.570468
O O13 0.585738 0.250000 0.551821
O O14 0.639362 0.447173 0.612384
O O15 0.646423 0.514081 0.525132
O O16 0.500000 0.500000 0.663104
O O17 0.407485 0.750000 0.674119
O O18 0.345761 0.474489 0.693856
O O19 0.270309 0.250000 0.737792
O O20 0.295827 0.518026 0.774064
O O21 0.500000 0.500000 0.483790
O O22 0.597539 0.750000 0.476285
O O23 0.282034 0.250000 0.327754
#
# Coordination Sequence:
#
# PCOD8180668 Si02
#       8
#     8   8   8   8   8   8   8   8
#     4   8  15  26  42  62  83 107 137 175 218 261
#     4  11  21  34  48  64  88 118 152 188 224 263
#     4   9  16  28  45  66  88 113 144 181 225 267
#     4   9  16  27  43  63  85 109 140 178 221 264
#     4  10  20  32  46  64  87 118 153 187 222 260
#     4  10  20  33  46  63  88 118 152 187 222 261
#     4  10  17  27  44  65  86 110 141 177 221 266
#     4  11  21  33  47  65  89 119 154 189 224 264
#
# _framework density 15.75379
#
# number of rings (size 3 to 8) (size 9 to 14) (size 15 to 20)
#    0.000    2.250    0.000    7.125    0.000    5.500 
#    0.000    2.500    0.000    0.000    0.000    0.000 
#    0.000    1.000    0.000    7.000    0.000    6.875 
#
# Total GULP energy -396531.083019 kJ/mol
# GULP energy per Si atom -12391.596344 kJ/mol
# Density = 1.571793 g / cm^3
# Si number density = 15.753790 Si / 1000 Ang^3
#
#
#
# Elastic Constant Matrix: (Units=GPa)
#
#
# Indices 1 2 3 4 5 6 
#
# 1 72.9668 29.1549 42.7649 0.0000 0.0000 0.0000
# 2 29.1549 116.4442 33.9735 0.0000 0.0000 0.0000
# 3 42.7649 33.9735 77.4761 0.0000 0.0000 0.0000
# 4 0.0000 0.0000 0.0000 17.2627 0.0000 0.0000
# 5 0.0000 0.0000 0.0000 0.0000 -1.1636 0.0000
# 6 0.0000 0.0000 0.0000 0.0000 0.0000 22.8416
#
#
#
# Elastic Compliance Matrix: (Units=1/GPa)
#
#
# Indices 1 2 3 4 5 6 
#
# 1 0.020706 -0.002121 -0.010499 0.000000 0.000000 0.000000
# 2 -0.002121 0.010065 -0.003243 0.000000 0.000000 0.000000
# 3 -0.010499 -0.003243 0.020124 0.000000 0.000000 0.000000
# 4 0.000000 0.000000 0.000000 0.057928 0.000000 0.000000
# 5 0.000000 0.000000 0.000000 0.000000 -0.859369 0.000000
# 6 0.000000 0.000000 0.000000 0.000000 0.000000 0.043780
#
#
# Mechanical properties :
#
#
# Convention : Reuss Voigt Hill
#
# Bulk Modulus (GPa) = 52.16631 53.18599 52.67615
# Shear Modulus (GPa) = -7.47775 18.52105 5.52165
#
# Velocity S-wave (km/s) = -2.18104 3.43250 1.87419
# Velocity P-wave (km/s) = 5.18100 7.03871 6.18006
#
# Compressibility (1/GPa) = 0.01916946
#
# Stress axis : x y z
#
# Youngs Moduli (GPa) = 48.29602 99.35457 49.69113
#
# Poissons Ratio (x) = 0.21074 0.52170
# Poissons Ratio (y) = 0.10244 0.16114
# Poissons Ratio (z) = 0.50706 0.32218
#
# Static dielectric constant tensor:
#      x y z
#    x 2.878320 0.000000 0.000000 
#    y 0.000000 3.222280 0.000000 
#    z 0.000000 0.000000 3.309740 
# 
# 
# High freq. dielectric constant tensor:
#      x y z
#    x 1.572230 0.000000 0.000000 
#    y 0.000000 1.626760 0.000000 
#    z 0.000000 0.000000 1.583120 
# 
# From -- ./inp_files/18003.got.cif
#   From: 2010.03.12/outbox.cif.g09.slc.cpg/sg39_10_cif.got.tgz:18003.got - 2010.04.14 02:53:20.
