data_PCOD8180760
_publ_section_title
;
Structure prediction by ZEFSAII (Michael W. Deem and Ramdas Pophale) SiO2 
 PCOD8180760
Probable space group: A B M 2
;
_chemical_formula_sum "Si O2"
_cell_formula_units_Z 56
_cell_length_a 15.503897
_cell_length_b 9.074883
_cell_length_c 20.247819
_cell_angle_alpha 90.000000
_cell_angle_beta 90.000000
_cell_angle_gamma 90.000000
_cell_volume 2848.788181
_symmetry_space_group_name_H-M "A B M 2"
_symmetry_group_IT_number 39
_symmetry_cell_setting 'orthorhombic'
loop_
_space_group_symop_operation_xyz
x,y,z
-x,-y,z
-x,1/2+y,z
x,1/2-y,z
x,1/2+y,1/2+z
-x,1/2-y,1/2+z
-x,y,1/2+z
x,-y,1/2+z
loop_
_atom_site_type_symbol
_atom_site_label
_atom_site_fract_x
_atom_site_fract_y
_atom_site_fract_z
Si Si1 0.762111 0.077891 0.990440
Si Si2 0.416684 0.080931 0.014429
Si Si3 0.768606 0.421027 0.842841
Si Si4 0.415704 0.424481 0.298197
Si Si5 0.633358 0.916922 0.157842
Si Si6 0.815379 0.576701 0.112906
Si Si7 0.088660 0.576774 0.742705
O O1 0.749448 0.250000 0.005110
O O2 0.801157 0.050829 0.917477
O O3 0.669455 0.000232 0.992075
O O4 0.829379 0.008031 0.043258
O O5 0.413787 0.250000 0.990504
O O6 0.427082 0.072113 0.093872
O O7 0.500000 0.000000 0.983245
O O8 0.762560 0.250000 0.825780
O O9 0.671361 0.483306 0.833866
O O10 0.837049 0.489395 0.790933
O O11 0.500000 0.500000 0.330863
O O12 0.427364 0.250000 0.304807
O O13 0.410876 0.485789 0.222458
O O14 0.654449 0.750000 0.177793
O O15 0.726338 0.988879 0.142434
O O16 0.808203 0.750000 0.097020
O O17 0.889835 0.542227 0.165879
O O18 0.078258 0.750000 0.754037
O O19 0.000000 0.500000 0.761897
#
# Coordination Sequence:
#
# PCOD8180760 Si02
#       7
#     8   8   8   8   8   8   8
#     4  10  20  34  54  79 108 146 187 227 275 330
#     4  10  19  31  48  73 105 145 191 236 282 329
#     4   9  19  37  58  78 110 153 187 222 275 336
#     4  10  18  31  50  74 104 142 185 225 269 318
#     4   8  14  27  49  72  98 134 176 221 269 319
#     4   9  17  34  58  81 106 142 179 220 277 335
#     4  10  20  38  64  89 112 142 183 229 282 337
#
# _framework density 19.657482000000002
#
# number of rings (size 3 to 8) (size 9 to 14) (size 15 to 20)
#    0.000    2.571    1.429    2.143    0.000    1.143 
#    0.000    8.571    0.000    3.429    0.000    0.000 
#    0.000    0.000    0.000    0.000    0.000    0.000 
#
# Total GULP energy -347017.060300 kJ/mol
# GULP energy per Si atom -12393.466439 kJ/mol
# Density = 1.961274 g / cm^3
# Si number density = 19.657482 Si / 1000 Ang^3
#
#
#
# Elastic Constant Matrix: (Units=GPa)
#
#
# Indices 1 2 3 4 5 6 
#
# 1 111.7859 35.0032 44.2582 0.0000 0.0000 0.0000
# 2 35.0032 70.1752 41.1628 0.0000 0.0000 0.0000
# 3 44.2582 41.1628 107.0974 0.0000 0.0000 0.0000
# 4 0.0000 0.0000 0.0000 22.9376 0.0000 0.0000
# 5 0.0000 0.0000 0.0000 0.0000 12.9924 0.0000
# 6 0.0000 0.0000 0.0000 0.0000 0.0000 29.4877
#
#
#
# Elastic Compliance Matrix: (Units=1/GPa)
#
#
# Indices 1 2 3 4 5 6 
#
# 1 0.011423 -0.003781 -0.003267 0.000000 0.000000 0.000000
# 2 -0.003781 0.019650 -0.005990 0.000000 0.000000 0.000000
# 3 -0.003267 -0.005990 0.012990 0.000000 0.000000 0.000000
# 4 0.000000 0.000000 0.000000 0.043597 0.000000 0.000000
# 5 0.000000 0.000000 0.000000 0.000000 0.076968 0.000000
# 6 0.000000 0.000000 0.000000 0.000000 0.000000 0.033912
#
#
# Mechanical properties :
#
#
# Convention : Reuss Voigt Hill
#
# Bulk Modulus (GPa) = 55.59938 58.87853 57.23896
# Shear Modulus (GPa) = 21.68145 24.32580 23.00363
#
# Velocity S-wave (km/s) = 3.32469 3.52160 3.42456
# Velocity P-wave (km/s) = 6.56381 6.82296 6.69464
#
# Compressibility (1/GPa) = 0.01798581
#
# Stress axis : x y z
#
# Youngs Moduli (GPa) = 87.54014 50.89180 76.98450
#
# Poissons Ratio (x) = 0.19244 0.25153
# Poissons Ratio (y) = 0.33102 0.46111
# Poissons Ratio (z) = 0.28602 0.30482
#
# Static dielectric constant tensor:
#      x y z
#    x 3.377350 0.000000 0.000000 
#    y 0.000000 3.263940 0.000000 
#    z 0.000000 0.000000 3.745640 
# 
# 
# High freq. dielectric constant tensor:
#      x y z
#    x 1.744810 0.000000 0.000000 
#    y 0.000000 1.732730 0.000000 
#    z 0.000000 0.000000 1.772000 
# 
# From -- ./inp_files/14755.got.cif
#   From: 2010.03.12/outbox.cif.g09.slc.cpg/sg39_8_cif.got.tgz:14755.got - 2010.04.14 02:53:20.
