data_PCOD8180718
_publ_section_title
;
Structure prediction by ZEFSAII (Michael W. Deem and Ramdas Pophale) SiO2 
 PCOD8180718
Probable space group: A B M 2
;
_chemical_formula_sum "Si O2"
_cell_formula_units_Z 64
_cell_length_a 14.393114
_cell_length_b 8.702192
_cell_length_c 31.103158
_cell_angle_alpha 90.000000
_cell_angle_beta 90.000000
_cell_angle_gamma 90.000000
_cell_volume 3895.721596
_symmetry_space_group_name_H-M "A B M 2"
_symmetry_group_IT_number 39
_symmetry_cell_setting 'orthorhombic'
loop_
_space_group_symop_operation_xyz
x,y,z
-x,-y,z
-x,1/2+y,z
x,1/2-y,z
x,1/2+y,1/2+z
-x,1/2-y,1/2+z
-x,y,1/2+z
x,-y,1/2+z
loop_
_atom_site_type_symbol
_atom_site_label
_atom_site_fract_x
_atom_site_fract_y
_atom_site_fract_z
Si Si1 0.397606 0.067212 0.002080
Si Si2 0.399952 0.930300 0.666994
Si Si3 0.711132 0.432492 0.585679
Si Si4 0.398439 0.430950 0.828418
Si Si5 0.905998 0.430368 0.716410
Si Si6 0.095121 0.568078 0.618911
Si Si7 0.711685 0.570229 0.251909
Si Si8 0.602796 0.432828 0.915178
O O1 0.404841 0.250000 0.999004
O O2 0.331175 0.011303 0.040612
O O3 0.500000 0.000000 0.009941
O O4 0.350392 0.999607 0.958545
O O5 0.410567 0.750000 0.662190
O O6 0.351419 0.999760 0.624445
O O7 0.338361 0.973994 0.707807
O O8 0.500000 0.000000 0.673706
O O9 0.710069 0.250000 0.588700
O O10 0.817254 0.491354 0.590800
O O11 0.500000 0.500000 0.818738
O O12 0.409129 0.250000 0.834615
O O13 0.330021 0.467444 0.789527
O O14 0.351043 0.504721 0.871249
O O15 0.916605 0.250000 0.714627
O O16 0.890773 0.491810 0.667796
O O17 0.819586 0.475946 0.746567
O O18 0.000000 0.500000 0.736604
O O19 0.088973 0.750000 0.617495
O O20 0.000000 0.500000 0.599222
O O21 0.698915 0.750000 0.262761
O O22 0.500000 0.500000 0.914760
O O23 0.603596 0.250000 0.916049
#
# Coordination Sequence:
#
# PCOD8180718 Si02
#       8
#     8   8   8   8   8   8   8   8
#     4  10  18  29  46  68  94 125 158 193 231 275
#     4  10  19  31  44  61  90 128 163 191 222 267
#     4   9  17  30  47  65  91 127 160 188 229 279
#     4  11  21  33  49  70  96 125 159 197 235 281
#     4   9  17  30  49  68  91 122 158 200 241 280
#     4   9  16  30  48  67  89 120 157 197 238 275
#     4  10  19  32  48  67  94 128 161 194 236 280
#     4  10  18  31  49  68  92 121 154 194 237 279
#
# _framework density 16.428279
#
# number of rings (size 3 to 8) (size 9 to 14) (size 15 to 20)
#    0.000    2.250    1.250    4.875    0.000    2.000 
#    0.000    2.500    0.000    0.000    0.000    0.875 
#    0.000    4.000    0.000    0.000    0.000    0.000 
#
# Total GULP energy -396701.923937 kJ/mol
# GULP energy per Si atom -12396.935123 kJ/mol
# Density = 1.639089 g / cm^3
# Si number density = 16.428279 Si / 1000 Ang^3
#
#
#
# Elastic Constant Matrix: (Units=GPa)
#
#
# Indices 1 2 3 4 5 6 
#
# 1 107.3104 33.3255 47.8085 0.0000 0.0000 0.0000
# 2 33.3255 65.1477 45.5286 0.0000 0.0000 0.0000
# 3 47.8085 45.5286 111.4739 0.0000 0.0000 0.0000
# 4 0.0000 0.0000 0.0000 20.8629 0.0000 0.0000
# 5 0.0000 0.0000 0.0000 0.0000 7.1518 0.0000
# 6 0.0000 0.0000 0.0000 0.0000 0.0000 23.0727
#
#
#
# Elastic Compliance Matrix: (Units=1/GPa)
#
#
# Indices 1 2 3 4 5 6 
#
# 1 0.012090 -0.003584 -0.003721 0.000000 0.000000 0.000000
# 2 -0.003584 0.022543 -0.007670 0.000000 0.000000 0.000000
# 3 -0.003721 -0.007670 0.013699 0.000000 0.000000 0.000000
# 4 0.000000 0.000000 0.000000 0.047932 0.000000 0.000000
# 5 0.000000 0.000000 0.000000 0.000000 0.139824 0.000000
# 6 0.000000 0.000000 0.000000 0.000000 0.000000 0.043341
#
#
# Mechanical properties :
#
#
# Convention : Reuss Voigt Hill
#
# Bulk Modulus (GPa) = 54.40149 59.69526 57.04837
# Shear Modulus (GPa) = 15.84750 20.70211 18.27481
#
# Velocity S-wave (km/s) = 3.10925 3.55371 3.33888
# Velocity P-wave (km/s) = 6.78795 7.29755 7.04736
#
# Compressibility (1/GPa) = 0.01838185
#
# Stress axis : x y z
#
# Youngs Moduli (GPa) = 82.71595 44.35906 72.99588
#
# Poissons Ratio (x) = 0.15897 0.27164
# Poissons Ratio (y) = 0.29643 0.55990
# Poissons Ratio (z) = 0.30781 0.34025
#
# Static dielectric constant tensor:
#      x y z
#    x 3.097990 0.000000 0.000000 
#    y 0.000000 2.976160 0.000000 
#    z 0.000000 0.000000 3.512570 
# 
# 
# High freq. dielectric constant tensor:
#      x y z
#    x 1.611830 0.000000 0.000000 
#    y 0.000000 1.626750 0.000000 
#    z 0.000000 0.000000 1.626590 
# 
# From -- ./inp_files/17943.got.cif
#   From: 2010.03.12/outbox.cif.g09.slc.cpg/sg39_9_cif.got.tgz:17943.got - 2010.04.14 02:53:20.
