data_PCOD8180424
_publ_section_title
;
Structure prediction by ZEFSAII (Michael W. Deem and Ramdas Pophale) SiO2 
 PCOD8180424
Probable space group: A M M 2
;
_chemical_formula_sum "Si O2"
_cell_formula_units_Z 64
_cell_length_a 8.666794
_cell_length_b 30.212256
_cell_length_c 14.237739
_cell_angle_alpha 90.000000
_cell_angle_beta 90.000000
_cell_angle_gamma 90.000000
_cell_volume 3728.057974
_symmetry_space_group_name_H-M "A M M 2"
_symmetry_group_IT_number 38
_symmetry_cell_setting 'orthorhombic'
loop_
_space_group_symop_operation_xyz
x,y,z
-x,-y,z
-x,y,z
x,-y,z
x,1/2+y,1/2+z
-x,1/2-y,1/2+z
-x,1/2+y,1/2+z
x,1/2-y,1/2+z
loop_
_atom_site_type_symbol
_atom_site_label
_atom_site_fract_x
_atom_site_fract_y
_atom_site_fract_z
Si Si1 0.180603 0.299877 0.156800
Si Si2 0.680828 0.049921 0.208878
Si Si3 0.320629 0.269009 0.335347
Si Si4 0.320504 0.283378 0.549463
Si Si5 0.679857 0.135557 0.516878
Si Si6 0.316786 0.048343 0.421187
Si Si7 0.174272 0.821623 0.345221
Si Si8 0.824881 0.865060 0.149547
O O1 0.269113 0.304120 0.256332
O O2 0.228412 0.256610 0.097292
O O3 0.000000 0.297852 0.175056
O O4 0.223149 0.344951 0.102659
O O5 0.500000 0.059674 0.205946
O O6 0.744674 0.055710 0.315359
O O7 0.763831 0.084618 0.138890
O O8 0.716580 0.000000 0.173837
O O9 0.500000 0.257895 0.325077
O O10 0.280319 0.285929 0.439208
O O11 0.219816 0.226434 0.308021
O O12 0.500000 0.274109 0.567053
O O13 0.277039 0.331058 0.590361
O O14 0.500000 0.135876 0.542892
O O15 0.743468 0.086314 0.492059
O O16 0.704722 0.166045 0.425801
O O17 0.500000 0.050484 0.417093
O O18 0.262133 0.000000 0.458169
O O19 0.189063 0.855062 0.259550
O O20 0.000000 0.821411 0.385696
O O21 0.000000 0.861704 0.113514
#
# Coordination Sequence:
#
# PCOD8180424 Si02
#       8
#     8   8   8   8   8   8   8   8
#     4  12  24  36  52  74 105 138 172 213 259 311
#     4   9  17  31  51  74 102 137 176 215 254 300
#     4  11  23  38  55  74  99 134 178 220 258 300
#     4  11  23  37  55  75  99 133 176 218 256 304
#     4  11  20  32  52  75 102 139 179 215 253 304
#     4   8  15  28  48  74 101 131 169 212 254 296
#     4  11  21  31  47  73 107 141 173 211 256 301
#     4  11  22  33  49  75 107 141 174 209 258 312
#
# _framework density 17.167114999999999
#
# number of rings (size 3 to 8) (size 9 to 14) (size 15 to 20)
#    0.000    1.500    3.750    3.750    0.000    2.750 
#    0.000    0.000    0.000    1.500    0.000    0.875 
#    0.000    3.000    0.000    0.000    0.000    0.000 
#
# Total GULP energy -396787.513119 kJ/mol
# GULP energy per Si atom -12399.609785 kJ/mol
# Density = 1.712804 g / cm^3
# Si number density = 17.167115 Si / 1000 Ang^3
#
#
#
# Elastic Constant Matrix: (Units=GPa)
#
#
# Indices 1 2 3 4 5 6 
#
# 1 62.4700 21.9177 26.1080 0.0000 0.0000 0.0000
# 2 21.9177 102.6879 27.0486 0.0000 0.0000 0.0000
# 3 26.1080 27.0486 70.6376 0.0000 0.0000 0.0000
# 4 0.0000 0.0000 0.0000 23.2610 0.0000 0.0000
# 5 0.0000 0.0000 0.0000 0.0000 20.5018 0.0000
# 6 0.0000 0.0000 0.0000 0.0000 0.0000 16.7567
#
#
#
# Elastic Compliance Matrix: (Units=1/GPa)
#
#
# Indices 1 2 3 4 5 6 
#
# 1 0.019500 -0.002518 -0.006243 0.000000 0.000000 0.000000
# 2 -0.002518 0.011156 -0.003341 0.000000 0.000000 0.000000
# 3 -0.006243 -0.003341 0.017744 0.000000 0.000000 0.000000
# 4 0.000000 0.000000 0.000000 0.042990 0.000000 0.000000
# 5 0.000000 0.000000 0.000000 0.000000 0.048776 0.000000
# 6 0.000000 0.000000 0.000000 0.000000 0.000000 0.059678
#
#
# Mechanical properties :
#
#
# Convention : Reuss Voigt Hill
#
# Bulk Modulus (GPa) = 41.33021 42.88266 42.10643
# Shear Modulus (GPa) = 21.54119 22.81865 22.17992
#
# Velocity S-wave (km/s) = 3.54615 3.64978 3.59834
# Velocity P-wave (km/s) = 6.39487 6.54179 6.46875
#
# Compressibility (1/GPa) = 0.02419538
#
# Stress axis : x y z
#
# Youngs Moduli (GPa) = 51.28139 89.64024 56.35782
#
# Poissons Ratio (x) = 0.22568 0.35186
# Poissons Ratio (y) = 0.12911 0.18831
# Poissons Ratio (z) = 0.32017 0.29951
#
# Static dielectric constant tensor:
#      x y z
#    x 3.144610 0.000000 0.000000 
#    y 0.000000 3.379170 0.000000 
#    z 0.000000 0.000000 3.067860 
# 
# 
# High freq. dielectric constant tensor:
#      x y z
#    x 1.664390 0.000000 0.000000 
#    y 0.000000 1.655940 0.000000 
#    z 0.000000 0.000000 1.633150 
# 
# From -- ./inp_files/13103.got.cif
#   From: 2010.03.12/outbox.cif.g09.slc.cpg/sg38_7_cif.got.tgz:13103.got - 2010.04.14 02:38:36.
