data_PCOD8180804
_publ_section_title
;
Structure prediction by ZEFSAII (Michael W. Deem and Ramdas Pophale) SiO2 
 PCOD8180804
Probable space group: A B M 2
;
_chemical_formula_sum "Si O2"
_cell_formula_units_Z 48
_cell_length_a 14.106651
_cell_length_b 8.811318
_cell_length_c 20.653550
_cell_angle_alpha 90.000000
_cell_angle_beta 90.000000
_cell_angle_gamma 90.000000
_cell_volume 2567.198838
_symmetry_space_group_name_H-M "A B M 2"
_symmetry_group_IT_number 39
_symmetry_cell_setting 'orthorhombic'
loop_
_space_group_symop_operation_xyz
x,y,z
-x,-y,z
-x,1/2+y,z
x,1/2-y,z
x,1/2+y,1/2+z
-x,1/2-y,1/2+z
-x,y,1/2+z
x,-y,1/2+z
loop_
_atom_site_type_symbol
_atom_site_label
_atom_site_fract_x
_atom_site_fract_y
_atom_site_fract_z
Si Si1 0.097218 0.070010 0.367060
Si Si2 0.294370 0.930054 0.919713
Si Si3 0.906391 0.074915 0.228433
Si Si4 0.603436 0.429430 0.047601
Si Si5 0.600934 0.928353 0.293149
Si Si6 0.293303 0.575875 0.178000
O O1 0.088017 0.250000 0.363683
O O2 0.184390 0.019617 0.413313
O O3 0.118221 0.008801 0.295350
O O4 0.000000 0.000000 0.395444
O O5 0.299840 0.750000 0.919657
O O6 0.353426 0.994974 0.858858
O O7 0.341093 0.995472 0.985131
O O8 0.926753 0.250000 0.244436
O O9 0.820561 0.057084 0.177601
O O10 0.000000 0.000000 0.196670
O O11 0.500000 0.500000 0.052851
O O12 0.592103 0.250000 0.042675
O O13 0.665615 0.477463 0.109360
O O14 0.589670 0.750000 0.297827
O O15 0.500000 0.000000 0.280932
O O16 0.666670 0.967809 0.232976
O O17 0.321903 0.750000 0.192652
#
# Coordination Sequence:
#
# PCOD8180804 Si02
#       6
#     8   8   8   8   8   8
#     4  10  18  32  53  80 108 139 174 215 267 317
#     4   9  19  35  55  77 105 141 177 216 266 317
#     4  10  19  32  52  80 109 139 175 217 266 317
#     4  10  21  39  57  76 105 143 182 219 265 319
#     4  11  21  34  53  78 106 136 176 224 271 317
#     4  10  21  36  55  79 107 141 179 220 267 318
#
# _framework density 18.697423000000001
#
# number of rings (size 3 to 8) (size 9 to 14) (size 15 to 20)
#    0.000    2.000    1.667    3.500    0.000    2.667 
#    0.000    3.333    0.000    0.000    0.000    0.000 
#    0.000    0.000    0.000    0.000    0.000    0.000 
#
# Total GULP energy -297593.137393 kJ/mol
# GULP energy per Si atom -12399.714058 kJ/mol
# Density = 1.865487 g / cm^3
# Si number density = 18.697423 Si / 1000 Ang^3
#
#
#
# Elastic Constant Matrix: (Units=GPa)
#
#
# Indices 1 2 3 4 5 6 
#
# 1 159.3493 39.5345 68.8560 0.0000 0.0000 0.0000
# 2 39.5345 62.9159 29.2798 0.0000 0.0000 0.0000
# 3 68.8560 29.2798 125.5175 0.0000 0.0000 0.0000
# 4 0.0000 0.0000 0.0000 20.0649 0.0000 0.0000
# 5 0.0000 0.0000 0.0000 0.0000 36.9882 0.0000
# 6 0.0000 0.0000 0.0000 0.0000 0.0000 31.0488
#
#
#
# Elastic Compliance Matrix: (Units=1/GPa)
#
#
# Indices 1 2 3 4 5 6 
#
# 1 0.008948 -0.003745 -0.004035 0.000000 0.000000 0.000000
# 2 -0.003745 0.019397 -0.002470 0.000000 0.000000 0.000000
# 3 -0.004035 -0.002470 0.010757 0.000000 0.000000 0.000000
# 4 0.000000 0.000000 0.000000 0.049838 0.000000 0.000000
# 5 0.000000 0.000000 0.000000 0.000000 0.027036 0.000000
# 6 0.000000 0.000000 0.000000 0.000000 0.000000 0.032207
#
#
# Mechanical properties :
#
#
# Convention : Reuss Voigt Hill
#
# Bulk Modulus (GPa) = 53.76011 69.23592 61.49802
# Shear Modulus (GPa) = 28.59018 31.62787 30.10903
#
# Velocity S-wave (km/s) = 3.91461 4.11732 4.01725
# Velocity P-wave (km/s) = 7.01764 7.72743 7.38107
#
# Compressibility (1/GPa) = 0.01860115
#
# Stress axis : x y z
#
# Youngs Moduli (GPa) = 111.75321 51.55406 92.96320
#
# Poissons Ratio (x) = 0.19307 0.37513
# Poissons Ratio (y) = 0.41851 0.22966
# Poissons Ratio (z) = 0.45095 0.12736
#
# Static dielectric constant tensor:
#      x y z
#    x 3.798630 0.000000 0.000000 
#    y 0.000000 3.318450 0.000000 
#    z 0.000000 0.000000 3.439750 
# 
# 
# High freq. dielectric constant tensor:
#      x y z
#    x 1.745620 0.000000 0.000000 
#    y 0.000000 1.715620 0.000000 
#    z 0.000000 0.000000 1.706040 
# 
# From -- ./inp_files/12660.got.cif
#   From: 2010.03.12/outbox.cif.g09.slc.cpg/sg39_7_cif.got.tgz:12660.got - 2010.04.14 02:53:20.
