data_PCOD8180819
_publ_section_title
;
Structure prediction by ZEFSAII (Michael W. Deem and Ramdas Pophale) SiO2 
 PCOD8180819
Probable space group: A B M 2
;
_chemical_formula_sum "Si O2"
_cell_formula_units_Z 56
_cell_length_a 19.538256
_cell_length_b 8.734151
_cell_length_c 18.770792
_cell_angle_alpha 90.000000
_cell_angle_beta 90.000000
_cell_angle_gamma 90.000000
_cell_volume 3203.237122
_symmetry_space_group_name_H-M "A B M 2"
_symmetry_group_IT_number 39
_symmetry_cell_setting 'orthorhombic'
loop_
_space_group_symop_operation_xyz
x,y,z
-x,-y,z
-x,1/2+y,z
x,1/2-y,z
x,1/2+y,1/2+z
-x,1/2-y,1/2+z
-x,y,1/2+z
x,-y,1/2+z
loop_
_atom_site_type_symbol
_atom_site_label
_atom_site_fract_x
_atom_site_fract_y
_atom_site_fract_z
Si Si1 0.074788 0.931300 0.068870
Si Si2 0.300893 0.930785 0.243318
Si Si3 0.187149 0.423869 0.149437
Si Si4 0.808936 0.924316 0.992670
Si Si5 0.302996 0.930491 0.897562
Si Si6 0.570477 0.068909 0.153663
Si Si7 0.570193 0.069430 0.992060
O O1 0.071728 0.750000 0.063233
O O2 0.115530 0.983025 0.140815
O O3 0.000000 0.000000 0.071221
O O4 0.115045 0.001471 0.000121
O O5 0.295836 0.750000 0.237158
O O6 0.367162 0.993397 0.201284
O O7 0.232663 0.000427 0.209913
O O8 0.306950 0.980275 0.324239
O O9 0.170528 0.250000 0.171840
O O10 0.225399 0.428432 0.072014
O O11 0.814361 0.750000 0.964483
O O12 0.766176 0.026421 0.938341
O O13 0.304476 0.750000 0.883871
O O14 0.367168 0.988008 0.944056
O O15 0.565579 0.250000 0.157854
O O16 0.500000 0.000000 0.184281
O O17 0.582421 0.011980 0.072776
O O18 0.564258 0.250000 0.989499
O O19 0.500000 0.000000 0.961080
#
# Coordination Sequence:
#
# PCOD8180819 Si02
#       7
#     8   8   8   8   8   8   8
#     4  10  18  32  56  86 115 142 175 218 262 306
#     4  11  22  35  52  75 107 144 182 225 272 323
#     4   9  19  34  54  81 108 138 178 220 263 315
#     4   9  19  34  54  81 108 138 178 220 263 315
#     4  11  22  35  52  75 107 144 182 225 272 323
#     4   9  19  35  54  75  99 133 177 225 277 327
#     4   9  19  35  54  75  99 133 177 225 277 327
#
# _framework density 17.482313999999999
#
# number of rings (size 3 to 8) (size 9 to 14) (size 15 to 20)
#    0.857    1.429    0.000    3.429    0.000    4.000 
#    0.000    5.714    0.000    0.857    0.000    6.000 
#    0.000    0.000    0.000    0.000    0.000    0.000 
#
# Total GULP energy -347087.988452 kJ/mol
# GULP energy per Si atom -12395.999588 kJ/mol
# Density = 1.744252 g / cm^3
# Si number density = 17.482314 Si / 1000 Ang^3
#
#
#
# Elastic Constant Matrix: (Units=GPa)
#
#
# Indices 1 2 3 4 5 6 
#
# 1 132.3319 26.8802 45.2070 0.0000 0.0000 0.0000
# 2 26.8802 63.6695 11.7880 0.0000 0.0000 0.0000
# 3 45.2070 11.7880 69.2085 0.0000 0.0000 0.0000
# 4 0.0000 0.0000 0.0000 26.8908 0.0000 0.0000
# 5 0.0000 0.0000 0.0000 0.0000 7.3569 0.0000
# 6 0.0000 0.0000 0.0000 0.0000 0.0000 33.0242
#
#
#
# Elastic Compliance Matrix: (Units=1/GPa)
#
#
# Indices 1 2 3 4 5 6 
#
# 1 0.010327 -0.003212 -0.006198 0.000000 0.000000 0.000000
# 2 -0.003212 0.017217 -0.000834 0.000000 0.000000 0.000000
# 3 -0.006198 -0.000834 0.018640 0.000000 0.000000 0.000000
# 4 0.000000 0.000000 0.000000 0.037187 0.000000 0.000000
# 5 0.000000 0.000000 0.000000 0.000000 0.135927 0.000000
# 6 0.000000 0.000000 0.000000 0.000000 0.000000 0.030281
#
#
# Mechanical properties :
#
#
# Convention : Reuss Voigt Hill
#
# Bulk Modulus (GPa) = 38.91981 48.10670 43.51325
# Shear Modulus (GPa) = 17.94481 25.54337 21.74409
#
# Velocity S-wave (km/s) = 3.20731 3.82658 3.53055
# Velocity P-wave (km/s) = 6.00221 6.86299 6.44698
#
# Compressibility (1/GPa) = 0.02569386
#
# Stress axis : x y z
#
# Youngs Moduli (GPa) = 96.83652 58.08320 53.64836
#
# Poissons Ratio (x) = 0.18657 0.33253
# Poissons Ratio (y) = 0.31106 0.04476
# Poissons Ratio (z) = 0.60022 0.04846
#
# Static dielectric constant tensor:
#      x y z
#    x 3.245240 0.000000 0.000000 
#    y 0.000000 3.238930 0.000000 
#    z 0.000000 0.000000 3.104240 
# 
# 
# High freq. dielectric constant tensor:
#      x y z
#    x 1.671410 0.000000 0.000000 
#    y 0.000000 1.686640 0.000000 
#    z 0.000000 0.000000 1.652500 
# 
# From -- ./inp_files/13059.got.cif
#   From: 2010.03.12/outbox.cif.g09.slc.cpg/sg39_7_cif.got.tgz:13059.got - 2010.04.14 02:53:20.
