data_PCOD8180606
_publ_section_title
;
Structure prediction by ZEFSAII (Michael W. Deem and Ramdas Pophale) SiO2 
 PCOD8180606
Probable space group: A B M 2
;
_chemical_formula_sum "Si O2"
_cell_formula_units_Z 60
_cell_length_a 26.179404
_cell_length_b 24.616767
_cell_length_c 5.289171
_cell_angle_alpha 90.000000
_cell_angle_beta 90.000000
_cell_angle_gamma 90.000000
_cell_volume 3408.618355
_symmetry_space_group_name_H-M "A B M 2"
_symmetry_group_IT_number 39
_symmetry_cell_setting 'orthorhombic'
loop_
_space_group_symop_operation_xyz
x,y,z
-x,-y,z
-x,1/2+y,z
x,1/2-y,z
x,1/2+y,1/2+z
-x,1/2-y,1/2+z
-x,y,1/2+z
x,-y,1/2+z
loop_
_atom_site_type_symbol
_atom_site_label
_atom_site_fract_x
_atom_site_fract_y
_atom_site_fract_z
Si Si1 0.884100 0.964816 0.989980
Si Si2 0.272580 0.558012 0.991305
Si Si3 0.533362 0.632732 0.481932
Si Si4 0.229305 0.937647 0.491245
Si Si5 0.608547 0.466237 0.001711
Si Si6 0.940363 0.641879 0.017614
Si Si7 0.530533 0.250000 0.063950
Si Si8 0.947161 0.313073 0.017574
O O1 0.888335 0.993143 0.718705
O O2 0.831443 0.931048 0.006639
O O3 0.930187 0.922273 0.013614
O O4 0.252306 0.590550 0.237900
O O5 0.243139 0.501061 0.973467
O O6 0.256617 0.589976 0.735232
O O7 0.332428 0.548802 0.006603
O O8 0.492567 0.625300 0.707891
O O9 0.577728 0.589317 0.510845
O O10 0.559581 0.693052 0.505222
O O11 0.594049 0.498742 0.748147
O O12 0.915495 0.669316 0.268526
O O13 0.000829 0.652241 0.022117
O O14 0.915740 0.670828 0.769622
O O15 0.483643 0.250000 0.861426
O O16 0.961050 0.250000 0.012261
#
# Coordination Sequence:
#
# PCOD8180606 Si02
#       8
#     8   8   8   8   8   8   4   8
#     4  12  21  32  47  72 106 138 158 200 235 289
#     4  10  16  30  46  67  88 128 170 196 227 283
#     4  10  21  35  49  70  98 135 165 202 249 288
#     4  10  16  30  48  62  91 132 165 194 235 268
#     4  12  21  30  48  72 106 130 163 204 239 307
#     4  10  20  32  51  78  96 124 175 195 236 308
#     4   8  16  34  54  64  86 122 170 206 226 276
#     4  10  19  38  57  70  96 128 161 220 258 282
#
# _framework density 17.602442
#
# number of rings (size 3 to 8) (size 9 to 14) (size 15 to 20)
#    0.000    1.600    5.333    3.600    0.000    1.600 
#    0.000    8.000    0.000    0.000    0.000    0.000 
#   16.000    0.000    0.000    0.000    0.000    0.000 
#
# Total GULP energy -371715.053608 kJ/mol
# GULP energy per Si atom -12390.501787 kJ/mol
# Density = 1.756238 g / cm^3
# Si number density = 17.602442 Si / 1000 Ang^3
#
#
#
# Elastic Constant Matrix: (Units=GPa)
#
#
# Indices 1 2 3 4 5 6 
#
# 1 40.5295 40.5153 10.1007 0.0000 0.0000 0.0000
# 2 40.5153 87.1260 25.9486 0.0000 0.0000 0.0000
# 3 10.1007 25.9486 160.2881 0.0000 0.0000 0.0000
# 4 0.0000 0.0000 0.0000 16.4372 0.0000 0.0000
# 5 0.0000 0.0000 0.0000 0.0000 14.9158 0.0000
# 6 0.0000 0.0000 0.0000 0.0000 0.0000 0.6518
#
#
#
# Elastic Compliance Matrix: (Units=1/GPa)
#
#
# Indices 1 2 3 4 5 6 
#
# 1 0.046160 -0.021642 0.000595 0.000000 0.000000 0.000000
# 2 -0.021642 0.022206 -0.002231 0.000000 0.000000 0.000000
# 3 0.000595 -0.002231 0.006562 0.000000 0.000000 0.000000
# 4 0.000000 0.000000 0.000000 0.060838 0.000000 0.000000
# 5 0.000000 0.000000 0.000000 0.000000 0.067043 0.000000
# 6 0.000000 0.000000 0.000000 0.000000 0.000000 1.534316
#
#
# Mechanical properties :
#
#
# Convention : Reuss Voigt Hill
#
# Bulk Modulus (GPa) = 35.24690 49.00808 42.12749
# Shear Modulus (GPa) = 2.78840 20.49290 11.64065
#
# Velocity S-wave (km/s) = 1.25998 3.41575 2.57438
# Velocity P-wave (km/s) = 4.71000 6.59231 5.72899
#
# Compressibility (1/GPa) = 0.02837129
#
# Stress axis : x y z
#
# Youngs Moduli (GPa) = 21.66380 45.03238 152.38168
#
# Poissons Ratio (x) = 0.97461 -0.09064
# Poissons Ratio (y) = 0.46886 0.33998
# Poissons Ratio (z) = -0.01289 0.10047
#
# Static dielectric constant tensor:
#      x y z
#    x 2.972770 0.000000 0.000000 
#    y 0.000000 3.135340 0.000000 
#    z 0.000000 0.000000 6.651610 
# 
# 
# High freq. dielectric constant tensor:
#      x y z
#    x 1.637200 0.000000 0.000000 
#    y 0.000000 1.638650 0.000000 
#    z 0.000000 0.000000 1.729160 
# 
# From -- ./inp_files/1296.got.cif
#   From: 2010.03.12/outbox.cif.g09.slc.cpg/sg39_1_cif.got.tgz:1296.got - 2010.04.14 02:53:20.
