data_PCOD8180688
_publ_section_title
;
Structure prediction by ZEFSAII (Michael W. Deem and Ramdas Pophale) SiO2 
 PCOD8180688
Probable space group: A B M 2
;
_chemical_formula_sum "Si O2"
_cell_formula_units_Z 56
_cell_length_a 18.093983
_cell_length_b 8.925484
_cell_length_c 20.219523
_cell_angle_alpha 90.000000
_cell_angle_beta 90.000000
_cell_angle_gamma 90.000000
_cell_volume 3265.403543
_symmetry_space_group_name_H-M "A B M 2"
_symmetry_group_IT_number 39
_symmetry_cell_setting 'orthorhombic'
loop_
_space_group_symop_operation_xyz
x,y,z
-x,-y,z
-x,1/2+y,z
x,1/2-y,z
x,1/2+y,1/2+z
-x,1/2-y,1/2+z
-x,y,1/2+z
x,-y,1/2+z
loop_
_atom_site_type_symbol
_atom_site_label
_atom_site_fract_x
_atom_site_fract_y
_atom_site_fract_z
Si Si1 0.302643 0.418013 0.288820
Si Si2 0.075582 0.419886 0.851232
Si Si3 0.162103 0.078544 0.985537
Si Si4 0.420172 0.428028 0.864682
Si Si5 0.297851 0.581162 0.935045
Si Si6 0.169884 0.425171 0.730091
Si Si7 0.077277 0.925615 0.101759
O O1 0.323023 0.250000 0.265310
O O2 0.377998 0.515575 0.297775
O O3 0.262546 0.413397 0.360959
O O4 0.248619 0.492191 0.235147
O O5 0.054740 0.250000 0.835869
O O6 0.130286 0.433586 0.912448
O O7 0.114429 0.488724 0.786095
O O8 0.000000 0.500000 0.868653
O O9 0.170791 0.250000 0.008398
O O10 0.242370 0.000100 0.985720
O O11 0.106893 0.993562 0.033972
O O12 0.500000 0.500000 0.866464
O O13 0.425322 0.250000 0.865689
O O14 0.374787 0.487709 0.929325
O O15 0.313400 0.750000 0.960809
O O16 0.184050 0.250000 0.741666
O O17 0.136313 0.460620 0.658756
O O18 0.064399 0.750000 0.092227
O O19 0.000000 0.000000 0.121504
#
# Coordination Sequence:
#
# PCOD8180688 Si02
#       7
#     8   8   8   8   8   8   8
#     4   9  18  30  49  76 103 133 169 210 254 305
#     4  10  20  31  47  69  91 120 161 206 258 311
#     4  11  21  35  54  73  99 135 172 217 266 316
#     4  10  17  28  47  76 114 146 173 210 258 309
#     4   9  18  31  49  76 104 133 170 210 255 306
#     4  10  20  36  53  71  98 133 171 216 266 315
#     4  11  24  39  54  73 102 138 178 225 273 322
#
# _framework density 17.149488000000002
#
# number of rings (size 3 to 8) (size 9 to 14) (size 15 to 20)
#    0.857    1.143    1.429    3.429    0.000    4.000 
#    0.000    0.000    0.000    0.000    0.000    1.000 
#    0.000    6.857    0.000    0.000    0.000    0.000 
#
# Total GULP energy -347071.859502 kJ/mol
# GULP energy per Si atom -12395.423554 kJ/mol
# Density = 1.711045 g / cm^3
# Si number density = 17.149488 Si / 1000 Ang^3
#
#
#
# Elastic Constant Matrix: (Units=GPa)
#
#
# Indices 1 2 3 4 5 6 
#
# 1 107.6282 60.5283 5.8733 0.0000 0.0000 0.0000
# 2 60.5283 130.3221 22.3431 0.0000 0.0000 0.0000
# 3 5.8733 22.3431 37.4536 0.0000 0.0000 0.0000
# 4 0.0000 0.0000 0.0000 21.2791 0.0000 0.0000
# 5 0.0000 0.0000 0.0000 0.0000 22.0427 0.0000
# 6 0.0000 0.0000 0.0000 0.0000 0.0000 34.9820
#
#
#
# Elastic Compliance Matrix: (Units=1/GPa)
#
#
# Indices 1 2 3 4 5 6 
#
# 1 0.012672 -0.006177 0.001698 0.000000 0.000000 0.000000
# 2 -0.006177 0.011558 -0.005926 0.000000 0.000000 0.000000
# 3 0.001698 -0.005926 0.029969 0.000000 0.000000 0.000000
# 4 0.000000 0.000000 0.000000 0.046995 0.000000 0.000000
# 5 0.000000 0.000000 0.000000 0.000000 0.045367 0.000000
# 6 0.000000 0.000000 0.000000 0.000000 0.000000 0.028586
#
#
# Mechanical properties :
#
#
# Convention : Reuss Voigt Hill
#
# Bulk Modulus (GPa) = 29.95072 50.32146 40.13609
# Shear Modulus (GPa) = 24.14442 28.10471 26.12457
#
# Velocity S-wave (km/s) = 3.75624 4.05261 3.90724
# Velocity P-wave (km/s) = 6.02618 7.16273 6.61890
#
# Compressibility (1/GPa) = 0.03338817
#
# Stress axis : x y z
#
# Youngs Moduli (GPa) = 78.91242 86.51922 33.36782
#
# Poissons Ratio (x) = 0.53440 -0.05664
# Poissons Ratio (y) = 0.48742 0.19775
# Poissons Ratio (z) = -0.13396 0.51275
#
# Static dielectric constant tensor:
#      x y z
#    x 3.045140 0.000000 0.000000 
#    y 0.000000 3.303260 0.000000 
#    z 0.000000 0.000000 2.878940 
# 
# 
# High freq. dielectric constant tensor:
#      x y z
#    x 1.653400 0.000000 0.000000 
#    y 0.000000 1.677170 0.000000 
#    z 0.000000 0.000000 1.624300 
# 
# From -- ./inp_files/14949.got.cif
#   From: 2010.03.12/outbox.cif.g09.slc.cpg/sg39_8_cif.got.tgz:14949.got - 2010.04.14 02:53:20.
