data_PCOD8180354
_publ_section_title
;
Structure prediction by ZEFSAII (Michael W. Deem and Ramdas Pophale) SiO2 
 PCOD8180354
Probable space group: A M M 2
;
_chemical_formula_sum "Si O2"
_cell_formula_units_Z 44
_cell_length_a 13.494385
_cell_length_b 26.285766
_cell_length_c 5.437752
_cell_angle_alpha 90.000000
_cell_angle_beta 90.000000
_cell_angle_gamma 90.000000
_cell_volume 1928.826352
_symmetry_space_group_name_H-M "A M M 2"
_symmetry_group_IT_number 38
_symmetry_cell_setting 'orthorhombic'
loop_
_space_group_symop_operation_xyz
x,y,z
-x,-y,z
-x,y,z
x,-y,z
x,1/2+y,1/2+z
-x,1/2-y,1/2+z
-x,1/2+y,1/2+z
x,1/2-y,1/2+z
loop_
_atom_site_type_symbol
_atom_site_label
_atom_site_fract_x
_atom_site_fract_y
_atom_site_fract_z
Si Si1 0.111614 0.556250 0.314480
Si Si2 0.608403 0.857443 0.848860
Si Si3 0.227534 0.868855 0.497847
Si Si4 0.115167 0.720057 0.783843
Si Si5 0.701712 0.556874 0.631888
Si Si6 0.500000 0.281698 0.622858
O O1 0.121036 0.500000 0.186833
O O2 0.184005 0.557220 0.547226
O O3 0.000000 0.565227 0.409815
O O4 0.137922 0.602336 0.133335
O O5 0.500000 0.858168 0.713163
O O6 0.698615 0.837861 0.679040
O O7 0.597960 0.817308 0.078150
O O8 0.631756 0.914706 0.937096
O O9 0.179859 0.831317 0.297213
O O10 0.299479 0.911679 0.383364
O O11 0.141774 0.753125 0.026335
O O12 0.000000 0.705415 0.789044
O O13 0.660889 0.500000 0.672444
O O14 0.500000 0.259702 0.897014
#
# Coordination Sequence:
#
# PCOD8180354 Si02
#       6
#     8   8   8   8   8   4
#     4   9  19  36  58  90 128 165 211 269 332 396
#     4   9  24  42  63  93 128 166 220 271 343 403
#     4  11  22  38  65  92 126 172 222 277 330 406
#     4  10  24  43  64  96 137 179 227 277 335 403
#     4  10  22  40  62  93 131 170 219 275 334 404
#     4  10  24  44  71  96 131 168 216 276 332 400
#
# _framework density 22.811802
#
# number of rings (size 3 to 8) (size 9 to 14) (size 15 to 20)
#    0.545    1.636    0.000    1.091    7.636    4.727 
#    0.000    1.818    0.000    0.000    0.000    0.000 
#    0.000    0.000    0.000    0.000    0.000    0.000 
#
# Total GULP energy -272598.615299 kJ/mol
# GULP energy per Si atom -12390.846150 kJ/mol
# Density = 2.275988 g / cm^3
# Si number density = 22.811802 Si / 1000 Ang^3
#
#
#
# Elastic Constant Matrix: (Units=GPa)
#
#
# Indices 1 2 3 4 5 6 
#
# 1 82.5151 18.7676 -4.6627 0.0000 0.0000 0.0000
# 2 18.7676 99.3712 7.8336 0.0000 0.0000 0.0000
# 3 -4.6627 7.8336 55.2277 0.0000 0.0000 0.0000
# 4 0.0000 0.0000 0.0000 40.1478 0.0000 0.0000
# 5 0.0000 0.0000 0.0000 0.0000 12.1367 0.0000
# 6 0.0000 0.0000 0.0000 0.0000 0.0000 28.1631
#
#
#
# Elastic Compliance Matrix: (Units=1/GPa)
#
#
# Indices 1 2 3 4 5 6 
#
# 1 0.012775 -0.002526 0.001437 0.000000 0.000000 0.000000
# 2 -0.002526 0.010677 -0.001728 0.000000 0.000000 0.000000
# 3 0.001437 -0.001728 0.018473 0.000000 0.000000 0.000000
# 4 0.000000 0.000000 0.000000 0.024908 0.000000 0.000000
# 5 0.000000 0.000000 0.000000 0.000000 0.082395 0.000000
# 6 0.000000 0.000000 0.000000 0.000000 0.000000 0.035507
#
#
# Mechanical properties :
#
#
# Convention : Reuss Voigt Hill
#
# Bulk Modulus (GPa) = 27.55512 31.22122 29.38817
# Shear Modulus (GPa) = 24.69562 30.43456 27.56509
#
# Velocity S-wave (km/s) = 3.29383 3.65658 3.47993
# Velocity P-wave (km/s) = 5.15474 5.61636 5.39049
#
# Compressibility (1/GPa) = 0.03629090
#
# Stress axis : x y z
#
# Youngs Moduli (GPa) = 78.27975 93.66341 54.13246
#
# Poissons Ratio (x) = 0.23659 -0.07778
# Poissons Ratio (y) = 0.19773 0.09352
# Poissons Ratio (z) = -0.11247 0.16182
#
# Static dielectric constant tensor:
#      x y z
#    x 3.968480 0.000000 0.000000 
#    y 0.000000 4.280980 0.000000 
#    z 0.000000 0.000000 3.815660 
# 
# 
# High freq. dielectric constant tensor:
#      x y z
#    x 1.894410 0.000000 0.000000 
#    y 0.000000 1.907350 0.000000 
#    z 0.000000 0.000000 1.879000 
# 
# From -- ./inp_files/1293.got.cif
#   From: 2010.03.12/outbox.cif.g09.slc.cpg/sg38_1_cif.got.tgz:1293.got - 2010.04.14 02:38:36.
