data_PCOD8180737
_publ_section_title
;
Structure prediction by ZEFSAII (Michael W. Deem and Ramdas Pophale) SiO2 
 PCOD8180737
Probable space group: A B M 2
;
_chemical_formula_sum "Si O2"
_cell_formula_units_Z 56
_cell_length_a 15.512153
_cell_length_b 9.005390
_cell_length_c 20.368724
_cell_angle_alpha 90.000000
_cell_angle_beta 90.000000
_cell_angle_gamma 90.000000
_cell_volume 2845.367907
_symmetry_space_group_name_H-M "A B M 2"
_symmetry_group_IT_number 39
_symmetry_cell_setting 'orthorhombic'
loop_
_space_group_symop_operation_xyz
x,y,z
-x,-y,z
-x,1/2+y,z
x,1/2-y,z
x,1/2+y,1/2+z
-x,1/2-y,1/2+z
-x,y,1/2+z
x,-y,1/2+z
loop_
_atom_site_type_symbol
_atom_site_label
_atom_site_fract_x
_atom_site_fract_y
_atom_site_fract_z
Si Si1 0.585526 0.919274 0.131210
Si Si2 0.774041 0.926681 0.090321
Si Si3 0.088903 0.421582 0.683347
Si Si4 0.634156 0.921038 0.278847
Si Si5 0.233536 0.575574 0.446797
Si Si6 0.805762 0.578115 0.805662
Si Si7 0.582169 0.575067 0.904916
O O1 0.574955 0.750000 0.110035
O O2 0.674888 0.979184 0.099779
O O3 0.589525 0.940220 0.209045
O O4 0.500000 0.000000 0.103754
O O5 0.782387 0.750000 0.101915
O O6 0.834529 0.009524 0.141213
O O7 0.804071 0.978574 0.016734
O O8 0.080138 0.250000 0.664800
O O9 0.109247 0.442569 0.761117
O O10 0.000000 0.500000 0.665862
O O11 0.633012 0.750000 0.301932
O O12 0.732804 0.975425 0.273984
O O13 0.582322 0.023895 0.329159
O O14 0.240935 0.750000 0.451562
O O15 0.176824 0.530615 0.382296
O O16 0.330698 0.514111 0.438218
O O17 0.774389 0.750000 0.804259
O O18 0.500000 0.500000 0.940581
O O19 0.572744 0.750000 0.908945
#
# Coordination Sequence:
#
# PCOD8180737 Si02
#       7
#     8   8   8   8   8   8   8
#     4  10  21  32  48  76 110 150 193 234 281 329
#     4  10  20  39  60  82 116 155 193 236 284 336
#     4  11  23  39  63  91 117 146 184 231 286 345
#     4  10  18  30  49  76 107 143 186 236 289 332
#     4   8  17  34  57  78 106 148 186 227 281 334
#     4   9  18  35  58  84 110 142 182 228 282 336
#     4  10  19  31  47  73 106 146 194 238 285 334
#
# _framework density 19.68111
#
# number of rings (size 3 to 8) (size 9 to 14) (size 15 to 20)
#    0.000    2.286    1.429    2.571    0.000    4.000 
#    0.000    4.286    0.000    1.714    0.000    0.000 
#    0.000    0.000    0.000    0.000    0.000    0.000 
#
# Total GULP energy -347006.787644 kJ/mol
# GULP energy per Si atom -12393.099559 kJ/mol
# Density = 1.963632 g / cm^3
# Si number density = 19.681110 Si / 1000 Ang^3
#
#
#
# Elastic Constant Matrix: (Units=GPa)
#
#
# Indices 1 2 3 4 5 6 
#
# 1 97.1494 37.3357 45.7489 0.0000 0.0000 0.0000
# 2 37.3357 69.0194 33.4419 0.0000 0.0000 0.0000
# 3 45.7489 33.4419 107.8287 0.0000 0.0000 0.0000
# 4 0.0000 0.0000 0.0000 16.2762 0.0000 0.0000
# 5 0.0000 0.0000 0.0000 0.0000 8.1329 0.0000
# 6 0.0000 0.0000 0.0000 0.0000 0.0000 30.8609
#
#
#
# Elastic Compliance Matrix: (Units=1/GPa)
#
#
# Indices 1 2 3 4 5 6 
#
# 1 0.014576 -0.005753 -0.004400 0.000000 0.000000 0.000000
# 2 -0.005753 0.019322 -0.003552 0.000000 0.000000 0.000000
# 3 -0.004400 -0.003552 0.012242 0.000000 0.000000 0.000000
# 4 0.000000 0.000000 0.000000 0.061439 0.000000 0.000000
# 5 0.000000 0.000000 0.000000 0.000000 0.122957 0.000000
# 6 0.000000 0.000000 0.000000 0.000000 0.000000 0.032404
#
#
# Mechanical properties :
#
#
# Convention : Reuss Voigt Hill
#
# Bulk Modulus (GPa) = 53.38776 56.33895 54.86336
# Shear Modulus (GPa) = 16.85811 21.55207 19.20509
#
# Velocity S-wave (km/s) = 2.92989 3.31276 3.12719
# Velocity P-wave (km/s) = 6.21538 6.58184 6.40123
#
# Compressibility (1/GPa) = 0.01873089
#
# Stress axis : x y z
#
# Youngs Moduli (GPa) = 68.60359 51.75561 81.68391
#
# Poissons Ratio (x) = 0.29775 0.35942
# Poissons Ratio (y) = 0.39468 0.29010
# Poissons Ratio (z) = 0.30187 0.18381
#
# Static dielectric constant tensor:
#      x y z
#    x 3.417050 0.000000 0.000000 
#    y 0.000000 3.467530 0.000000 
#    z 0.000000 0.000000 3.926240 
# 
# 
# High freq. dielectric constant tensor:
#      x y z
#    x 1.745440 0.000000 0.000000 
#    y 0.000000 1.750780 0.000000 
#    z 0.000000 0.000000 1.771960 
# 
# From -- ./inp_files/14733.got.cif
#   From: 2010.03.12/outbox.cif.g09.slc.cpg/sg39_8_cif.got.tgz:14733.got - 2010.04.14 02:53:20.
