data_PCOD8180030
_publ_section_title
;
Structure prediction by ZEFSAII (Michael W. Deem and Ramdas Pophale) SiO2 
 PCOD8180030
Probable space group: A M M 2
;
_chemical_formula_sum "Si O2"
_cell_formula_units_Z 64
_cell_length_a 13.315421
_cell_length_b 27.608329
_cell_length_c 9.502409
_cell_angle_alpha 90.000000
_cell_angle_beta 90.000000
_cell_angle_gamma 90.000000
_cell_volume 3493.242564
_symmetry_space_group_name_H-M "A M M 2"
_symmetry_group_IT_number 38
_symmetry_cell_setting 'orthorhombic'
loop_
_space_group_symop_operation_xyz
x,y,z
-x,-y,z
-x,y,z
x,-y,z
x,1/2+y,1/2+z
-x,1/2-y,1/2+z
-x,1/2+y,1/2+z
x,1/2-y,1/2+z
loop_
_atom_site_type_symbol
_atom_site_label
_atom_site_fract_x
_atom_site_fract_y
_atom_site_fract_z
Si Si1 0.227593 0.053722 0.381750
Si Si2 0.117063 0.553000 0.153879
Si Si3 0.386733 0.367670 0.858979
Si Si4 0.115790 0.869194 0.867656
Si Si5 0.696250 0.193778 0.867484
Si Si6 0.612533 0.887868 0.044361
Si Si7 0.618845 0.722051 0.057803
Si Si8 0.804755 0.444992 0.568202
O O1 0.139214 0.063491 0.491868
O O2 0.318833 0.089053 0.414116
O O3 0.174703 0.060823 0.232757
O O4 0.273238 0.000000 0.394583
O O5 0.161498 0.500000 0.198366
O O6 0.161869 0.597075 0.243827
O O7 0.000000 0.552528 0.181083
O O8 0.500000 0.383512 0.889602
O O9 0.370371 0.358496 0.691621
O O10 0.359120 0.320832 0.949054
O O11 0.185533 0.821318 0.873789
O O12 0.000000 0.852603 0.846853
O O13 0.122708 0.904334 0.002803
O O14 0.630593 0.147281 0.911878
O O15 0.663676 0.211451 0.712538
O O16 0.677361 0.233405 0.987948
O O17 0.500000 0.908687 0.036206
O O18 0.687796 0.933331 0.035688
O O19 0.500000 0.733283 0.071746
O O20 0.828823 0.500000 0.516840
#
# Coordination Sequence:
#
# PCOD8180030 Si02
#       8
#     8   8   8   8   8   8   8   8
#     4   9  17  30  48  74 107 137 168 207 248 290
#     4   9  17  30  50  74  99 132 173 213 251 291
#     4   9  18  31  49  74 103 137 171 201 240 294
#     4  10  21  37  55  74 100 134 172 212 255 303
#     4  11  22  36  55  78 101 129 167 211 258 308
#     4   9  17  31  49  71 104 139 171 209 253 303
#     4  11  21  34  55  80 104 130 165 208 255 307
#     4   9  18  30  48  76 105 136 174 213 254 300
#
# _framework density 18.321086999999999
#
# number of rings (size 3 to 8) (size 9 to 14) (size 15 to 20)
#    0.000    2.375    0.000    3.000    0.000    2.750 
#    0.000    4.375    0.000    0.750    0.000    3.500 
#    0.000    0.000    0.000    0.000    0.000    0.000 
#
# Total GULP energy -396596.150689 kJ/mol
# GULP energy per Si atom -12393.629709 kJ/mol
# Density = 1.827939 g / cm^3
# Si number density = 18.321087 Si / 1000 Ang^3
#
#
#
# Elastic Constant Matrix: (Units=GPa)
#
#
# Indices 1 2 3 4 5 6 
#
# 1 72.9245 37.0788 34.4990 0.0000 0.0000 0.0000
# 2 37.0788 84.3454 43.3289 0.0000 0.0000 0.0000
# 3 34.4990 43.3289 95.3276 0.0000 0.0000 0.0000
# 4 0.0000 0.0000 0.0000 30.0919 0.0000 0.0000
# 5 0.0000 0.0000 0.0000 0.0000 24.3867 0.0000
# 6 0.0000 0.0000 0.0000 0.0000 0.0000 9.9892
#
#
#
# Elastic Compliance Matrix: (Units=1/GPa)
#
#
# Indices 1 2 3 4 5 6 
#
# 1 0.018742 -0.006203 -0.003963 0.000000 0.000000 0.000000
# 2 -0.006203 0.017521 -0.005719 0.000000 0.000000 0.000000
# 3 -0.003963 -0.005719 0.014524 0.000000 0.000000 0.000000
# 4 0.000000 0.000000 0.000000 0.033232 0.000000 0.000000
# 5 0.000000 0.000000 0.000000 0.000000 0.041006 0.000000
# 6 0.000000 0.000000 0.000000 0.000000 0.000000 0.100108
#
#
# Mechanical properties :
#
#
# Convention : Reuss Voigt Hill
#
# Bulk Modulus (GPa) = 52.58678 53.60123 53.09400
# Shear Modulus (GPa) = 18.99406 22.07293 20.53349
#
# Velocity S-wave (km/s) = 3.22333 3.47476 3.35140
# Velocity P-wave (km/s) = 6.52827 6.73934 6.63464
#
# Compressibility (1/GPa) = 0.01901619
#
# Stress axis : x y z
#
# Youngs Moduli (GPa) = 53.35701 57.07540 68.85288
#
# Poissons Ratio (x) = 0.35404 0.27287
# Poissons Ratio (y) = 0.33098 0.39375
# Poissons Ratio (z) = 0.21146 0.32640
#
# Static dielectric constant tensor:
#      x y z
#    x 3.231730 0.000000 0.000000 
#    y 0.000000 3.427850 0.000000 
#    z 0.000000 0.000000 3.581170 
# 
# 
# High freq. dielectric constant tensor:
#      x y z
#    x 1.694620 0.000000 0.000000 
#    y 0.000000 1.702090 0.000000 
#    z 0.000000 0.000000 1.721900 
# 
# From -- ./inp_files/5877.got.cif
#   From: 2010.03.12/outbox.cif.g09.slc.cpg/sg38_3_cif.got.tgz:5877.got - 2010.04.14 02:38:36.
