data_PCOD8180242
_publ_section_title
;
Structure prediction by ZEFSAII (Michael W. Deem and Ramdas Pophale) SiO2 
 PCOD8180242
Probable space group: A M M 2
;
_chemical_formula_sum "Si O2"
_cell_formula_units_Z 40
_cell_length_a 7.433740
_cell_length_b 8.972826
_cell_length_c 29.353936
_cell_angle_alpha 90.000000
_cell_angle_beta 90.000000
_cell_angle_gamma 90.000000
_cell_volume 1957.956128
_symmetry_space_group_name_H-M "A M M 2"
_symmetry_group_IT_number 38
_symmetry_cell_setting 'orthorhombic'
loop_
_space_group_symop_operation_xyz
x,y,z
-x,-y,z
-x,y,z
x,-y,z
x,1/2+y,1/2+z
-x,1/2-y,1/2+z
-x,1/2+y,1/2+z
x,1/2-y,1/2+z
loop_
_atom_site_type_symbol
_atom_site_label
_atom_site_fract_x
_atom_site_fract_y
_atom_site_fract_z
Si Si1 0.704605 0.327362 0.030810
Si Si2 0.285926 0.167463 0.940439
Si Si3 0.000000 0.323562 0.699024
Si Si4 0.709786 0.325348 0.260132
Si Si5 0.713491 0.832881 0.351916
Si Si6 0.000000 0.672712 0.103802
O O1 0.500000 0.280659 0.042176
O O2 0.717994 0.500000 0.017799
O O3 0.822777 0.289805 0.074726
O O4 0.782258 0.238868 0.987476
O O5 0.500000 0.171480 0.938964
O O6 0.206782 0.258584 0.897596
O O7 0.212085 0.000000 0.937416
O O8 0.179973 0.255856 0.720769
O O9 0.000000 0.500000 0.705221
O O10 0.000000 0.282211 0.646206
O O11 0.500000 0.291315 0.251813
O O12 0.750640 0.500000 0.258834
O O13 0.776434 0.262967 0.308641
O O14 0.500000 0.835435 0.354548
O O15 0.790554 0.000000 0.347354
O O16 0.000000 0.500000 0.119451
#
# Coordination Sequence:
#
# PCOD8180242 Si02
#       6
#     8   8   4   8   8   4
#     4   9  18  34  56  80 107 141 181 227 279 332
#     4   9  16  27  47  77 112 148 185 224 269 327
#     4  12  26  42  61  86 117 150 188 239 295 351
#     4  10  21  39  63  88 116 152 194 239 287 341
#     4   9  16  28  50  81 116 151 187 228 276 332
#     4  10  22  40  59  80 107 140 184 235 285 341
#
# _framework density 20.429465
#
# number of rings (size 3 to 8) (size 9 to 14) (size 15 to 20)
#    0.000    2.400    0.000    2.700    0.000    7.600 
#    0.000    3.000    0.000    1.200    0.000    0.000 
#    0.000    0.000    0.000    0.000    0.000    0.000 
#
# Total GULP energy -248034.093658 kJ/mol
# GULP energy per Si atom -12401.704683 kJ/mol
# Density = 2.038297 g / cm^3
# Si number density = 20.429465 Si / 1000 Ang^3
#
#
#
# Elastic Constant Matrix: (Units=GPa)
#
#
# Indices 1 2 3 4 5 6 
#
# 1 75.8883 40.8097 49.2280 0.0000 0.0000 0.0000
# 2 40.8097 156.4545 86.0745 0.0000 0.0000 0.0000
# 3 49.2280 86.0745 159.4248 0.0000 0.0000 0.0000
# 4 0.0000 0.0000 0.0000 44.6327 0.0000 0.0000
# 5 0.0000 0.0000 0.0000 0.0000 -903.4258 0.0000
# 6 0.0000 0.0000 0.0000 0.0000 0.0000 15.0919
#
#
#
# Elastic Compliance Matrix: (Units=1/GPa)
#
#
# Indices 1 2 3 4 5 6 
#
# 1 0.016994 -0.002199 -0.004060 0.000000 0.000000 0.000000
# 2 -0.002199 0.009377 -0.004384 0.000000 0.000000 0.000000
# 3 -0.004060 -0.004384 0.009893 0.000000 0.000000 0.000000
# 4 0.000000 0.000000 0.000000 0.022405 0.000000 0.000000
# 5 0.000000 0.000000 0.000000 0.000000 -0.001107 0.000000
# 6 0.000000 0.000000 0.000000 0.000000 0.000000 0.066261
#
#
# Mechanical properties :
#
#
# Convention : Reuss Voigt Hill
#
# Bulk Modulus (GPa) = 66.76437 82.66578 74.71507
# Shear Modulus (GPa) = 33.31105 -154.36320 -60.52608
#
# Velocity S-wave (km/s) = 4.04237 -8.70190 -5.44896
# Velocity P-wave (km/s) = 7.38506 7.77254 1.71366
#
# Compressibility (1/GPa) = 0.01497805
#
# Stress axis : x y z
#
# Youngs Moduli (GPa) = 58.84598 106.64507 101.08120
#
# Poissons Ratio (x) = 0.23450 0.41040
# Poissons Ratio (y) = 0.12940 0.44311
# Poissons Ratio (z) = 0.23892 0.46750
#
# Static dielectric constant tensor:
#      x y z
#    x 3.835140 0.000000 0.000000 
#    y 0.000000 3.809070 0.000000 
#    z 0.000000 0.000000 3.673140 
# 
# 
# High freq. dielectric constant tensor:
#      x y z
#    x 1.788710 0.000000 0.000000 
#    y 0.000000 1.803280 0.000000 
#    z 0.000000 0.000000 1.796990 
# 
# From -- ./inp_files/23248.got.cif
#   From: 2010.03.12/outbox.cif.g09.slc.cpg/sg38_12_cif.got.tgz:23248.got - 2010.04.14 02:38:36.
