data_PCOD8180251
_publ_section_title
;
Structure prediction by ZEFSAII (Michael W. Deem and Ramdas Pophale) SiO2 
 PCOD8180251
Probable space group: A M M 2
;
_chemical_formula_sum "Si O2"
_cell_formula_units_Z 56
_cell_length_a 8.699346
_cell_length_b 18.500382
_cell_length_c 17.109856
_cell_angle_alpha 90.000000
_cell_angle_beta 90.000000
_cell_angle_gamma 90.000000
_cell_volume 2753.681170
_symmetry_space_group_name_H-M "A M M 2"
_symmetry_group_IT_number 38
_symmetry_cell_setting 'orthorhombic'
loop_
_space_group_symop_operation_xyz
x,y,z
-x,-y,z
-x,y,z
x,-y,z
x,1/2+y,1/2+z
-x,1/2-y,1/2+z
-x,1/2+y,1/2+z
x,1/2-y,1/2+z
loop_
_atom_site_type_symbol
_atom_site_label
_atom_site_fract_x
_atom_site_fract_y
_atom_site_fract_z
Si Si1 0.818164 0.299995 0.931820
Si Si2 0.818667 0.919062 0.311376
Si Si3 0.176567 0.082603 0.734257
Si Si4 0.176371 0.802595 0.610341
Si Si5 0.679654 0.848206 0.880590
Si Si6 0.175429 0.583677 0.525846
Si Si7 0.321560 0.337347 0.666196
O O1 0.767403 0.372918 0.886968
O O2 0.732912 0.234039 0.890271
O O3 0.000000 0.287387 0.925549
O O4 0.763184 0.306606 0.021427
O O5 0.766437 0.880396 0.232726
O O6 0.000000 0.924585 0.307465
O O7 0.747747 0.000000 0.317445
O O8 0.196012 0.118724 0.649022
O O9 0.284669 0.125309 0.793721
O O10 0.000000 0.087968 0.762604
O O11 0.230622 0.000000 0.727015
O O12 0.271730 0.746062 0.662537
O O13 0.000000 0.777139 0.611165
O O14 0.500000 0.854052 0.897625
O O15 0.771225 0.901379 0.938072
O O16 0.191490 0.500000 0.545576
O O17 0.284732 0.628232 0.582557
O O18 0.000000 0.609926 0.536104
O O19 0.500000 0.342357 0.684621
#
# Coordination Sequence:
#
# PCOD8180251 Si02
#       7
#     8   8   8   8   8   8   8
#     4  10  21  39  64  90 119 159 204 250 300 355
#     4  10  22  40  62  89 121 159 204 252 301 354
#     4  10  22  40  62  89 121 159 204 252 301 354
#     4  10  21  39  64  90 119 159 204 250 300 355
#     4  12  24  38  59  89 123 159 200 245 298 360
#     4  11  23  39  61  87 118 157 198 245 301 358
#     4  12  24  38  59  89 123 159 200 245 298 360
#
# _framework density 20.336413
#
# number of rings (size 3 to 8) (size 9 to 14) (size 15 to 20)
#    0.000    1.286    1.429    4.714    0.000   10.286 
#    0.000    2.857    0.000    0.000    0.000    4.000 
#    0.000    0.000    0.000    0.000    0.000    0.000 
#
# Total GULP energy -347341.569879 kJ/mol
# GULP energy per Si atom -12405.056067 kJ/mol
# Density = 2.029013 g / cm^3
# Si number density = 20.336413 Si / 1000 Ang^3
#
#
#
# Elastic Constant Matrix: (Units=GPa)
#
#
# Indices 1 2 3 4 5 6 
#
# 1 28.9748 31.3555 10.6672 0.0000 0.0000 0.0000
# 2 31.3555 142.2586 70.6571 0.0000 0.0000 0.0000
# 3 10.6672 70.6571 90.5124 0.0000 0.0000 0.0000
# 4 0.0000 0.0000 0.0000 30.8126 0.0000 0.0000
# 5 0.0000 0.0000 0.0000 0.0000 14.9014 0.0000
# 6 0.0000 0.0000 0.0000 0.0000 0.0000 -4.2516
#
#
#
# Elastic Compliance Matrix: (Units=1/GPa)
#
#
# Indices 1 2 3 4 5 6 
#
# 1 0.046234 -0.012224 0.004093 0.000000 0.000000 0.000000
# 2 -0.012224 0.014713 -0.010045 0.000000 0.000000 0.000000
# 3 0.004093 -0.010045 0.018407 0.000000 0.000000 0.000000
# 4 0.000000 0.000000 0.000000 0.032454 0.000000 0.000000
# 5 0.000000 0.000000 0.000000 0.000000 0.067108 0.000000
# 6 0.000000 0.000000 0.000000 0.000000 0.000000 -0.235205
#
#
# Mechanical properties :
#
#
# Convention : Reuss Voigt Hill
#
# Bulk Modulus (GPa) = 23.25388 54.12283 38.68835
# Shear Modulus (GPa) = -891.96595 18.23021 -436.86787
#
# Velocity S-wave (km/s) = -20.96563 2.99730 -14.67266
# Velocity P-wave (km/s) = 23.97118 6.21690 16.37021
#
# Compressibility (1/GPa) = 0.04300358
#
# Stress axis : x y z
#
# Youngs Moduli (GPa) = 21.62927 67.96893 54.32735
#
# Poissons Ratio (x) = 0.83082 -0.22238
# Poissons Ratio (y) = 0.26439 0.54570
# Poissons Ratio (z) = -0.08853 0.68272
#
# Static dielectric constant tensor:
#      x y z
#    x 3.533420 0.000000 0.000000 
#    y 0.000000 3.882600 0.000000 
#    z 0.000000 0.000000 3.710750 
# 
# 
# High freq. dielectric constant tensor:
#      x y z
#    x 1.780300 0.000000 0.000000 
#    y 0.000000 1.805430 0.000000 
#    z 0.000000 0.000000 1.800940 
# 
# From -- ./inp_files/12394.got.cif
#   From: 2010.03.12/outbox.cif.g09.slc.cpg/sg38_7_cif.got.tgz:12394.got - 2010.04.14 02:38:36.
