data_PCOD8180613
_publ_section_title
;
Structure prediction by ZEFSAII (Michael W. Deem and Ramdas Pophale) SiO2 
 PCOD8180613
Probable space group: A B M 2
;
_chemical_formula_sum "Si O2"
_cell_formula_units_Z 60
_cell_length_a 25.426903
_cell_length_b 33.635964
_cell_length_c 5.202869
_cell_angle_alpha 90.000000
_cell_angle_beta 90.000000
_cell_angle_gamma 90.000000
_cell_volume 4449.797385
_symmetry_space_group_name_H-M "A B M 2"
_symmetry_group_IT_number 39
_symmetry_cell_setting 'orthorhombic'
loop_
_space_group_symop_operation_xyz
x,y,z
-x,-y,z
-x,1/2+y,z
x,1/2-y,z
x,1/2+y,1/2+z
-x,1/2-y,1/2+z
-x,y,1/2+z
x,-y,1/2+z
loop_
_atom_site_type_symbol
_atom_site_label
_atom_site_fract_x
_atom_site_fract_y
_atom_site_fract_z
Si Si1 0.851006 0.297460 0.563530
Si Si2 0.388748 0.679262 0.527584
Si Si3 0.671747 0.202582 0.021775
Si Si4 0.534734 0.608385 0.034287
Si Si5 0.030059 0.202608 0.061197
Si Si6 0.441936 0.517253 0.504370
Si Si7 0.467281 0.750000 0.517754
Si Si8 0.208390 0.202786 0.563517
O O1 0.850787 0.250000 0.562845
O O2 0.910501 0.313710 0.561488
O O3 0.820615 0.314187 0.314983
O O4 0.821432 0.314210 0.814149
O O5 0.362782 0.684857 0.250437
O O6 0.414050 0.635867 0.543908
O O7 0.434245 0.710958 0.574388
O O8 0.345703 0.684398 0.750134
O O9 0.665915 0.250000 0.017579
O O10 0.731456 0.188742 0.064607
O O11 0.497401 0.617006 0.275699
O O12 0.556982 0.564049 0.046127
O O13 0.030261 0.250000 0.061352
O O14 0.999922 0.186219 0.310989
O O15 0.500000 0.500000 0.452952
O O16 0.412323 0.504855 0.240268
O O17 0.514817 0.750000 0.721278
O O18 0.205711 0.250000 0.561683
#
# Coordination Sequence:
#
# PCOD8180613 Si02
#       8
#     8   8   8   8   8   8   4   8
#     4   9  15  24  34  53  68  82 116 152 182 221
#     4  12  23  34  47  61  79 101 127 158 190 235
#     4  11  20  36  47  57  73 100 131 162 204 234
#     4  12  21  33  48  67  85 101 124 149 179 224
#     4   9  15  21  30  44  68  95 109 129 174 231
#     4  10  16  30  49  67  85 103 119 140 172 213
#     4  12  22  36  46  56  76 100 126 148 180 222
#     4   9  17  26  42  53  63  84 117 162 192 216
#
# _framework density 13.483760999999999
#
# number of rings (size 3 to 8) (size 9 to 14) (size 15 to 20)
#    0.000    1.600    4.000    4.000    0.000    5.333 
#    0.000    0.000    0.000    0.000    0.000    0.000 
#    0.000    0.000    0.000    0.000    0.000    0.000 
#
# Total GULP energy -371990.310482 kJ/mol
# GULP energy per Si atom -12399.677016 kJ/mol
# Density = 1.345307 g / cm^3
# Si number density = 13.483761 Si / 1000 Ang^3
#
#
#
# Elastic Constant Matrix: (Units=GPa)
#
#
# Indices 1 2 3 4 5 6 
#
# 1 76.4007 21.6388 29.4583 0.0000 0.0000 0.0000
# 2 21.6388 44.5651 6.5206 0.0000 0.0000 0.0000
# 3 29.4583 6.5206 100.9917 0.0000 0.0000 0.0000
# 4 0.0000 0.0000 0.0000 9.9309 0.0000 0.0000
# 5 0.0000 0.0000 0.0000 0.0000 27.8964 0.0000
# 6 0.0000 0.0000 0.0000 0.0000 0.0000 2.5354
#
#
#
# Elastic Compliance Matrix: (Units=1/GPa)
#
#
# Indices 1 2 3 4 5 6 
#
# 1 0.016954 -0.007580 -0.004456 0.000000 0.000000 0.000000
# 2 -0.007580 0.026042 0.000530 0.000000 0.000000 0.000000
# 3 -0.004456 0.000530 0.011167 0.000000 0.000000 0.000000
# 4 0.000000 0.000000 0.000000 0.100696 0.000000 0.000000
# 5 0.000000 0.000000 0.000000 0.000000 0.035847 0.000000
# 6 0.000000 0.000000 0.000000 0.000000 0.000000 0.394413
#
#
# Mechanical properties :
#
#
# Convention : Reuss Voigt Hill
#
# Bulk Modulus (GPa) = 32.10202 37.46587 34.78394
# Shear Modulus (GPa) = 8.08387 19.02853 13.55620
#
# Velocity S-wave (km/s) = 2.45118 3.76069 3.17420
# Velocity P-wave (km/s) = 5.64541 6.83398 6.26793
#
# Compressibility (1/GPa) = 0.03115069
#
# Stress axis : x y z
#
# Youngs Moduli (GPa) = 58.98363 38.39931 89.54678
#
# Poissons Ratio (x) = 0.29107 0.39901
# Poissons Ratio (y) = 0.44710 -0.04742
# Poissons Ratio (z) = 0.26282 -0.02034
#
# Static dielectric constant tensor:
#      x y z
#    x 2.666340 0.000000 0.000000 
#    y 0.000000 2.295840 0.000000 
#    z 0.000000 0.000000 3.149820 
# 
# 
# High freq. dielectric constant tensor:
#      x y z
#    x 1.498660 0.000000 0.000000 
#    y 0.000000 1.448680 0.000000 
#    z 0.000000 0.000000 1.545710 
# 
# From -- ./inp_files/1180.got.cif
#   From: 2010.03.12/outbox.cif.g09.slc.cpg/sg39_1_cif.got.tgz:1180.got - 2010.04.14 02:53:20.
