data_PCOD8180212
_publ_section_title
;
Structure prediction by ZEFSAII (Michael W. Deem and Ramdas Pophale) SiO2 
 PCOD8180212
Probable space group: A M M 2
;
_chemical_formula_sum "Si O2"
_cell_formula_units_Z 40
_cell_length_a 13.221288
_cell_length_b 7.490960
_cell_length_c 20.361477
_cell_angle_alpha 90.000000
_cell_angle_beta 90.000000
_cell_angle_gamma 90.000000
_cell_volume 2016.603524
_symmetry_space_group_name_H-M "A M M 2"
_symmetry_group_IT_number 38
_symmetry_cell_setting 'orthorhombic'
loop_
_space_group_symop_operation_xyz
x,y,z
-x,-y,z
-x,y,z
x,-y,z
x,1/2+y,1/2+z
-x,1/2-y,1/2+z
-x,1/2+y,1/2+z
x,1/2-y,1/2+z
loop_
_atom_site_type_symbol
_atom_site_label
_atom_site_fract_x
_atom_site_fract_y
_atom_site_fract_z
Si Si1 0.762685 0.290530 0.063060
Si Si2 0.110363 0.289053 0.187731
Si Si3 0.381043 0.000000 0.110623
Si Si4 0.883975 0.289899 0.932725
Si Si5 0.241151 0.202176 0.807047
Si Si6 0.381371 0.500000 0.765777
O O1 0.734073 0.500000 0.064326
O O2 0.835597 0.231277 0.121502
O O3 0.661141 0.175788 0.073318
O O4 0.823350 0.236440 0.997964
O O5 0.101474 0.500000 0.192007
O O6 0.169760 0.216876 0.250568
O O7 0.000000 0.200248 0.188224
O O8 0.500000 0.000000 0.100006
O O9 0.353735 0.000000 0.188238
O O10 0.885885 0.500000 0.923291
O O11 0.821599 0.202223 0.874063
O O12 0.000000 0.217397 0.935195
O O13 0.339858 0.326685 0.804858
O O14 0.276266 0.000000 0.792089
O O15 0.500000 0.500000 0.775939
#
# Coordination Sequence:
#
# PCOD8180212 Si02
#       6
#     8   8   4   8   8   4
#     4  10  21  39  61  88 125 162 200 253 308 368
#     4   9  17  32  56  86 119 156 197 239 299 370
#     4  11  24  42  66  92 116 155 212 269 317 363
#     4  10  21  38  63  93 131 170 203 244 306 375
#     4  11  22  39  62  89 124 163 204 255 311 371
#     4  11  24  44  66  90 120 157 210 273 321 361
#
# _framework density 19.835332000000001
#
# number of rings (size 3 to 8) (size 9 to 14) (size 15 to 20)
#    0.000    1.800    3.000    1.200    1.400    4.400 
#    0.000    5.500    0.000    0.000    0.000    0.000 
#    0.000    0.000    0.000    0.000    0.000    0.000 
#
# Total GULP energy -247971.352404 kJ/mol
# GULP energy per Si atom -12398.567620 kJ/mol
# Density = 1.979019 g / cm^3
# Si number density = 19.835332 Si / 1000 Ang^3
#
#
#
# Elastic Constant Matrix: (Units=GPa)
#
#
# Indices 1 2 3 4 5 6 
#
# 1 143.7171 62.3541 60.2904 0.0000 0.0000 0.0000
# 2 62.3541 95.3953 35.2870 0.0000 0.0000 0.0000
# 3 60.2904 35.2870 140.9742 0.0000 0.0000 0.0000
# 4 0.0000 0.0000 0.0000 23.4372 0.0000 0.0000
# 5 0.0000 0.0000 0.0000 0.0000 37.5078 0.0000
# 6 0.0000 0.0000 0.0000 0.0000 0.0000 23.7290
#
#
#
# Elastic Compliance Matrix: (Units=1/GPa)
#
#
# Indices 1 2 3 4 5 6 
#
# 1 0.010855 -0.005927 -0.003159 0.000000 0.000000 0.000000
# 2 -0.005927 0.014788 -0.001167 0.000000 0.000000 0.000000
# 3 -0.003159 -0.001167 0.008736 0.000000 0.000000 0.000000
# 4 0.000000 0.000000 0.000000 0.042667 0.000000 0.000000
# 5 0.000000 0.000000 0.000000 0.000000 0.026661 0.000000
# 6 0.000000 0.000000 0.000000 0.000000 0.000000 0.042143
#
#
# Mechanical properties :
#
#
# Convention : Reuss Voigt Hill
#
# Bulk Modulus (GPa) = 72.07344 77.32775 74.70060
# Shear Modulus (GPa) = 29.24327 31.74514 30.49420
#
# Velocity S-wave (km/s) = 3.84383 4.00488 3.92518
# Velocity P-wave (km/s) = 7.49098 7.77528 7.63445
#
# Compressibility (1/GPa) = 0.01387474
#
# Stress axis : x y z
#
# Youngs Moduli (GPa) = 92.12727 67.62147 114.46248
#
# Poissons Ratio (x) = 0.40076 0.36155
# Poissons Ratio (y) = 0.54600 0.13358
# Poissons Ratio (z) = 0.29100 0.07891
#
# Static dielectric constant tensor:
#      x y z
#    x 3.547450 0.000000 0.000000 
#    y 0.000000 3.462080 0.000000 
#    z 0.000000 0.000000 3.707660 
# 
# 
# High freq. dielectric constant tensor:
#      x y z
#    x 1.761880 0.000000 0.000000 
#    y 0.000000 1.775450 0.000000 
#    z 0.000000 0.000000 1.778460 
# 
# From -- ./inp_files/20469.got.cif
#   From: 2010.03.12/outbox.cif.g09.slc.cpg/sg38_11_cif.got.tgz:20469.got - 2010.04.14 02:38:36.
