data_PCOD8180413
_publ_section_title
;
Structure prediction by ZEFSAII (Michael W. Deem and Ramdas Pophale) SiO2 
 PCOD8180413
Probable space group: A M M 2
;
_chemical_formula_sum "Si O2"
_cell_formula_units_Z 40
_cell_length_a 7.670793
_cell_length_b 28.890628
_cell_length_c 8.773341
_cell_angle_alpha 90.000000
_cell_angle_beta 90.000000
_cell_angle_gamma 90.000000
_cell_volume 1944.295429
_symmetry_space_group_name_H-M "A M M 2"
_symmetry_group_IT_number 38
_symmetry_cell_setting 'orthorhombic'
loop_
_space_group_symop_operation_xyz
x,y,z
-x,-y,z
-x,y,z
x,-y,z
x,1/2+y,1/2+z
-x,1/2-y,1/2+z
-x,1/2+y,1/2+z
x,1/2-y,1/2+z
loop_
_atom_site_type_symbol
_atom_site_label
_atom_site_fract_x
_atom_site_fract_y
_atom_site_fract_z
Si Si1 0.804634 0.389362 0.603570
Si Si2 0.500000 0.054407 0.954290
Si Si3 0.304276 0.795121 0.967263
Si Si4 0.500000 0.054460 0.601750
Si Si5 0.802352 0.795394 0.634100
Si Si6 0.202962 0.886871 0.457321
O O1 0.673204 0.425725 0.530619
O O2 0.798652 0.340380 0.518980
O O3 0.757498 0.381926 0.779350
O O4 0.000000 0.409407 0.585140
O O5 0.500000 0.068771 0.778216
O O6 0.500000 0.000000 0.979385
O O7 0.500000 0.798015 0.030950
O O8 0.313571 0.791943 0.784626
O O9 0.210153 0.750227 0.032423
O O10 0.676533 0.073040 0.525344
O O11 0.500000 0.000000 0.578775
O O12 0.740206 0.838577 0.532945
O O13 0.000000 0.802237 0.687518
O O14 0.000000 0.898863 0.488919
#
# Coordination Sequence:
#
# PCOD8180413 Si02
#       6
#     8   4   8   4   8   8
#     4  11  23  43  67  95 130 170 212 262 319 379
#     4  11  25  45  66  97 128 163 213 265 323 385
#     4  12  24  38  61  94 129 171 215 261 312 372
#     4  11  25  43  68  93 126 165 205 263 323 379
#     4  11  23  40  61  89 127 173 215 259 310 371
#     4  10  24  42  66  95 127 167 213 260 314 377
#
# _framework density 20.573007
#
# number of rings (size 3 to 8) (size 9 to 14) (size 15 to 20)
#    0.000    1.000    1.000    5.400    2.800    6.400 
#    0.000    4.000    0.000    0.000    0.000    0.000 
#    0.000    0.000    0.000    0.000    0.000    0.000 
#
# Total GULP energy -248129.257539 kJ/mol
# GULP energy per Si atom -12406.462877 kJ/mol
# Density = 2.052618 g / cm^3
# Si number density = 20.573007 Si / 1000 Ang^3
#
#
#
# Elastic Constant Matrix: (Units=GPa)
#
#
# Indices 1 2 3 4 5 6 
#
# 1 103.8776 43.3105 46.0016 0.0000 0.0000 0.0000
# 2 43.3105 106.6853 61.9692 0.0000 0.0000 0.0000
# 3 46.0016 61.9692 151.5063 0.0000 0.0000 0.0000
# 4 0.0000 0.0000 0.0000 36.4677 0.0000 0.0000
# 5 0.0000 0.0000 0.0000 0.0000 34.3033 0.0000
# 6 0.0000 0.0000 0.0000 0.0000 0.0000 37.0240
#
#
#
# Elastic Compliance Matrix: (Units=1/GPa)
#
#
# Indices 1 2 3 4 5 6 
#
# 1 0.012116 -0.003649 -0.002186 0.000000 0.000000 0.000000
# 2 -0.003649 0.013393 -0.004370 0.000000 0.000000 0.000000
# 3 -0.002186 -0.004370 0.009052 0.000000 0.000000 0.000000
# 4 0.000000 0.000000 0.000000 0.027421 0.000000 0.000000
# 5 0.000000 0.000000 0.000000 0.000000 0.029152 0.000000
# 6 0.000000 0.000000 0.000000 0.000000 0.000000 0.027009
#
#
# Mechanical properties :
#
#
# Convention : Reuss Voigt Hill
#
# Bulk Modulus (GPa) = 70.66961 73.84798 72.25879
# Shear Modulus (GPa) = 34.89881 35.61154 35.25517
#
# Velocity S-wave (km/s) = 4.12313 4.16502 4.14413
# Velocity P-wave (km/s) = 7.55594 7.68787 7.62219
#
# Compressibility (1/GPa) = 0.01415035
#
# Stress axis : x y z
#
# Youngs Moduli (GPa) = 82.53366 74.66530 110.47597
#
# Poissons Ratio (x) = 0.27244 0.24155
# Poissons Ratio (y) = 0.30115 0.48280
# Poissons Ratio (z) = 0.18045 0.32630
#
# Static dielectric constant tensor:
#      x y z
#    x 3.680470 0.000000 0.000000 
#    y 0.000000 3.608470 0.000000 
#    z 0.000000 0.000000 3.836080 
# 
# 
# High freq. dielectric constant tensor:
#      x y z
#    x 1.820360 0.000000 0.000000 
#    y 0.000000 1.800200 0.000000 
#    z 0.000000 0.000000 1.820090 
# 
# From -- ./inp_files/3515.got.cif
#   From: 2010.03.12/outbox.cif.g09.slc.cpg/sg38_2_cif.got.tgz:3515.got - 2010.04.14 02:38:36.
