data_PCOD8180340
_publ_section_title
;
Structure prediction by ZEFSAII (Michael W. Deem and Ramdas Pophale) SiO2 
 PCOD8180340
Probable space group: A M M 2
;
_chemical_formula_sum "Si O2"
_cell_formula_units_Z 64
_cell_length_a 15.421397
_cell_length_b 8.572756
_cell_length_c 23.792103
_cell_angle_alpha 90.000000
_cell_angle_beta 90.000000
_cell_angle_gamma 90.000000
_cell_volume 3145.408179
_symmetry_space_group_name_H-M "A M M 2"
_symmetry_group_IT_number 38
_symmetry_cell_setting 'orthorhombic'
loop_
_space_group_symop_operation_xyz
x,y,z
-x,-y,z
-x,y,z
x,-y,z
x,1/2+y,1/2+z
-x,1/2-y,1/2+z
-x,1/2+y,1/2+z
x,1/2-y,1/2+z
loop_
_atom_site_type_symbol
_atom_site_label
_atom_site_fract_x
_atom_site_fract_y
_atom_site_fract_z
Si Si1 0.595776 0.314575 0.111880
Si Si2 0.903171 0.679707 0.336048
Si Si3 0.096732 0.684382 0.609916
Si Si4 0.752904 0.682614 0.037705
Si Si5 0.251004 0.681183 0.416520
Si Si6 0.402858 0.821705 0.347708
Si Si7 0.353819 0.682404 0.234960
Si Si8 0.168879 0.682321 0.729399
O O1 0.500000 0.256373 0.092956
O O2 0.599401 0.500000 0.111110
O O3 0.668907 0.246213 0.070051
O O4 0.614420 0.254242 0.174742
O O5 0.885118 0.500000 0.320314
O O6 0.833585 0.736718 0.382075
O O7 0.897326 0.784010 0.279970
O O8 0.000000 0.701449 0.361030
O O9 0.095923 0.500000 0.607913
O O10 0.159065 0.745003 0.561258
O O11 0.127928 0.741247 0.671065
O O12 0.000000 0.750097 0.599011
O O13 0.756865 0.500000 0.047906
O O14 0.744029 0.717881 0.972451
O O15 0.244656 0.500000 0.432269
O O16 0.337658 0.709907 0.380839
O O17 0.500000 0.801693 0.372230
O O18 0.405677 0.775474 0.282369
O O19 0.371501 0.000000 0.354060
O O20 0.372955 0.500000 0.242028
O O21 0.252480 0.714222 0.242099
O O22 0.192496 0.500000 0.727112
#
# Coordination Sequence:
#
# PCOD8180340 Si02
#       8
#     8   8   8   8   8   8   8   8
#     4   9  19  36  59  87 119 155 194 238 294 357
#     4  10  22  40  62  88 118 155 198 246 302 363
#     4  10  22  40  61  87 122 162 200 243 301 362
#     4  11  23  40  62  88 119 156 204 255 302 351
#     4  11  24  42  63  87 119 161 206 250 301 359
#     4  11  24  41  62  91 125 160 199 249 304 354
#     4  11  20  35  61  91 123 160 198 241 299 362
#     4  11  21  35  60  91 125 159 195 244 303 361
#
# _framework density 20.34712
#
# number of rings (size 3 to 8) (size 9 to 14) (size 15 to 20)
#    0.000    1.500    2.500    2.625    0.000    4.500 
#    0.000    2.500    0.000    3.375    0.000    0.000 
#    0.000    0.000    0.000    0.000    0.000    0.000 
#
# Total GULP energy -396916.182198 kJ/mol
# GULP energy per Si atom -12403.630694 kJ/mol
# Density = 2.030081 g / cm^3
# Si number density = 20.347120 Si / 1000 Ang^3
#
#
#
# Elastic Constant Matrix: (Units=GPa)
#
#
# Indices 1 2 3 4 5 6 
#
# 1 138.4194 11.9524 41.5540 0.0000 0.0000 0.0000
# 2 11.9524 25.4146 0.3917 0.0000 0.0000 0.0000
# 3 41.5540 0.3917 104.1070 0.0000 0.0000 0.0000
# 4 0.0000 0.0000 0.0000 31.7151 0.0000 0.0000
# 5 0.0000 0.0000 0.0000 0.0000 14.6644 0.0000
# 6 0.0000 0.0000 0.0000 0.0000 0.0000 24.2578
#
#
#
# Elastic Compliance Matrix: (Units=1/GPa)
#
#
# Indices 1 2 3 4 5 6 
#
# 1 0.008594 -0.003989 -0.003415 0.000000 0.000000 0.000000
# 2 -0.003989 0.041201 0.001437 0.000000 0.000000 0.000000
# 3 -0.003415 0.001437 0.010963 0.000000 0.000000 0.000000
# 4 0.000000 0.000000 0.000000 0.031531 0.000000 0.000000
# 5 0.000000 0.000000 0.000000 0.000000 0.068192 0.000000
# 6 0.000000 0.000000 0.000000 0.000000 0.000000 0.041224
#
#
# Mechanical properties :
#
#
# Convention : Reuss Voigt Hill
#
# Bulk Modulus (GPa) = 20.48160 41.74859 31.11510
# Shear Modulus (GPa) = 21.74718 28.39700 25.07209
#
# Velocity S-wave (km/s) = 3.27281 3.73986 3.51410
# Velocity P-wave (km/s) = 4.93656 6.26191 5.63831
#
# Compressibility (1/GPa) = 0.04882430
#
# Stress axis : x y z
#
# Youngs Moduli (GPa) = 116.35786 24.27106 91.21331
#
# Poissons Ratio (x) = 0.09682 0.31152
# Poissons Ratio (y) = 0.46417 -0.13109
# Poissons Ratio (z) = 0.39740 -0.03488
#
# Static dielectric constant tensor:
#      x y z
#    x 3.931980 0.000000 0.000000 
#    y 0.000000 3.464790 0.000000 
#    z 0.000000 0.000000 3.633280 
# 
# 
# High freq. dielectric constant tensor:
#      x y z
#    x 1.809890 0.000000 0.000000 
#    y 0.000000 1.780280 0.000000 
#    z 0.000000 0.000000 1.790200 
# 
# From -- ./inp_files/22879.got.cif
#   From: 2010.03.12/outbox.cif.g09.slc.cpg/sg38_12_cif.got.tgz:22879.got - 2010.04.14 02:38:36.
