data_PCOD8180025
_publ_section_title
;
Structure prediction by ZEFSAII (Michael W. Deem and Ramdas Pophale) SiO2 
 PCOD8180025
Probable space group: A M M 2
;
_chemical_formula_sum "Si O2"
_cell_formula_units_Z 52
_cell_length_a 17.697702
_cell_length_b 10.472179
_cell_length_c 15.084970
_cell_angle_alpha 90.000000
_cell_angle_beta 90.000000
_cell_angle_gamma 90.000000
_cell_volume 2795.750336
_symmetry_space_group_name_H-M "A M M 2"
_symmetry_group_IT_number 38
_symmetry_cell_setting 'orthorhombic'
loop_
_space_group_symop_operation_xyz
x,y,z
-x,-y,z
-x,y,z
x,-y,z
x,1/2+y,1/2+z
-x,1/2-y,1/2+z
-x,1/2+y,1/2+z
x,1/2-y,1/2+z
loop_
_atom_site_type_symbol
_atom_site_label
_atom_site_fract_x
_atom_site_fract_y
_atom_site_fract_z
Si Si1 0.236466 0.644571 0.424490
Si Si2 0.332048 0.000000 0.310297
Si Si3 0.915564 0.849972 0.192735
Si Si4 0.919566 0.348905 0.490342
Si Si5 0.758866 0.757575 0.248484
Si Si6 0.665997 0.745175 0.073375
Si Si7 0.586645 0.500000 0.635034
Si Si8 0.589509 0.500000 0.001536
O O1 0.243139 0.500000 0.460703
O O2 0.151233 0.700259 0.433744
O O3 0.257483 0.646874 0.320523
O O4 0.289060 0.735952 0.482292
O O5 0.279114 0.119436 0.291646
O O6 0.401177 0.000000 0.240663
O O7 0.366536 0.000000 0.408355
O O8 0.849272 0.775526 0.243213
O O9 0.000000 0.815311 0.229018
O O10 0.900523 0.000000 0.201938
O O11 0.909022 0.806014 0.091379
O O12 0.923175 0.500000 0.485999
O O13 0.000000 0.293313 0.454113
O O14 0.723322 0.718382 0.154466
O O15 0.620088 0.873334 0.091347
O O16 0.611219 0.624379 0.059565
O O17 0.500000 0.500000 0.611837
O O18 0.500000 0.500000 0.984420
#
# Coordination Sequence:
#
# PCOD8180025 Si02
#       8
#     8   4   8   8   8   8   4   4
#     4  11  21  35  57  86 115 154 199 244 287 344
#     4  10  21  36  61  86 110 145 200 237 286 350
#     4   9  16  28  52  84 116 154 201 248 290 334
#     4   8  15  28  49  77 110 149 196 245 287 331
#     4  11  21  35  58  86 120 154 196 246 288 347
#     4  11  23  39  63  87 118 152 195 236 295 363
#     4  10  21  40  63  87 112 148 188 238 288 349
#     4  12  25  44  63  89 122 155 188 245 317 377
#
# _framework density 18.599658000000002
#
# number of rings (size 3 to 8) (size 9 to 14) (size 15 to 20)
#    0.000    1.846    4.615    1.615    1.077    0.615 
#    0.000    0.000    0.000    0.923    0.000    1.077 
#    0.000    0.000    0.000    0.000    0.000    0.000 
#
# Total GULP energy -322214.777579 kJ/mol
# GULP energy per Si atom -12392.876061 kJ/mol
# Density = 1.855732 g / cm^3
# Si number density = 18.599658 Si / 1000 Ang^3
#
#
#
# Elastic Constant Matrix: (Units=GPa)
#
#
# Indices 1 2 3 4 5 6 
#
# 1 123.1863 30.6347 43.2525 0.0000 0.0000 0.0000
# 2 30.6347 67.5818 24.4379 0.0000 0.0000 0.0000
# 3 43.2525 24.4379 99.3833 0.0000 0.0000 0.0000
# 4 0.0000 0.0000 0.0000 -199.1645 0.0000 0.0000
# 5 0.0000 0.0000 0.0000 0.0000 17.2847 0.0000
# 6 0.0000 0.0000 0.0000 0.0000 0.0000 20.4589
#
#
#
# Elastic Compliance Matrix: (Units=1/GPa)
#
#
# Indices 1 2 3 4 5 6 
#
# 1 0.010218 -0.003319 -0.003631 0.000000 0.000000 0.000000
# 2 -0.003319 0.017319 -0.002814 0.000000 0.000000 0.000000
# 3 -0.003631 -0.002814 0.012334 0.000000 0.000000 0.000000
# 4 0.000000 0.000000 0.000000 -0.005021 0.000000 0.000000
# 5 0.000000 0.000000 0.000000 0.000000 0.057855 0.000000
# 6 0.000000 0.000000 0.000000 0.000000 0.000000 0.048879
#
#
# Mechanical properties :
#
#
# Convention : Reuss Voigt Hill
#
# Bulk Modulus (GPa) = 49.15638 54.08905 51.62271
# Shear Modulus (GPa) = 29.78097 -19.49577 5.14260
#
# Velocity S-wave (km/s) = 4.00579 -3.24107 1.66460
# Velocity P-wave (km/s) = 6.91962 3.89072 5.61333
#
# Compressibility (1/GPa) = 0.02034324
#
# Stress axis : x y z
#
# Youngs Moduli (GPa) = 97.86664 57.74022 81.07501
#
# Poissons Ratio (x) = 0.19163 0.29437
# Poissons Ratio (y) = 0.32480 0.22817
# Poissons Ratio (z) = 0.35534 0.16250
#
# Static dielectric constant tensor:
#      x y z
#    x 3.067550 0.000000 0.000000 
#    y 0.000000 5.161970 0.000000 
#    z 0.000000 0.000000 3.361570 
# 
# 
# High freq. dielectric constant tensor:
#      x y z
#    x 1.732250 0.000000 0.000000 
#    y 0.000000 1.692740 0.000000 
#    z 0.000000 0.000000 1.720660 
# 
# From -- ./inp_files/15208.got.cif
#   From: 2010.03.12/outbox.cif.g09.slc.cpg/sg38_8_cif.got.tgz:15208.got - 2010.04.14 02:38:36.
