data_PCOD8180487
_publ_section_title
;
Structure prediction by ZEFSAII (Michael W. Deem and Ramdas Pophale) SiO2 
 PCOD8180487
Probable space group: A M M 2
;
_chemical_formula_sum "Si O2"
_cell_formula_units_Z 40
_cell_length_a 14.546985
_cell_length_b 8.529325
_cell_length_c 15.563294
_cell_angle_alpha 90.000000
_cell_angle_beta 90.000000
_cell_angle_gamma 90.000000
_cell_volume 1931.030688
_symmetry_space_group_name_H-M "A M M 2"
_symmetry_group_IT_number 38
_symmetry_cell_setting 'orthorhombic'
loop_
_space_group_symop_operation_xyz
x,y,z
-x,-y,z
-x,y,z
x,-y,z
x,1/2+y,1/2+z
-x,1/2-y,1/2+z
-x,1/2+y,1/2+z
x,1/2-y,1/2+z
loop_
_atom_site_type_symbol
_atom_site_label
_atom_site_fract_x
_atom_site_fract_y
_atom_site_fract_z
Si Si1 0.900080 0.313930 0.332180
Si Si2 0.900662 0.814053 0.025291
Si Si3 0.706831 0.184149 0.084624
Si Si4 0.393093 0.181752 0.421751
Si Si5 0.288734 0.316069 0.262020
O O1 0.894851 0.500000 0.335325
O O2 0.888494 0.248531 0.428723
O O3 0.815467 0.250564 0.275581
O O4 0.000000 0.259492 0.295017
O O5 0.813385 0.756619 0.080421
O O6 0.000000 0.754048 0.062367
O O7 0.901681 0.000000 0.022487
O O8 0.669395 0.228533 0.178995
O O9 0.697409 0.000000 0.067987
O O10 0.647946 0.272593 0.013566
O O11 0.500000 0.221951 0.424048
O O12 0.348561 0.282101 0.345809
O O13 0.374427 0.000000 0.403622
O O14 0.289991 0.500000 0.244069
#
# Coordination Sequence:
#
# PCOD8180487 Si02
#       5
#     8   8   8   8   8
#     4   8  14  28  53  84 118 157 198 237 282 339
#     4   8  14  28  53  84 118 157 198 237 282 339
#     4  11  22  38  62  92 123 159 198 241 293 350
#     4  11  25  45  66  87 114 150 195 251 308 359
#     4  11  22  38  62  92 123 159 198 241 293 350
#
# _framework density 20.714324999999999
#
# number of rings (size 3 to 8) (size 9 to 14) (size 15 to 20)
#    0.000    2.200    2.000    3.000    0.000    3.200 
#    0.000    0.000    0.000    4.800    0.000    0.000 
#    0.000    0.000    0.000    0.000    0.000    0.000 
#
# Total GULP energy -247895.341355 kJ/mol
# GULP energy per Si atom -12394.767068 kJ/mol
# Density = 2.066718 g / cm^3
# Si number density = 20.714325 Si / 1000 Ang^3
#
#
#
# Elastic Constant Matrix: (Units=GPa)
#
#
# Indices 1 2 3 4 5 6 
#
# 1 119.4240 26.0635 40.3465 0.0000 0.0000 0.0000
# 2 26.0635 31.0355 3.5952 0.0000 0.0000 0.0000
# 3 40.3465 3.5952 107.7753 0.0000 0.0000 0.0000
# 4 0.0000 0.0000 0.0000 27.6957 0.0000 0.0000
# 5 0.0000 0.0000 0.0000 0.0000 5.5033 0.0000
# 6 0.0000 0.0000 0.0000 0.0000 0.0000 21.4868
#
#
#
# Elastic Compliance Matrix: (Units=1/GPa)
#
#
# Indices 1 2 3 4 5 6 
#
# 1 0.011826 -0.009455 -0.004112 0.000000 0.000000 0.000000
# 2 -0.009455 0.039906 0.002208 0.000000 0.000000 0.000000
# 3 -0.004112 0.002208 0.010744 0.000000 0.000000 0.000000
# 4 0.000000 0.000000 0.000000 0.036107 0.000000 0.000000
# 5 0.000000 0.000000 0.000000 0.000000 0.181709 0.000000
# 6 0.000000 0.000000 0.000000 0.000000 0.000000 0.046540
#
#
# Mechanical properties :
#
#
# Convention : Reuss Voigt Hill
#
# Bulk Modulus (GPa) = 25.15157 44.24945 34.70051
# Shear Modulus (GPa) = 13.78160 23.48580 18.63370
#
# Velocity S-wave (km/s) = 2.58217 3.37084 3.00251
# Velocity P-wave (km/s) = 4.58897 6.04634 5.36735
#
# Compressibility (1/GPa) = 0.03975895
#
# Stress axis : x y z
#
# Youngs Moduli (GPa) = 84.55776 25.05899 93.07361
#
# Poissons Ratio (x) = 0.23694 0.38270
# Poissons Ratio (y) = 0.79952 -0.20555
# Poissons Ratio (z) = 0.34769 -0.05534
#
# Static dielectric constant tensor:
#      x y z
#    x 4.182870 0.000000 0.000000 
#    y 0.000000 3.317310 0.000000 
#    z 0.000000 0.000000 3.622100 
# 
# 
# High freq. dielectric constant tensor:
#      x y z
#    x 1.818780 0.000000 0.000000 
#    y 0.000000 1.776200 0.000000 
#    z 0.000000 0.000000 1.806830 
# 
# From -- ./inp_files/5252.got.cif
#   From: 2010.03.12/outbox.cif.g09.slc.cpg/sg38_3_cif.got.tgz:5252.got - 2010.04.14 02:38:36.
