data_PCOD8180307
_publ_section_title
;
Structure prediction by ZEFSAII (Michael W. Deem and Ramdas Pophale) SiO2 
 PCOD8180307
Probable space group: A M M 2
;
_chemical_formula_sum "Si O2"
_cell_formula_units_Z 44
_cell_length_a 13.915328
_cell_length_b 11.569703
_cell_length_c 15.183717
_cell_angle_alpha 90.000000
_cell_angle_beta 90.000000
_cell_angle_gamma 90.000000
_cell_volume 2444.520923
_symmetry_space_group_name_H-M "A M M 2"
_symmetry_group_IT_number 38
_symmetry_cell_setting 'orthorhombic'
loop_
_space_group_symop_operation_xyz
x,y,z
-x,-y,z
-x,y,z
x,-y,z
x,1/2+y,1/2+z
-x,1/2-y,1/2+z
-x,1/2+y,1/2+z
x,1/2-y,1/2+z
loop_
_atom_site_type_symbol
_atom_site_label
_atom_site_fract_x
_atom_site_fract_y
_atom_site_fract_z
Si Si1 0.299716 0.635905 0.600810
Si Si2 0.241587 0.500000 0.181772
Si Si3 0.500000 0.361501 0.323715
Si Si4 0.500000 0.865170 0.022206
Si Si5 0.296700 0.223401 0.770711
Si Si6 0.113366 0.500000 0.016539
Si Si7 0.248908 0.810309 0.460772
Si Si8 0.384633 0.000000 0.529305
O O1 0.279222 0.500000 0.590529
O O2 0.408163 0.672873 0.577616
O O3 0.280165 0.673571 0.700945
O O4 0.235088 0.706293 0.531071
O O5 0.234961 0.612687 0.242025
O O6 0.151255 0.500000 0.116490
O O7 0.342747 0.500000 0.128341
O O8 0.500000 0.500000 0.319194
O O9 0.500000 0.312887 0.423845
O O10 0.591905 0.310213 0.274766
O O11 0.500000 0.000000 0.007668
O O12 0.255024 0.260696 0.863658
O O13 0.000000 0.500000 0.014368
O O14 0.153207 0.387212 0.966682
O O15 0.344697 0.885860 0.480498
O O16 0.500000 0.000000 0.530056
#
# Coordination Sequence:
#
# PCOD8180307 Si02
#       8
#     8   4   4   4   8   4   8   4
#     4  11  22  36  55  81 125 168 201 249 292 358
#     4  10  22  38  62  94 113 164 209 263 300 354
#     4  11  21  30  55  84 120 183 215 252 279 346
#     4   9  19  34  44  75 119 174 217 227 282 335
#     4  12  22  36  57  89 129 158 221 246 300 355
#     4  10  22  50  74  89 114 154 204 265 340 380
#     4  10  23  39  60  93 117 159 204 249 317 366
#     4  10  22  38  54  79 123 170 215 256 292 348
#
# _framework density 17.999438000000001
#
# number of rings (size 3 to 8) (size 9 to 14) (size 15 to 20)
#    0.000    1.636    6.364    0.545    7.636    0.000 
#    0.000    0.909    0.000    0.545    0.000    0.000 
#    0.000    0.000    0.000    0.000    0.000    0.000 
#
# Total GULP energy -272782.338709 kJ/mol
# GULP energy per Si atom -12399.197214 kJ/mol
# Density = 1.795847 g / cm^3
# Si number density = 17.999438 Si / 1000 Ang^3
#
#
#
# Elastic Constant Matrix: (Units=GPa)
#
#
# Indices 1 2 3 4 5 6 
#
# 1 110.9466 42.6913 32.4342 0.0000 0.0000 0.0000
# 2 42.6913 124.8802 62.8037 0.0000 0.0000 0.0000
# 3 32.4342 62.8037 142.9603 0.0000 0.0000 0.0000
# 4 0.0000 0.0000 0.0000 39.5907 0.0000 0.0000
# 5 0.0000 0.0000 0.0000 0.0000 5.9830 0.0000
# 6 0.0000 0.0000 0.0000 0.0000 0.0000 9.4909
#
#
#
# Elastic Compliance Matrix: (Units=1/GPa)
#
#
# Indices 1 2 3 4 5 6 
#
# 1 0.010496 -0.003069 -0.001033 0.000000 0.000000 0.000000
# 2 -0.003069 0.011176 -0.004213 0.000000 0.000000 0.000000
# 3 -0.001033 -0.004213 0.009080 0.000000 0.000000 0.000000
# 4 0.000000 0.000000 0.000000 0.025258 0.000000 0.000000
# 5 0.000000 0.000000 0.000000 0.000000 0.167140 0.000000
# 6 0.000000 0.000000 0.000000 0.000000 0.000000 0.105364
#
#
# Mechanical properties :
#
#
# Convention : Reuss Voigt Hill
#
# Bulk Modulus (GPa) = 70.81282 72.73839 71.77561
# Shear Modulus (GPa) = 14.29173 27.07010 20.68091
#
# Velocity S-wave (km/s) = 2.82087 3.88228 3.39333
# Velocity P-wave (km/s) = 7.07367 7.78430 7.43748
#
# Compressibility (1/GPa) = 0.01412174
#
# Stress axis : x y z
#
# Youngs Moduli (GPa) = 95.27283 89.48027 110.12789
#
# Poissons Ratio (x) = 0.27457 0.11379
# Poissons Ratio (y) = 0.29235 0.46401
# Poissons Ratio (z) = 0.09844 0.37701
#
# Static dielectric constant tensor:
#      x y z
#    x 2.948260 0.000000 0.000000 
#    y 0.000000 3.564400 0.000000 
#    z 0.000000 0.000000 3.372860 
# 
# 
# High freq. dielectric constant tensor:
#      x y z
#    x 1.640310 0.000000 0.000000 
#    y 0.000000 1.712930 0.000000 
#    z 0.000000 0.000000 1.708330 
# 
# From -- ./inp_files/14461.got.cif
#   From: 2010.03.12/outbox.cif.g09.slc.cpg/sg38_8_cif.got.tgz:14461.got - 2010.04.14 02:38:36.
