data_PCOD8180400
_publ_section_title
;
Structure prediction by ZEFSAII (Michael W. Deem and Ramdas Pophale) SiO2 
 PCOD8180400
Probable space group: A M M 2
;
_chemical_formula_sum "Si O2"
_cell_formula_units_Z 40
_cell_length_a 8.666283
_cell_length_b 28.398916
_cell_length_c 7.757226
_cell_angle_alpha 90.000000
_cell_angle_beta 90.000000
_cell_angle_gamma 90.000000
_cell_volume 1909.154496
_symmetry_space_group_name_H-M "A M M 2"
_symmetry_group_IT_number 38
_symmetry_cell_setting 'orthorhombic'
loop_
_space_group_symop_operation_xyz
x,y,z
-x,-y,z
-x,y,z
x,-y,z
x,1/2+y,1/2+z
-x,1/2-y,1/2+z
-x,1/2+y,1/2+z
x,1/2-y,1/2+z
loop_
_atom_site_type_symbol
_atom_site_label
_atom_site_fract_x
_atom_site_fract_y
_atom_site_fract_z
Si Si1 0.821842 0.445383 0.176540
Si Si2 0.325211 0.601005 0.495962
Si Si3 0.675672 0.201472 0.854458
Si Si4 0.821573 0.206451 0.498355
Si Si5 0.679423 0.614493 0.876082
O O1 0.780075 0.500000 0.168400
O O2 0.786583 0.426898 0.368335
O O3 0.000000 0.435804 0.135397
O O4 0.720740 0.419284 0.033877
O O5 0.500000 0.585860 0.451736
O O6 0.305677 0.657190 0.480283
O O7 0.284385 0.588462 0.694593
O O8 0.500000 0.206350 0.788499
O O9 0.788359 0.192196 0.694575
O O10 0.721667 0.247806 0.957634
O O11 0.775978 0.162717 0.378692
O O12 0.000000 0.218409 0.470783
O O13 0.500000 0.627723 0.889783
#
# Coordination Sequence:
#
# PCOD8180400 Si02
#       5
#     8   8   8   8   8
#     4  11  25  44  67  96 131 171 216 272 336 396
#     4  10  23  42  67  95 126 169 219 268 322 385
#     4  11  22  39  62  90 128 174 219 265 322 389
#     4  12  24  38  60  94 132 171 217 269 324 386
#     4  11  23  42  67  96 130 171 219 270 325 390
#
# _framework density 20.951682999999999
#
# number of rings (size 3 to 8) (size 9 to 14) (size 15 to 20)
#    0.000    1.000    2.000    4.800    0.000    6.400 
#    0.000    4.000    0.000    0.000    0.000    0.000 
#    0.000    0.000    0.000    0.000    0.000    0.000 
#
# Total GULP energy -248121.763231 kJ/mol
# GULP energy per Si atom -12406.088162 kJ/mol
# Density = 2.090400 g / cm^3
# Si number density = 20.951683 Si / 1000 Ang^3
#
#
#
# Elastic Constant Matrix: (Units=GPa)
#
#
# Indices 1 2 3 4 5 6 
#
# 1 67.6443 28.7433 23.5463 0.0000 0.0000 0.0000
# 2 28.7433 75.8300 16.3171 0.0000 0.0000 0.0000
# 3 23.5463 16.3171 111.1110 0.0000 0.0000 0.0000
# 4 0.0000 0.0000 0.0000 25.6641 0.0000 0.0000
# 5 0.0000 0.0000 0.0000 0.0000 24.4804 0.0000
# 6 0.0000 0.0000 0.0000 0.0000 0.0000 28.4839
#
#
#
# Elastic Compliance Matrix: (Units=1/GPa)
#
#
# Indices 1 2 3 4 5 6 
#
# 1 0.018536 -0.006383 -0.002991 0.000000 0.000000 0.000000
# 2 -0.006383 0.015815 -0.000970 0.000000 0.000000 0.000000
# 3 -0.002991 -0.000970 0.009776 0.000000 0.000000 0.000000
# 4 0.000000 0.000000 0.000000 0.038965 0.000000 0.000000
# 5 0.000000 0.000000 0.000000 0.000000 0.040849 0.000000
# 6 0.000000 0.000000 0.000000 0.000000 0.000000 0.035108
#
#
# Mechanical properties :
#
#
# Convention : Reuss Voigt Hill
#
# Bulk Modulus (GPa) = 42.65997 43.53318 43.09657
# Shear Modulus (GPa) = 26.65951 28.12424 27.39187
#
# Velocity S-wave (km/s) = 3.57098 3.66777 3.61970
# Velocity P-wave (km/s) = 6.11620 6.22573 6.17121
#
# Compressibility (1/GPa) = 0.02344118
#
# Stress axis : x y z
#
# Youngs Moduli (GPa) = 53.94787 63.22932 102.28850
#
# Poissons Ratio (x) = 0.40357 0.30593
# Poissons Ratio (y) = 0.34433 0.09922
# Poissons Ratio (z) = 0.16135 0.06133
#
# Static dielectric constant tensor:
#      x y z
#    x 3.761830 0.000000 0.000000 
#    y 0.000000 3.716210 0.000000 
#    z 0.000000 0.000000 3.833330 
# 
# 
# High freq. dielectric constant tensor:
#      x y z
#    x 1.824740 0.000000 0.000000 
#    y 0.000000 1.816480 0.000000 
#    z 0.000000 0.000000 1.830410 
# 
# From -- ./inp_files/3448.got.cif
#   From: 2010.03.12/outbox.cif.g09.slc.cpg/sg38_2_cif.got.tgz:3448.got - 2010.04.14 02:38:36.
