data_PCOD8180437
_publ_section_title
;
Structure prediction by ZEFSAII (Michael W. Deem and Ramdas Pophale) SiO2 
 PCOD8180437
Probable space group: A M M 2
;
_chemical_formula_sum "Si O2"
_cell_formula_units_Z 48
_cell_length_a 8.860973
_cell_length_b 13.846010
_cell_length_c 23.928104
_cell_angle_alpha 90.000000
_cell_angle_beta 90.000000
_cell_angle_gamma 90.000000
_cell_volume 2935.718041
_symmetry_space_group_name_H-M "A M M 2"
_symmetry_group_IT_number 38
_symmetry_cell_setting 'orthorhombic'
loop_
_space_group_symop_operation_xyz
x,y,z
-x,-y,z
-x,y,z
x,-y,z
x,1/2+y,1/2+z
-x,1/2-y,1/2+z
-x,1/2+y,1/2+z
x,1/2-y,1/2+z
loop_
_atom_site_type_symbol
_atom_site_label
_atom_site_fract_x
_atom_site_fract_y
_atom_site_fract_z
Si Si1 0.678578 0.109530 0.705590
Si Si2 0.675565 0.112956 0.361717
Si Si3 0.677276 0.891465 0.159414
Si Si4 0.320547 0.107431 0.486496
Si Si5 0.677910 0.289046 0.093763
Si Si6 0.822305 0.285994 0.760581
O O1 0.500000 0.121260 0.711286
O O2 0.732114 0.140179 0.643447
O O3 0.755578 0.179149 0.750850
O O4 0.730436 0.000000 0.716979
O O5 0.500000 0.135675 0.351324
O O6 0.725828 0.142319 0.424614
O O7 0.776208 0.178378 0.321709
O O8 0.707501 0.000000 0.351251
O O9 0.500000 0.880827 0.171551
O O10 0.727092 0.820634 0.108788
O O11 0.760682 0.862985 0.216070
O O12 0.721384 0.000000 0.142084
O O13 0.500000 0.104116 0.489672
O O14 0.251422 0.178095 0.534315
O O15 0.257042 0.000000 0.497770
O O16 0.500000 0.295982 0.088345
O O17 0.000000 0.280648 0.755536
#
# Coordination Sequence:
#
# PCOD8180437 Si02
#       6
#     8   8   8   8   8   8
#     4   9  17  30  49  70  91 116 144 175 214 261
#     4   9  17  29  45  64  87 117 151 185 221 261
#     4   9  17  29  45  65  90 119 149 182 220 261
#     4   8  13  22  40  66  90 111 139 178 222 264
#     4   8  13  23  42  68  92 112 138 175 219 263
#     4  11  21  30  43  64  90 119 149 183 222 261
#
# _framework density 16.350345000000001
#
# number of rings (size 3 to 8) (size 9 to 14) (size 15 to 20)
#    0.000    3.000    0.000    4.500    0.000    5.000 
#    0.000    0.000    0.000    5.000    0.000    9.333 
#    0.000    0.000    0.000    0.000    0.000    0.000 
#
# Total GULP energy -297470.686927 kJ/mol
# GULP energy per Si atom -12394.611955 kJ/mol
# Density = 1.631313 g / cm^3
# Si number density = 16.350345 Si / 1000 Ang^3
#
#
#
# Elastic Constant Matrix: (Units=GPa)
#
#
# Indices 1 2 3 4 5 6 
#
# 1 40.6864 35.7598 26.6480 0.0000 0.0000 0.0000
# 2 35.7598 138.1706 75.9980 0.0000 0.0000 0.0000
# 3 26.6480 75.9980 128.8138 0.0000 0.0000 0.0000
# 4 0.0000 0.0000 0.0000 27.4286 0.0000 0.0000
# 5 0.0000 0.0000 0.0000 0.0000 1.0143 0.0000
# 6 0.0000 0.0000 0.0000 0.0000 0.0000 8.1958
#
#
#
# Elastic Compliance Matrix: (Units=1/GPa)
#
#
# Indices 1 2 3 4 5 6 
#
# 1 0.032392 -0.006954 -0.002598 0.000000 0.000000 0.000000
# 2 -0.006954 0.012207 -0.005763 0.000000 0.000000 0.000000
# 3 -0.002598 -0.005763 0.011701 0.000000 0.000000 0.000000
# 4 0.000000 0.000000 0.000000 0.036458 0.000000 0.000000
# 5 0.000000 0.000000 0.000000 0.000000 0.985911 0.000000
# 6 0.000000 0.000000 0.000000 0.000000 0.000000 0.122014
#
#
# Mechanical properties :
#
#
# Convention : Reuss Voigt Hill
#
# Bulk Modulus (GPa) = 38.95802 64.94249 51.95026
# Shear Modulus (GPa) = 4.03268 18.61209 11.32238
#
# Velocity S-wave (km/s) = 1.57219 3.37757 2.63437
# Velocity P-wave (km/s) = 5.21291 7.41729 6.41057
#
# Compressibility (1/GPa) = 0.02566865
#
# Stress axis : x y z
#
# Youngs Moduli (GPa) = 30.87169 81.91771 85.46304
#
# Poissons Ratio (x) = 0.56969 0.22204
# Poissons Ratio (y) = 0.21469 0.49256
# Poissons Ratio (z) = 0.08021 0.47213
#
# Static dielectric constant tensor:
#      x y z
#    x 2.703880 0.000000 0.000000 
#    y 0.000000 3.224620 0.000000 
#    z 0.000000 0.000000 3.301740 
# 
# 
# High freq. dielectric constant tensor:
#      x y z
#    x 1.591780 0.000000 0.000000 
#    y 0.000000 1.624010 0.000000 
#    z 0.000000 0.000000 1.623020 
# 
# From -- ./inp_files/19630.got.cif
#   From: 2010.03.12/outbox.cif.g09.slc.cpg/sg38_10_cif.got.tgz:19630.got - 2010.04.14 02:38:36.
