data_PCOD8180741
_publ_section_title
;
Structure prediction by ZEFSAII (Michael W. Deem and Ramdas Pophale) SiO2 
 PCOD8180741
Probable space group: A B M 2
;
_chemical_formula_sum "Si O2"
_cell_formula_units_Z 64
_cell_length_a 14.599417
_cell_length_b 9.135104
_cell_length_c 24.810054
_cell_angle_alpha 90.000000
_cell_angle_beta 90.000000
_cell_angle_gamma 90.000000
_cell_volume 3308.847251
_symmetry_space_group_name_H-M "A B M 2"
_symmetry_group_IT_number 39
_symmetry_cell_setting 'orthorhombic'
loop_
_space_group_symop_operation_xyz
x,y,z
-x,-y,z
-x,1/2+y,z
x,1/2-y,z
x,1/2+y,1/2+z
-x,1/2-y,1/2+z
-x,y,1/2+z
x,-y,1/2+z
loop_
_atom_site_type_symbol
_atom_site_label
_atom_site_fract_x
_atom_site_fract_y
_atom_site_fract_z
Si Si1 0.287751 0.580943 0.405440
Si Si2 0.088469 0.575434 0.439754
Si Si3 0.861142 0.577839 0.546355
Si Si4 0.412101 0.414524 0.127407
Si Si5 0.684977 0.915185 0.023684
Si Si6 0.912008 0.919025 0.666921
Si Si7 0.284398 0.080563 0.701731
Si Si8 0.597691 0.922815 0.806101
O O1 0.280004 0.750000 0.390834
O O2 0.182623 0.522239 0.410385
O O3 0.341531 0.552427 0.461612
O O4 0.348650 0.509592 0.358011
O O5 0.078736 0.750000 0.438854
O O6 0.087831 0.518736 0.501393
O O7 0.000000 0.500000 0.411006
O O8 0.873596 0.750000 0.534617
O O9 0.754333 0.537408 0.544679
O O10 0.897387 0.532086 0.605039
O O11 0.500000 0.500000 0.148225
O O12 0.423102 0.250000 0.148060
O O13 0.403623 0.422441 0.062307
O O14 0.322336 0.483415 0.153315
O O15 0.728428 0.750000 0.026375
O O16 0.934690 0.750000 0.669263
O O17 0.823903 0.955339 0.704377
O O18 0.000000 0.000000 0.691582
O O19 0.298991 0.250000 0.686577
O O20 0.335730 0.039174 0.756576
O O21 0.579786 0.750000 0.811203
O O22 0.500000 0.000000 0.798816
#
# Coordination Sequence:
#
# PCOD8180741 Si02
#       8
#     8   8   8   8   8   8   8   8
#     4   8  17  35  56  78 106 141 178 220 270 325
#     4  10  19  32  51  77 112 148 187 224 265 321
#     4  10  18  30  50  76 109 147 185 223 267 318
#     4  11  22  34  53  80 110 146 180 221 276 334
#     4   9  18  33  52  76 109 146 181 219 271 327
#     4  10  21  34  51  77 109 144 180 221 267 321
#     4  10  21  39  58  79 109 143 183 230 275 326
#     4  10  21  39  63  83 104 137 181 230 280 328
#
# _framework density 19.342084
#
# number of rings (size 3 to 8) (size 9 to 14) (size 15 to 20)
#    0.000    2.250    1.250    2.625    0.000    5.000 
#    0.000    3.750    0.000    0.000    0.000    0.000 
#    0.000    0.000    0.000    0.000    0.000    0.000 
#
# Total GULP energy -396621.960614 kJ/mol
# GULP energy per Si atom -12394.436269 kJ/mol
# Density = 1.929806 g / cm^3
# Si number density = 19.342084 Si / 1000 Ang^3
#
#
#
# Elastic Constant Matrix: (Units=GPa)
#
#
# Indices 1 2 3 4 5 6 
#
# 1 135.1023 50.6880 62.3267 0.0000 0.0000 0.0000
# 2 50.6880 67.7045 37.6860 0.0000 0.0000 0.0000
# 3 62.3267 37.6860 97.6028 0.0000 0.0000 0.0000
# 4 0.0000 0.0000 0.0000 17.5093 0.0000 0.0000
# 5 0.0000 0.0000 0.0000 0.0000 25.0941 0.0000
# 6 0.0000 0.0000 0.0000 0.0000 0.0000 33.3315
#
#
#
# Elastic Compliance Matrix: (Units=1/GPa)
#
#
# Indices 1 2 3 4 5 6 
#
# 1 0.012200 -0.006111 -0.005431 0.000000 0.000000 0.000000
# 2 -0.006111 0.021874 -0.004544 0.000000 0.000000 0.000000
# 3 -0.005431 -0.004544 0.015468 0.000000 0.000000 0.000000
# 4 0.000000 0.000000 0.000000 0.057112 0.000000 0.000000
# 5 0.000000 0.000000 0.000000 0.000000 0.039850 0.000000
# 6 0.000000 0.000000 0.000000 0.000000 0.000000 0.030002
#
#
# Mechanical properties :
#
#
# Convention : Reuss Voigt Hill
#
# Bulk Modulus (GPa) = 57.56701 66.86788 62.21744
# Shear Modulus (GPa) = 23.31351 25.16758 24.24055
#
# Velocity S-wave (km/s) = 3.47555 3.61110 3.54397
# Velocity P-wave (km/s) = 6.77739 7.21339 6.99879
#
# Compressibility (1/GPa) = 0.01737106
#
# Stress axis : x y z
#
# Youngs Moduli (GPa) = 81.96755 45.71628 64.64830
#
# Poissons Ratio (x) = 0.27935 0.35112
# Poissons Ratio (y) = 0.50087 0.29375
# Poissons Ratio (z) = 0.44518 0.20773
#
# Static dielectric constant tensor:
#      x y z
#    x 3.610160 0.000000 0.000000 
#    y 0.000000 3.411190 0.000000 
#    z 0.000000 0.000000 3.511210 
# 
# 
# High freq. dielectric constant tensor:
#      x y z
#    x 1.755120 0.000000 0.000000 
#    y 0.000000 1.739600 0.000000 
#    z 0.000000 0.000000 1.734750 
# 
# From -- ./inp_files/16184.got.cif
#   From: 2010.03.12/outbox.cif.g09.slc.cpg/sg39_9_cif.got.tgz:16184.got - 2010.04.14 02:53:20.
