data_PCOD8180075
_publ_section_title
;
Structure prediction by ZEFSAII (Michael W. Deem and Ramdas Pophale) SiO2 
 PCOD8180075
Probable space group: A M M 2
;
_chemical_formula_sum "Si O2"
_cell_formula_units_Z 48
_cell_length_a 9.309132
_cell_length_b 16.547769
_cell_length_c 16.917853
_cell_angle_alpha 90.000000
_cell_angle_beta 90.000000
_cell_angle_gamma 90.000000
_cell_volume 2606.116856
_symmetry_space_group_name_H-M "A M M 2"
_symmetry_group_IT_number 38
_symmetry_cell_setting 'orthorhombic'
loop_
_space_group_symop_operation_xyz
x,y,z
-x,-y,z
-x,y,z
x,-y,z
x,1/2+y,1/2+z
-x,1/2-y,1/2+z
-x,1/2+y,1/2+z
x,1/2-y,1/2+z
loop_
_atom_site_type_symbol
_atom_site_label
_atom_site_fract_x
_atom_site_fract_y
_atom_site_fract_z
Si Si1 0.831232 0.671972 0.077830
Si Si2 0.167040 0.646070 0.539610
Si Si3 0.666552 0.904968 0.722399
Si Si4 0.333806 0.672615 0.386554
Si Si5 0.667141 0.000000 0.311297
Si Si6 0.666056 0.854506 0.423740
Si Si7 0.169038 0.000000 0.148763
O O1 0.795906 0.767182 0.077132
O O2 0.763403 0.633717 0.155204
O O3 0.000000 0.654547 0.077058
O O4 0.761436 0.630548 0.001179
O O5 0.248351 0.630986 0.457620
O O6 0.219230 0.579192 0.601477
O O7 0.000000 0.637509 0.520448
O O8 0.500000 0.884775 0.705674
O O9 0.718063 0.866047 0.804659
O O10 0.693830 0.000000 0.725921
O O11 0.500000 0.654076 0.401299
O O12 0.301927 0.768144 0.384147
O O13 0.710737 0.921017 0.360248
O O14 0.500000 0.000000 0.289955
O O15 0.755768 0.000000 0.232109
O O16 0.500000 0.863156 0.448929
O O17 0.000000 0.000000 0.163000
#
# Coordination Sequence:
#
# PCOD8180075 Si02
#       7
#     8   8   8   8   4   8   4
#     4  10  21  37  57  82 109 142 185 225 267 321
#     4   9  20  38  57  80 111 145 179 221 272 323
#     4  10  22  37  55  81 113 145 179 223 273 321
#     4   9  19  36  58  81 106 141 183 224 270 323
#     4  10  22  36  56  85 110 137 180 227 270 321
#     4   9  19  37  57  80 110 142 177 223 276 324
#     4  10  22  38  56  81 114 147 178 217 272 327
#
# _framework density 18.418208
#
# number of rings (size 3 to 8) (size 9 to 14) (size 15 to 20)
#    0.000    2.500    0.000    0.500    4.667    3.000 
#    0.000    0.000    0.000    0.000    0.000    0.000 
#    0.000    0.000    0.000    0.000    0.000    0.000 
#
# Total GULP energy -297695.825591 kJ/mol
# GULP energy per Si atom -12403.992733 kJ/mol
# Density = 1.837629 g / cm^3
# Si number density = 18.418208 Si / 1000 Ang^3
#
#
#
# Elastic Constant Matrix: (Units=GPa)
#
#
# Indices 1 2 3 4 5 6 
#
# 1 73.9363 52.7513 84.8399 0.0000 0.0000 0.0000
# 2 52.7513 105.9957 93.3017 0.0000 0.0000 0.0000
# 3 84.8399 93.3017 190.0807 0.0000 0.0000 0.0000
# 4 0.0000 0.0000 0.0000 32.7404 0.0000 0.0000
# 5 0.0000 0.0000 0.0000 0.0000 -24.7725 0.0000
# 6 0.0000 0.0000 0.0000 0.0000 0.0000 23.4871
#
#
#
# Elastic Compliance Matrix: (Units=1/GPa)
#
#
# Indices 1 2 3 4 5 6 
#
# 1 0.029395 -0.005424 -0.010458 0.000000 0.000000 0.000000
# 2 -0.005424 0.017613 -0.006224 0.000000 0.000000 0.000000
# 3 -0.010458 -0.006224 0.012984 0.000000 0.000000 0.000000
# 4 0.000000 0.000000 0.000000 0.030543 0.000000 0.000000
# 5 0.000000 0.000000 0.000000 0.000000 -0.040367 0.000000
# 6 0.000000 0.000000 0.000000 0.000000 0.000000 0.042576
#
#
# Mechanical properties :
#
#
# Convention : Reuss Voigt Hill
#
# Bulk Modulus (GPa) = 63.37317 92.42206 77.89761
# Shear Modulus (GPa) = 35.15808 15.56567 25.36187
#
# Velocity S-wave (km/s) = 4.37381 2.91026 3.71482
# Velocity P-wave (km/s) = 7.74529 7.84738 7.79650
#
# Compressibility (1/GPa) = 0.01577955
#
# Stress axis : x y z
#
# Youngs Moduli (GPa) = 34.01971 56.77783 77.01894
#
# Poissons Ratio (x) = 0.30795 0.80544
# Poissons Ratio (y) = 0.18451 0.47939
# Poissons Ratio (z) = 0.35577 0.35341
#
# Static dielectric constant tensor:
#      x y z
#    x 3.481870 0.000000 0.000000 
#    y 0.000000 3.558090 0.000000 
#    z 0.000000 0.000000 3.393200 
# 
# 
# High freq. dielectric constant tensor:
#      x y z
#    x 1.709850 0.000000 0.000000 
#    y 0.000000 1.723680 0.000000 
#    z 0.000000 0.000000 1.719140 
# 
# From -- ./inp_files/12055.got.cif
#   From: 2010.03.12/outbox.cif.g09.slc.cpg/sg38_7_cif.got.tgz:12055.got - 2010.04.14 02:38:36.
