data_PCOD8180458
_publ_section_title
;
Structure prediction by ZEFSAII (Michael W. Deem and Ramdas Pophale) SiO2 
 PCOD8180458
Probable space group: A M M 2
;
_chemical_formula_sum "Si O2"
_cell_formula_units_Z 56
_cell_length_a 18.957109
_cell_length_b 19.077003
_cell_length_c 7.767794
_cell_angle_alpha 90.000000
_cell_angle_beta 90.000000
_cell_angle_gamma 90.000000
_cell_volume 2809.182504
_symmetry_space_group_name_H-M "A M M 2"
_symmetry_group_IT_number 38
_symmetry_cell_setting 'orthorhombic'
loop_
_space_group_symop_operation_xyz
x,y,z
-x,-y,z
-x,y,z
x,-y,z
x,1/2+y,1/2+z
-x,1/2-y,1/2+z
-x,1/2+y,1/2+z
x,1/2-y,1/2+z
loop_
_atom_site_type_symbol
_atom_site_label
_atom_site_fract_x
_atom_site_fract_y
_atom_site_fract_z
Si Si1 0.578420 0.418436 0.653590
Si Si2 0.700584 0.175973 0.044696
Si Si3 0.421579 0.918436 0.551571
Si Si4 0.148173 0.329783 0.047468
Si Si5 0.700583 0.324025 0.160466
Si Si6 0.083315 0.418945 0.352581
Si Si7 0.851828 0.329783 0.657695
O O1 0.500000 0.395058 0.593680
O O2 0.588076 0.500000 0.619234
O O3 0.638002 0.379771 0.546170
O O4 0.588873 0.400015 0.852580
O O5 0.667835 0.249998 0.102584
O O6 0.767672 0.155517 0.160601
O O7 0.730812 0.181681 0.852581
O O8 0.500000 0.895061 0.611482
O O9 0.361999 0.879768 0.658991
O O10 0.411920 0.000000 0.585927
O O11 0.232330 0.344481 0.044558
O O12 0.111038 0.382721 0.178640
O O13 0.132208 0.250000 0.102582
O O14 0.120138 0.342679 0.852582
O O15 0.108008 0.500000 0.352583
O O16 0.111034 0.382721 0.526525
O O17 0.000000 0.412606 0.352573
#
# Coordination Sequence:
#
# PCOD8180458 Si02
#       7
#     8   8   8   8   8   8   8
#     4   9  19  36  55  78 112 154 201 250 302 365
#     4  11  21  36  59  86 118 154 199 255 306 359
#     4   9  19  36  55  78 112 154 201 250 302 365
#     4  11  21  42  69  96 128 168 216 263 314 378
#     4  11  21  36  59  86 118 154 199 255 306 359
#     4  11  26  46  66  98 138 168 208 263 314 376
#     4  11  21  42  69  96 128 168 216 263 314 378
#
# _framework density 19.934623999999999
#
# number of rings (size 3 to 8) (size 9 to 14) (size 15 to 20)
#    0.000    1.571    2.857    5.143    0.000    4.571 
#    0.000    2.857    0.000    0.000    0.000    0.000 
#    0.000    0.000    0.000    0.000    0.000    0.000 
#
# Total GULP energy -347192.369197 kJ/mol
# GULP energy per Si atom -12399.727471 kJ/mol
# Density = 1.988925 g / cm^3
# Si number density = 19.934624 Si / 1000 Ang^3
#
#
#
# Elastic Constant Matrix: (Units=GPa)
#
#
# Indices 1 2 3 4 5 6 
#
# 1 87.3371 58.5672 35.8216 0.0000 0.0000 0.0000
# 2 58.5672 104.8529 55.9553 0.0000 0.0000 0.0000
# 3 35.8216 55.9553 144.6108 0.0000 0.0000 0.0000
# 4 0.0000 0.0000 0.0000 30.2748 0.0000 0.0000
# 5 0.0000 0.0000 0.0000 0.0000 24.3302 0.0000
# 6 0.0000 0.0000 0.0000 0.0000 0.0000 34.1797
#
#
#
# Elastic Compliance Matrix: (Units=1/GPa)
#
#
# Indices 1 2 3 4 5 6 
#
# 1 0.018368 -0.009870 -0.000731 0.000000 0.000000 0.000000
# 2 -0.009870 0.017322 -0.004258 0.000000 0.000000 0.000000
# 3 -0.000731 -0.004258 0.008744 0.000000 0.000000 0.000000
# 4 0.000000 0.000000 0.000000 0.033031 0.000000 0.000000
# 5 0.000000 0.000000 0.000000 0.000000 0.041101 0.000000
# 6 0.000000 0.000000 0.000000 0.000000 0.000000 0.029257
#
#
# Mechanical properties :
#
#
# Convention : Reuss Voigt Hill
#
# Bulk Modulus (GPa) = 67.94832 70.83211 69.39021
# Shear Modulus (GPa) = 27.40535 30.18740 28.79637
#
# Velocity S-wave (km/s) = 3.71180 3.89565 3.80483
# Velocity P-wave (km/s) = 7.24772 7.47289 7.36117
#
# Compressibility (1/GPa) = 0.01471707
#
# Stress axis : x y z
#
# Youngs Moduli (GPa) = 54.44167 57.72911 114.36820
#
# Poissons Ratio (x) = 0.56977 0.08361
# Poissons Ratio (y) = 0.53733 0.48696
# Poissons Ratio (z) = 0.03980 0.24580
#
# Static dielectric constant tensor:
#      x y z
#    x 3.513580 0.000000 0.000000 
#    y 0.000000 3.574000 0.000000 
#    z 0.000000 0.000000 3.701230 
# 
# 
# High freq. dielectric constant tensor:
#      x y z
#    x 1.772960 0.000000 0.000000 
#    y 0.000000 1.768980 0.000000 
#    z 0.000000 0.000000 1.789270 
# 
# From -- ./inp_files/6801.got.cif
#   From: 2010.03.12/outbox.cif.g09.slc.cpg/sg38_4_cif.got.tgz:6801.got - 2010.04.14 02:38:36.
