data_PCOD8180854
_publ_section_title
;
Structure prediction by ZEFSAII (Michael W. Deem and Ramdas Pophale) SiO2 
 PCOD8180854
Probable space group: A B M 2
;
_chemical_formula_sum "Si O2"
_cell_formula_units_Z 48
_cell_length_a 11.218205
_cell_length_b 13.666139
_cell_length_c 16.701472
_cell_angle_alpha 90.000000
_cell_angle_beta 90.000000
_cell_angle_gamma 90.000000
_cell_volume 2560.495138
_symmetry_space_group_name_H-M "A B M 2"
_symmetry_group_IT_number 39
_symmetry_cell_setting 'orthorhombic'
loop_
_space_group_symop_operation_xyz
x,y,z
-x,-y,z
-x,1/2+y,z
x,1/2-y,z
x,1/2+y,1/2+z
-x,1/2-y,1/2+z
-x,y,1/2+z
x,-y,1/2+z
loop_
_atom_site_type_symbol
_atom_site_label
_atom_site_fract_x
_atom_site_fract_y
_atom_site_fract_z
Si Si1 0.945097 0.637179 0.033720
Si Si2 0.893146 0.940528 0.206642
Si Si3 0.275936 0.359140 0.328889
Si Si4 0.190403 0.453236 0.484540
Si Si5 0.323679 0.537917 0.137887
Si Si6 0.454179 0.138572 0.193687
O O1 0.911991 0.750000 0.017246
O O2 0.942900 0.614644 0.128297
O O3 0.848203 0.567222 0.990574
O O4 0.076110 0.615862 0.998626
O O5 0.834348 0.862979 0.266546
O O6 0.798558 0.025225 0.185640
O O7 0.000000 0.000000 0.249205
O O8 0.280749 0.250000 0.364804
O O9 0.251904 0.436234 0.398987
O O10 0.400330 0.383118 0.282545
O O11 0.293033 0.425765 0.548753
O O12 0.405166 0.614604 0.187672
O O13 0.387709 0.431608 0.130496
O O14 0.428997 0.250000 0.169146
#
# Coordination Sequence:
#
# PCOD8180854 Si02
#       6
#     8   8   8   8   8   8
#     4  10  19  34  55  86 120 153 192 229 279 349
#     4  10  18  35  56  83 116 151 190 232 281 342
#     4  10  21  35  55  81 113 153 192 236 295 348
#     4  10  20  35  54  87 118 151 187 236 292 343
#     4   9  18  36  56  80 112 145 189 239 281 331
#     4   9  19  36  59  82 106 148 199 238 281 341
#
# _framework density 18.746375
#
# number of rings (size 3 to 8) (size 9 to 14) (size 15 to 20)
#    0.000    2.333    3.333    1.000    2.333    5.333 
#    0.000    6.667    0.000    9.000    0.000    0.000 
#    0.000    0.000    0.000    0.000    0.000    0.000 
#
# Total GULP energy -297459.492736 kJ/mol
# GULP energy per Si atom -12394.145531 kJ/mol
# Density = 1.870371 g / cm^3
# Si number density = 18.746375 Si / 1000 Ang^3
#
#
#
# Elastic Constant Matrix: (Units=GPa)
#
#
# Indices 1 2 3 4 5 6 
#
# 1 106.5456 35.2208 42.6169 0.0000 0.0000 0.0000
# 2 35.2208 107.9703 36.6347 0.0000 0.0000 0.0000
# 3 42.6169 36.6347 96.4821 0.0000 0.0000 0.0000
# 4 0.0000 0.0000 0.0000 23.1658 0.0000 0.0000
# 5 0.0000 0.0000 0.0000 0.0000 26.9944 0.0000
# 6 0.0000 0.0000 0.0000 0.0000 0.0000 17.3952
#
#
#
# Elastic Compliance Matrix: (Units=1/GPa)
#
#
# Indices 1 2 3 4 5 6 
#
# 1 0.011924 -0.002413 -0.004350 0.000000 0.000000 0.000000
# 2 -0.002413 0.011120 -0.003156 0.000000 0.000000 0.000000
# 3 -0.004350 -0.003156 0.013485 0.000000 0.000000 0.000000
# 4 0.000000 0.000000 0.000000 0.043167 0.000000 0.000000
# 5 0.000000 0.000000 0.000000 0.000000 0.037045 0.000000
# 6 0.000000 0.000000 0.000000 0.000000 0.000000 0.057487
#
#
# Mechanical properties :
#
#
# Convention : Reuss Voigt Hill
#
# Bulk Modulus (GPa) = 59.92300 59.99363 59.95831
# Shear Modulus (GPa) = 25.04631 26.61277 25.82954
#
# Velocity S-wave (km/s) = 3.65918 3.77187 3.71596
# Velocity P-wave (km/s) = 7.06310 7.14434 7.10384
#
# Compressibility (1/GPa) = 0.01668808
#
# Stress axis : x y z
#
# Youngs Moduli (GPa) = 83.86762 89.92771 74.15848
#
# Poissons Ratio (x) = 0.21704 0.32261
# Poissons Ratio (y) = 0.20241 0.23406
# Poissons Ratio (z) = 0.36485 0.28384
#
# Static dielectric constant tensor:
#      x y z
#    x 3.684290 0.000000 0.000000 
#    y 0.000000 3.375690 0.000000 
#    z 0.000000 0.000000 3.286720 
# 
# 
# High freq. dielectric constant tensor:
#      x y z
#    x 1.730040 0.000000 0.000000 
#    y 0.000000 1.719870 0.000000 
#    z 0.000000 0.000000 1.702230 
# 
# From -- ./inp_files/9195.got.cif
#   From: 2010.03.12/outbox.cif.g09.slc.cpg/sg39_5_cif.got.tgz:9195.got - 2010.04.14 02:53:20.
