data_PCOD8180899
_publ_section_title
;
Structure prediction by ZEFSAII (Michael W. Deem and Ramdas Pophale) SiO2 
 PCOD8180899
Probable space group: A B M 2
;
_chemical_formula_sum "Si O2"
_cell_formula_units_Z 56
_cell_length_a 17.893535
_cell_length_b 8.854757
_cell_length_c 19.269377
_cell_angle_alpha 90.000000
_cell_angle_beta 90.000000
_cell_angle_gamma 90.000000
_cell_volume 3053.096056
_symmetry_space_group_name_H-M "A B M 2"
_symmetry_group_IT_number 39
_symmetry_cell_setting 'orthorhombic'
loop_
_space_group_symop_operation_xyz
x,y,z
-x,-y,z
-x,1/2+y,z
x,1/2-y,z
x,1/2+y,1/2+z
-x,1/2-y,1/2+z
-x,y,1/2+z
x,-y,1/2+z
loop_
_atom_site_type_symbol
_atom_site_label
_atom_site_fract_x
_atom_site_fract_y
_atom_site_fract_z
Si Si1 0.805414 0.425474 0.166730
Si Si2 0.286127 0.583624 0.777438
Si Si3 0.568850 0.582238 0.203731
Si Si4 0.419574 0.569752 0.060099
Si Si5 0.263998 0.925775 0.534152
Si Si6 0.793915 0.075979 0.386227
Si Si7 0.920206 0.073477 0.280427
O O1 0.804162 0.250000 0.147318
O O2 0.742417 0.461095 0.222775
O O3 0.787458 0.517740 0.097443
O O4 0.882816 0.471882 0.206031
O O5 0.249355 0.750000 0.766572
O O6 0.373718 0.595138 0.766067
O O7 0.273060 0.523741 0.854772
O O8 0.500000 0.500000 0.240132
O O9 0.549190 0.750000 0.174923
O O10 0.594568 0.479166 0.139364
O O11 0.500000 0.500000 0.033954
O O12 0.422338 0.750000 0.051772
O O13 0.344221 0.508237 0.022010
O O14 0.281935 0.750000 0.546118
O O15 0.208890 0.952076 0.468451
O O16 0.779359 0.250000 0.368346
O O17 0.870047 0.022459 0.347122
O O18 0.931894 0.250000 0.283090
O O19 0.000000 0.000000 0.287765
#
# Coordination Sequence:
#
# PCOD8180899 Si02
#       7
#     8   8   8   8   8   8   8
#     4  10  20  34  55  81 109 140 178 223 270 323
#     4  10  19  32  52  77 104 136 180 226 267 324
#     4  10  19  30  47  74 104 136 179 228 276 326
#     4  11  21  33  52  77 108 146 186 233 282 330
#     4  11  21  36  56  81 112 147 188 233 279 326
#     4   9  21  38  56  78 110 146 181 222 272 330
#     4   9  19  37  59  84 110 141 180 220 272 331
#
# _framework density 18.342036
#
# number of rings (size 3 to 8) (size 9 to 14) (size 15 to 20)
#    0.000    2.000    1.429    4.714    0.000    5.714 
#    0.000    1.429    0.000    5.143    0.000    0.000 
#    0.000    0.000    0.000    0.000    0.000    0.000 
#
# Total GULP energy -346882.199416 kJ/mol
# GULP energy per Si atom -12388.649979 kJ/mol
# Density = 1.830029 g / cm^3
# Si number density = 18.342036 Si / 1000 Ang^3
#
#
#
# Elastic Constant Matrix: (Units=GPa)
#
#
# Indices 1 2 3 4 5 6 
#
# 1 114.7746 53.3626 53.2511 0.0000 0.0000 0.0000
# 2 53.3626 99.0144 43.2457 0.0000 0.0000 0.0000
# 3 53.2511 43.2457 99.7766 0.0000 0.0000 0.0000
# 4 0.0000 0.0000 0.0000 24.7210 0.0000 0.0000
# 5 0.0000 0.0000 0.0000 0.0000 22.3127 0.0000
# 6 0.0000 0.0000 0.0000 0.0000 0.0000 32.1586
#
#
#
# Elastic Compliance Matrix: (Units=1/GPa)
#
#
# Indices 1 2 3 4 5 6 
#
# 1 0.013346 -0.005035 -0.004940 0.000000 0.000000 0.000000
# 2 -0.005035 0.014357 -0.003536 0.000000 0.000000 0.000000
# 3 -0.004940 -0.003536 0.014192 0.000000 0.000000 0.000000
# 4 0.000000 0.000000 0.000000 0.040451 0.000000 0.000000
# 5 0.000000 0.000000 0.000000 0.000000 0.044818 0.000000
# 6 0.000000 0.000000 0.000000 0.000000 0.000000 0.031096
#
#
# Mechanical properties :
#
#
# Convention : Reuss Voigt Hill
#
# Bulk Modulus (GPa) = 67.23732 68.14273 67.69003
# Shear Modulus (GPa) = 26.28275 26.75221 26.51748
#
# Velocity S-wave (km/s) = 3.78951 3.82320 3.80639
# Velocity P-wave (km/s) = 7.47557 7.53133 7.50350
#
# Compressibility (1/GPa) = 0.01487269
#
# Stress axis : x y z
#
# Youngs Moduli (GPa) = 74.93023 69.65137 70.46409
#
# Poissons Ratio (x) = 0.35067 0.34813
# Poissons Ratio (y) = 0.37725 0.24914
# Poissons Ratio (z) = 0.37019 0.24627
#
# Static dielectric constant tensor:
#      x y z
#    x 3.658310 0.000000 0.000000 
#    y 0.000000 3.642850 0.000000 
#    z 0.000000 0.000000 3.307040 
# 
# 
# High freq. dielectric constant tensor:
#      x y z
#    x 1.701530 0.000000 0.000000 
#    y 0.000000 1.727100 0.000000 
#    z 0.000000 0.000000 1.687630 
# 
# From -- ./inp_files/14937.got.cif
#   From: 2010.03.12/outbox.cif.g09.slc.cpg/sg39_8_cif.got.tgz:14937.got - 2010.04.14 02:53:20.
