data_PCOD8180648
_publ_section_title
;
Structure prediction by ZEFSAII (Michael W. Deem and Ramdas Pophale) SiO2 
 PCOD8180648
Probable space group: A B M 2
;
_chemical_formula_sum "Si O2"
_cell_formula_units_Z 64
_cell_length_a 15.273184
_cell_length_b 8.881347
_cell_length_c 30.435708
_cell_angle_alpha 90.000000
_cell_angle_beta 90.000000
_cell_angle_gamma 90.000000
_cell_volume 4128.495649
_symmetry_space_group_name_H-M "A B M 2"
_symmetry_group_IT_number 39
_symmetry_cell_setting 'orthorhombic'
loop_
_space_group_symop_operation_xyz
x,y,z
-x,-y,z
-x,1/2+y,z
x,1/2-y,z
x,1/2+y,1/2+z
-x,1/2-y,1/2+z
-x,y,1/2+z
x,-y,1/2+z
loop_
_atom_site_type_symbol
_atom_site_label
_atom_site_fract_x
_atom_site_fract_y
_atom_site_fract_z
Si Si1 0.905845 0.072004 0.314510
Si Si2 0.096779 0.429554 0.226988
Si Si3 0.094443 0.924886 0.045722
Si Si4 0.413470 0.579813 0.985383
Si Si5 0.763887 0.427626 0.484380
Si Si6 0.093583 0.075576 0.642767
Si Si7 0.585726 0.581511 0.380751
Si Si8 0.239882 0.924930 0.383988
O O1 0.916328 0.250000 0.307202
O O2 0.844708 0.032521 0.355623
O O3 0.860573 0.996584 0.271405
O O4 0.000000 0.000000 0.324460
O O5 0.096108 0.250000 0.228403
O O6 0.145554 0.489551 0.182464
O O7 0.000000 0.500000 0.225533
O O8 0.084238 0.750000 0.033951
O O9 0.137108 0.943909 0.094657
O O10 0.157339 0.003059 0.011356
O O11 0.000000 0.000000 0.041968
O O12 0.500000 0.500000 0.004820
O O13 0.409977 0.750000 0.003063
O O14 0.416828 0.575306 0.933089
O O15 0.327901 0.492221 0.002310
O O16 0.763019 0.250000 0.490461
O O17 0.778658 0.476060 0.433831
O O18 0.083559 0.250000 0.655582
O O19 0.000000 0.000000 0.638179
O O20 0.500000 0.500000 0.361224
O O21 0.584341 0.750000 0.362694
O O22 0.674790 0.505182 0.363815
O O23 0.261282 0.750000 0.382211
#
# Coordination Sequence:
#
# PCOD8180648 Si02
#       8
#     8   8   8   8   8   8   8   8
#     4  10  19  31  44  59  83 114 147 181 214 250
#     4  10  17  26  42  62  82 104 134 172 215 259
#     4  10  20  32  45  62  85 115 149 182 215 254
#     4   9  16  27  43  63  84 108 139 176 219 261
#     4  10  19  31  45  62  86 116 149 183 217 253
#     4   9  16  27  43  61  81 105 135 172 215 258
#     4   9  16  26  43  63  83 107 136 174 217 259
#     4   9  19  32  44  60  84 115 149 182 214 250
#
# _framework density 15.502013
#
# number of rings (size 3 to 8) (size 9 to 14) (size 15 to 20)
#    0.000    2.500    0.000    4.875    0.000    6.500 
#    0.000    1.250    0.000    0.000    0.000    0.000 
#    0.000    1.000    0.000    8.250    0.000    5.625 
#
# Total GULP energy -396614.322566 kJ/mol
# GULP energy per Si atom -12394.197580 kJ/mol
# Density = 1.546673 g / cm^3
# Si number density = 15.502013 Si / 1000 Ang^3
#
#
#
# Elastic Constant Matrix: (Units=GPa)
#
#
# Indices 1 2 3 4 5 6 
#
# 1 93.1312 53.8074 48.6074 0.0000 0.0000 0.0000
# 2 53.8074 118.5329 49.4578 0.0000 0.0000 0.0000
# 3 48.6074 49.4578 77.2567 0.0000 0.0000 0.0000
# 4 0.0000 0.0000 0.0000 20.9967 0.0000 0.0000
# 5 0.0000 0.0000 0.0000 0.0000 0.0523 0.0000
# 6 0.0000 0.0000 0.0000 0.0000 0.0000 27.5826
#
#
#
# Elastic Compliance Matrix: (Units=1/GPa)
#
#
# Indices 1 2 3 4 5 6 
#
# 1 0.017661 -0.004613 -0.008159 0.000000 0.000000 0.000000
# 2 -0.004613 0.012716 -0.005238 0.000000 0.000000 0.000000
# 3 -0.008159 -0.005238 0.021430 0.000000 0.000000 0.000000
# 4 0.000000 0.000000 0.000000 0.047627 0.000000 0.000000
# 5 0.000000 0.000000 0.000000 0.000000 19.130909 0.000000
# 6 0.000000 0.000000 0.000000 0.000000 0.000000 0.036255
#
#
# Mechanical properties :
#
#
# Convention : Reuss Voigt Hill
#
# Bulk Modulus (GPa) = 63.33967 65.85178 64.59573
# Shear Modulus (GPa) = 0.25896 18.86284 9.56090
#
# Velocity S-wave (km/s) = 0.40916 3.49205 2.48614
# Velocity P-wave (km/s) = 6.41646 7.67013 7.07113
#
# Compressibility (1/GPa) = 0.01578789
#
# Stress axis : x y z
#
# Youngs Moduli (GPa) = 56.62243 78.64022 46.66271
#
# Poissons Ratio (x) = 0.36276 0.38070
# Poissons Ratio (y) = 0.26119 0.24443
# Poissons Ratio (z) = 0.46196 0.41194
#
# Static dielectric constant tensor:
#      x y z
#    x 2.781900 0.000000 0.000000 
#    y 0.000000 3.149950 0.000000 
#    z 0.000000 0.000000 3.376230 
# 
# 
# High freq. dielectric constant tensor:
#      x y z
#    x 1.561710 0.000000 0.000000 
#    y 0.000000 1.616810 0.000000 
#    z 0.000000 0.000000 1.571770 
# 
# From -- ./inp_files/17980.got.cif
#   From: 2010.03.12/outbox.cif.g09.slc.cpg/sg39_9_cif.got.tgz:17980.got - 2010.04.14 02:53:20.
