data_PCOD8180650
_publ_section_title
;
Structure prediction by ZEFSAII (Michael W. Deem and Ramdas Pophale) SiO2 
 PCOD8180650
Probable space group: A B M 2
;
_chemical_formula_sum "Si O2"
_cell_formula_units_Z 64
_cell_length_a 20.977757
_cell_length_b 8.890201
_cell_length_c 19.649863
_cell_angle_alpha 90.000000
_cell_angle_beta 90.000000
_cell_angle_gamma 90.000000
_cell_volume 3664.630208
_symmetry_space_group_name_H-M "A B M 2"
_symmetry_group_IT_number 39
_symmetry_cell_setting 'orthorhombic'
loop_
_space_group_symop_operation_xyz
x,y,z
-x,-y,z
-x,1/2+y,z
x,1/2-y,z
x,1/2+y,1/2+z
-x,1/2-y,1/2+z
-x,y,1/2+z
x,-y,1/2+z
loop_
_atom_site_type_symbol
_atom_site_label
_atom_site_fract_x
_atom_site_fract_y
_atom_site_fract_z
Si Si1 0.562657 0.928679 0.972270
Si Si2 0.801775 0.571590 0.576353
Si Si3 0.309917 0.427768 0.474579
Si Si4 0.560153 0.926320 0.324495
Si Si5 0.699982 0.075070 0.821479
Si Si6 0.806420 0.929322 0.220200
Si Si7 0.060216 0.085507 0.564945
Si Si8 0.062112 0.918097 0.226361
O O1 0.559889 0.750000 0.977021
O O2 0.500000 0.000000 0.009116
O O3 0.627825 0.990297 0.006157
O O4 0.562983 0.986225 0.895269
O O5 0.805423 0.750000 0.590461
O O6 0.749309 0.527453 0.521380
O O7 0.785976 0.489838 0.646653
O O8 0.870527 0.514095 0.547571
O O9 0.322961 0.250000 0.473851
O O10 0.295605 0.489526 0.398370
O O11 0.547984 0.750000 0.336913
O O12 0.629049 0.953034 0.289199
O O13 0.500000 0.000000 0.282954
O O14 0.714200 0.250000 0.826552
O O15 0.753467 0.004841 0.772484
O O16 0.808429 0.750000 0.217840
O O17 0.874682 0.989211 0.245435
O O18 0.056569 0.250000 0.532570
O O19 0.054164 0.090924 0.645830
O O20 0.000000 0.000000 0.532418
O O21 0.067086 0.750000 0.256894
O O22 0.000000 0.000000 0.258026
#
# Coordination Sequence:
#
# PCOD8180650 Si02
#       8
#     8   8   8   8   8   8   8   8
#     4  10  17  26  42  66  92 116 147 186 228 270
#     4   9  18  31  47  67  91 120 153 189 230 272
#     4   9  17  32  50  66  89 121 156 191 226 267
#     4   9  15  26  43  64  89 116 150 188 225 264
#     4   8  16  29  46  67  90 120 153 185 225 270
#     4  10  18  29  46  68  94 122 152 186 226 273
#     4   8  14  24  39  61  85 109 140 178 218 257
#     4   9  16  27  43  65  90 116 150 189 228 267
#
# _framework density 17.464245999999999
#
# number of rings (size 3 to 8) (size 9 to 14) (size 15 to 20)
#    0.000    3.000    0.000    4.500    0.000    3.500 
#    0.000    6.250    0.000    1.500    0.000    5.250 
#    0.000    0.000    0.000    0.000    0.000    0.000 
#
# Total GULP energy -396463.996768 kJ/mol
# GULP energy per Si atom -12389.499899 kJ/mol
# Density = 1.742450 g / cm^3
# Si number density = 17.464246 Si / 1000 Ang^3
#
#
#
# Elastic Constant Matrix: (Units=GPa)
#
#
# Indices 1 2 3 4 5 6 
#
# 1 194.8905 62.3131 59.3365 0.0000 0.0000 0.0000
# 2 62.3131 84.3507 24.9560 0.0000 0.0000 0.0000
# 3 59.3365 24.9560 43.7904 0.0000 0.0000 0.0000
# 4 0.0000 0.0000 0.0000 10.9065 0.0000 0.0000
# 5 0.0000 0.0000 0.0000 0.0000 24.1956 0.0000
# 6 0.0000 0.0000 0.0000 0.0000 0.0000 32.3930
#
#
#
# Elastic Compliance Matrix: (Units=1/GPa)
#
#
# Indices 1 2 3 4 5 6 
#
# 1 0.009717 -0.003949 -0.010917 0.000000 0.000000 0.000000
# 2 -0.003949 0.015864 -0.003690 0.000000 0.000000 0.000000
# 3 -0.010917 -0.003690 0.039732 0.000000 0.000000 0.000000
# 4 0.000000 0.000000 0.000000 0.091688 0.000000 0.000000
# 5 0.000000 0.000000 0.000000 0.000000 0.041330 0.000000
# 6 0.000000 0.000000 0.000000 0.000000 0.000000 0.030871
#
#
# Mechanical properties :
#
#
# Convention : Reuss Voigt Hill
#
# Bulk Modulus (GPa) = 35.45923 68.47140 51.96532
# Shear Modulus (GPa) = 18.13473 25.26076 21.69775
#
# Velocity S-wave (km/s) = 3.22590 3.80732 3.52861
# Velocity P-wave (km/s) = 5.85007 7.65632 6.81332
#
# Compressibility (1/GPa) = 0.02820140
#
# Stress axis : x y z
#
# Youngs Moduli (GPa) = 102.90845 63.03506 25.16890
#
# Poissons Ratio (x) = 0.24891 0.27476
# Poissons Ratio (y) = 0.40636 0.09288
# Poissons Ratio (z) = 1.12343 0.23262
#
# Static dielectric constant tensor:
#      x y z
#    x 4.096570 0.000000 0.000000 
#    y 0.000000 3.275320 0.000000 
#    z 0.000000 0.000000 2.759860 
# 
# 
# High freq. dielectric constant tensor:
#      x y z
#    x 1.703950 0.000000 0.000000 
#    y 0.000000 1.669930 0.000000 
#    z 0.000000 0.000000 1.601780 
# 
# From -- ./inp_files/16376.got.cif
#   From: 2010.03.12/outbox.cif.g09.slc.cpg/sg39_9_cif.got.tgz:16376.got - 2010.04.14 02:53:20.
