data_PCOD8180652
_publ_section_title
;
Structure prediction by ZEFSAII (Michael W. Deem and Ramdas Pophale) SiO2 
 PCOD8180652
Probable space group: A B M 2
;
_chemical_formula_sum "Si O2"
_cell_formula_units_Z 64
_cell_length_a 20.916465
_cell_length_b 8.907959
_cell_length_c 19.686275
_cell_angle_alpha 90.000000
_cell_angle_beta 90.000000
_cell_angle_gamma 90.000000
_cell_volume 3668.006066
_symmetry_space_group_name_H-M "A B M 2"
_symmetry_group_IT_number 39
_symmetry_cell_setting 'orthorhombic'
loop_
_space_group_symop_operation_xyz
x,y,z
-x,-y,z
-x,1/2+y,z
x,1/2-y,z
x,1/2+y,1/2+z
-x,1/2-y,1/2+z
-x,y,1/2+z
x,-y,1/2+z
loop_
_atom_site_type_symbol
_atom_site_label
_atom_site_fract_x
_atom_site_fract_y
_atom_site_fract_z
Si Si1 0.937689 0.417782 0.637130
Si Si2 0.563270 0.928348 0.225108
Si Si3 0.199374 0.430242 0.984028
Si Si4 0.939764 0.414316 0.475938
Si Si5 0.440678 0.424686 0.871771
Si Si6 0.691191 0.426312 0.225750
Si Si7 0.699391 0.923250 0.878305
Si Si8 0.192581 0.925958 0.127161
O O1 0.933355 0.250000 0.667596
O O2 0.945395 0.409256 0.556675
O O3 0.873562 0.507715 0.656231
O O4 0.000000 0.500000 0.668541
O O5 0.560631 0.750000 0.218695
O O6 0.500000 0.000000 0.188922
O O7 0.563323 0.982497 0.302540
O O8 0.629540 0.990175 0.192805
O O9 0.200608 0.250000 0.991552
O O10 0.129383 0.485479 0.957942
O O11 0.250647 0.497310 0.930638
O O12 0.214650 0.498832 0.057175
O O13 0.943556 0.250000 0.443939
O O14 0.000000 0.500000 0.443482
O O15 0.500000 0.500000 0.913946
O O16 0.454302 0.250000 0.856835
O O17 0.372405 0.444843 0.908977
O O18 0.675143 0.250000 0.228630
O O19 0.704565 0.489382 0.302079
O O20 0.752927 0.462749 0.181525
O O21 0.717827 0.750000 0.873918
O O22 0.183281 0.750000 0.115505
#
# Coordination Sequence:
#
# PCOD8180652 Si02
#       8
#     8   8   8   8   8   8   8   8
#     4   9  16  27  44  66  91 118 152 191 228 268
#     4  10  17  26  43  66  91 117 148 188 230 270
#     4   9  17  30  47  66  88 117 153 188 225 270
#     4   8  14  23  38  60  83 107 137 177 217 254
#     4   9  15  25  42  64  89 115 146 185 226 267
#     4   9  18  32  48  67  92 122 156 190 226 271
#     4   8  15  29  48  66  86 117 154 188 222 263
#     4  10  19  30  46  69  96 123 151 187 230 273
#
# _framework density 17.448172
#
# number of rings (size 3 to 8) (size 9 to 14) (size 15 to 20)
#    0.000    3.000    0.000    4.500    0.000    4.000 
#    0.000    3.125    0.000    1.500    0.000    5.250 
#    0.000    0.000    0.000    0.000    0.000    0.000 
#
# Total GULP energy -396470.407217 kJ/mol
# GULP energy per Si atom -12389.700226 kJ/mol
# Density = 1.740846 g / cm^3
# Si number density = 17.448172 Si / 1000 Ang^3
#
#
#
# Elastic Constant Matrix: (Units=GPa)
#
#
# Indices 1 2 3 4 5 6 
#
# 1 179.2068 65.5422 54.2340 0.0000 0.0000 0.0000
# 2 65.5422 89.0725 23.8714 0.0000 0.0000 0.0000
# 3 54.2340 23.8714 44.2191 0.0000 0.0000 0.0000
# 4 0.0000 0.0000 0.0000 10.9431 0.0000 0.0000
# 5 0.0000 0.0000 0.0000 0.0000 23.4345 0.0000
# 6 0.0000 0.0000 0.0000 0.0000 0.0000 32.8319
#
#
#
# Elastic Compliance Matrix: (Units=1/GPa)
#
#
# Indices 1 2 3 4 5 6 
#
# 1 0.010479 -0.004988 -0.010160 0.000000 0.000000 0.000000
# 2 -0.004988 0.015500 -0.002250 0.000000 0.000000 0.000000
# 3 -0.010160 -0.002250 0.036290 0.000000 0.000000 0.000000
# 4 0.000000 0.000000 0.000000 0.091382 0.000000 0.000000
# 5 0.000000 0.000000 0.000000 0.000000 0.042672 0.000000
# 6 0.000000 0.000000 0.000000 0.000000 0.000000 0.030458
#
#
# Mechanical properties :
#
#
# Convention : Reuss Voigt Hill
#
# Bulk Modulus (GPa) = 36.39815 66.64374 51.52094
# Shear Modulus (GPa) = 18.46826 24.69862 21.58344
#
# Velocity S-wave (km/s) = 3.25693 3.76645 3.52092
# Velocity P-wave (km/s) = 5.92026 7.56261 6.79126
#
# Compressibility (1/GPa) = 0.02747393
#
# Stress axis : x y z
#
# Youngs Moduli (GPa) = 95.42790 64.51558 27.55582
#
# Poissons Ratio (x) = 0.32181 0.27996
# Poissons Ratio (y) = 0.47600 0.06200
# Poissons Ratio (z) = 0.96952 0.14515
#
# Static dielectric constant tensor:
#      x y z
#    x 4.014100 0.000000 0.000000 
#    y 0.000000 3.300540 0.000000 
#    z 0.000000 0.000000 2.740960 
# 
# 
# High freq. dielectric constant tensor:
#      x y z
#    x 1.702010 0.000000 0.000000 
#    y 0.000000 1.668950 0.000000 
#    z 0.000000 0.000000 1.601380 
# 
# From -- ./inp_files/15080.got.cif
#   From: 2010.03.12/outbox.cif.g09.slc.cpg/sg39_8_cif.got.tgz:15080.got - 2010.04.14 02:53:20.
