data_PCOD8180825
_publ_section_title
;
Structure prediction by ZEFSAII (Michael W. Deem and Ramdas Pophale) SiO2 
 PCOD8180825
Probable space group: A B M 2
;
_chemical_formula_sum "Si O2"
_cell_formula_units_Z 56
_cell_length_a 15.479006
_cell_length_b 8.829549
_cell_length_c 20.368735
_cell_angle_alpha 90.000000
_cell_angle_beta 90.000000
_cell_angle_gamma 90.000000
_cell_volume 2783.848826
_symmetry_space_group_name_H-M "A B M 2"
_symmetry_group_IT_number 39
_symmetry_cell_setting 'orthorhombic'
loop_
_space_group_symop_operation_xyz
x,y,z
-x,-y,z
-x,1/2+y,z
x,1/2-y,z
x,1/2+y,1/2+z
-x,1/2-y,1/2+z
-x,y,1/2+z
x,-y,1/2+z
loop_
_atom_site_type_symbol
_atom_site_label
_atom_site_fract_x
_atom_site_fract_y
_atom_site_fract_z
Si Si1 0.914018 0.571595 0.924880
Si Si2 0.680367 0.079265 0.751338
Si Si3 0.084902 0.071335 0.652826
Si Si4 0.124834 0.923454 0.788280
Si Si5 0.725804 0.424100 0.470628
Si Si6 0.589980 0.929808 0.376303
Si Si7 0.256710 0.073745 0.116629
O O1 0.925656 0.750000 0.922456
O O2 0.909790 0.505580 0.852124
O O3 0.826194 0.526896 0.963400
O O4 0.000000 0.500000 0.959105
O O5 0.649554 0.250000 0.741705
O O6 0.771940 0.068680 0.787310
O O7 0.613379 0.003934 0.803182
O O8 0.685205 0.006937 0.677546
O O9 0.080142 0.250000 0.650757
O O10 0.087027 0.013352 0.727163
O O11 0.167346 0.015533 0.612379
O O12 0.000000 0.000000 0.618691
O O13 0.092683 0.750000 0.786588
O O14 0.714277 0.250000 0.448625
O O15 0.664289 0.527958 0.427577
O O16 0.696627 0.445442 0.546707
O O17 0.582987 0.750000 0.375217
O O18 0.500000 0.000000 0.399771
O O19 0.235422 0.250000 0.132033
#
# Coordination Sequence:
#
# PCOD8180825 Si02
#       7
#     8   8   8   8   8   8   8
#     4  11  22  34  51  80 116 157 202 246 297 348
#     4   8  16  33  59  85 110 145 186 234 290 348
#     4  11  21  33  50  77 111 151 199 249 297 348
#     4  10  18  33  54  78 109 149 194 245 301 349
#     4  10  22  40  61  87 122 161 198 247 297 351
#     4  11  22  39  64  93 120 152 194 242 300 362
#     4   9  19  38  60  82 113 154 197 238 296 354
#
# _framework density 20.116035
#
# number of rings (size 3 to 8) (size 9 to 14) (size 15 to 20)
#    0.000    2.000    1.429    3.857    0.000    1.714 
#    0.000    2.857    0.000    1.714    0.000    0.000 
#    0.000    0.000    0.000    0.000    0.000    0.000 
#
# Total GULP energy -347054.406008 kJ/mol
# GULP energy per Si atom -12394.800215 kJ/mol
# Density = 2.007025 g / cm^3
# Si number density = 20.116035 Si / 1000 Ang^3
#
#
#
# Elastic Constant Matrix: (Units=GPa)
#
#
# Indices 1 2 3 4 5 6 
#
# 1 88.3002 44.3047 46.5506 0.0000 0.0000 0.0000
# 2 44.3047 98.7903 34.4721 0.0000 0.0000 0.0000
# 3 46.5506 34.4721 103.8237 0.0000 0.0000 0.0000
# 4 0.0000 0.0000 0.0000 22.3491 0.0000 0.0000
# 5 0.0000 0.0000 0.0000 0.0000 6.2589 0.0000
# 6 0.0000 0.0000 0.0000 0.0000 0.0000 28.2910
#
#
#
# Elastic Compliance Matrix: (Units=1/GPa)
#
#
# Indices 1 2 3 4 5 6 
#
# 1 0.017271 -0.005704 -0.005850 0.000000 0.000000 0.000000
# 2 -0.005704 0.013333 -0.001869 0.000000 0.000000 0.000000
# 3 -0.005850 -0.001869 0.012875 0.000000 0.000000 0.000000
# 4 0.000000 0.000000 0.000000 0.044744 0.000000 0.000000
# 5 0.000000 0.000000 0.000000 0.000000 0.159772 0.000000
# 6 0.000000 0.000000 0.000000 0.000000 0.000000 0.035347
#
#
# Mechanical properties :
#
#
# Convention : Reuss Voigt Hill
#
# Bulk Modulus (GPa) = 60.12326 60.17436 60.14881
# Shear Modulus (GPa) = 15.83616 22.41892 19.12754
#
# Velocity S-wave (km/s) = 2.80882 3.34200 3.08695
# Velocity P-wave (km/s) = 6.36180 6.69855 6.53234
#
# Compressibility (1/GPa) = 0.01663250
#
# Stress axis : x y z
#
# Youngs Moduli (GPa) = 57.90026 75.00205 77.66914
#
# Poissons Ratio (x) = 0.42784 0.45434
# Poissons Ratio (y) = 0.33029 0.14518
# Poissons Ratio (z) = 0.33870 0.14020
#
# Static dielectric constant tensor:
#      x y z
#    x 3.676500 0.000000 0.000000 
#    y 0.000000 3.517660 0.000000 
#    z 0.000000 0.000000 3.746070 
# 
# 
# High freq. dielectric constant tensor:
#      x y z
#    x 1.769100 0.000000 0.000000 
#    y 0.000000 1.771690 0.000000 
#    z 0.000000 0.000000 1.787980 
# 
# From -- ./inp_files/14739.got.cif
#   From: 2010.03.12/outbox.cif.g09.slc.cpg/sg39_8_cif.got.tgz:14739.got - 2010.04.14 02:53:20.
