data_PCOD8180717
_publ_section_title
;
Structure prediction by ZEFSAII (Michael W. Deem and Ramdas Pophale) SiO2 
 PCOD8180717
Probable space group: A B M 2
;
_chemical_formula_sum "Si O2"
_cell_formula_units_Z 56
_cell_length_a 25.445215
_cell_length_b 24.358166
_cell_length_c 4.973567
_cell_angle_alpha 90.000000
_cell_angle_beta 90.000000
_cell_angle_gamma 90.000000
_cell_volume 3082.610713
_symmetry_space_group_name_H-M "A B M 2"
_symmetry_group_IT_number 39
_symmetry_cell_setting 'orthorhombic'
loop_
_space_group_symop_operation_xyz
x,y,z
-x,-y,z
-x,1/2+y,z
x,1/2-y,z
x,1/2+y,1/2+z
-x,1/2-y,1/2+z
-x,y,1/2+z
x,-y,1/2+z
loop_
_atom_site_type_symbol
_atom_site_label
_atom_site_fract_x
_atom_site_fract_y
_atom_site_fract_z
Si Si1 0.366961 0.965183 0.168240
Si Si2 0.967750 0.184610 0.364241
Si Si3 0.851716 0.813615 0.795942
Si Si4 0.214787 0.186237 0.281571
Si Si5 0.674448 0.645871 0.439542
Si Si6 0.535137 0.101424 0.281972
Si Si7 0.381658 0.687814 0.414162
O O1 0.428492 0.949107 0.187355
O O2 0.353743 0.984362 0.470341
O O3 0.332837 0.913916 0.070679
O O4 0.964257 0.250000 0.346721
O O5 0.909449 0.159196 0.323540
O O6 0.991641 0.163073 0.641404
O O7 0.857127 0.750000 0.870938
O O8 0.830883 0.822918 0.498042
O O9 0.809460 0.837890 0.006347
O O10 0.231848 0.250000 0.260633
O O11 0.265732 0.150901 0.348436
O O12 0.663189 0.688729 0.682270
O O13 0.636679 0.655583 0.182074
O O14 0.514812 0.099571 0.587232
O O15 0.568824 0.157705 0.274058
O O16 0.396235 0.750000 0.492982
#
# Coordination Sequence:
#
# PCOD8180717 Si02
#       7
#     8   8   8   8   8   8   8
#     4  11  23  40  59  78 101 129 164 209 253 300
#     4   9  15  23  35  51  78 119 166 210 243 276
#     4   9  17  26  38  61  89 122 166 209 247 285
#     4  10  18  29  46  67  95 126 161 207 249 290
#     4  11  22  37  55  78 102 133 175 208 251 308
#     4  11  23  38  56  81 104 126 161 197 238 294
#     4  11  22  37  56  78 108 139 167 201 241 297
#
# _framework density 18.166419999999999
#
# number of rings (size 3 to 8) (size 9 to 14) (size 15 to 20)
#    0.000    1.714    0.000    7.286    0.000    6.857 
#    0.000    0.000    0.000    0.000    0.000    0.000 
#    0.000    0.000    0.000    0.000    0.000   50.000 
#
# Total GULP energy -347096.648616 kJ/mol
# GULP energy per Si atom -12396.308879 kJ/mol
# Density = 1.812507 g / cm^3
# Si number density = 18.166420 Si / 1000 Ang^3
#
#
#
# Elastic Constant Matrix: (Units=GPa)
#
#
# Indices 1 2 3 4 5 6 
#
# 1 76.4040 17.7036 6.0601 0.0000 0.0000 0.0000
# 2 17.7036 56.6125 14.0961 0.0000 0.0000 0.0000
# 3 6.0601 14.0961 77.6087 0.0000 0.0000 0.0000
# 4 0.0000 0.0000 0.0000 21.7163 0.0000 0.0000
# 5 0.0000 0.0000 0.0000 0.0000 30.2775 0.0000
# 6 0.0000 0.0000 0.0000 0.0000 0.0000 10.9035
#
#
#
# Elastic Compliance Matrix: (Units=1/GPa)
#
#
# Indices 1 2 3 4 5 6 
#
# 1 0.014118 -0.004337 -0.000315 0.000000 0.000000 0.000000
# 2 -0.004337 0.019833 -0.003264 0.000000 0.000000 0.000000
# 3 -0.000315 -0.003264 0.013502 0.000000 0.000000 0.000000
# 4 0.000000 0.000000 0.000000 0.046048 0.000000 0.000000
# 5 0.000000 0.000000 0.000000 0.000000 0.033028 0.000000
# 6 0.000000 0.000000 0.000000 0.000000 0.000000 0.091713
#
#
# Mechanical properties :
#
#
# Convention : Reuss Voigt Hill
#
# Bulk Modulus (GPa) = 31.62214 31.81609 31.71912
# Shear Modulus (GPa) = 20.44039 24.09717 22.26878
#
# Velocity S-wave (km/s) = 3.35800 3.64602 3.50497
# Velocity P-wave (km/s) = 5.69909 5.93939 5.82048
#
# Compressibility (1/GPa) = 0.03162341
#
# Stress axis : x y z
#
# Youngs Moduli (GPa) = 70.83100 50.42190 74.06040
#
# Poissons Ratio (x) = 0.21866 0.02331
# Poissons Ratio (y) = 0.30716 0.24170
# Poissons Ratio (z) = 0.02230 0.16456
#
# Static dielectric constant tensor:
#      x y z
#    x 3.338980 0.000000 0.000000 
#    y 0.000000 2.918470 0.000000 
#    z 0.000000 0.000000 3.585010 
# 
# 
# High freq. dielectric constant tensor:
#      x y z
#    x 1.700530 0.000000 0.000000 
#    y 0.000000 1.640850 0.000000 
#    z 0.000000 0.000000 1.731010 
# 
# From -- ./inp_files/1094.got.cif
#   From: 2010.03.12/outbox.cif.g09.slc.cpg/sg39_1_cif.got.tgz:1094.got - 2010.04.14 02:53:20.
