data_PCOD8180912
_publ_section_title
;
Structure prediction by ZEFSAII (Michael W. Deem and Ramdas Pophale) SiO2 
 PCOD8180912
Probable space group: A B M 2
;
_chemical_formula_sum "Si O2"
_cell_formula_units_Z 56
_cell_length_a 15.198186
_cell_length_b 8.872642
_cell_length_c 25.439554
_cell_angle_alpha 90.000000
_cell_angle_beta 90.000000
_cell_angle_gamma 90.000000
_cell_volume 3430.474591
_symmetry_space_group_name_H-M "A B M 2"
_symmetry_group_IT_number 39
_symmetry_cell_setting 'orthorhombic'
loop_
_space_group_symop_operation_xyz
x,y,z
-x,-y,z
-x,1/2+y,z
x,1/2-y,z
x,1/2+y,1/2+z
-x,1/2-y,1/2+z
-x,y,1/2+z
x,-y,1/2+z
loop_
_atom_site_type_symbol
_atom_site_label
_atom_site_fract_x
_atom_site_fract_y
_atom_site_fract_z
Si Si1 0.406058 0.075846 0.326640
Si Si2 0.595770 0.426313 0.710145
Si Si3 0.085689 0.918159 0.635843
Si Si4 0.083011 0.085537 0.011444
Si Si5 0.268126 0.428982 0.631396
Si Si6 0.273820 0.570742 0.520190
Si Si7 0.404427 0.572067 0.428247
O O1 0.416063 0.250000 0.341441
O O2 0.363018 0.055196 0.269079
O O3 0.500000 0.000000 0.323423
O O4 0.356800 0.992280 0.375179
O O5 0.500000 0.500000 0.705690
O O6 0.589042 0.250000 0.695163
O O7 0.659774 0.514006 0.671881
O O8 0.093693 0.750000 0.659824
O O9 0.073109 0.906992 0.573813
O O10 0.173132 0.011037 0.649748
O O11 0.000000 0.000000 0.660593
O O12 0.079175 0.250000 0.985968
O O13 0.178457 0.012692 0.998866
O O14 0.000000 0.000000 0.986093
O O15 0.265679 0.250000 0.630408
O O16 0.296935 0.489432 0.574464
O O17 0.269139 0.750000 0.530657
O O18 0.346466 0.524403 0.478048
O O19 0.500000 0.500000 0.436228
O O20 0.412741 0.750000 0.423712
#
# Coordination Sequence:
#
# PCOD8180912 Si02
#       7
#     8   8   8   8   8   8   8
#     4   9  17  30  49  69  88 112 147 191 234 271
#     4  10  20  34  50  68  92 122 154 192 234 277
#     4   9  16  28  45  65  91 121 154 192 230 272
#     4   8  14  25  41  60  83 112 146 182 220 260
#     4  11  21  31  46  69  96 127 159 191 230 278
#     4   9  19  33  45  62  93 128 155 184 226 275
#     4  10  19  31  48  67  90 120 152 188 228 269
#
# _framework density 16.324271
#
# number of rings (size 3 to 8) (size 9 to 14) (size 15 to 20)
#    0.000    2.571    0.000    4.714    0.000    6.857 
#    0.000    1.429    0.000    0.000    0.000    1.000 
#    0.000    4.571    0.000    0.000    0.000    0.000 
#
# Total GULP energy -346975.017301 kJ/mol
# GULP energy per Si atom -12391.964904 kJ/mol
# Density = 1.628712 g / cm^3
# Si number density = 16.324271 Si / 1000 Ang^3
#
#
#
# Elastic Constant Matrix: (Units=GPa)
#
#
# Indices 1 2 3 4 5 6 
#
# 1 99.9349 47.9565 59.6886 0.0000 0.0000 0.0000
# 2 47.9565 107.8455 50.8764 0.0000 0.0000 0.0000
# 3 59.6886 50.8764 88.6045 0.0000 0.0000 0.0000
# 4 0.0000 0.0000 0.0000 16.8929 0.0000 0.0000
# 5 0.0000 0.0000 0.0000 0.0000 -1.4739 0.0000
# 6 0.0000 0.0000 0.0000 0.0000 0.0000 27.3710
#
#
#
# Elastic Compliance Matrix: (Units=1/GPa)
#
#
# Indices 1 2 3 4 5 6 
#
# 1 0.017439 -0.003035 -0.010005 0.000000 0.000000 0.000000
# 2 -0.003035 0.013245 -0.005561 0.000000 0.000000 0.000000
# 3 -0.010005 -0.005561 0.021219 0.000000 0.000000 0.000000
# 4 0.000000 0.000000 0.000000 0.059196 0.000000 0.000000
# 5 0.000000 0.000000 0.000000 0.000000 -0.678451 0.000000
# 6 0.000000 0.000000 0.000000 0.000000 0.000000 0.036535
#
#
# Mechanical properties :
#
#
# Convention : Reuss Voigt Hill
#
# Bulk Modulus (GPa) = 68.02029 68.15866 68.08947
# Shear Modulus (GPa) = -10.23094 17.74887 3.75897
#
# Velocity S-wave (km/s) = -2.50618 3.30095 1.51911
# Velocity P-wave (km/s) = 5.77790 7.50813 6.69911
#
# Compressibility (1/GPa) = 0.01470150
#
# Stress axis : x y z
#
# Youngs Moduli (GPa) = 57.34433 75.49742 47.12707
#
# Poissons Ratio (x) = 0.22911 0.47151
# Poissons Ratio (y) = 0.17402 0.26208
# Poissons Ratio (z) = 0.57373 0.41986
#
# Static dielectric constant tensor:
#      x y z
#    x 3.128000 0.000000 0.000000 
#    y 0.000000 3.309530 0.000000 
#    z 0.000000 0.000000 3.194370 
# 
# 
# High freq. dielectric constant tensor:
#      x y z
#    x 1.616340 0.000000 0.000000 
#    y 0.000000 1.643420 0.000000 
#    z 0.000000 0.000000 1.596020 
# 
# From -- ./inp_files/17923.got.cif
#   From: 2010.03.12/outbox.cif.g09.slc.cpg/sg39_9_cif.got.tgz:17923.got - 2010.04.14 02:53:20.
