data_PCOD8180605
_publ_section_title
;
Structure prediction by ZEFSAII (Michael W. Deem and Ramdas Pophale) SiO2 
 PCOD8180605
Probable space group: A B M 2
;
_chemical_formula_sum "Si O2"
_cell_formula_units_Z 64
_cell_length_a 12.026800
_cell_length_b 15.393880
_cell_length_c 18.050281
_cell_angle_alpha 90.000000
_cell_angle_beta 90.000000
_cell_angle_gamma 90.000000
_cell_volume 3341.813068
_symmetry_space_group_name_H-M "A B M 2"
_symmetry_group_IT_number 39
_symmetry_cell_setting 'orthorhombic'
loop_
_space_group_symop_operation_xyz
x,y,z
-x,-y,z
-x,1/2+y,z
x,1/2-y,z
x,1/2+y,1/2+z
-x,1/2-y,1/2+z
-x,y,1/2+z
x,-y,1/2+z
loop_
_atom_site_type_symbol
_atom_site_label
_atom_site_fract_x
_atom_site_fract_y
_atom_site_fract_z
Si Si1 0.500000 0.596413 0.603590
Si Si2 0.500000 0.349289 0.944569
Si Si3 0.259493 0.151441 0.424792
Si Si4 0.870776 0.999999 0.847879
Si Si5 0.739095 0.347183 0.599549
Si Si6 0.260904 0.347183 0.599545
Si Si7 0.740508 0.151441 0.424795
Si Si8 0.870410 0.000001 0.174793
O O1 0.500000 0.500000 0.637655
O O2 0.500000 0.587686 0.514722
O O3 0.387561 0.644566 0.629508
O O4 0.612441 0.644565 0.629506
O O5 0.500000 0.250000 0.975848
O O6 0.612630 0.364533 0.897167
O O7 0.387368 0.364534 0.897169
O O8 0.222062 0.250000 0.406780
O O9 0.179315 0.086922 0.382446
O O10 0.255039 0.133253 0.512292
O O11 0.820688 0.913079 0.882452
O O12 0.846112 0.999995 0.761467
O O13 0.000000 0.000000 0.866544
O O14 0.781056 0.250000 0.617064
O O15 0.744961 0.366747 0.512295
O O16 0.818848 0.413518 0.640687
O O17 0.218943 0.250000 0.617060
O O18 0.181150 0.413518 0.640682
O O19 0.777940 0.250000 0.406783
O O20 0.000000 0.000000 0.156322
#
# Coordination Sequence:
#
# PCOD8180605 Si02
#       8
#     8   8   8   8   8   8   8   8
#     4  10  16  28  56  90 119 144 172 219 280 341
#     4   8  16  30  52  87 118 141 174 218 275 337
#     4   9  19  36  60  87 113 142 180 227 279 330
#     4  11  25  40  55  76 110 153 192 233 278 329
#     4  10  20  37  61  88 116 145 182 232 280 331
#     4  10  20  37  61  88 116 145 182 232 280 331
#     4   9  19  36  60  87 113 142 180 227 279 330
#     4  11  25  42  55  76 110 153 200 235 278 335
#
# _framework density 19.15128
#
# number of rings (size 3 to 8) (size 9 to 14) (size 15 to 20)
#    0.000    2.250    1.250    3.375    5.250    4.000 
#    0.000    7.500    0.000    3.000    0.000    0.000 
#    0.000    0.000    0.000    0.000    0.000    0.000 
#
# Total GULP energy -396685.763855 kJ/mol
# GULP energy per Si atom -12396.430120 kJ/mol
# Density = 1.910769 g / cm^3
# Si number density = 19.151280 Si / 1000 Ang^3
#
#
#
# Elastic Constant Matrix: (Units=GPa)
#
#
# Indices 1 2 3 4 5 6 
#
# 1 143.2864 92.3535 71.9090 0.0000 0.0000 0.0000
# 2 92.3535 155.4125 62.4809 0.0000 0.0000 0.0000
# 3 71.9090 62.4809 64.9664 0.0000 0.0000 0.0000
# 4 0.0000 0.0000 0.0000 7.2074 0.0000 0.0000
# 5 0.0000 0.0000 0.0000 0.0000 -90.5036 0.0000
# 6 0.0000 0.0000 0.0000 0.0000 0.0000 20.2651
#
#
#
# Elastic Compliance Matrix: (Units=1/GPa)
#
#
# Indices 1 2 3 4 5 6 
#
# 1 0.017227 -0.004192 -0.015036 0.000000 0.000000 0.000000
# 2 -0.004192 0.011511 -0.006430 0.000000 0.000000 0.000000
# 3 -0.015036 -0.006430 0.038220 0.000000 0.000000 0.000000
# 4 0.000000 0.000000 0.000000 0.138747 0.000000 0.000000
# 5 0.000000 0.000000 0.000000 0.000000 -0.011049 0.000000
# 6 0.000000 0.000000 0.000000 0.000000 0.000000 0.049346
#
#
# Mechanical properties :
#
#
# Convention : Reuss Voigt Hill
#
# Bulk Modulus (GPa) = 63.93688 90.79470 77.36579
# Shear Modulus (GPa) = 16.63711 -3.47811 6.57950
#
# Velocity S-wave (km/s) = 2.95060 -1.34910 1.85553
# Velocity P-wave (km/s) = 6.71310 6.71456 6.71383
#
# Compressibility (1/GPa) = 0.01564043
#
# Stress axis : x y z
#
# Youngs Moduli (GPa) = 58.04845 86.87467 26.16416
#
# Poissons Ratio (x) = 0.36418 0.39341
# Poissons Ratio (y) = 0.24334 0.16825
# Poissons Ratio (z) = 0.87284 0.55865
#
# Static dielectric constant tensor:
#      x y z
#    x 3.670930 0.000000 0.000000 
#    y 0.000000 3.578260 0.000000 
#    z 0.000000 0.000000 3.113150 
# 
# 
# High freq. dielectric constant tensor:
#      x y z
#    x 1.752400 0.000000 0.000000 
#    y 0.000000 1.761510 0.000000 
#    z 0.000000 0.000000 1.698560 
# 
# From -- ./inp_files/12366.got.cif
#   From: 2010.03.12/outbox.cif.g09.slc.cpg/sg39_7_cif.got.tgz:12366.got - 2010.04.14 02:53:20.
