data_PCOD8180591
_publ_section_title
;
Structure prediction by ZEFSAII (Michael W. Deem and Ramdas Pophale) SiO2 
 PCOD8180591
Probable space group: A B M 2
;
_chemical_formula_sum "Si O2"
_cell_formula_units_Z 48
_cell_length_a 12.866310
_cell_length_b 41.988579
_cell_length_c 5.367524
_cell_angle_alpha 90.000000
_cell_angle_beta 90.000000
_cell_angle_gamma 90.000000
_cell_volume 2899.740827
_symmetry_space_group_name_H-M "A B M 2"
_symmetry_group_IT_number 39
_symmetry_cell_setting 'orthorhombic'
loop_
_space_group_symop_operation_xyz
x,y,z
-x,-y,z
-x,1/2+y,z
x,1/2-y,z
x,1/2+y,1/2+z
-x,1/2-y,1/2+z
-x,y,1/2+z
x,-y,1/2+z
loop_
_atom_site_type_symbol
_atom_site_label
_atom_site_fract_x
_atom_site_fract_y
_atom_site_fract_z
Si Si1 0.120292 0.914099 0.796290
Si Si2 0.779784 0.979770 0.296265
Si Si3 0.890378 0.686704 0.796286
Si Si4 0.456703 0.464293 0.296281
Si Si5 0.120883 0.787179 0.796286
Si Si6 0.890102 0.387938 0.296290
O O1 0.135374 0.951934 0.796295
O O2 0.171678 0.898443 0.546829
O O3 0.998373 0.906769 0.796288
O O4 0.171678 0.898442 0.045749
O O5 0.667038 0.963634 0.296287
O O6 0.795942 0.000005 0.546240
O O7 0.828581 0.697070 0.545561
O O8 0.912675 0.649382 0.796293
O O9 0.998348 0.705788 0.796281
O O10 0.828581 0.697071 0.047008
O O11 0.500000 0.500000 0.296276
O O12 0.500001 0.446921 0.546280
O O13 0.143791 0.750000 0.796292
#
# Coordination Sequence:
#
# PCOD8180591 Si02
#       6
#     8   8   8   8   8   8
#     4  10  20  32  46  59  76 101 133 183 198 235
#     4  12  21  32  47  67  84  98 125 157 216 260
#     4  10  16  25  41  50  67 107 132 162 204 242
#     4  10  16  30  48  66  83 102 116 141 182 266
#     4  10  16  22  33  58  79  90 120 170 220 238
#     4  10  19  35  44  54  76 109 153 170 204 226
#
# _framework density 16.553204000000001
#
# number of rings (size 3 to 8) (size 9 to 14) (size 15 to 20)
#    0.000    1.667    3.333    8.500    0.000    0.000 
#    0.000   10.000    0.000    0.000    0.000    0.000 
#    0.000    0.000    0.000    0.000    0.000    0.000 
#
# Total GULP energy -297372.758015 kJ/mol
# GULP energy per Si atom -12390.531584 kJ/mol
# Density = 1.651553 g / cm^3
# Si number density = 16.553204 Si / 1000 Ang^3
#
#
#
# Elastic Constant Matrix: (Units=GPa)
#
#
# Indices 1 2 3 4 5 6 
#
# 1 23.1393 33.1454 14.7221 0.0000 0.0000 0.0000
# 2 33.1454 106.9082 61.7595 0.0000 0.0000 0.0000
# 3 14.7221 61.7595 224.6634 0.0000 0.0000 0.0000
# 4 0.0000 0.0000 0.0000 22.2535 0.0000 0.0000
# 5 0.0000 0.0000 0.0000 0.0000 7.3184 0.0000
# 6 0.0000 0.0000 0.0000 0.0000 0.0000 -0.7934
#
#
#
# Elastic Compliance Matrix: (Units=1/GPa)
#
#
# Indices 1 2 3 4 5 6 
#
# 1 0.078373 -0.025359 0.001835 0.000000 0.000000 0.000000
# 2 -0.025359 0.019325 -0.003651 0.000000 0.000000 0.000000
# 3 0.001835 -0.003651 0.005334 0.000000 0.000000 0.000000
# 4 0.000000 0.000000 0.000000 0.044937 0.000000 0.000000
# 5 0.000000 0.000000 0.000000 0.000000 0.136642 0.000000
# 6 0.000000 0.000000 0.000000 0.000000 0.000000 -1.260320
#
#
# Mechanical properties :
#
#
# Convention : Reuss Voigt Hill
#
# Bulk Modulus (GPa) = 20.54044 63.77388 42.15716
# Shear Modulus (GPa) = -5.52406 22.09460 8.28527
#
# Velocity S-wave (km/s) = -1.82877 3.65740 2.23967
# Velocity P-wave (km/s) = 2.82427 7.51304 5.67548
#
# Compressibility (1/GPa) = 0.04868444
#
# Stress axis : x y z
#
# Youngs Moduli (GPa) = 12.75942 51.74673 187.46307
#
# Poissons Ratio (x) = 1.31224 -0.34405
# Poissons Ratio (y) = 0.32356 0.68436
# Poissons Ratio (z) = -0.02342 0.18891
#
# Static dielectric constant tensor:
#      x y z
#    x 2.445760 0.000000 0.000000 
#    y 0.000000 2.817290 0.000000 
#    z 0.000000 0.000000 6.639720 
# 
# 
# High freq. dielectric constant tensor:
#      x y z
#    x 1.537990 0.000000 0.000000 
#    y 0.000000 1.620360 0.000000 
#    z 0.000000 0.000000 1.693260 
# 
# From -- ./inp_files/635.got.cif
#   From: 2010.03.12/outbox.cif.g09.slc.cpg/sg39_1_cif.got.tgz:635.got - 2010.04.14 02:53:20.
