data_PCOD8180247
_publ_section_title
;
Structure prediction by ZEFSAII (Michael W. Deem and Ramdas Pophale) SiO2 
 PCOD8180247
Probable space group: A M M 2
;
_chemical_formula_sum "Si O2"
_cell_formula_units_Z 64
_cell_length_a 18.983713
_cell_length_b 19.323208
_cell_length_c 9.082993
_cell_angle_alpha 90.000000
_cell_angle_beta 90.000000
_cell_angle_gamma 90.000000
_cell_volume 3331.880124
_symmetry_space_group_name_H-M "A M M 2"
_symmetry_group_IT_number 38
_symmetry_cell_setting 'orthorhombic'
loop_
_space_group_symop_operation_xyz
x,y,z
-x,-y,z
-x,y,z
x,-y,z
x,1/2+y,1/2+z
-x,1/2-y,1/2+z
-x,1/2+y,1/2+z
x,1/2-y,1/2+z
loop_
_atom_site_type_symbol
_atom_site_label
_atom_site_fract_x
_atom_site_fract_y
_atom_site_fract_z
Si Si1 0.580384 0.681619 0.266080
Si Si2 0.325482 0.080007 0.618307
Si Si3 0.175973 0.579061 0.712963
Si Si4 0.080332 0.080696 0.488242
Si Si5 0.184124 0.333995 0.160812
Si Si6 0.203977 0.305157 0.494838
Si Si7 0.336174 0.077401 0.287171
Si Si8 0.635058 0.694684 0.576844
O O1 0.500000 0.683014 0.212364
O O2 0.615982 0.607553 0.232629
O O3 0.581216 0.695533 0.440867
O O4 0.625867 0.737464 0.175640
O O5 0.253580 0.121588 0.632795
O O6 0.358545 0.089547 0.455759
O O7 0.309848 0.000000 0.653812
O O8 0.166120 0.500000 0.658116
O O9 0.119310 0.598893 0.836085
O O10 0.166277 0.630574 0.576156
O O11 0.252700 0.590592 0.782794
O O12 0.116145 0.119746 0.624864
O O13 0.000000 0.105229 0.473500
O O14 0.086126 0.000000 0.522525
O O15 0.180583 0.308054 0.326979
O O16 0.179031 0.267565 0.057032
O O17 0.287845 0.310087 0.507786
O O18 0.379238 0.128924 0.182032
O O19 0.354892 0.000000 0.234913
#
# Coordination Sequence:
#
# PCOD8180247 Si02
#       8
#     8   8   8   8   8   8   8   8
#     4  12  25  40  59  85 120 158 198 247 306 369
#     4  11  22  38  62  88 116 154 202 252 300 354
#     4   9  18  35  59  91 121 152 196 244 295 353
#     4  10  21  39  63  90 126 167 201 242 300 363
#     4  12  22  38  60  93 121 159 203 252 300 355
#     4  11  22  36  62  90 120 154 199 258 302 345
#     4   9  19  35  61  89 116 148 194 250 296 345
#     4  11  21  39  60  89 118 154 199 246 303 359
#
# _framework density 19.208373999999999
#
# number of rings (size 3 to 8) (size 9 to 14) (size 15 to 20)
#    0.000    1.375    3.750    2.250    1.750    1.750 
#    0.000    3.750    0.000    4.125    0.000    0.000 
#    0.000    0.000    0.000    0.000    0.000    0.000 
#
# Total GULP energy -396923.859924 kJ/mol
# GULP energy per Si atom -12403.870623 kJ/mol
# Density = 1.916466 g / cm^3
# Si number density = 19.208374 Si / 1000 Ang^3
#
#
#
# Elastic Constant Matrix: (Units=GPa)
#
#
# Indices 1 2 3 4 5 6 
#
# 1 79.1194 41.7279 36.3304 0.0000 0.0000 0.0000
# 2 41.7279 118.5233 68.2577 0.0000 0.0000 0.0000
# 3 36.3304 68.2577 127.0620 0.0000 0.0000 0.0000
# 4 0.0000 0.0000 0.0000 40.0471 0.0000 0.0000
# 5 0.0000 0.0000 0.0000 0.0000 25.2110 0.0000
# 6 0.0000 0.0000 0.0000 0.0000 0.0000 21.4052
#
#
#
# Elastic Compliance Matrix: (Units=1/GPa)
#
#
# Indices 1 2 3 4 5 6 
#
# 1 0.015948 -0.004327 -0.002235 0.000000 0.000000 0.000000
# 2 -0.004327 0.013391 -0.005956 0.000000 0.000000 0.000000
# 3 -0.002235 -0.005956 0.011709 0.000000 0.000000 0.000000
# 4 0.000000 0.000000 0.000000 0.024971 0.000000 0.000000
# 5 0.000000 0.000000 0.000000 0.000000 0.039665 0.000000
# 6 0.000000 0.000000 0.000000 0.000000 0.000000 0.046718
#
#
# Mechanical properties :
#
#
# Convention : Reuss Voigt Hill
#
# Bulk Modulus (GPa) = 62.46132 68.59297 65.52714
# Shear Modulus (GPa) = 27.35597 29.22526 28.29061
#
# Velocity S-wave (km/s) = 3.77791 3.90485 3.84191
# Velocity P-wave (km/s) = 7.18460 7.49119 7.33950
#
# Compressibility (1/GPa) = 0.01600991
#
# Stress axis : x y z
#
# Youngs Moduli (GPa) = 62.70462 74.67752 85.40447
#
# Poissons Ratio (x) = 0.32316 0.19090
# Poissons Ratio (y) = 0.27135 0.50869
# Poissons Ratio (z) = 0.14016 0.44480
#
# Static dielectric constant tensor:
#      x y z
#    x 3.315690 0.000000 0.000000 
#    y 0.000000 3.699480 0.000000 
#    z 0.000000 0.000000 3.552890 
# 
# 
# High freq. dielectric constant tensor:
#      x y z
#    x 1.718420 0.000000 0.000000 
#    y 0.000000 1.760760 0.000000 
#    z 0.000000 0.000000 1.750860 
# 
# From -- ./inp_files/6499.got.cif
#   From: 2010.03.12/outbox.cif.g09.slc.cpg/sg38_4_cif.got.tgz:6499.got - 2010.04.14 02:38:36.
