data_PCOD8180339
_publ_section_title
;
Structure prediction by ZEFSAII (Michael W. Deem and Ramdas Pophale) SiO2 
 PCOD8180339
Probable space group: A M M 2
;
_chemical_formula_sum "Si O2"
_cell_formula_units_Z 64
_cell_length_a 8.618199
_cell_length_b 15.415541
_cell_length_c 23.779327
_cell_angle_alpha 90.000000
_cell_angle_beta 90.000000
_cell_angle_gamma 90.000000
_cell_volume 3159.183466
_symmetry_space_group_name_H-M "A M M 2"
_symmetry_group_IT_number 38
_symmetry_cell_setting 'orthorhombic'
loop_
_space_group_symop_operation_xyz
x,y,z
-x,-y,z
-x,y,z
x,-y,z
x,1/2+y,1/2+z
-x,1/2-y,1/2+z
-x,1/2+y,1/2+z
x,1/2-y,1/2+z
loop_
_atom_site_type_symbol
_atom_site_label
_atom_site_fract_x
_atom_site_fract_y
_atom_site_fract_z
Si Si1 0.180519 0.336467 0.702660
Si Si2 0.817922 0.750129 0.006578
Si Si3 0.316692 0.402093 0.076265
Si Si4 0.681568 0.651925 0.199040
Si Si5 0.822308 0.402379 0.310715
Si Si6 0.319340 0.243574 0.885853
Si Si7 0.816371 0.095164 0.082417
Si Si8 0.321764 0.403452 0.810476
O O1 0.286369 0.252387 0.709925
O O2 0.231512 0.385795 0.646397
O O3 0.214876 0.398117 0.755326
O O4 0.000000 0.310166 0.700972
O O5 0.749762 0.659706 0.028204
O O6 0.745865 0.830735 0.041914
O O7 0.000000 0.746702 0.015475
O O8 0.779517 0.765432 0.941975
O O9 0.500000 0.393707 0.075372
O O10 0.263016 0.500000 0.062786
O O11 0.253970 0.375002 0.137776
O O12 0.500000 0.631919 0.204372
O O13 0.771204 0.596567 0.245733
O O14 0.803701 0.500000 0.334422
O O15 0.714540 0.338022 0.346033
O O16 0.000000 0.371148 0.315524
O O17 0.500000 0.245001 0.901156
O O18 0.267474 0.332915 0.856108
O O19 0.000000 0.093978 0.076243
O O20 0.749697 0.000000 0.065843
O O21 0.500000 0.385983 0.793436
O O22 0.301166 0.500000 0.836243
#
# Coordination Sequence:
#
# PCOD8180339 Si02
#       8
#     8   8   8   8   8   8   8   8
#     4  11  20  34  60  91 123 157 194 241 299 359
#     4  11  23  40  62  88 119 157 203 255 302 351
#     4  10  22  40  62  88 121 161 202 246 301 363
#     4  11  21  36  61  91 125 162 199 244 303 365
#     4  11  24  41  63  92 124 159 200 250 305 359
#     4  11  24  42  63  87 119 162 205 250 301 358
#     4   9  19  36  58  86 120 156 192 235 295 357
#     4  10  22  40  61  87 119 156 197 245 302 359
#
# _framework density 20.258399000000001
#
# number of rings (size 3 to 8) (size 9 to 14) (size 15 to 20)
#    0.000    1.500    2.500    2.625    0.000    4.500 
#    0.000    2.500    0.000    3.375    0.000    0.000 
#    0.000    0.000    0.000    0.000    0.000    0.000 
#
# Total GULP energy -396916.656958 kJ/mol
# GULP energy per Si atom -12403.645530 kJ/mol
# Density = 2.021229 g / cm^3
# Si number density = 20.258399 Si / 1000 Ang^3
#
#
#
# Elastic Constant Matrix: (Units=GPa)
#
#
# Indices 1 2 3 4 5 6 
#
# 1 34.9644 22.2854 10.8195 0.0000 0.0000 0.0000
# 2 22.2854 139.6518 40.8326 0.0000 0.0000 0.0000
# 3 10.8195 40.8326 97.4704 0.0000 0.0000 0.0000
# 4 0.0000 0.0000 0.0000 16.7461 0.0000 0.0000
# 5 0.0000 0.0000 0.0000 0.0000 32.6787 0.0000
# 6 0.0000 0.0000 0.0000 0.0000 0.0000 28.0571
#
#
#
# Elastic Compliance Matrix: (Units=1/GPa)
#
#
# Indices 1 2 3 4 5 6 
#
# 1 0.032060 -0.004644 -0.001613 0.000000 0.000000 0.000000
# 2 -0.004644 0.008833 -0.003185 0.000000 0.000000 0.000000
# 3 -0.001613 -0.003185 0.011773 0.000000 0.000000 0.000000
# 4 0.000000 0.000000 0.000000 0.059715 0.000000 0.000000
# 5 0.000000 0.000000 0.000000 0.000000 0.030601 0.000000
# 6 0.000000 0.000000 0.000000 0.000000 0.000000 0.035642
#
#
# Mechanical properties :
#
#
# Convention : Reuss Voigt Hill
#
# Bulk Modulus (GPa) = 29.60240 46.66243 38.13242
# Shear Modulus (GPa) = 23.94997 28.70632 26.32815
#
# Velocity S-wave (km/s) = 3.44208 3.76840 3.60893
# Velocity P-wave (km/s) = 5.51737 6.48214 6.01911
#
# Compressibility (1/GPa) = 0.03378104
#
# Stress axis : x y z
#
# Youngs Moduli (GPa) = 31.19160 113.21153 84.94176
#
# Poissons Ratio (x) = 0.52580 0.13702
# Poissons Ratio (y) = 0.14487 0.27052
# Poissons Ratio (z) = 0.05032 0.36056
#
# Static dielectric constant tensor:
#      x y z
#    x 3.480770 0.000000 0.000000 
#    y 0.000000 3.882390 0.000000 
#    z 0.000000 0.000000 3.618270 
# 
# 
# High freq. dielectric constant tensor:
#      x y z
#    x 1.777910 0.000000 0.000000 
#    y 0.000000 1.805690 0.000000 
#    z 0.000000 0.000000 1.786480 
# 
# From -- ./inp_files/22148.got.cif
#   From: 2010.03.12/outbox.cif.g09.slc.cpg/sg38_12_cif.got.tgz:22148.got - 2010.04.14 02:38:36.
