data_PCOD8180614
_publ_section_title
;
Structure prediction by ZEFSAII (Michael W. Deem and Ramdas Pophale) SiO2 
 PCOD8180614
Probable space group: A B M 2
;
_chemical_formula_sum "Si O2"
_cell_formula_units_Z 44
_cell_length_a 16.335960
_cell_length_b 33.638927
_cell_length_c 5.187268
_cell_angle_alpha 90.000000
_cell_angle_beta 90.000000
_cell_angle_gamma 90.000000
_cell_volume 2850.529121
_symmetry_space_group_name_H-M "A B M 2"
_symmetry_group_IT_number 39
_symmetry_cell_setting 'orthorhombic'
loop_
_space_group_symop_operation_xyz
x,y,z
-x,-y,z
-x,1/2+y,z
x,1/2-y,z
x,1/2+y,1/2+z
-x,1/2-y,1/2+z
-x,y,1/2+z
x,-y,1/2+z
loop_
_atom_site_type_symbol
_atom_site_label
_atom_site_fract_x
_atom_site_fract_y
_atom_site_fract_z
Si Si1 0.054159 0.891576 0.593150
Si Si2 0.948947 0.250000 0.573651
Si Si3 0.545844 0.297253 0.125148
Si Si4 0.909723 0.517310 0.062806
Si Si5 0.267457 0.297393 0.579990
Si Si6 0.173232 0.179230 0.085182
O O1 0.088516 0.935954 0.607248
O O2 0.133902 0.864138 0.606368
O O3 0.005387 0.882912 0.331616
O O4 0.897571 0.289033 0.631107
O O5 0.023386 0.250000 0.776160
O O6 0.540944 0.250000 0.122465
O O7 0.498651 0.314650 0.877343
O O8 0.639600 0.311072 0.123840
O O9 0.863527 0.494861 0.297785
O O10 0.000000 0.500000 0.008680
O O11 0.257880 0.250000 0.580551
O O12 0.213110 0.315755 0.805923
O O13 0.240968 0.315108 0.305625
#
# Coordination Sequence:
#
# PCOD8180614 Si02
#       6
#     8   4   8   8   8   8
#     4  12  21  33  48  67  89 115 160 213 231 274
#     4  12  22  36  46  56  80 118 172 212 228 256
#     4   9  17  29  49  73  88 107 146 192 229 271
#     4  10  16  30  49  67  85 107 142 193 243 293
#     4  11  20  36  50  64  93 125 154 192 237 292
#     4  12  23  34  47  65  88 126 162 195 252 267
#
# _framework density 15.43573
#
# number of rings (size 3 to 8) (size 9 to 14) (size 15 to 20)
#    0.000    1.091    5.455    4.364    0.000    2.909 
#    0.000    0.000    0.000    0.000    0.000    0.000 
#    0.000    0.000    0.000    0.000    0.000   63.636 
#
# Total GULP energy -272817.955973 kJ/mol
# GULP energy per Si atom -12400.816181 kJ/mol
# Density = 1.540060 g / cm^3
# Si number density = 15.435730 Si / 1000 Ang^3
#
#
#
# Elastic Constant Matrix: (Units=GPa)
#
#
# Indices 1 2 3 4 5 6 
#
# 1 62.6973 28.3232 17.3093 0.0000 0.0000 0.0000
# 2 28.3232 70.5686 5.5420 0.0000 0.0000 0.0000
# 3 17.3093 5.5420 97.9069 0.0000 0.0000 0.0000
# 4 0.0000 0.0000 0.0000 15.9093 0.0000 0.0000
# 5 0.0000 0.0000 0.0000 0.0000 29.1439 0.0000
# 6 0.0000 0.0000 0.0000 0.0000 0.0000 4.6858
#
#
#
# Elastic Compliance Matrix: (Units=1/GPa)
#
#
# Indices 1 2 3 4 5 6 
#
# 1 0.020410 -0.007944 -0.003159 0.000000 0.000000 0.000000
# 2 -0.007944 0.017326 0.000424 0.000000 0.000000 0.000000
# 3 -0.003159 0.000424 0.010748 0.000000 0.000000 0.000000
# 4 0.000000 0.000000 0.000000 0.062856 0.000000 0.000000
# 5 0.000000 0.000000 0.000000 0.000000 0.034312 0.000000
# 6 0.000000 0.000000 0.000000 0.000000 0.000000 0.213412
#
#
# Mechanical properties :
#
#
# Convention : Reuss Voigt Hill
#
# Bulk Modulus (GPa) = 36.86428 37.05798 36.96113
# Shear Modulus (GPa) = 12.83812 21.94769 17.39290
#
# Velocity S-wave (km/s) = 2.88708 3.77487 3.36042
# Velocity P-wave (km/s) = 5.92013 6.56198 6.24930
#
# Compressibility (1/GPa) = 0.02712653
#
# Stress axis : x y z
#
# Youngs Moduli (GPa) = 48.99502 57.71807 93.03844
#
# Poissons Ratio (x) = 0.45850 0.29388
# Poissons Ratio (y) = 0.38920 -0.03942
# Poissons Ratio (z) = 0.15476 -0.02445
#
# Static dielectric constant tensor:
#      x y z
#    x 2.788170 0.000000 0.000000 
#    y 0.000000 2.781270 0.000000 
#    z 0.000000 0.000000 3.510990 
# 
# 
# High freq. dielectric constant tensor:
#      x y z
#    x 1.559220 0.000000 0.000000 
#    y 0.000000 1.559770 0.000000 
#    z 0.000000 0.000000 1.626720 
# 
# From -- ./inp_files/571.got.cif
#   From: 2010.03.12/outbox.cif.g09.slc.cpg/sg39_1_cif.got.tgz:571.got - 2010.04.14 02:53:20.
