data_PCOD8180878
_publ_section_title
;
Structure prediction by ZEFSAII (Michael W. Deem and Ramdas Pophale) SiO2 
 PCOD8180878
Probable space group: A B M 2
;
_chemical_formula_sum "Si O2"
_cell_formula_units_Z 64
_cell_length_a 15.174705
_cell_length_b 8.843922
_cell_length_c 30.689252
_cell_angle_alpha 90.000000
_cell_angle_beta 90.000000
_cell_angle_gamma 90.000000
_cell_volume 4118.617533
_symmetry_space_group_name_H-M "A B M 2"
_symmetry_group_IT_number 39
_symmetry_cell_setting 'orthorhombic'
loop_
_space_group_symop_operation_xyz
x,y,z
-x,-y,z
-x,1/2+y,z
x,1/2-y,z
x,1/2+y,1/2+z
-x,1/2-y,1/2+z
-x,y,1/2+z
x,-y,1/2+z
loop_
_atom_site_type_symbol
_atom_site_label
_atom_site_fract_x
_atom_site_fract_y
_atom_site_fract_z
Si Si1 0.904635 0.927220 0.250000
Si Si2 0.412201 0.578781 0.101021
Si Si3 0.903087 0.070371 0.164341
Si Si4 0.904243 0.928642 0.929723
Si Si5 0.232053 0.928287 0.599701
Si Si6 0.762559 0.073803 0.499488
Si Si7 0.904604 0.073191 0.844484
Si Si8 0.413858 0.418583 0.497306
O O1 0.912792 0.750000 0.239525
O O2 0.856872 0.952795 0.297240
O O3 0.857002 0.010497 0.209402
O O4 0.000000 0.000000 0.253418
O O5 0.500000 0.500000 0.120305
O O6 0.406218 0.750000 0.118776
O O7 0.326969 0.485236 0.116791
O O8 0.416875 0.577216 0.049224
O O9 0.909347 0.250000 0.164651
O O10 0.844659 0.016057 0.124302
O O11 0.000000 0.000000 0.159234
O O12 0.913072 0.750000 0.926170
O O13 0.856997 0.992467 0.885494
O O14 0.845250 0.978303 0.970687
O O15 0.000000 0.000000 0.936800
O O16 0.224592 0.750000 0.607876
O O17 0.218775 0.972376 0.549233
O O18 0.745029 0.250000 0.495798
O O19 0.674980 0.996644 0.480544
O O20 0.913703 0.250000 0.854361
O O21 0.000000 0.000000 0.842010
O O22 0.500000 0.500000 0.477894
O O23 0.414545 0.250000 0.479014
#
# Coordination Sequence:
#
# PCOD8180878 Si02
#       8
#     8   8   8   8   8   8   8   8
#     4   9  16  27  43  62  82 105 135 172 215 258
#     4   9  16  27  43  64  85 108 139 175 218 261
#     4  11  21  32  45  62  85 114 148 182 216 256
#     4  10  19  30  43  60  84 114 147 181 214 250
#     4  10  19  32  46  61  85 116 149 184 218 252
#     4   9  19  32  44  60  84 115 149 182 214 250
#     4   9  16  26  42  62  82 105 135 172 214 258
#     4   9  16  26  43  63  83 107 136 174 217 259
#
# _framework density 15.539194999999999
#
# number of rings (size 3 to 8) (size 9 to 14) (size 15 to 20)
#    0.000    2.500    0.000    4.875    0.000    6.500 
#    0.000    1.250    0.000    0.000    0.000    0.000 
#    0.000    1.000    0.000    6.750    0.000    6.000 
#
# Total GULP energy -396567.130991 kJ/mol
# GULP energy per Si atom -12392.722843 kJ/mol
# Density = 1.550383 g / cm^3
# Si number density = 15.539195 Si / 1000 Ang^3
#
#
#
# Elastic Constant Matrix: (Units=GPa)
#
#
# Indices 1 2 3 4 5 6 
#
# 1 85.9065 48.7529 50.6546 0.0000 0.0000 0.0000
# 2 48.7529 107.7768 49.3553 0.0000 0.0000 0.0000
# 3 50.6546 49.3553 84.8711 0.0000 0.0000 0.0000
# 4 0.0000 0.0000 0.0000 17.7424 0.0000 0.0000
# 5 0.0000 0.0000 0.0000 0.0000 0.7399 0.0000
# 6 0.0000 0.0000 0.0000 0.0000 0.0000 26.2295
#
#
#
# Elastic Compliance Matrix: (Units=1/GPa)
#
#
# Indices 1 2 3 4 5 6 
#
# 1 0.019621 -0.004788 -0.008926 0.000000 0.000000 0.000000
# 2 -0.004788 0.013815 -0.005176 0.000000 0.000000 0.000000
# 3 -0.008926 -0.005176 0.020120 0.000000 0.000000 0.000000
# 4 0.000000 0.000000 0.000000 0.056362 0.000000 0.000000
# 5 0.000000 0.000000 0.000000 0.000000 1.351515 0.000000
# 6 0.000000 0.000000 0.000000 0.000000 0.000000 0.038125
#
#
# Mechanical properties :
#
#
# Convention : Reuss Voigt Hill
#
# Bulk Modulus (GPa) = 63.39004 64.00891 63.69947
# Shear Modulus (GPa) = 3.24129 17.59514 10.41822
#
# Velocity S-wave (km/s) = 1.44582 3.36863 2.59211
# Velocity P-wave (km/s) = 6.60828 7.51076 7.07393
#
# Compressibility (1/GPa) = 0.01577535
#
# Stress axis : x y z
#
# Youngs Moduli (GPa) = 50.96532 72.38751 49.70120
#
# Poissons Ratio (x) = 0.34658 0.44365
# Poissons Ratio (y) = 0.24402 0.25725
# Poissons Ratio (z) = 0.45494 0.37468
#
# Static dielectric constant tensor:
#      x y z
#    x 2.806760 0.000000 0.000000 
#    y 0.000000 3.172940 0.000000 
#    z 0.000000 0.000000 3.400280 
# 
# 
# High freq. dielectric constant tensor:
#      x y z
#    x 1.561560 0.000000 0.000000 
#    y 0.000000 1.617560 0.000000 
#    z 0.000000 0.000000 1.574810 
# 
# From -- ./inp_files/18001.got.cif
#   From: 2010.03.12/outbox.cif.g09.slc.cpg/sg39_10_cif.got.tgz:18001.got - 2010.04.14 02:53:20.
