data_PCOD8180271
_publ_section_title
;
Structure prediction by ZEFSAII (Michael W. Deem and Ramdas Pophale) SiO2 
 PCOD8180271
Probable space group: A M M 2
;
_chemical_formula_sum "Si O2"
_cell_formula_units_Z 48
_cell_length_a 8.581829
_cell_length_b 18.426767
_cell_length_c 14.829032
_cell_angle_alpha 90.000000
_cell_angle_beta 90.000000
_cell_angle_gamma 90.000000
_cell_volume 2344.994364
_symmetry_space_group_name_H-M "A M M 2"
_symmetry_group_IT_number 38
_symmetry_cell_setting 'orthorhombic'
loop_
_space_group_symop_operation_xyz
x,y,z
-x,-y,z
-x,y,z
x,-y,z
x,1/2+y,1/2+z
-x,1/2-y,1/2+z
-x,1/2+y,1/2+z
x,1/2-y,1/2+z
loop_
_atom_site_type_symbol
_atom_site_label
_atom_site_fract_x
_atom_site_fract_y
_atom_site_fract_z
Si Si1 0.176904 0.500000 0.364710
Si Si2 0.320938 0.422660 0.838233
Si Si3 0.315214 0.770561 0.274135
Si Si4 0.322302 0.119482 0.536776
Si Si5 0.180859 0.736390 0.578043
Si Si6 0.176300 0.500000 0.152005
Si Si7 0.684418 0.652331 0.418989
O O1 0.179262 0.500000 0.258132
O O2 0.265097 0.429155 0.399004
O O3 0.000000 0.500000 0.401007
O O4 0.500000 0.421070 0.808295
O O5 0.247297 0.500000 0.803290
O O6 0.241061 0.349736 0.799161
O O7 0.307107 0.425967 0.945902
O O8 0.500000 0.772936 0.284856
O O9 0.268672 0.754204 0.172557
O O10 0.251279 0.707995 0.341911
O O11 0.500000 0.144221 0.554305
O O12 0.213828 0.189571 0.524631
O O13 0.265766 0.071544 0.620174
O O14 0.246050 0.671243 0.517145
O O15 0.000000 0.724091 0.596187
O O16 0.000000 0.500000 0.114366
O O17 0.500000 0.657025 0.424598
#
# Coordination Sequence:
#
# PCOD8180271 Si02
#       7
#     4   8   8   8   8   4   8
#     4  11  25  43  61  88 129 166 203 259 324 381
#     4   9  17  34  61  92 121 153 198 256 307 352
#     4  10  21  40  66  93 123 161 215 266 307 371
#     4  11  20  36  62  90 122 161 208 256 305 370
#     4  12  25  40  61  91 128 167 207 259 322 378
#     4  11  23  37  57  94 133 164 199 251 324 387
#     4  11  23  43  69  93 121 164 218 267 311 370
#
# _framework density 20.469132999999999
#
# number of rings (size 3 to 8) (size 9 to 14) (size 15 to 20)
#    0.000    1.333    2.500    4.000    0.000    5.333 
#    1.500    0.000    0.000    0.000    0.000    0.000 
#    0.000    0.000    0.000    0.000    0.000    0.000 
#
# Total GULP energy -297560.170709 kJ/mol
# GULP energy per Si atom -12398.340446 kJ/mol
# Density = 2.042254 g / cm^3
# Si number density = 20.469133 Si / 1000 Ang^3
#
#
#
# Elastic Constant Matrix: (Units=GPa)
#
#
# Indices 1 2 3 4 5 6 
#
# 1 52.7032 24.6249 19.6033 0.0000 0.0000 0.0000
# 2 24.6249 159.1237 29.9330 0.0000 0.0000 0.0000
# 3 19.6033 29.9330 72.9870 0.0000 0.0000 0.0000
# 4 0.0000 0.0000 0.0000 63.5534 0.0000 0.0000
# 5 0.0000 0.0000 0.0000 0.0000 17.5532 0.0000
# 6 0.0000 0.0000 0.0000 0.0000 0.0000 23.9529
#
#
#
# Elastic Compliance Matrix: (Units=1/GPa)
#
#
# Indices 1 2 3 4 5 6 
#
# 1 0.021947 -0.002479 -0.004878 0.000000 0.000000 0.000000
# 2 -0.002479 0.007090 -0.002242 0.000000 0.000000 0.000000
# 3 -0.004878 -0.002242 0.015931 0.000000 0.000000 0.000000
# 4 0.000000 0.000000 0.000000 0.015735 0.000000 0.000000
# 5 0.000000 0.000000 0.000000 0.000000 0.056970 0.000000
# 6 0.000000 0.000000 0.000000 0.000000 0.000000 0.041749
#
#
# Mechanical properties :
#
#
# Convention : Reuss Voigt Hill
#
# Bulk Modulus (GPa) = 38.80495 48.12628 43.46562
# Shear Modulus (GPa) = 26.70833 35.05540 30.88186
#
# Velocity S-wave (km/s) = 3.61613 4.14284 3.88842
# Velocity P-wave (km/s) = 6.03607 6.81520 6.43743
#
# Compressibility (1/GPa) = 0.02576991
#
# Stress axis : x y z
#
# Youngs Moduli (GPa) = 45.56485 141.04920 62.77201
#
# Poissons Ratio (x) = 0.34962 0.30620
# Poissons Ratio (y) = 0.11294 0.14073
# Poissons Ratio (z) = 0.22227 0.31621
#
# Static dielectric constant tensor:
#      x y z
#    x 3.572590 0.000000 0.000000 
#    y 0.000000 4.013720 0.000000 
#    z 0.000000 0.000000 3.586010 
# 
# 
# High freq. dielectric constant tensor:
#      x y z
#    x 1.779590 0.000000 0.000000 
#    y 0.000000 1.818290 0.000000 
#    z 0.000000 0.000000 1.792070 
# 
# From -- ./inp_files/12148.got.cif
#   From: 2010.03.12/outbox.cif.g09.slc.cpg/sg38_7_cif.got.tgz:12148.got - 2010.04.14 02:38:36.
