data_PCOD8180304
_publ_section_title
;
Structure prediction by ZEFSAII (Michael W. Deem and Ramdas Pophale) SiO2 
 PCOD8180304
Probable space group: A M M 2
;
_chemical_formula_sum "Si O2"
_cell_formula_units_Z 64
_cell_length_a 14.826423
_cell_length_b 9.387041
_cell_length_c 24.061465
_cell_angle_alpha 90.000000
_cell_angle_beta 90.000000
_cell_angle_gamma 90.000000
_cell_volume 3348.784242
_symmetry_space_group_name_H-M "A M M 2"
_symmetry_group_IT_number 38
_symmetry_cell_setting 'orthorhombic'
loop_
_space_group_symop_operation_xyz
x,y,z
-x,-y,z
-x,y,z
x,-y,z
x,1/2+y,1/2+z
-x,1/2-y,1/2+z
-x,1/2+y,1/2+z
x,1/2-y,1/2+z
loop_
_atom_site_type_symbol
_atom_site_label
_atom_site_fract_x
_atom_site_fract_y
_atom_site_fract_z
Si Si1 0.397207 0.834284 0.795870
Si Si2 0.393059 0.157354 0.192322
Si Si3 0.892942 0.160463 0.187868
Si Si4 0.896570 0.836596 0.792449
Si Si5 0.744329 0.833142 0.495980
Si Si6 0.896659 0.335996 0.082624
Si Si7 0.751000 0.664693 0.383675
Si Si8 0.605049 0.666583 0.568687
O O1 0.500000 0.787187 0.808325
O O2 0.357076 0.759896 0.740711
O O3 0.337884 0.792451 0.848915
O O4 0.389990 0.000000 0.783168
O O5 0.500000 0.151978 0.192990
O O6 0.363121 0.209935 0.131073
O O7 0.353728 0.000000 0.203644
O O8 0.857287 0.240033 0.242732
O O9 0.858330 0.241057 0.133043
O O10 0.000000 0.163502 0.188329
O O11 0.854893 0.000000 0.187218
O O12 0.839814 0.806306 0.847491
O O13 0.000000 0.798429 0.806202
O O14 0.886556 0.000000 0.773337
O O15 0.836529 0.802740 0.529016
O O16 0.757214 0.767078 0.435734
O O17 0.659455 0.760847 0.525364
O O18 0.724547 0.000000 0.490572
O O19 0.888984 0.500000 0.101023
O O20 0.000000 0.296438 0.067817
O O21 0.745760 0.500000 0.402604
O O22 0.500000 0.700621 0.559829
O O23 0.623963 0.500000 0.558142
#
# Coordination Sequence:
#
# PCOD8180304 Si02
#       8
#     8   8   8   8   8   8   8   8
#     4   9  18  33  53  76 102 133 167 205 252 304
#     4   8  15  30  53  80 106 132 165 204 250 306
#     4   9  17  30  52  83 111 134 168 215 265 317
#     4   9  18  34  55  77 104 139 174 212 264 321
#     4  11  24  38  54  79 106 136 182 232 271 310
#     4   9  19  37  57  76 105 144 178 213 266 328
#     4  10  22  38  53  72 101 138 181 220 256 312
#     4   9  19  37  59  81 109 145 177 209 260 323
#
# _framework density 19.111414
#
# number of rings (size 3 to 8) (size 9 to 14) (size 15 to 20)
#    0.000    2.750    0.000    1.500    0.000    6.250 
#    0.000    6.250    0.000    0.000    0.000    0.000 
#    0.000    0.000    0.000    0.000    0.000    0.000 
#
# Total GULP energy -396785.932216 kJ/mol
# GULP energy per Si atom -12399.560382 kJ/mol
# Density = 1.906792 g / cm^3
# Si number density = 19.111414 Si / 1000 Ang^3
#
#
#
# Elastic Constant Matrix: (Units=GPa)
#
#
# Indices 1 2 3 4 5 6 
#
# 1 86.0083 48.6820 58.9807 0.0000 0.0000 0.0000
# 2 48.6820 107.1369 91.3225 0.0000 0.0000 0.0000
# 3 58.9807 91.3225 159.7551 0.0000 0.0000 0.0000
# 4 0.0000 0.0000 0.0000 25.1619 0.0000 0.0000
# 5 0.0000 0.0000 0.0000 0.0000 -43.0931 0.0000
# 6 0.0000 0.0000 0.0000 0.0000 0.0000 18.1103
#
#
#
# Elastic Compliance Matrix: (Units=1/GPa)
#
#
# Indices 1 2 3 4 5 6 
#
# 1 0.016624 -0.004529 -0.003548 0.000000 0.000000 0.000000
# 2 -0.004529 0.019438 -0.009439 0.000000 0.000000 0.000000
# 3 -0.003548 -0.009439 0.012966 0.000000 0.000000 0.000000
# 4 0.000000 0.000000 0.000000 0.039743 0.000000 0.000000
# 5 0.000000 0.000000 0.000000 0.000000 -0.023206 0.000000
# 6 0.000000 0.000000 0.000000 0.000000 0.000000 0.055217
#
#
# Mechanical properties :
#
#
# Convention : Reuss Voigt Hill
#
# Bulk Modulus (GPa) = 71.46190 83.43008 77.44599
# Shear Modulus (GPa) = 31.15667 10.29681 20.72674
#
# Velocity S-wave (km/s) = 4.04203 2.32368 3.29678
# Velocity P-wave (km/s) = 7.69789 7.13783 7.42314
#
# Compressibility (1/GPa) = 0.01399347
#
# Stress axis : x y z
#
# Youngs Moduli (GPa) = 60.15554 51.44610 77.12738
#
# Poissons Ratio (x) = 0.23300 0.27368
# Poissons Ratio (y) = 0.27244 0.72803
# Poissons Ratio (z) = 0.21345 0.48562
#
# Static dielectric constant tensor:
#      x y z
#    x 3.517340 0.000000 0.000000 
#    y 0.000000 3.665740 0.000000 
#    z 0.000000 0.000000 3.458720 
# 
# 
# High freq. dielectric constant tensor:
#      x y z
#    x 1.743530 0.000000 0.000000 
#    y 0.000000 1.739800 0.000000 
#    z 0.000000 0.000000 1.738320 
# 
# From -- ./inp_files/22940.got.cif
#   From: 2010.03.12/outbox.cif.g09.slc.cpg/sg38_12_cif.got.tgz:22940.got - 2010.04.14 02:38:36.
