data_PCOD8180988
_publ_section_title
;
Structure prediction by ZEFSAII (Michael W. Deem and Ramdas Pophale) SiO2 
 PCOD8180988
Probable space group: A B M 2
;
_chemical_formula_sum "Si O2"
_cell_formula_units_Z 64
_cell_length_a 18.641498
_cell_length_b 19.868170
_cell_length_c 8.865143
_cell_angle_alpha 90.000000
_cell_angle_beta 90.000000
_cell_angle_gamma 90.000000
_cell_volume 3283.404744
_symmetry_space_group_name_H-M "A B M 2"
_symmetry_group_IT_number 39
_symmetry_cell_setting 'orthorhombic'
loop_
_space_group_symop_operation_xyz
x,y,z
-x,-y,z
-x,1/2+y,z
x,1/2-y,z
x,1/2+y,1/2+z
-x,1/2-y,1/2+z
-x,y,1/2+z
x,-y,1/2+z
loop_
_atom_site_type_symbol
_atom_site_label
_atom_site_fract_x
_atom_site_fract_y
_atom_site_fract_z
Si Si1 0.095013 0.176405 0.150030
Si Si2 0.926080 0.456309 0.123620
Si Si3 0.311031 0.434889 0.436382
Si Si4 0.951811 0.825349 0.813568
Si Si5 0.581595 0.173133 0.884334
Si Si6 0.486012 0.604555 0.626156
Si Si7 0.391806 0.986563 0.193703
Si Si8 0.152338 0.442473 0.317953
O O1 0.131104 0.250000 0.131841
O O2 0.152460 0.123634 0.211503
O O3 0.035871 0.179696 0.281300
O O4 0.061352 0.153498 0.988482
O O5 0.923610 0.383305 0.202863
O O6 0.862036 0.496214 0.204791
O O7 0.000000 0.500000 0.139234
O O8 0.908547 0.444439 0.947856
O O9 0.339105 0.358755 0.408996
O O10 0.365155 0.483853 0.349667
O O11 0.321808 0.456188 0.609611
O O12 0.229558 0.445961 0.392345
O O13 0.918227 0.750000 0.781987
O O14 0.587478 0.250000 0.932949
O O15 0.554632 0.165058 0.712961
O O16 0.520455 0.134296 0.976543
O O17 0.428339 0.545773 0.592723
O O18 0.550684 0.572277 0.725802
#
# Coordination Sequence:
#
# PCOD8180988 Si02
#       8
#     8   8   8   8   8   8   8   8
#     4  10  21  37  58  82 108 140 178 221 277 341
#     4  12  24  38  59  86 111 139 185 239 288 330
#     4  10  21  35  52  76 108 149 182 217 268 325
#     4  10  21  39  61  85 109 135 172 226 287 339
#     4  10  19  32  51  79 112 142 178 218 264 321
#     4   9  17  30  54  80 105 138 177 229 270 302
#     4   9  17  33  53  77 105 137 185 227 264 313
#     4  12  24  37  56  82 115 151 185 231 284 338
#
# _framework density 19.491962999999998
#
# number of rings (size 3 to 8) (size 9 to 14) (size 15 to 20)
#    0.000    1.750    1.250    3.750    0.000    5.000 
#    0.000    0.000    0.000    0.000    0.000    7.875 
#    0.000    0.000    0.000    0.000    0.000    0.000 
#
# Total GULP energy -396525.541352 kJ/mol
# GULP energy per Si atom -12391.423167 kJ/mol
# Density = 1.944760 g / cm^3
# Si number density = 19.491963 Si / 1000 Ang^3
#
#
#
# Elastic Constant Matrix: (Units=GPa)
#
#
# Indices 1 2 3 4 5 6 
#
# 1 61.5809 22.1993 6.0428 0.0000 0.0000 0.0000
# 2 22.1993 110.4142 25.9678 0.0000 0.0000 0.0000
# 3 6.0428 25.9678 64.6104 0.0000 0.0000 0.0000
# 4 0.0000 0.0000 0.0000 25.0088 0.0000 0.0000
# 5 0.0000 0.0000 0.0000 0.0000 21.5869 0.0000
# 6 0.0000 0.0000 0.0000 0.0000 0.0000 16.7017
#
#
#
# Elastic Compliance Matrix: (Units=1/GPa)
#
#
# Indices 1 2 3 4 5 6 
#
# 1 0.017511 -0.003463 -0.000246 0.000000 0.000000 0.000000
# 2 -0.003463 0.010687 -0.003971 0.000000 0.000000 0.000000
# 3 -0.000246 -0.003971 0.017097 0.000000 0.000000 0.000000
# 4 0.000000 0.000000 0.000000 0.039986 0.000000 0.000000
# 5 0.000000 0.000000 0.000000 0.000000 0.046324 0.000000
# 6 0.000000 0.000000 0.000000 0.000000 0.000000 0.059874
#
#
# Mechanical properties :
#
#
# Convention : Reuss Voigt Hill
#
# Bulk Modulus (GPa) = 33.40645 38.33614 35.87129
# Shear Modulus (GPa) = 23.06085 24.81921 23.94003
#
# Velocity S-wave (km/s) = 3.44335 3.57221 3.50837
# Velocity P-wave (km/s) = 5.74322 6.06008 5.90378
#
# Compressibility (1/GPa) = 0.02993434
#
# Stress axis : x y z
#
# Youngs Moduli (GPa) = 57.10612 93.57123 58.49132
#
# Poissons Ratio (x) = 0.32402 0.01439
# Poissons Ratio (y) = 0.19775 0.23229
# Poissons Ratio (z) = 0.01405 0.37161
#
# Static dielectric constant tensor:
#      x y z
#    x 3.225170 0.000000 0.000000 
#    y 0.000000 3.770980 0.000000 
#    z 0.000000 0.000000 3.505420 
# 
# 
# High freq. dielectric constant tensor:
#      x y z
#    x 1.726950 0.000000 0.000000 
#    y 0.000000 1.764610 0.000000 
#    z 0.000000 0.000000 1.763750 
# 
# From -- ./inp_files/3867.got.cif
#   From: 2010.03.12/outbox.cif.g09.slc.cpg/sg39_2_cif.got.tgz:3867.got - 2010.04.14 02:53:20.
