data_PCOD8180982
_publ_section_title
;
Structure prediction by ZEFSAII (Michael W. Deem and Ramdas Pophale) SiO2 
 PCOD8180982
Probable space group: A B M 2
;
_chemical_formula_sum "Si O2"
_cell_formula_units_Z 48
_cell_length_a 9.106346
_cell_length_b 8.971607
_cell_length_c 31.294173
_cell_angle_alpha 90.000000
_cell_angle_beta 90.000000
_cell_angle_gamma 90.000000
_cell_volume 2556.688793
_symmetry_space_group_name_H-M "A B M 2"
_symmetry_group_IT_number 39
_symmetry_cell_setting 'orthorhombic'
loop_
_space_group_symop_operation_xyz
x,y,z
-x,-y,z
-x,1/2+y,z
x,1/2-y,z
x,1/2+y,1/2+z
-x,1/2-y,1/2+z
-x,y,1/2+z
x,-y,1/2+z
loop_
_atom_site_type_symbol
_atom_site_label
_atom_site_fract_x
_atom_site_fract_y
_atom_site_fract_z
Si Si1 0.340831 0.573415 0.399790
Si Si2 0.843173 0.425266 0.482219
Si Si3 0.342883 0.574342 0.563024
Si Si4 0.342785 0.075473 0.317430
Si Si5 0.844032 0.925773 0.144541
Si Si6 0.343782 0.576524 0.723470
O O1 0.500000 0.500000 0.406189
O O2 0.358359 0.750000 0.395772
O O3 0.240350 0.526580 0.439331
O O4 0.260996 0.506996 0.356901
O O5 0.866477 0.250000 0.484567
O O6 0.749290 0.482676 0.522410
O O7 0.000000 0.500000 0.483265
O O8 0.500000 0.500000 0.562208
O O9 0.365535 0.750000 0.561321
O O10 0.259033 0.523849 0.605658
O O11 0.356143 0.250000 0.327689
O O12 0.271691 0.047966 0.270569
O O13 0.500000 0.000000 0.315275
O O14 0.867144 0.750000 0.145150
O O15 0.770415 0.984103 0.188448
O O16 0.000000 0.000000 0.138476
O O17 0.500000 0.500000 0.717449
O O18 0.373768 0.750000 0.716297
#
# Coordination Sequence:
#
# PCOD8180982 Si02
#       6
#     8   8   8   8   8   8
#     4  10  19  32  51  76 103 132 171 213 253 300
#     4  10  22  37  53  76 105 136 170 208 251 302
#     4  10  21  37  57  81 105 131 168 210 251 300
#     4   9  16  28  48  73 101 132 168 211 256 297
#     4  10  21  36  53  76 106 137 170 207 250 302
#     4   9  18  32  51  76 103 132 170 213 253 299
#
# _framework density 18.774284999999999
#
# number of rings (size 3 to 8) (size 9 to 14) (size 15 to 20)
#    0.000    2.333    0.000    3.500    0.000    4.000 
#    0.000    0.833    0.000    4.000    0.000    0.000 
#    0.000    0.000    0.000    0.000    0.000    0.000 
#
# Total GULP energy -297520.633405 kJ/mol
# GULP energy per Si atom -12396.693059 kJ/mol
# Density = 1.873155 g / cm^3
# Si number density = 18.774285 Si / 1000 Ang^3
#
#
#
# Elastic Constant Matrix: (Units=GPa)
#
#
# Indices 1 2 3 4 5 6 
#
# 1 130.4350 44.2482 88.1013 0.0000 0.0000 0.0000
# 2 44.2482 57.0677 54.3555 0.0000 0.0000 0.0000
# 3 88.1013 54.3555 202.4355 0.0000 0.0000 0.0000
# 4 0.0000 0.0000 0.0000 25.5363 0.0000 0.0000
# 5 0.0000 0.0000 0.0000 0.0000 6.1295 0.0000
# 6 0.0000 0.0000 0.0000 0.0000 0.0000 31.7835
#
#
#
# Elastic Compliance Matrix: (Units=1/GPa)
#
#
# Indices 1 2 3 4 5 6 
#
# 1 0.012179 -0.005905 -0.003715 0.000000 0.000000 0.000000
# 2 -0.005905 0.026407 -0.004521 0.000000 0.000000 0.000000
# 3 -0.003715 -0.004521 0.007770 0.000000 0.000000 0.000000
# 4 0.000000 0.000000 0.000000 0.039160 0.000000 0.000000
# 5 0.000000 0.000000 0.000000 0.000000 0.163147 0.000000
# 6 0.000000 0.000000 0.000000 0.000000 0.000000 0.031463
#
#
# Mechanical properties :
#
#
# Convention : Reuss Voigt Hill
#
# Bulk Modulus (GPa) = 55.32239 84.81647 70.06943
# Shear Modulus (GPa) = 15.90167 26.23873 21.07020
#
# Velocity S-wave (km/s) = 2.91347 3.74249 3.35369
# Velocity P-wave (km/s) = 6.39131 7.99687 7.23874
#
# Compressibility (1/GPa) = 0.01807586
#
# Stress axis : x y z
#
# Youngs Moduli (GPa) = 82.10886 37.86827 128.69259
#
# Poissons Ratio (x) = 0.22360 0.47808
# Poissons Ratio (y) = 0.48483 0.58179
# Poissons Ratio (z) = 0.30503 0.17119
#
# Static dielectric constant tensor:
#      x y z
#    x 3.150410 0.000000 0.000000 
#    y 0.000000 3.416350 0.000000 
#    z 0.000000 0.000000 4.406300 
# 
# 
# High freq. dielectric constant tensor:
#      x y z
#    x 1.702910 0.000000 0.000000 
#    y 0.000000 1.726990 0.000000 
#    z 0.000000 0.000000 1.759120 
# 
# From -- ./inp_files/17591.got.cif
#   From: 2010.03.12/outbox.cif.g09.slc.cpg/sg39_9_cif.got.tgz:17591.got - 2010.04.14 02:53:20.
