data_PCOD8180808
_publ_section_title
;
Structure prediction by ZEFSAII (Michael W. Deem and Ramdas Pophale) SiO2 
 PCOD8180808
Probable space group: A B M 2
;
_chemical_formula_sum "Si O2"
_cell_formula_units_Z 36
_cell_length_a 8.080925
_cell_length_b 13.075401
_cell_length_c 14.617889
_cell_angle_alpha 90.000000
_cell_angle_beta 90.000000
_cell_angle_gamma 90.000000
_cell_volume 1544.545664
_symmetry_space_group_name_H-M "A B M 2"
_symmetry_group_IT_number 39
_symmetry_cell_setting 'orthorhombic'
loop_
_space_group_symop_operation_xyz
x,y,z
-x,-y,z
-x,1/2+y,z
x,1/2-y,z
x,1/2+y,1/2+z
-x,1/2-y,1/2+z
-x,y,1/2+z
x,-y,1/2+z
loop_
_atom_site_type_symbol
_atom_site_label
_atom_site_fract_x
_atom_site_fract_y
_atom_site_fract_z
Si Si1 0.719346 0.369366 0.488300
Si Si2 0.722083 0.133233 0.279651
Si Si3 0.407994 0.629819 0.092133
Si Si4 0.000000 0.500000 0.819451
Si Si5 0.908895 0.872048 0.479338
O O1 0.722975 0.250000 0.508987
O O2 0.663193 0.390043 0.382920
O O3 0.577412 0.421057 0.552195
O O4 0.905128 0.411209 0.509723
O O5 0.779121 0.250000 0.270556
O O6 0.587216 0.108261 0.201334
O O7 0.882502 0.066303 0.254662
O O8 0.410802 0.750000 0.070426
O O9 0.239492 0.587205 0.044349
O O10 0.115344 0.576875 0.879990
O O11 0.907948 0.750000 0.469805
#
# Coordination Sequence:
#
# PCOD8180808 Si02
#       5
#     8   8   8   4   8
#     4   8  15  31  53  77 108 142 177 223 275 324
#     4   9  18  33  55  85 116 146 187 233 277 335
#     4   9  17  32  55  79 107 143 181 227 279 328
#     4  10  18  32  54  76 112 152 180 226 282 324
#     4   9  18  33  54  78 103 142 191 229 274 333
#
# _framework density 23.307825000000001
#
# number of rings (size 3 to 8) (size 9 to 14) (size 15 to 20)
#    0.000    3.111    0.000    2.000    0.000    0.889 
#    0.000    8.889    0.000   29.333    0.000    0.000 
#    0.000   14.222    0.000    0.000    0.000    0.000 
#
# Total GULP energy -223019.208938 kJ/mol
# GULP energy per Si atom -12389.956052 kJ/mol
# Density = 2.325478 g / cm^3
# Si number density = 23.307825 Si / 1000 Ang^3
#
#
#
# Elastic Constant Matrix: (Units=GPa)
#
#
# Indices 1 2 3 4 5 6 
#
# 1 185.6145 44.5942 97.7697 0.0000 0.0000 0.0000
# 2 44.5942 32.6469 11.2201 0.0000 0.0000 0.0000
# 3 97.7697 11.2201 111.5504 0.0000 0.0000 0.0000
# 4 0.0000 0.0000 0.0000 13.1078 0.0000 0.0000
# 5 0.0000 0.0000 0.0000 0.0000 36.1740 0.0000
# 6 0.0000 0.0000 0.0000 0.0000 0.0000 38.5864
#
#
#
# Elastic Compliance Matrix: (Units=1/GPa)
#
#
# Indices 1 2 3 4 5 6 
#
# 1 0.016237 -0.017907 -0.012430 0.000000 0.000000 0.000000
# 2 -0.017907 0.051476 0.010517 0.000000 0.000000 0.000000
# 3 -0.012430 0.010517 0.018801 0.000000 0.000000 0.000000
# 4 0.000000 0.000000 0.000000 0.076291 0.000000 0.000000
# 5 0.000000 0.000000 0.000000 0.000000 0.027644 0.000000
# 6 0.000000 0.000000 0.000000 0.000000 0.000000 0.025916
#
#
# Mechanical properties :
#
#
# Convention : Reuss Voigt Hill
#
# Bulk Modulus (GPa) = 21.33344 70.77553 46.05449
# Shear Modulus (GPa) = 18.40741 29.32216 23.86478
#
# Velocity S-wave (km/s) = 2.81330 3.55073 3.20331
# Velocity P-wave (km/s) = 4.44136 6.87326 5.78651
#
# Compressibility (1/GPa) = 0.04687477
#
# Stress axis : x y z
#
# Youngs Moduli (GPa) = 61.58776 19.42639 53.18845
#
# Poissons Ratio (x) = 0.34787 0.66113
# Poissons Ratio (y) = 1.10285 -0.55939
# Poissons Ratio (z) = 0.76553 -0.20431
#
# Static dielectric constant tensor:
#      x y z
#    x 4.508440 0.000000 0.000000 
#    y 0.000000 4.385960 0.000000 
#    z 0.000000 0.000000 4.041040 
# 
# 
# High freq. dielectric constant tensor:
#      x y z
#    x 1.909810 0.000000 0.000000 
#    y 0.000000 1.953970 0.000000 
#    z 0.000000 0.000000 1.889470 
# 
# From -- ./inp_files/7991.got.cif
#   From: 2010.03.12/outbox.cif.g09.slc.cpg/sg39_4_cif.got.tgz:7991.got - 2010.04.14 02:53:20.
