data_PCOD8180017
_publ_section_title
;
Structure prediction by ZEFSAII (Michael W. Deem and Ramdas Pophale) SiO2 
 PCOD8180017
Probable space group: A M M 2
;
_chemical_formula_sum "Si O2"
_cell_formula_units_Z 48
_cell_length_a 14.411519
_cell_length_b 7.697128
_cell_length_c 20.591941
_cell_angle_alpha 90.000000
_cell_angle_beta 90.000000
_cell_angle_gamma 90.000000
_cell_volume 2284.208549
_symmetry_space_group_name_H-M "A M M 2"
_symmetry_group_IT_number 38
_symmetry_cell_setting 'orthorhombic'
loop_
_space_group_symop_operation_xyz
x,y,z
-x,-y,z
-x,y,z
x,-y,z
x,1/2+y,1/2+z
-x,1/2-y,1/2+z
-x,1/2+y,1/2+z
x,1/2-y,1/2+z
loop_
_atom_site_type_symbol
_atom_site_label
_atom_site_fract_x
_atom_site_fract_y
_atom_site_fract_z
Si Si1 0.888757 0.500000 0.190850
Si Si2 0.396110 0.702913 0.759060
Si Si3 0.105172 0.693004 0.926980
Si Si4 0.754035 0.795648 0.155639
Si Si5 0.739260 0.298249 0.509415
Si Si6 0.397372 0.204610 0.900936
Si Si7 0.890255 0.500000 0.338465
O O1 0.846237 0.677205 0.160953
O O2 0.856203 0.500000 0.265335
O O3 0.000000 0.500000 0.180878
O O4 0.500000 0.785536 0.750498
O O5 0.403917 0.500000 0.748578
O O6 0.324216 0.774511 0.705411
O O7 0.355709 0.746061 0.830467
O O8 0.111458 0.500000 0.896930
O O9 0.000000 0.741398 0.945092
O O10 0.147571 0.827120 0.874317
O O11 0.163047 0.705334 0.993606
O O12 0.711415 0.765777 0.083855
O O13 0.779693 0.000000 0.166678
O O14 0.752329 0.500000 0.495119
O O15 0.663209 0.217517 0.459979
O O16 0.500000 0.287008 0.906684
O O17 0.402340 0.000000 0.908013
O O18 0.000000 0.500000 0.339967
#
# Coordination Sequence:
#
# PCOD8180017 Si02
#       7
#     4   8   8   8   8   8   4
#     4  11  26  44  65  89 125 166 208 263 316 375
#     4   9  19  37  60  87 122 163 205 253 312 373
#     4  10  21  36  58  88 118 151 195 246 304 363
#     4  10  24  42  61  91 125 165 215 256 309 373
#     4  10  21  37  58  86 122 160 201 252 304 357
#     4   9  19  35  59  90 121 158 201 246 305 367
#     4   9  20  40  60  85 115 148 193 249 305 355
#
# _framework density 21.013843000000001
#
# number of rings (size 3 to 8) (size 9 to 14) (size 15 to 20)
#    0.000    2.333    0.833    0.000    4.667    3.000 
#    0.000    6.667    0.000    0.000    0.000    0.000 
#    0.000    0.000    0.000    0.000    0.000    0.000 
#
# Total GULP energy -297510.094264 kJ/mol
# GULP energy per Si atom -12396.253928 kJ/mol
# Density = 2.096601 g / cm^3
# Si number density = 21.013843 Si / 1000 Ang^3
#
#
#
# Elastic Constant Matrix: (Units=GPa)
#
#
# Indices 1 2 3 4 5 6 
#
# 1 114.9897 32.8966 76.3495 0.0000 0.0000 0.0000
# 2 32.8966 77.7977 35.8525 0.0000 0.0000 0.0000
# 3 76.3495 35.8525 161.0800 0.0000 0.0000 0.0000
# 4 0.0000 0.0000 0.0000 24.5014 0.0000 0.0000
# 5 0.0000 0.0000 0.0000 0.0000 21.8508 0.0000
# 6 0.0000 0.0000 0.0000 0.0000 0.0000 20.3729
#
#
#
# Elastic Compliance Matrix: (Units=1/GPa)
#
#
# Indices 1 2 3 4 5 6 
#
# 1 0.013302 -0.003030 -0.005630 0.000000 0.000000 0.000000
# 2 -0.003030 0.015013 -0.001905 0.000000 0.000000 0.000000
# 3 -0.005630 -0.001905 0.009301 0.000000 0.000000 0.000000
# 4 0.000000 0.000000 0.000000 0.040814 0.000000 0.000000
# 5 0.000000 0.000000 0.000000 0.000000 0.045765 0.000000
# 6 0.000000 0.000000 0.000000 0.000000 0.000000 0.049085
#
#
# Mechanical properties :
#
#
# Convention : Reuss Voigt Hill
#
# Bulk Modulus (GPa) = 60.66384 71.56272 66.11328
# Shear Modulus (GPa) = 25.01181 27.26294 26.13737
#
# Velocity S-wave (km/s) = 3.45375 3.60582 3.53060
# Velocity P-wave (km/s) = 6.69595 7.17391 6.93904
#
# Compressibility (1/GPa) = 0.01648429
#
# Stress axis : x y z
#
# Youngs Moduli (GPa) = 75.17881 66.60842 107.51610
#
# Poissons Ratio (x) = 0.20181 0.60536
# Poissons Ratio (y) = 0.22778 0.20487
# Poissons Ratio (z) = 0.42329 0.12692
#
# Static dielectric constant tensor:
#      x y z
#    x 3.970170 0.000000 0.000000 
#    y 0.000000 3.721470 0.000000 
#    z 0.000000 0.000000 3.877930 
# 
# 
# High freq. dielectric constant tensor:
#      x y z
#    x 1.818880 0.000000 0.000000 
#    y 0.000000 1.818780 0.000000 
#    z 0.000000 0.000000 1.818130 
# 
# From -- ./inp_files/18194.got.cif
#   From: 2010.03.12/outbox.cif.g09.slc.cpg/sg38_10_cif.got.tgz:18194.got - 2010.04.14 02:38:36.
