data_PCOD8180894
_publ_section_title
;
Structure prediction by ZEFSAII (Michael W. Deem and Ramdas Pophale) SiO2 
 PCOD8180894
Probable space group: A B M 2
;
_chemical_formula_sum "Si O2"
_cell_formula_units_Z 64
_cell_length_a 14.289920
_cell_length_b 8.881087
_cell_length_c 30.906496
_cell_angle_alpha 90.000000
_cell_angle_beta 90.000000
_cell_angle_gamma 90.000000
_cell_volume 3922.344110
_symmetry_space_group_name_H-M "A B M 2"
_symmetry_group_IT_number 39
_symmetry_cell_setting 'orthorhombic'
loop_
_space_group_symop_operation_xyz
x,y,z
-x,-y,z
-x,1/2+y,z
x,1/2-y,z
x,1/2+y,1/2+z
-x,1/2-y,1/2+z
-x,y,1/2+z
x,-y,1/2+z
loop_
_atom_site_type_symbol
_atom_site_label
_atom_site_fract_x
_atom_site_fract_y
_atom_site_fract_z
Si Si1 0.900121 0.575898 0.050580
Si Si2 0.898596 0.574250 0.954783
Si Si3 0.221409 0.072109 0.381151
Si Si4 0.898577 0.573302 0.634190
Si Si5 0.793694 0.573900 0.720974
Si Si6 0.099644 0.427151 0.298853
Si Si7 0.405916 0.574243 0.251645
Si Si8 0.595485 0.427993 0.350871
O O1 0.910432 0.750000 0.062442
O O2 0.848323 0.493006 0.090696
O O3 0.000000 0.500000 0.048043
O O4 0.854448 0.554514 0.003159
O O5 0.907915 0.750000 0.942764
O O6 0.828750 0.490318 0.923316
O O7 0.000000 0.500000 0.950677
O O8 0.231906 0.250000 0.384808
O O9 0.164859 0.023743 0.338541
O O10 0.322498 0.996286 0.379714
O O11 0.912772 0.750000 0.629192
O O12 0.829249 0.533810 0.673304
O O13 0.000000 0.500000 0.642581
O O14 0.803902 0.750000 0.731930
O O15 0.856740 0.483432 0.754368
O O16 0.685077 0.523509 0.724376
O O17 0.086628 0.250000 0.296151
O O18 0.000000 0.500000 0.307208
O O19 0.500000 0.500000 0.232352
O O20 0.422293 0.750000 0.248691
O O21 0.389178 0.523105 0.301066
O O22 0.500000 0.500000 0.368517
O O23 0.592598 0.250000 0.356546
#
# Coordination Sequence:
#
# PCOD8180894 Si02
#       8
#     8   8   8   8   8   8   8   8
#     4   9  17  30  48  69  94 123 159 199 242 287
#     4  10  20  33  50  72  98 130 164 202 245 291
#     4  11  22  34  49  72  98 129 167 202 241 293
#     4  10  19  30  47  69  96 127 161 198 238 285
#     4  10  20  34  49  69  96 128 163 198 240 286
#     4  11  23  34  46  65  94 131 167 198 232 278
#     4   9  18  32  50  70  93 123 158 201 244 283
#     4  10  19  33  53  72  96 127 161 206 249 289
#
# _framework density 16.316773000000001
#
# number of rings (size 3 to 8) (size 9 to 14) (size 15 to 20)
#    0.000    2.000    1.250    3.750    0.000    7.000 
#    0.000    0.000    0.000    0.000    0.000    0.875 
#    0.000    4.000    0.000    0.000    0.000    0.000 
#
# Total GULP energy -396760.028716 kJ/mol
# GULP energy per Si atom -12398.750897 kJ/mol
# Density = 1.627964 g / cm^3
# Si number density = 16.316773 Si / 1000 Ang^3
#
#
#
# Elastic Constant Matrix: (Units=GPa)
#
#
# Indices 1 2 3 4 5 6 
#
# 1 113.3896 44.8700 53.3931 0.0000 0.0000 0.0000
# 2 44.8700 78.3492 48.2569 0.0000 0.0000 0.0000
# 3 53.3931 48.2569 108.4297 0.0000 0.0000 0.0000
# 4 0.0000 0.0000 0.0000 26.0289 0.0000 0.0000
# 5 0.0000 0.0000 0.0000 0.0000 6.3387 0.0000
# 6 0.0000 0.0000 0.0000 0.0000 0.0000 28.1962
#
#
#
# Elastic Compliance Matrix: (Units=1/GPa)
#
#
# Indices 1 2 3 4 5 6 
#
# 1 0.012616 -0.004682 -0.004129 0.000000 0.000000 0.000000
# 2 -0.004682 0.019321 -0.006293 0.000000 0.000000 0.000000
# 3 -0.004129 -0.006293 0.014056 0.000000 0.000000 0.000000
# 4 0.000000 0.000000 0.000000 0.038419 0.000000 0.000000
# 5 0.000000 0.000000 0.000000 0.000000 0.157762 0.000000
# 6 0.000000 0.000000 0.000000 0.000000 0.000000 0.035466
#
#
# Mechanical properties :
#
#
# Convention : Reuss Voigt Hill
#
# Bulk Modulus (GPa) = 63.34988 65.91206 64.63097
# Shear Modulus (GPa) = 15.96885 22.35598 19.16241
#
# Velocity S-wave (km/s) = 3.13177 3.70553 3.43067
# Velocity P-wave (km/s) = 7.21018 7.66752 7.44236
#
# Compressibility (1/GPa) = 0.01578535
#
# Stress axis : x y z
#
# Youngs Moduli (GPa) = 79.26405 51.75712 71.14213
#
# Poissons Ratio (x) = 0.24234 0.29371
# Poissons Ratio (y) = 0.37114 0.44771
# Poissons Ratio (z) = 0.32725 0.32572
#
# Static dielectric constant tensor:
#      x y z
#    x 3.079420 0.000000 0.000000 
#    y 0.000000 3.197150 0.000000 
#    z 0.000000 0.000000 3.402520 
# 
# 
# High freq. dielectric constant tensor:
#      x y z
#    x 1.607130 0.000000 0.000000 
#    y 0.000000 1.644210 0.000000 
#    z 0.000000 0.000000 1.619900 
# 
# From -- ./inp_files/17955.got.cif
#   From: 2010.03.12/outbox.cif.g09.slc.cpg/sg39_9_cif.got.tgz:17955.got - 2010.04.14 02:53:20.
