data_PCOD8180500
_publ_section_title
;
Structure prediction by ZEFSAII (Michael W. Deem and Ramdas Pophale) SiO2 
 PCOD8180500
Probable space group: A M M 2
;
_chemical_formula_sum "Si O2"
_cell_formula_units_Z 32
_cell_length_a 8.965936
_cell_length_b 7.703932
_cell_length_c 23.977988
_cell_angle_alpha 90.000000
_cell_angle_beta 90.000000
_cell_angle_gamma 90.000000
_cell_volume 1656.230636
_symmetry_space_group_name_H-M "A M M 2"
_symmetry_group_IT_number 38
_symmetry_cell_setting 'orthorhombic'
loop_
_space_group_symop_operation_xyz
x,y,z
-x,-y,z
-x,y,z
x,-y,z
x,1/2+y,1/2+z
-x,1/2-y,1/2+z
-x,1/2+y,1/2+z
x,1/2-y,1/2+z
loop_
_atom_site_type_symbol
_atom_site_label
_atom_site_fract_x
_atom_site_fract_y
_atom_site_fract_z
Si Si1 0.822201 0.500000 0.148160
Si Si2 0.671153 0.695717 0.840723
Si Si3 0.822339 0.808280 0.072399
Si Si4 0.823092 0.500000 0.274547
Si Si5 0.169023 0.203667 0.947645
O O1 0.759012 0.670378 0.116759
O O2 0.763462 0.500000 0.211180
O O3 0.000000 0.500000 0.146248
O O4 0.500000 0.755080 0.838435
O O5 0.690748 0.500000 0.817612
O O6 0.767241 0.825375 0.803476
O O7 0.724939 0.698023 0.904621
O O8 0.000000 0.812316 0.072989
O O9 0.760977 0.000000 0.088129
O O10 0.771401 0.756282 0.009955
O O11 0.000000 0.500000 0.277365
O O12 0.000000 0.271896 0.940366
O O13 0.174955 0.000000 0.934969
#
# Coordination Sequence:
#
# PCOD8180500 Si02
#       5
#     4   8   8   4   8
#     4   9  18  31  51  79 111 147 182 225 282 335
#     4  11  24  39  56  80 113 155 194 234 288 344
#     4   8  15  28  47  77 114 144 172 217 278 337
#     4  11  23  39  59  85 115 149 196 245 284 329
#     4   9  17  31  55  86 116 144 180 228 280 339
#
# _framework density 19.320981
#
# number of rings (size 3 to 8) (size 9 to 14) (size 15 to 20)
#    0.000    2.500    1.250    2.625    1.750    3.000 
#    0.000    2.500    0.000    3.000    0.000    0.000 
#    0.000    0.000    0.000    0.000    0.000    0.000 
#
# Total GULP energy -198374.765354 kJ/mol
# GULP energy per Si atom -12398.422835 kJ/mol
# Density = 1.927701 g / cm^3
# Si number density = 19.320981 Si / 1000 Ang^3
#
#
#
# Elastic Constant Matrix: (Units=GPa)
#
#
# Indices 1 2 3 4 5 6 
#
# 1 59.8001 33.4502 35.7617 0.0000 0.0000 0.0000
# 2 33.4502 124.2101 78.4816 0.0000 0.0000 0.0000
# 3 35.7617 78.4816 146.3711 0.0000 0.0000 0.0000
# 4 0.0000 0.0000 0.0000 24.6062 0.0000 0.0000
# 5 0.0000 0.0000 0.0000 0.0000 0.5978 0.0000
# 6 0.0000 0.0000 0.0000 0.0000 0.0000 20.8890
#
#
#
# Elastic Compliance Matrix: (Units=1/GPa)
#
#
# Indices 1 2 3 4 5 6 
#
# 1 0.020584 -0.003578 -0.003111 0.000000 0.000000 0.000000
# 2 -0.003578 0.012798 -0.005988 0.000000 0.000000 0.000000
# 3 -0.003111 -0.005988 0.010803 0.000000 0.000000 0.000000
# 4 0.000000 0.000000 0.000000 0.040640 0.000000 0.000000
# 5 0.000000 0.000000 0.000000 0.000000 1.672669 0.000000
# 6 0.000000 0.000000 0.000000 0.000000 0.000000 0.047872
#
#
# Mechanical properties :
#
#
# Convention : Reuss Voigt Hill
#
# Bulk Modulus (GPa) = 53.10240 69.52979 61.31609
# Shear Modulus (GPa) = 2.72184 21.39780 12.05982
#
# Velocity S-wave (km/s) = 1.18819 3.33151 2.50107
# Velocity P-wave (km/s) = 5.42461 7.13186 6.33600
#
# Compressibility (1/GPa) = 0.01883154
#
# Stress axis : x y z
#
# Youngs Moduli (GPa) = 48.58143 78.13870 92.57095
#
# Poissons Ratio (x) = 0.27957 0.28797
# Poissons Ratio (y) = 0.17382 0.55430
# Poissons Ratio (z) = 0.15113 0.46788
#
# Static dielectric constant tensor:
#      x y z
#    x 3.112950 0.000000 0.000000 
#    y 0.000000 3.691070 0.000000 
#    z 0.000000 0.000000 3.676290 
# 
# 
# High freq. dielectric constant tensor:
#      x y z
#    x 1.706660 0.000000 0.000000 
#    y 0.000000 1.762010 0.000000 
#    z 0.000000 0.000000 1.751110 
# 
# From -- ./inp_files/21637.got.cif
#   From: 2010.03.12/outbox.cif.g09.slc.cpg/sg38_11_cif.got.tgz:21637.got - 2010.04.14 02:38:36.
