data_PCOD8180006
_publ_section_title
;
Structure prediction by ZEFSAII (Michael W. Deem and Ramdas Pophale) SiO2 
 PCOD8180006
Probable space group: A M M 2
;
_chemical_formula_sum "Si O2"
_cell_formula_units_Z 64
_cell_length_a 13.823159
_cell_length_b 8.923122
_cell_length_c 25.857222
_cell_angle_alpha 90.000000
_cell_angle_beta 90.000000
_cell_angle_gamma 90.000000
_cell_volume 3189.378032
_symmetry_space_group_name_H-M "A M M 2"
_symmetry_group_IT_number 38
_symmetry_cell_setting 'orthorhombic'
loop_
_space_group_symop_operation_xyz
x,y,z
-x,-y,z
-x,y,z
x,-y,z
x,1/2+y,1/2+z
-x,1/2-y,1/2+z
-x,1/2+y,1/2+z
x,1/2-y,1/2+z
loop_
_atom_site_type_symbol
_atom_site_label
_atom_site_fract_x
_atom_site_fract_y
_atom_site_fract_z
Si Si1 0.885154 0.169007 0.895610
Si Si2 0.388526 0.674713 0.342075
Si Si3 0.276897 0.676404 0.239824
Si Si4 0.286144 0.175480 0.040740
Si Si5 0.109904 0.822805 0.500193
Si Si6 0.614918 0.829198 0.445060
Si Si7 0.888452 0.175829 0.291111
Si Si8 0.612413 0.174146 0.147582
O O1 0.849691 0.262743 0.945203
O O2 0.847978 0.245158 0.843054
O O3 0.000000 0.169722 0.895293
O O4 0.844014 0.000000 0.898498
O O5 0.500000 0.717266 0.334950
O O6 0.373679 0.500000 0.352303
O O7 0.337518 0.727748 0.289716
O O8 0.343578 0.761372 0.391385
O O9 0.259954 0.500000 0.237777
O O10 0.172995 0.759411 0.243064
O O11 0.332950 0.725918 0.189092
O O12 0.344522 0.216234 0.092077
O O13 0.269709 0.000000 0.034772
O O14 0.180542 0.254575 0.043673
O O15 0.347386 0.234287 0.992838
O O16 0.000000 0.768846 0.510920
O O17 0.116056 0.000000 0.500002
O O18 0.500000 0.816681 0.444717
O O19 0.650411 0.000000 0.450520
O O20 0.000000 0.216173 0.280717
O O21 0.873386 0.000000 0.297106
O O22 0.500000 0.217469 0.147669
O O23 0.627948 0.000000 0.160590
#
# Coordination Sequence:
#
# PCOD8180006 Si02
#       8
#     8   8   8   8   8   8   8   8
#     4   9  17  31  53  81 115 156 199 242 290 346
#     4   9  19  36  56  81 116 154 190 233 292 360
#     4  11  23  38  61  90 119 154 199 249 304 359
#     4  11  23  39  62  88 117 155 200 247 299 357
#     4  10  21  37  57  84 120 159 200 247 298 352
#     4  10  21  36  56  85 119 154 193 240 296 356
#     4  10  21  37  57  83 119 162 205 249 297 350
#     4  10  23  44  67  90 117 153 199 249 301 359
#
# _framework density 20.066610000000001
#
# number of rings (size 3 to 8) (size 9 to 14) (size 15 to 20)
#    0.000    2.000    0.000    3.000    1.750    7.000 
#    0.000    1.875    0.000    0.750    0.000    0.000 
#    0.000    0.000    0.000    0.000    0.000    0.000 
#
# Total GULP energy -396921.690255 kJ/mol
# GULP energy per Si atom -12403.802820 kJ/mol
# Density = 2.002094 g / cm^3
# Si number density = 20.066610 Si / 1000 Ang^3
#
#
#
# Elastic Constant Matrix: (Units=GPa)
#
#
# Indices 1 2 3 4 5 6 
#
# 1 74.8407 42.8337 48.4611 0.0000 0.0000 0.0000
# 2 42.8337 98.4560 54.3473 0.0000 0.0000 0.0000
# 3 48.4611 54.3473 108.9543 0.0000 0.0000 0.0000
# 4 0.0000 0.0000 0.0000 36.2689 0.0000 0.0000
# 5 0.0000 0.0000 0.0000 0.0000 37.4662 0.0000
# 6 0.0000 0.0000 0.0000 0.0000 0.0000 31.6678
#
#
#
# Elastic Compliance Matrix: (Units=1/GPa)
#
#
# Indices 1 2 3 4 5 6 
#
# 1 0.020659 -0.005403 -0.006494 0.000000 0.000000 0.000000
# 2 -0.005403 0.015429 -0.005293 0.000000 0.000000 0.000000
# 3 -0.006494 -0.005293 0.014707 0.000000 0.000000 0.000000
# 4 0.000000 0.000000 0.000000 0.027572 0.000000 0.000000
# 5 0.000000 0.000000 0.000000 0.000000 0.026691 0.000000
# 6 0.000000 0.000000 0.000000 0.000000 0.000000 0.031578
#
#
# Mechanical properties :
#
#
# Convention : Reuss Voigt Hill
#
# Bulk Modulus (GPa) = 60.91946 63.72615 62.32281
# Shear Modulus (GPa) = 28.33082 30.18785 29.25933
#
# Velocity S-wave (km/s) = 3.76152 3.88284 3.82266
# Velocity P-wave (km/s) = 7.02068 7.20612 7.11400
#
# Compressibility (1/GPa) = 0.01641512
#
# Stress axis : x y z
#
# Youngs Moduli (GPa) = 48.40525 64.81207 67.99710
#
# Poissons Ratio (x) = 0.35020 0.44154
# Poissons Ratio (y) = 0.26155 0.35990
# Poissons Ratio (z) = 0.31432 0.34304
#
# Static dielectric constant tensor:
#      x y z
#    x 3.843860 0.000000 0.000000 
#    y 0.000000 3.659930 0.000000 
#    z 0.000000 0.000000 3.556140 
# 
# 
# High freq. dielectric constant tensor:
#      x y z
#    x 1.799940 0.000000 0.000000 
#    y 0.000000 1.789370 0.000000 
#    z 0.000000 0.000000 1.765920 
# 
# From -- ./inp_files/22992.got.cif
#   From: 2010.03.12/outbox.cif.g09.slc.cpg/sg38_12_cif.got.tgz:22992.got - 2010.04.14 02:38:36.
