data_PCOD8180570
_publ_section_title
;
Structure prediction by ZEFSAII (Michael W. Deem and Ramdas Pophale) SiO2 
 PCOD8180570
Probable space group: A M M 2
;
_chemical_formula_sum "Si O2"
_cell_formula_units_Z 20
_cell_length_a 9.000000
_cell_length_b 27.000000
_cell_length_c 9.000000
_cell_angle_alpha 90.000000
_cell_angle_beta 90.000000
_cell_angle_gamma 90.000000
_cell_volume 2187.000000
_symmetry_space_group_name_H-M "A M M 2"
_symmetry_group_IT_number 38
_symmetry_cell_setting 'orthorhombic'
loop_
_space_group_symop_operation_xyz
x,y,z
-x,-y,z
-x,y,z
x,-y,z
x,1/2+y,1/2+z
-x,1/2-y,1/2+z
-x,1/2+y,1/2+z
x,1/2-y,1/2+z
loop_
_atom_site_type_symbol
_atom_site_label
_atom_site_fract_x
_atom_site_fract_y
_atom_site_fract_z
Si Si1 0.320768 0.797256 0.200120
Si Si2 0.674946 0.500000 0.017000
Si Si3 0.325710 0.402662 0.537290
Si Si4 0.325178 0.603656 0.186221
Si Si5 0.181897 0.700892 0.031385
Si Si6 0.820142 0.000000 0.190938
O O1 0.500000 0.789571 0.211937
O O2 0.285617 0.849565 0.115207
O O3 0.246698 0.799851 0.363602
O O4 0.247874 0.750126 0.113405
O O5 0.500000 0.500000 0.980865
O O6 0.715911 0.449632 0.109723
O O7 0.764931 0.500000 0.862094
O O8 0.500000 0.413731 0.557990
O O9 0.285071 0.399368 0.361841
O O10 0.238147 0.449413 0.610442
O O11 0.500000 0.614628 0.164946
O O12 0.234702 0.649867 0.113294
O O13 0.000000 0.702927 0.030219
O O14 0.000000 0.000000 0.187250
#
# Coordination Sequence:
#
# PCOD8180570 Si02
#       6
#     8   4   8   8   8   4
#     4  11  23  41  65  90 119 162 210 252 296 359
#     4  10  21  38  62  88 118 158 205 252 296 350
#     4  10  22  41  65  89 116 154 204 253 295 349
#     4  10  21  40  65  91 118 156 205 252 298 357
#     4  12  25  40  61  92 128 161 196 250 311 363
#     4  12  25  38  58  88 124 160 195 242 304 366
#
# _framework density 9.1449470000000002
#
# number of rings (size 3 to 8) (size 9 to 14) (size 15 to 20)
#    0.000    1.200    0.000    6.300    0.000   11.200 
#    0.000    1.000    0.000    0.000    0.000    0.000 
#    0.000    0.000    0.000    0.000    0.000    0.000 
#
# Total GULP energy -247829.388538 kJ/mol
# GULP energy per Si atom -12391.469427 kJ/mol
# Density = 0.912413 g / cm^3
# Si number density = 9.144947 Si / 1000 Ang^3
#
#
#
# Elastic Constant Matrix: (Units=GPa)
#
#
# Indices 1 2 3 4 5 6 
#
# 1 152.4896 74.7682 67.3528 0.0000 0.0000 0.0000
# 2 74.7682 224.4497 94.9885 0.0000 0.0000 0.0000
# 3 67.3528 94.9885 199.0994 0.0000 0.0000 0.0000
# 4 0.0000 0.0000 0.0000 57.6356 0.0000 0.0000
# 5 0.0000 0.0000 0.0000 0.0000 36.9547 0.0000
# 6 0.0000 0.0000 0.0000 0.0000 0.0000 43.5454
#
#
#
# Elastic Compliance Matrix: (Units=1/GPa)
#
#
# Indices 1 2 3 4 5 6 
#
# 1 0.008364 -0.001991 -0.001880 0.000000 0.000000 0.000000
# 2 -0.001991 0.006056 -0.002216 0.000000 0.000000 0.000000
# 3 -0.001880 -0.002216 0.006716 0.000000 0.000000 0.000000
# 4 0.000000 0.000000 0.000000 0.017350 0.000000 0.000000
# 5 0.000000 0.000000 0.000000 0.000000 0.027060 0.000000
# 6 0.000000 0.000000 0.000000 0.000000 0.000000 0.022965
#
#
# Mechanical properties :
#
#
# Convention : Reuss Voigt Hill
#
# Bulk Modulus (GPa) = 111.56571 116.69529 114.13050
# Shear Modulus (GPa) = 48.22906 50.22241 49.22573
#
# Velocity S-wave (km/s) = 5.14067 5.24583 5.19351
# Velocity P-wave (km/s) = 9.81663 10.03161 9.92471
#
# Compressibility (1/GPa) = 0.00896333
#
# Stress axis : x y z
#
# Youngs Moduli (GPa) = 119.55752 165.11721 148.90434
#
# Poissons Ratio (x) = 0.32871 0.27990
# Poissons Ratio (y) = 0.23801 0.32997
# Poissons Ratio (z) = 0.22474 0.36589
#
# Static dielectric constant tensor:
#      x y z
#    x 3.812670 0.000000 0.000000 
#    y 0.000000 4.221260 0.000000 
#    z 0.000000 0.000000 3.991910 
# 
# 
# High freq. dielectric constant tensor:
#      x y z
#    x 1.733320 0.000000 0.000000 
#    y 0.000000 1.771550 0.000000 
#    z 0.000000 0.000000 1.758070 
# 
# From -- ./inp_files/3513.got.cif
#   From: 2010.03.12/outbox.ucp.g09.slc.cvg/sg38_2_cif.got.tgz:3513.got - 2010.05.04 21:14:20.
