data_PCOD8180114
_publ_section_title
;
Structure prediction by ZEFSAII (Michael W. Deem and Ramdas Pophale) SiO2 
 PCOD8180114
Probable space group: A M M 2
;
_chemical_formula_sum "Si O2"
_cell_formula_units_Z 64
_cell_length_a 18.597293
_cell_length_b 14.831362
_cell_length_c 11.907600
_cell_angle_alpha 90.000000
_cell_angle_beta 90.000000
_cell_angle_gamma 90.000000
_cell_volume 3284.392154
_symmetry_space_group_name_H-M "A M M 2"
_symmetry_group_IT_number 38
_symmetry_cell_setting 'orthorhombic'
loop_
_space_group_symop_operation_xyz
x,y,z
-x,-y,z
-x,y,z
x,-y,z
x,1/2+y,1/2+z
-x,1/2-y,1/2+z
-x,1/2+y,1/2+z
x,1/2-y,1/2+z
loop_
_atom_site_type_symbol
_atom_site_label
_atom_site_fract_x
_atom_site_fract_y
_atom_site_fract_z
Si Si1 0.306581 0.828342 0.627050
Si Si2 0.813620 0.226406 0.014272
Si Si3 0.164572 0.398162 0.878613
Si Si4 0.719715 0.104035 0.862753
Si Si5 0.582190 0.301947 0.711469
Si Si6 0.916270 0.897081 0.153120
Si Si7 0.674558 0.099319 0.383558
Si Si8 0.421618 0.395108 0.485003
O O1 0.249605 0.747980 0.603232
O O2 0.277364 0.890465 0.728021
O O3 0.383235 0.788852 0.663428
O O4 0.319368 0.887387 0.516916
O O5 0.876852 0.170162 0.069652
O O6 0.847448 0.321473 0.972558
O O7 0.782141 0.167266 0.912022
O O8 0.153346 0.500000 0.928429
O O9 0.108856 0.379632 0.779706
O O10 0.245895 0.389618 0.830775
O O11 0.643435 0.143790 0.909561
O O12 0.731379 0.000000 0.899966
O O13 0.500000 0.282450 0.741172
O O14 0.621675 0.329963 0.826163
O O15 0.592008 0.378706 0.616974
O O16 0.000000 0.875648 0.145961
O O17 0.899181 0.000000 0.117876
O O18 0.643590 0.000000 0.361167
O O19 0.500000 0.352599 0.450812
O O20 0.424707 0.500000 0.462918
#
# Coordination Sequence:
#
# PCOD8180114 Si02
#       8
#     8   8   8   8   8   8   8   8
#     4  11  22  38  54  83 112 145 184 240 288 344
#     4  11  20  37  60  87 115 149 194 233 281 338
#     4   9  20  37  59  85 115 151 190 236 286 338
#     4  11  22  36  57  83 113 151 189 234 289 347
#     4  11  22  35  54  78 107 143 188 239 290 344
#     4  10  21  37  58  87 121 153 188 232 280 331
#     4  10  21  38  59  80 107 144 188 237 288 340
#     4   9  19  35  53  76 106 143 189 237 285 341
#
# _framework density 19.486101999999999
#
# number of rings (size 3 to 8) (size 9 to 14) (size 15 to 20)
#    0.000    1.750    1.250    4.125    0.000    2.750 
#    0.000    0.000    0.000    2.250    0.000    0.000 
#    0.000    0.000    0.000    0.000    0.000    0.000 
#
# Total GULP energy -396770.034662 kJ/mol
# GULP energy per Si atom -12399.063583 kJ/mol
# Density = 1.944175 g / cm^3
# Si number density = 19.486102 Si / 1000 Ang^3
#
#
#
# Elastic Constant Matrix: (Units=GPa)
#
#
# Indices 1 2 3 4 5 6 
#
# 1 96.3063 47.1643 39.2784 0.0000 0.0000 0.0000
# 2 47.1643 96.5427 32.3004 0.0000 0.0000 0.0000
# 3 39.2784 32.3004 89.1151 0.0000 0.0000 0.0000
# 4 0.0000 0.0000 0.0000 33.9358 0.0000 0.0000
# 5 0.0000 0.0000 0.0000 0.0000 17.6442 0.0000
# 6 0.0000 0.0000 0.0000 0.0000 0.0000 18.3219
#
#
#
# Elastic Compliance Matrix: (Units=1/GPa)
#
#
# Indices 1 2 3 4 5 6 
#
# 1 0.015103 -0.005862 -0.004532 0.000000 0.000000 0.000000
# 2 -0.005862 0.014063 -0.002513 0.000000 0.000000 0.000000
# 3 -0.004532 -0.002513 0.014130 0.000000 0.000000 0.000000
# 4 0.000000 0.000000 0.000000 0.029467 0.000000 0.000000
# 5 0.000000 0.000000 0.000000 0.000000 0.056676 0.000000
# 6 0.000000 0.000000 0.000000 0.000000 0.000000 0.054579
#
#
# Mechanical properties :
#
#
# Convention : Reuss Voigt Hill
#
# Bulk Modulus (GPa) = 57.20574 57.71671 57.46122
# Shear Modulus (GPa) = 23.18470 24.86178 24.02324
#
# Velocity S-wave (km/s) = 3.45310 3.57581 3.51499
# Velocity P-wave (km/s) = 6.73197 6.83610 6.78424
#
# Compressibility (1/GPa) = 0.01748076
#
# Stress axis : x y z
#
# Youngs Moduli (GPa) = 66.21359 71.10977 70.77150
#
# Poissons Ratio (x) = 0.41684 0.32073
# Poissons Ratio (y) = 0.38814 0.17788
# Poissons Ratio (z) = 0.30008 0.17873
#
# Static dielectric constant tensor:
#      x y z
#    x 3.579010 0.000000 0.000000 
#    y 0.000000 3.552060 0.000000 
#    z 0.000000 0.000000 3.426340 
# 
# 
# High freq. dielectric constant tensor:
#      x y z
#    x 1.743160 0.000000 0.000000 
#    y 0.000000 1.764700 0.000000 
#    z 0.000000 0.000000 1.752400 
# 
# From -- ./inp_files/10604.got.cif
#   From: 2010.03.12/outbox.cif.g09.slc.cpg/sg38_6_cif.got.tgz:10604.got - 2010.04.14 02:38:36.
