data_PCOD8180455
_publ_section_title
;
Structure prediction by ZEFSAII (Michael W. Deem and Ramdas Pophale) SiO2 
 PCOD8180455
Probable space group: A M M 2
;
_chemical_formula_sum "Si O2"
_cell_formula_units_Z 40
_cell_length_a 8.740480
_cell_length_b 11.669378
_cell_length_c 20.001892
_cell_angle_alpha 90.000000
_cell_angle_beta 90.000000
_cell_angle_gamma 90.000000
_cell_volume 2040.112277
_symmetry_space_group_name_H-M "A M M 2"
_symmetry_group_IT_number 38
_symmetry_cell_setting 'orthorhombic'
loop_
_space_group_symop_operation_xyz
x,y,z
-x,-y,z
-x,y,z
x,-y,z
x,1/2+y,1/2+z
-x,1/2-y,1/2+z
-x,1/2+y,1/2+z
x,1/2-y,1/2+z
loop_
_atom_site_type_symbol
_atom_site_label
_atom_site_fract_x
_atom_site_fract_y
_atom_site_fract_z
Si Si1 0.179817 0.631587 0.410080
Si Si2 0.681411 0.261280 0.785485
Si Si3 0.681556 0.628466 0.155978
Si Si4 0.828495 0.000000 0.296724
Si Si5 0.319284 0.279768 0.016256
Si Si6 0.172491 0.000000 0.454378
O O1 0.225308 0.500000 0.397769
O O2 0.254969 0.710627 0.354049
O O3 0.240258 0.668769 0.483224
O O4 0.000000 0.651073 0.407366
O O5 0.500000 0.262172 0.789684
O O6 0.742448 0.183461 0.724440
O O7 0.739561 0.388684 0.770963
O O8 0.500000 0.621146 0.156869
O O9 0.749885 0.500000 0.148682
O O10 0.733990 0.706583 0.093299
O O11 0.835728 0.000000 0.375647
O O12 0.000000 0.000000 0.266971
O O13 0.500000 0.266177 0.010253
O O14 0.267299 0.390575 0.976120
O O15 0.000000 0.000000 0.484328
#
# Coordination Sequence:
#
# PCOD8180455 Si02
#       6
#     8   8   8   4   8   4
#     4  11  24  41  59  84 123 159 193 239 293 351
#     4  11  22  38  64  90 116 152 199 246 291 345
#     4   9  19  37  60  89 120 147 186 245 298 341
#     4  11  23  39  59  85 124 157 190 241 294 350
#     4  11  21  37  64  90 116 150 196 245 291 344
#     4  11  21  35  59  89 122 151 186 237 294 350
#
# _framework density 19.606763999999998
#
# number of rings (size 3 to 8) (size 9 to 14) (size 15 to 20)
#    0.000    1.400    3.000    3.000    0.000    3.200 
#    1.800    4.000    0.000    0.000    0.000    0.000 
#    0.000    0.000    0.000    0.000    0.000    0.000 
#
# Total GULP energy -248038.723186 kJ/mol
# GULP energy per Si atom -12401.936159 kJ/mol
# Density = 1.956214 g / cm^3
# Si number density = 19.606764 Si / 1000 Ang^3
#
#
#
# Elastic Constant Matrix: (Units=GPa)
#
#
# Indices 1 2 3 4 5 6 
#
# 1 74.8228 44.9004 27.0427 0.0000 0.0000 0.0000
# 2 44.9004 124.9596 50.7069 0.0000 0.0000 0.0000
# 3 27.0427 50.7069 112.9854 0.0000 0.0000 0.0000
# 4 0.0000 0.0000 0.0000 18.3642 0.0000 0.0000
# 5 0.0000 0.0000 0.0000 0.0000 5.3577 0.0000
# 6 0.0000 0.0000 0.0000 0.0000 0.0000 40.6336
#
#
#
# Elastic Compliance Matrix: (Units=1/GPa)
#
#
# Indices 1 2 3 4 5 6 
#
# 1 0.017287 -0.005542 -0.001650 0.000000 0.000000 0.000000
# 2 -0.005542 0.011561 -0.003862 0.000000 0.000000 0.000000
# 3 -0.001650 -0.003862 0.010979 0.000000 0.000000 0.000000
# 4 0.000000 0.000000 0.000000 0.054454 0.000000 0.000000
# 5 0.000000 0.000000 0.000000 0.000000 0.186648 0.000000
# 6 0.000000 0.000000 0.000000 0.000000 0.000000 0.024610
#
#
# Mechanical properties :
#
#
# Convention : Reuss Voigt Hill
#
# Bulk Modulus (GPa) = 56.43873 62.00752 59.22313
# Shear Modulus (GPa) = 14.99006 25.54561 20.26784
#
# Velocity S-wave (km/s) = 2.76802 3.61348 3.21863
# Velocity P-wave (km/s) = 6.25010 7.00742 6.63957
#
# Compressibility (1/GPa) = 0.01771833
#
# Stress axis : x y z
#
# Youngs Moduli (GPa) = 57.84689 86.49733 91.08293
#
# Poissons Ratio (x) = 0.47935 0.15033
# Poissons Ratio (y) = 0.32058 0.35177
# Poissons Ratio (z) = 0.09547 0.33406
#
# Static dielectric constant tensor:
#      x y z
#    x 3.593820 0.000000 0.000000 
#    y 0.000000 3.802150 0.000000 
#    z 0.000000 0.000000 3.767300 
# 
# 
# High freq. dielectric constant tensor:
#      x y z
#    x 1.759140 0.000000 0.000000 
#    y 0.000000 1.768850 0.000000 
#    z 0.000000 0.000000 1.765090 
# 
# From -- ./inp_files/19503.got.cif
#   From: 2010.03.12/outbox.cif.g09.slc.cpg/sg38_10_cif.got.tgz:19503.got - 2010.04.14 02:38:36.
