data_PCOD8180960
_publ_section_title
;
Structure prediction by ZEFSAII (Michael W. Deem and Ramdas Pophale) SiO2 
 PCOD8180960
Probable space group: A B M 2
;
_chemical_formula_sum "Si O2"
_cell_formula_units_Z 64
_cell_length_a 14.317628
_cell_length_b 8.949683
_cell_length_c 30.840710
_cell_angle_alpha 90.000000
_cell_angle_beta 90.000000
_cell_angle_gamma 90.000000
_cell_volume 3951.874050
_symmetry_space_group_name_H-M "A B M 2"
_symmetry_group_IT_number 39
_symmetry_cell_setting 'orthorhombic'
loop_
_space_group_symop_operation_xyz
x,y,z
-x,-y,z
-x,1/2+y,z
x,1/2-y,z
x,1/2+y,1/2+z
-x,1/2-y,1/2+z
-x,y,1/2+z
x,-y,1/2+z
loop_
_atom_site_type_symbol
_atom_site_label
_atom_site_fract_x
_atom_site_fract_y
_atom_site_fract_z
Si Si1 0.098422 0.075598 0.550180
Si Si2 0.407783 0.924440 0.998306
Si Si3 0.099245 0.576448 0.804419
Si Si4 0.101895 0.427179 0.888208
Si Si5 0.100390 0.923515 0.708308
Si Si6 0.593579 0.926156 0.596716
Si Si7 0.210878 0.926997 0.133604
Si Si8 0.210252 0.423804 0.464201
O O1 0.081401 0.250000 0.553889
O O2 0.147637 0.016073 0.593683
O O3 0.163460 0.036165 0.509789
O O4 0.000000 0.000000 0.543172
O O5 0.425355 0.750000 0.999276
O O6 0.319576 0.963581 0.968223
O O7 0.500000 0.000000 0.978110
O O8 0.390137 0.981873 0.047374
O O9 0.089622 0.750000 0.816630
O O10 0.151095 0.490984 0.844014
O O11 0.144030 0.555347 0.756759
O O12 0.000000 0.500000 0.801248
O O13 0.091738 0.250000 0.885736
O O14 0.167824 0.470676 0.927763
O O15 0.000000 0.500000 0.894861
O O16 0.085859 0.750000 0.697588
O O17 0.176860 0.994016 0.677024
O O18 0.000000 0.000000 0.702179
O O19 0.581701 0.750000 0.598195
O O20 0.682300 0.976095 0.625251
O O21 0.500000 0.000000 0.616326
O O22 0.202859 0.750000 0.138913
O O23 0.194509 0.250000 0.452361
#
# Coordination Sequence:
#
# PCOD8180960 Si02
#       8
#     8   8   8   8   8   8   8   8
#     4  10  20  32  44  61  90 128 164 193 224 269
#     4   9  17  31  50  69  92 122 157 199 242 280
#     4   9  17  31  49  68  92 122 156 195 238 281
#     4  11  21  32  48  71  97 125 160 198 236 282
#     4  10  20  32  48  71  97 126 161 197 235 281
#     4   9  17  31  49  69  92 122 158 199 242 280
#     4  10  19  32  48  67  95 128 161 196 236 280
#     4  10  19  33  49  66  94 129 161 195 236 279
#
# _framework density 16.194848
#
# number of rings (size 3 to 8) (size 9 to 14) (size 15 to 20)
#    0.000    2.250    1.250    3.375    0.000    5.500 
#    0.000    0.000    0.000    0.000    0.000    0.875 
#    0.000    6.000    0.000    0.000    0.000    0.000 
#
# Total GULP energy -396695.026120 kJ/mol
# GULP energy per Si atom -12396.719566 kJ/mol
# Density = 1.615799 g / cm^3
# Si number density = 16.194848 Si / 1000 Ang^3
#
#
#
# Elastic Constant Matrix: (Units=GPa)
#
#
# Indices 1 2 3 4 5 6 
#
# 1 97.6822 44.1735 39.0209 0.0000 0.0000 0.0000
# 2 44.1735 76.8814 48.7423 0.0000 0.0000 0.0000
# 3 39.0209 48.7423 95.1901 0.0000 0.0000 0.0000
# 4 0.0000 0.0000 0.0000 25.0926 0.0000 0.0000
# 5 0.0000 0.0000 0.0000 0.0000 10.4313 0.0000
# 6 0.0000 0.0000 0.0000 0.0000 0.0000 26.6030
#
#
#
# Elastic Compliance Matrix: (Units=1/GPa)
#
#
# Indices 1 2 3 4 5 6 
#
# 1 0.014202 -0.006617 -0.002433 0.000000 0.000000 0.000000
# 2 -0.006617 0.022343 -0.008728 0.000000 0.000000 0.000000
# 3 -0.002433 -0.008728 0.015972 0.000000 0.000000 0.000000
# 4 0.000000 0.000000 0.000000 0.039852 0.000000 0.000000
# 5 0.000000 0.000000 0.000000 0.000000 0.095865 0.000000
# 6 0.000000 0.000000 0.000000 0.000000 0.000000 0.037590
#
#
# Mechanical properties :
#
#
# Convention : Reuss Voigt Hill
#
# Bulk Modulus (GPa) = 58.96476 59.29189 59.12833
# Shear Modulus (GPa) = 18.72426 21.61319 20.16873
#
# Velocity S-wave (km/s) = 3.40396 3.65714 3.53282
# Velocity P-wave (km/s) = 7.20680 7.38404 7.29595
#
# Compressibility (1/GPa) = 0.01695928
#
# Stress axis : x y z
#
# Youngs Moduli (GPa) = 70.41419 44.75768 62.60959
#
# Poissons Ratio (x) = 0.29617 0.15235
# Poissons Ratio (y) = 0.46594 0.54646
# Poissons Ratio (z) = 0.17134 0.39065
#
# Static dielectric constant tensor:
#      x y z
#    x 2.960140 0.000000 0.000000 
#    y 0.000000 3.053790 0.000000 
#    z 0.000000 0.000000 3.426240 
# 
# 
# High freq. dielectric constant tensor:
#      x y z
#    x 1.601090 0.000000 0.000000 
#    y 0.000000 1.626730 0.000000 
#    z 0.000000 0.000000 1.616290 
# 
# From -- ./inp_files/17968.got.cif
#   From: 2010.03.12/outbox.cif.g09.slc.cpg/sg39_9_cif.got.tgz:17968.got - 2010.04.14 02:53:20.
