data_PCOD8180252
_publ_section_title
;
Structure prediction by ZEFSAII (Michael W. Deem and Ramdas Pophale) SiO2 
 PCOD8180252
Probable space group: A M M 2
;
_chemical_formula_sum "Si O2"
_cell_formula_units_Z 40
_cell_length_a 8.832931
_cell_length_b 22.840324
_cell_length_c 10.009451
_cell_angle_alpha 90.000000
_cell_angle_beta 90.000000
_cell_angle_gamma 90.000000
_cell_volume 2019.376770
_symmetry_space_group_name_H-M "A M M 2"
_symmetry_group_IT_number 38
_symmetry_cell_setting 'orthorhombic'
loop_
_space_group_symop_operation_xyz
x,y,z
-x,-y,z
-x,y,z
x,-y,z
x,1/2+y,1/2+z
-x,1/2-y,1/2+z
-x,1/2+y,1/2+z
x,1/2-y,1/2+z
loop_
_atom_site_type_symbol
_atom_site_label
_atom_site_fract_x
_atom_site_fract_y
_atom_site_fract_z
Si Si1 0.825051 0.184872 0.421280
Si Si2 0.175750 0.882811 0.687238
Si Si3 0.673257 0.693198 0.407559
Si Si4 0.321020 0.500000 0.583252
Si Si5 0.673707 0.123723 0.178755
Si Si6 0.679558 0.500000 0.283182
O O1 0.790713 0.138732 0.537710
O O2 0.727405 0.242487 0.447133
O O3 0.782146 0.156057 0.281115
O O4 0.000000 0.203019 0.418090
O O5 0.227898 0.832096 0.787467
O O6 0.000000 0.895229 0.711144
O O7 0.266427 0.942585 0.705906
O O8 0.500000 0.695994 0.359651
O O9 0.691515 0.651855 0.534180
O O10 0.500000 0.500000 0.565802
O O11 0.269033 0.443151 0.665810
O O12 0.252271 0.500000 0.433450
O O13 0.500000 0.127420 0.228273
O O14 0.500000 0.500000 0.284782
#
# Coordination Sequence:
#
# PCOD8180252 Si02
#       6
#     8   8   8   4   8   4
#     4  11  25  41  57  86 128 164 200 247 301 363
#     4  11  24  41  62  91 127 163 200 247 304 363
#     4  11  22  39  65  92 119 157 207 254 298 358
#     4   9  18  38  63  90 118 146 193 251 298 349
#     4  10  21  39  64  91 120 154 198 252 303 357
#     4  11  21  40  67  92 120 156 205 255 298 355
#
# _framework density 19.808091999999998
#
# number of rings (size 3 to 8) (size 9 to 14) (size 15 to 20)
#    0.000    1.400    2.000    3.300    0.000    8.800 
#    0.000    2.500    0.000    0.000    0.000    0.000 
#    0.000    0.000    0.000    0.000    0.000    0.000 
#
# Total GULP energy -248116.787580 kJ/mol
# GULP energy per Si atom -12405.839379 kJ/mol
# Density = 1.976301 g / cm^3
# Si number density = 19.808092 Si / 1000 Ang^3
#
#
#
# Elastic Constant Matrix: (Units=GPa)
#
#
# Indices 1 2 3 4 5 6 
#
# 1 64.8544 30.8693 31.6815 0.0000 0.0000 0.0000
# 2 30.8693 110.8801 -1.8239 0.0000 0.0000 0.0000
# 3 31.6815 -1.8239 38.6226 0.0000 0.0000 0.0000
# 4 0.0000 0.0000 0.0000 14.0506 0.0000 0.0000
# 5 0.0000 0.0000 0.0000 0.0000 30.3513 0.0000
# 6 0.0000 0.0000 0.0000 0.0000 0.0000 32.2106
#
#
#
# Elastic Compliance Matrix: (Units=1/GPa)
#
#
# Indices 1 2 3 4 5 6 
#
# 1 0.034000 -0.009932 -0.028359 0.000000 0.000000 0.000000
# 2 -0.009932 0.011927 0.008710 0.000000 0.000000 0.000000
# 3 -0.028359 0.008710 0.049565 0.000000 0.000000 0.000000
# 4 0.000000 0.000000 0.000000 0.071171 0.000000 0.000000
# 5 0.000000 0.000000 0.000000 0.000000 0.032948 0.000000
# 6 0.000000 0.000000 0.000000 0.000000 0.000000 0.031046
#
#
# Mechanical properties :
#
#
# Convention : Reuss Voigt Hill
#
# Bulk Modulus (GPa) = 27.52435 37.31231 32.41833
# Shear Modulus (GPa) = 16.56027 25.56450 21.06238
#
# Velocity S-wave (km/s) = 2.89456 3.59640 3.26440
# Velocity P-wave (km/s) = 5.00969 6.01026 5.53264
#
# Compressibility (1/GPa) = 0.03633146
#
# Stress axis : x y z
#
# Youngs Moduli (GPa) = 29.41188 83.84216 20.17552
#
# Poissons Ratio (x) = 0.83273 0.57215
# Poissons Ratio (y) = 0.29212 -0.17574
# Poissons Ratio (z) = 0.83408 -0.73030
#
# Static dielectric constant tensor:
#      x y z
#    x 3.603370 0.000000 0.000000 
#    y 0.000000 4.044640 0.000000 
#    z 0.000000 0.000000 3.560410 
# 
# 
# High freq. dielectric constant tensor:
#      x y z
#    x 1.769960 0.000000 0.000000 
#    y 0.000000 1.789700 0.000000 
#    z 0.000000 0.000000 1.773730 
# 
# From -- ./inp_files/3528.got.cif
#   From: 2010.03.12/outbox.cif.g09.slc.cpg/sg38_2_cif.got.tgz:3528.got - 2010.04.14 02:38:36.
