data_PCOD8180056
_publ_section_title
;
Structure prediction by ZEFSAII (Michael W. Deem and Ramdas Pophale) SiO2 
 PCOD8180056
Probable space group: A M M 2
;
_chemical_formula_sum "Si O2"
_cell_formula_units_Z 48
_cell_length_a 7.524188
_cell_length_b 18.157387
_cell_length_c 17.311625
_cell_angle_alpha 90.000000
_cell_angle_beta 90.000000
_cell_angle_gamma 90.000000
_cell_volume 2365.107168
_symmetry_space_group_name_H-M "A M M 2"
_symmetry_group_IT_number 38
_symmetry_cell_setting 'orthorhombic'
loop_
_space_group_symop_operation_xyz
x,y,z
-x,-y,z
-x,y,z
x,-y,z
x,1/2+y,1/2+z
-x,1/2-y,1/2+z
-x,1/2+y,1/2+z
x,1/2-y,1/2+z
loop_
_atom_site_type_symbol
_atom_site_label
_atom_site_fract_x
_atom_site_fract_y
_atom_site_fract_z
Si Si1 0.788757 0.916672 0.838930
Si Si2 0.798621 0.086771 0.545893
Si Si3 0.209948 0.917967 0.009606
Si Si4 0.500000 0.413371 0.760253
Si Si5 0.789690 0.672585 0.194943
Si Si6 0.500000 0.912586 0.431589
Si Si7 0.789177 0.337734 0.662214
O O1 0.709191 0.860820 0.774593
O O2 0.000000 0.913582 0.836081
O O3 0.725259 0.000000 0.820748
O O4 0.719899 0.893256 0.924654
O O5 0.724503 0.122858 0.624059
O O6 0.677075 0.114677 0.475540
O O7 0.000000 0.112089 0.527635
O O8 0.786580 0.000000 0.558026
O O9 0.268191 0.859366 0.074699
O O10 0.000000 0.922473 0.006092
O O11 0.283706 0.000000 0.029807
O O12 0.500000 0.500000 0.765324
O O13 0.682175 0.390085 0.719394
O O14 0.500000 0.378559 0.846148
O O15 0.723594 0.755354 0.180095
O O16 0.000000 0.671165 0.199319
O O17 0.500000 0.000000 0.428534
O O18 0.000000 0.348872 0.675483
#
# Coordination Sequence:
#
# PCOD8180056 Si02
#       7
#     8   8   8   4   8   4   8
#     4   8  13  24  47  79 112 145 182 223 267 325
#     4   9  17  32  56  83 112 148 187 225 268 326
#     4   8  14  27  49  75 103 138 179 222 269 322
#     4  11  24  41  60  79 104 145 194 239 282 327
#     4   9  17  30  50  81 116 147 180 221 276 338
#     4   9  20  37  54  77 105 137 186 237 277 319
#     4  10  21  37  56  82 112 143 183 231 285 338
#
# _framework density 20.295062999999999
#
# number of rings (size 3 to 8) (size 9 to 14) (size 15 to 20)
#    0.000    3.000    0.000    2.000    0.000    4.333 
#    3.000    1.667    0.000    1.000    0.000    2.333 
#    0.000    0.000    0.000    0.000    0.000    0.000 
#
# Total GULP energy -297453.438041 kJ/mol
# GULP energy per Si atom -12393.893252 kJ/mol
# Density = 2.024887 g / cm^3
# Si number density = 20.295063 Si / 1000 Ang^3
#
#
#
# Elastic Constant Matrix: (Units=GPa)
#
#
# Indices 1 2 3 4 5 6 
#
# 1 66.9730 19.2917 43.8977 0.0000 0.0000 0.0000
# 2 19.2917 101.3718 85.3586 0.0000 0.0000 0.0000
# 3 43.8977 85.3586 208.3644 0.0000 0.0000 0.0000
# 4 0.0000 0.0000 0.0000 25.8574 0.0000 0.0000
# 5 0.0000 0.0000 0.0000 0.0000 9.1991 0.0000
# 6 0.0000 0.0000 0.0000 0.0000 0.0000 8.4347
#
#
#
# Elastic Compliance Matrix: (Units=1/GPa)
#
#
# Indices 1 2 3 4 5 6 
#
# 1 0.017331 -0.000342 -0.003511 0.000000 0.000000 0.000000
# 2 -0.000342 0.015066 -0.006100 0.000000 0.000000 0.000000
# 3 -0.003511 -0.006100 0.008038 0.000000 0.000000 0.000000
# 4 0.000000 0.000000 0.000000 0.038674 0.000000 0.000000
# 5 0.000000 0.000000 0.000000 0.000000 0.108706 0.000000
# 6 0.000000 0.000000 0.000000 0.000000 0.000000 0.118558
#
#
# Mechanical properties :
#
#
# Convention : Reuss Voigt Hill
#
# Bulk Modulus (GPa) = 48.71043 74.86725 61.78884
# Shear Modulus (GPa) = 15.00952 23.90900 19.45926
#
# Velocity S-wave (km/s) = 2.72245 3.43603 3.09984
# Velocity P-wave (km/s) = 5.82542 7.26025 6.58205
#
# Compressibility (1/GPa) = 0.02052949
#
# Stress axis : x y z
#
# Youngs Moduli (GPa) = 57.69895 66.37415 124.40911
#
# Poissons Ratio (x) = 0.02267 0.43685
# Poissons Ratio (y) = 0.01971 0.75890
# Poissons Ratio (z) = 0.20260 0.40488
#
# Static dielectric constant tensor:
#      x y z
#    x 3.371240 0.000000 0.000000 
#    y 0.000000 3.672110 0.000000 
#    z 0.000000 0.000000 4.161040 
# 
# 
# High freq. dielectric constant tensor:
#      x y z
#    x 1.773460 0.000000 0.000000 
#    y 0.000000 1.773100 0.000000 
#    z 0.000000 0.000000 1.800920 
# 
# From -- ./inp_files/12133.got.cif
#   From: 2010.03.12/outbox.cif.g09.slc.cpg/sg38_7_cif.got.tgz:12133.got - 2010.04.14 02:38:36.
