data_PCOD8180005
_publ_section_title
;
Structure prediction by ZEFSAII (Michael W. Deem and Ramdas Pophale) SiO2 
 PCOD8180005
Probable space group: A M M 2
;
_chemical_formula_sum "Si O2"
_cell_formula_units_Z 64
_cell_length_a 9.011555
_cell_length_b 24.671070
_cell_length_c 14.857230
_cell_angle_alpha 90.000000
_cell_angle_beta 90.000000
_cell_angle_gamma 90.000000
_cell_volume 3303.129265
_symmetry_space_group_name_H-M "A M M 2"
_symmetry_group_IT_number 38
_symmetry_cell_setting 'orthorhombic'
loop_
_space_group_symop_operation_xyz
x,y,z
-x,-y,z
-x,y,z
x,-y,z
x,1/2+y,1/2+z
-x,1/2-y,1/2+z
-x,1/2+y,1/2+z
x,1/2-y,1/2+z
loop_
_atom_site_type_symbol
_atom_site_label
_atom_site_fract_x
_atom_site_fract_y
_atom_site_fract_z
Si Si1 0.830819 0.261731 0.239760
Si Si2 0.172964 0.394034 0.464775
Si Si3 0.327389 0.563474 0.288482
Si Si4 0.674277 0.845554 0.266446
Si Si5 0.832367 0.726920 0.447999
Si Si6 0.671002 0.938724 0.133977
Si Si7 0.176106 0.869187 0.639893
Si Si8 0.674646 0.833615 0.469834
O O1 0.741203 0.207196 0.217882
O O2 0.809487 0.280286 0.341901
O O3 0.772555 0.311100 0.179232
O O4 0.000000 0.248671 0.216380
O O5 0.260037 0.406672 0.374180
O O6 0.200278 0.331371 0.492289
O O7 0.231529 0.431134 0.545160
O O8 0.000000 0.405701 0.447809
O O9 0.500000 0.578156 0.281669
O O10 0.300473 0.500000 0.299247
O O11 0.246110 0.582787 0.198130
O O12 0.500000 0.838206 0.264981
O O13 0.725899 0.899209 0.213572
O O14 0.728792 0.850334 0.369758
O O15 0.720392 0.771137 0.488375
O O16 0.000000 0.746201 0.469828
O O17 0.500000 0.926913 0.109012
O O18 0.691974 0.000000 0.168831
O O19 0.240915 0.873146 0.538963
O O20 0.000000 0.875948 0.639874
O O21 0.500000 0.840208 0.482760
#
# Coordination Sequence:
#
# PCOD8180005 Si02
#       8
#     8   8   8   8   8   8   8   8
#     4   9  18  34  55  80 111 147 185 228 281 342
#     4  11  22  37  58  86 119 155 193 237 291 352
#     4  11  24  41  61  86 118 156 198 244 291 345
#     4   9  20  38  58  82 112 149 195 242 294 345
#     4   9  18  35  54  79 115 153 189 225 278 346
#     4  10  22  40  59  81 112 151 197 246 294 347
#     4  11  22  38  59  86 119 157 196 238 291 351
#     4  10  21  36  56  85 118 152 194 244 293 347
#
# _framework density 19.375565000000002
#
# number of rings (size 3 to 8) (size 9 to 14) (size 15 to 20)
#    0.000    2.000    1.250    1.875    1.750    5.750 
#    0.000    0.625    0.000    2.250    0.000    0.000 
#    0.000    0.000    0.000    0.000    0.000    0.000 
#
# Total GULP energy -396899.750547 kJ/mol
# GULP energy per Si atom -12403.117205 kJ/mol
# Density = 1.933147 g / cm^3
# Si number density = 19.375565 Si / 1000 Ang^3
#
#
#
# Elastic Constant Matrix: (Units=GPa)
#
#
# Indices 1 2 3 4 5 6 
#
# 1 75.0073 31.8146 30.6962 0.0000 0.0000 0.0000
# 2 31.8146 72.6355 20.0921 0.0000 0.0000 0.0000
# 3 30.6962 20.0921 65.3970 0.0000 0.0000 0.0000
# 4 0.0000 0.0000 0.0000 31.8643 0.0000 0.0000
# 5 0.0000 0.0000 0.0000 0.0000 28.4040 0.0000
# 6 0.0000 0.0000 0.0000 0.0000 0.0000 21.1951
#
#
#
# Elastic Compliance Matrix: (Units=1/GPa)
#
#
# Indices 1 2 3 4 5 6 
#
# 1 0.018846 -0.006347 -0.006896 0.000000 0.000000 0.000000
# 2 -0.006347 0.017184 -0.002300 0.000000 0.000000 0.000000
# 3 -0.006896 -0.002300 0.019235 0.000000 0.000000 0.000000
# 4 0.000000 0.000000 0.000000 0.031383 0.000000 0.000000
# 5 0.000000 0.000000 0.000000 0.000000 0.035206 0.000000
# 6 0.000000 0.000000 0.000000 0.000000 0.000000 0.047181
#
#
# Mechanical properties :
#
#
# Convention : Reuss Voigt Hill
#
# Bulk Modulus (GPa) = 41.35983 42.02728 41.69355
# Shear Modulus (GPa) = 24.01751 24.98846 24.50299
#
# Velocity S-wave (km/s) = 3.52458 3.59512 3.56003
# Velocity P-wave (km/s) = 6.16087 6.24269 6.20191
#
# Compressibility (1/GPa) = 0.02417805
#
# Stress axis : x y z
#
# Youngs Moduli (GPa) = 53.06043 58.19460 51.98903
#
# Poissons Ratio (x) = 0.36937 0.35852
# Poissons Ratio (y) = 0.33679 0.11958
# Poissons Ratio (z) = 0.36591 0.13385
#
# Static dielectric constant tensor:
#      x y z
#    x 3.513660 0.000000 0.000000 
#    y 0.000000 3.507140 0.000000 
#    z 0.000000 0.000000 3.623230 
# 
# 
# High freq. dielectric constant tensor:
#      x y z
#    x 1.754500 0.000000 0.000000 
#    y 0.000000 1.745400 0.000000 
#    z 0.000000 0.000000 1.755290 
# 
# From -- ./inp_files/12728.got.cif
#   From: 2010.03.12/outbox.cif.g09.slc.cpg/sg38_7_cif.got.tgz:12728.got - 2010.04.14 02:38:36.
