data_PCOD8180404
_publ_section_title
;
Structure prediction by ZEFSAII (Michael W. Deem and Ramdas Pophale) SiO2 
 PCOD8180404
Probable space group: A M M 2
;
_chemical_formula_sum "Si O2"
_cell_formula_units_Z 40
_cell_length_a 10.328887
_cell_length_b 13.665907
_cell_length_c 12.152037
_cell_angle_alpha 90.000000
_cell_angle_beta 90.000000
_cell_angle_gamma 90.000000
_cell_volume 1715.303881
_symmetry_space_group_name_H-M "A M M 2"
_symmetry_group_IT_number 38
_symmetry_cell_setting 'orthorhombic'
loop_
_space_group_symop_operation_xyz
x,y,z
-x,-y,z
-x,y,z
x,-y,z
x,1/2+y,1/2+z
-x,1/2-y,1/2+z
-x,1/2+y,1/2+z
x,1/2-y,1/2+z
loop_
_atom_site_type_symbol
_atom_site_label
_atom_site_fract_x
_atom_site_fract_y
_atom_site_fract_z
Si Si1 0.354685 0.799529 0.694780
Si Si2 0.359810 0.886787 0.920196
Si Si3 0.151637 0.113208 0.529704
Si Si4 0.863716 0.110701 0.064163
Si Si5 0.254203 0.109193 0.288834
O O1 0.500000 0.819132 0.647024
O O2 0.322195 0.874614 0.793075
O O3 0.241130 0.817021 0.605728
O O4 0.356578 0.690918 0.749346
O O5 0.500000 0.836970 0.944020
O O6 0.369905 0.000000 0.949301
O O7 0.255715 0.835476 0.002067
O O8 0.187961 0.136442 0.403775
O O9 0.000000 0.136280 0.550121
O O10 0.181580 0.000000 0.556874
O O11 0.855967 0.110927 0.195704
O O12 0.000000 0.162443 0.031388
O O13 0.867193 0.000000 0.019717
O O14 0.318513 0.000000 0.293678
#
# Coordination Sequence:
#
# PCOD8180404 Si02
#       5
#     8   8   8   8   8
#     4  11  25  42  65  97 134 176 227 279 333 397
#     4   9  19  37  60  89 128 168 207 263 330 391
#     4  10  23  45  72 101 135 176 222 277 342 409
#     4   9  18  35  61  90 120 158 206 262 322 384
#     4  10  23  43  65  95 135 177 223 276 333 395
#
# _framework density 23.319483999999999
#
# number of rings (size 3 to 8) (size 9 to 14) (size 15 to 20)
#    0.000    2.200    0.000    1.200    2.800    8.000 
#    0.000    6.000    0.000    0.000    0.000    0.000 
#    0.000    0.000    0.000    0.000    0.000    0.000 
#
# Total GULP energy -247781.647457 kJ/mol
# GULP energy per Si atom -12389.082373 kJ/mol
# Density = 2.326641 g / cm^3
# Si number density = 23.319484 Si / 1000 Ang^3
#
#
#
# Elastic Constant Matrix: (Units=GPa)
#
#
# Indices 1 2 3 4 5 6 
#
# 1 189.9009 23.8170 106.7601 0.0000 0.0000 0.0000
# 2 23.8170 90.6663 30.3682 0.0000 0.0000 0.0000
# 3 106.7601 30.3682 145.9955 0.0000 0.0000 0.0000
# 4 0.0000 0.0000 0.0000 34.1574 0.0000 0.0000
# 5 0.0000 0.0000 0.0000 0.0000 43.2686 0.0000
# 6 0.0000 0.0000 0.0000 0.0000 0.0000 9.0398
#
#
#
# Elastic Compliance Matrix: (Units=1/GPa)
#
#
# Indices 1 2 3 4 5 6 
#
# 1 0.008944 -0.000171 -0.006505 0.000000 0.000000 0.000000
# 2 -0.000171 0.011859 -0.002342 0.000000 0.000000 0.000000
# 3 -0.006505 -0.002342 0.012094 0.000000 0.000000 0.000000
# 4 0.000000 0.000000 0.000000 0.029276 0.000000 0.000000
# 5 0.000000 0.000000 0.000000 0.000000 0.023111 0.000000
# 6 0.000000 0.000000 0.000000 0.000000 0.000000 0.110621
#
#
# Mechanical properties :
#
#
# Convention : Reuss Voigt Hill
#
# Bulk Modulus (GPa) = 67.28916 83.16147 75.22531
# Shear Modulus (GPa) = 22.84199 35.00099 28.92149
#
# Velocity S-wave (km/s) = 3.13313 3.87839 3.52551
# Velocity P-wave (km/s) = 6.48125 7.46961 6.99292
#
# Compressibility (1/GPa) = 0.01486123
#
# Stress axis : x y z
#
# Youngs Moduli (GPa) = 111.80115 84.32626 82.68837
#
# Poissons Ratio (x) = 0.01440 0.53790
# Poissons Ratio (y) = 0.01909 0.19364
# Poissons Ratio (z) = 0.72729 0.19748
#
# Static dielectric constant tensor:
#      x y z
#    x 4.337190 0.000000 0.000000 
#    y 0.000000 4.257040 0.000000 
#    z 0.000000 0.000000 4.092080 
# 
# 
# High freq. dielectric constant tensor:
#      x y z
#    x 1.915490 0.000000 0.000000 
#    y 0.000000 1.929190 0.000000 
#    z 0.000000 0.000000 1.916920 
# 
# From -- ./inp_files/11663.got.cif
#   From: 2010.03.12/outbox.cif.g09.slc.cpg/sg38_6_cif.got.tgz:11663.got - 2010.04.14 02:38:36.
