data_PCOD8180248
_publ_section_title
;
Structure prediction by ZEFSAII (Michael W. Deem and Ramdas Pophale) SiO2 
 PCOD8180248
Probable space group: A M M 2
;
_chemical_formula_sum "Si O2"
_cell_formula_units_Z 48
_cell_length_a 8.356174
_cell_length_b 30.024511
_cell_length_c 9.003369
_cell_angle_alpha 90.000000
_cell_angle_beta 90.000000
_cell_angle_gamma 90.000000
_cell_volume 2258.855592
_symmetry_space_group_name_H-M "A M M 2"
_symmetry_group_IT_number 38
_symmetry_cell_setting 'orthorhombic'
loop_
_space_group_symop_operation_xyz
x,y,z
-x,-y,z
-x,y,z
x,-y,z
x,1/2+y,1/2+z
-x,1/2-y,1/2+z
-x,1/2+y,1/2+z
x,1/2-y,1/2+z
loop_
_atom_site_type_symbol
_atom_site_label
_atom_site_fract_x
_atom_site_fract_y
_atom_site_fract_z
Si Si1 0.687438 0.449263 0.823730
Si Si2 0.814361 0.791322 0.987421
Si Si3 0.313452 0.872737 0.811208
Si Si4 0.183517 0.131219 0.489384
Si Si5 0.186304 0.448353 0.504226
Si Si6 0.316490 0.290257 0.806532
O O1 0.500000 0.443859 0.849334
O O2 0.744050 0.500000 0.848815
O O3 0.780284 0.419520 0.943281
O O4 0.731031 0.433867 0.657736
O O5 0.733205 0.836807 0.934541
O O6 0.725549 0.749840 0.915180
O O7 0.000000 0.790748 0.944222
O O8 0.796766 0.788091 0.163943
O O9 0.500000 0.871005 0.775219
O O10 0.217499 0.861993 0.662307
O O11 0.266791 0.921400 0.870696
O O12 0.293603 0.163548 0.392604
O O13 0.000000 0.143248 0.458626
O O14 0.216383 0.500000 0.469568
O O15 0.000000 0.436650 0.515407
O O16 0.500000 0.286461 0.755566
#
# Coordination Sequence:
#
# PCOD8180248 Si02
#       6
#     8   8   8   8   8   8
#     4  10  21  39  63  91 123 161 205 253 306 364
#     4  12  25  44  67  94 126 162 204 250 303 361
#     4  12  25  42  63  90 124 163 206 253 306 363
#     4  12  25  42  63  90 124 163 206 253 306 363
#     4  10  21  39  63  91 123 161 205 253 306 364
#     4  12  25  44  67  94 126 162 204 250 303 361
#
# _framework density 21.249700000000001
#
# number of rings (size 3 to 8) (size 9 to 14) (size 15 to 20)
#    0.000    0.667    0.000    9.000    0.000    2.667 
#    0.000    0.000    0.000    0.000    0.000    0.000 
#    0.000    0.000    0.000    0.000    0.000    0.000 
#
# Total GULP energy -297849.019400 kJ/mol
# GULP energy per Si atom -12410.375808 kJ/mol
# Density = 2.120133 g / cm^3
# Si number density = 21.249700 Si / 1000 Ang^3
#
#
#
# Elastic Constant Matrix: (Units=GPa)
#
#
# Indices 1 2 3 4 5 6 
#
# 1 99.0459 26.5117 5.8548 0.0000 0.0000 0.0000
# 2 26.5117 101.2453 40.4289 0.0000 0.0000 0.0000
# 3 5.8548 40.4289 105.5363 0.0000 0.0000 0.0000
# 4 0.0000 0.0000 0.0000 29.0586 0.0000 0.0000
# 5 0.0000 0.0000 0.0000 0.0000 38.7895 0.0000
# 6 0.0000 0.0000 0.0000 0.0000 0.0000 36.3676
#
#
#
# Elastic Compliance Matrix: (Units=1/GPa)
#
#
# Indices 1 2 3 4 5 6 
#
# 1 0.010887 -0.003081 0.000576 0.000000 0.000000 0.000000
# 2 -0.003081 0.012533 -0.004630 0.000000 0.000000 0.000000
# 3 0.000576 -0.004630 0.011217 0.000000 0.000000 0.000000
# 4 0.000000 0.000000 0.000000 0.034413 0.000000 0.000000
# 5 0.000000 0.000000 0.000000 0.000000 0.025780 0.000000
# 6 0.000000 0.000000 0.000000 0.000000 0.000000 0.027497
#
#
# Mechanical properties :
#
#
# Convention : Reuss Voigt Hill
#
# Bulk Modulus (GPa) = 49.09848 50.15758 49.62803
# Shear Modulus (GPa) = 34.87100 36.37862 35.62481
#
# Velocity S-wave (km/s) = 4.05533 4.14207 4.09893
# Velocity P-wave (km/s) = 6.71441 6.82135 6.76809
#
# Compressibility (1/GPa) = 0.02036723
#
# Stress axis : x y z
#
# Youngs Moduli (GPa) = 91.85319 79.79179 89.14938
#
# Poissons Ratio (x) = 0.24583 -0.05137
# Poissons Ratio (y) = 0.28299 0.41277
# Poissons Ratio (z) = -0.05293 0.36944
#
# Static dielectric constant tensor:
#      x y z
#    x 3.892220 0.000000 0.000000 
#    y 0.000000 3.986680 0.000000 
#    z 0.000000 0.000000 3.730940 
# 
# 
# High freq. dielectric constant tensor:
#      x y z
#    x 1.848360 0.000000 0.000000 
#    y 0.000000 1.845990 0.000000 
#    z 0.000000 0.000000 1.835550 
# 
# From -- ./inp_files/3762.got.cif
#   From: 2010.03.12/outbox.cif.g09.slc.cpg/sg38_2_cif.got.tgz:3762.got - 2010.04.14 02:38:36.
