data_PCOD8180969
_publ_section_title
;
Structure prediction by ZEFSAII (Michael W. Deem and Ramdas Pophale) SiO2 
 PCOD8180969
Probable space group: A B M 2
;
_chemical_formula_sum "Si O2"
_cell_formula_units_Z 56
_cell_length_a 15.576771
_cell_length_b 8.474956
_cell_length_c 20.465994
_cell_angle_alpha 90.000000
_cell_angle_beta 90.000000
_cell_angle_gamma 90.000000
_cell_volume 2701.765986
_symmetry_space_group_name_H-M "A B M 2"
_symmetry_group_IT_number 39
_symmetry_cell_setting 'orthorhombic'
loop_
_space_group_symop_operation_xyz
x,y,z
-x,-y,z
-x,1/2+y,z
x,1/2-y,z
x,1/2+y,1/2+z
-x,1/2-y,1/2+z
-x,y,1/2+z
x,-y,1/2+z
loop_
_atom_site_type_symbol
_atom_site_label
_atom_site_fract_x
_atom_site_fract_y
_atom_site_fract_z
Si Si1 0.687591 0.437319 0.003000
Si Si2 0.590827 0.437303 0.617172
Si Si3 0.268498 0.435345 0.362676
Si Si4 0.910496 0.433216 0.176809
Si Si5 0.270123 0.062929 0.220756
Si Si6 0.866648 0.933625 0.042888
Si Si7 0.084648 0.564868 0.908121
O O1 0.701429 0.250000 0.004436
O O2 0.604954 0.489683 0.044619
O O3 0.766913 0.521275 0.038133
O O4 0.680629 0.498144 0.927165
O O5 0.500000 0.500000 0.643356
O O6 0.590750 0.250000 0.613229
O O7 0.663913 0.503260 0.666633
O O8 0.279357 0.250000 0.362197
O O9 0.300500 0.502222 0.292653
O O10 0.168242 0.482129 0.367230
O O11 0.905533 0.250000 0.192227
O O12 0.827726 0.515101 0.208524
O O13 0.910443 0.464600 0.099478
O O14 0.000000 0.500000 0.206493
O O15 0.274037 0.250000 0.220088
O O16 0.874320 0.750000 0.060724
O O17 0.915114 0.972971 0.976530
O O18 0.081206 0.750000 0.921162
O O19 0.000000 0.500000 0.870471
#
# Coordination Sequence:
#
# PCOD8180969 Si02
#       7
#     8   8   8   8   8   8   8
#     4  10  19  36  62  90 120 151 192 241 298 358
#     4  11  23  39  65  94 123 157 198 248 304 363
#     4   8  18  36  59  83 114 158 196 239 298 357
#     4  12  24  37  55  82 118 161 207 253 303 354
#     4  10  21  41  63  87 121 160 203 247 300 358
#     4  11  20  33  53  80 114 152 196 247 302 353
#     4  10  19  32  50  76 110 151 199 250 300 352
#
# _framework density 20.727184000000001
#
# number of rings (size 3 to 8) (size 9 to 14) (size 15 to 20)
#    0.000    1.714    1.429    5.143    0.000    1.143 
#    0.000    6.429    0.000    1.714    0.000    0.000 
#    0.000    0.000    0.000    0.000    0.000    0.000 
#
# Total GULP energy -347081.462392 kJ/mol
# GULP energy per Si atom -12395.766514 kJ/mol
# Density = 2.068001 g / cm^3
# Si number density = 20.727184 Si / 1000 Ang^3
#
#
#
# Elastic Constant Matrix: (Units=GPa)
#
#
# Indices 1 2 3 4 5 6 
#
# 1 106.1870 12.8257 53.8077 0.0000 0.0000 0.0000
# 2 12.8257 43.4244 20.3221 0.0000 0.0000 0.0000
# 3 53.8077 20.3221 131.6218 0.0000 0.0000 0.0000
# 4 0.0000 0.0000 0.0000 18.1622 0.0000 0.0000
# 5 0.0000 0.0000 0.0000 0.0000 10.3335 0.0000
# 6 0.0000 0.0000 0.0000 0.0000 0.0000 31.2521
#
#
#
# Elastic Compliance Matrix: (Units=1/GPa)
#
#
# Indices 1 2 3 4 5 6 
#
# 1 0.011950 -0.001340 -0.004678 0.000000 0.000000 0.000000
# 2 -0.001340 0.024972 -0.003308 0.000000 0.000000 0.000000
# 3 -0.004678 -0.003308 0.010021 0.000000 0.000000 0.000000
# 4 0.000000 0.000000 0.000000 0.055060 0.000000 0.000000
# 5 0.000000 0.000000 0.000000 0.000000 0.096772 0.000000
# 6 0.000000 0.000000 0.000000 0.000000 0.000000 0.031998
#
#
# Mechanical properties :
#
#
# Convention : Reuss Voigt Hill
#
# Bulk Modulus (GPa) = 35.34748 50.57157 42.95952
# Shear Modulus (GPa) = 19.31582 24.90141 22.10861
#
# Velocity S-wave (km/s) = 3.05603 3.46987 3.26950
# Velocity P-wave (km/s) = 5.43536 6.36435 5.91811
#
# Compressibility (1/GPa) = 0.02829056
#
# Stress axis : x y z
#
# Youngs Moduli (GPa) = 83.68347 40.04424 99.79316
#
# Poissons Ratio (x) = 0.05366 0.46685
# Poissons Ratio (y) = 0.11215 0.33010
# Poissons Ratio (z) = 0.39149 0.13246
#
# Static dielectric constant tensor:
#      x y z
#    x 3.681330 0.000000 0.000000 
#    y 0.000000 3.524980 0.000000 
#    z 0.000000 0.000000 4.215950 
# 
# 
# High freq. dielectric constant tensor:
#      x y z
#    x 1.795450 0.000000 0.000000 
#    y 0.000000 1.798810 0.000000 
#    z 0.000000 0.000000 1.813690 
# 
# From -- ./inp_files/14798.got.cif
#   From: 2010.03.12/outbox.cif.g09.slc.cpg/sg39_8_cif.got.tgz:14798.got - 2010.04.14 02:53:20.
