data_PCOD8180326
_publ_section_title
;
Structure prediction by ZEFSAII (Michael W. Deem and Ramdas Pophale) SiO2 
 PCOD8180326
Probable space group: A M M 2
;
_chemical_formula_sum "Si O2"
_cell_formula_units_Z 40
_cell_length_a 9.591248
_cell_length_b 16.410106
_cell_length_c 12.667024
_cell_angle_alpha 90.000000
_cell_angle_beta 90.000000
_cell_angle_gamma 90.000000
_cell_volume 1993.705929
_symmetry_space_group_name_H-M "A M M 2"
_symmetry_group_IT_number 38
_symmetry_cell_setting 'orthorhombic'
loop_
_space_group_symop_operation_xyz
x,y,z
-x,-y,z
-x,y,z
x,-y,z
x,1/2+y,1/2+z
-x,1/2-y,1/2+z
-x,1/2+y,1/2+z
x,1/2-y,1/2+z
loop_
_atom_site_type_symbol
_atom_site_label
_atom_site_fract_x
_atom_site_fract_y
_atom_site_fract_z
Si Si1 0.836725 0.595814 0.349030
Si Si2 0.334935 0.671703 0.159227
Si Si3 0.649801 0.093895 0.450856
Si Si4 0.162131 0.178647 0.071373
Si Si5 0.150207 0.595181 0.779922
O O1 0.796650 0.500000 0.351478
O O2 0.744650 0.644683 0.264343
O O3 0.799783 0.636907 0.460743
O O4 0.000000 0.606189 0.321932
O O5 0.500000 0.685634 0.182548
O O6 0.266251 0.749081 0.101675
O O7 0.307958 0.600879 0.073197
O O8 0.500000 0.136428 0.434241
O O9 0.751241 0.138153 0.367015
O O10 0.641748 0.000000 0.420726
O O11 0.193836 0.110539 0.159844
O O12 0.000000 0.207141 0.072628
O O13 0.143978 0.500000 0.800207
O O14 0.000000 0.635441 0.801370
#
# Coordination Sequence:
#
# PCOD8180326 Si02
#       5
#     8   8   8   8   8
#     4  10  22  42  67  92 121 161 208 256 307 366
#     4  11  24  39  58  86 123 161 200 247 300 358
#     4   9  19  36  56  79 111 150 189 233 285 343
#     4  10  22  39  60  87 120 155 197 249 303 357
#     4   9  18  34  58  85 111 143 186 237 291 348
#
# _framework density 20.063137999999999
#
# number of rings (size 3 to 8) (size 9 to 14) (size 15 to 20)
#    0.000    2.200    0.000    1.800    2.800    6.800 
#    0.000    2.000    0.000    3.600    0.000    0.000 
#    0.000    0.000    0.000    0.000    0.000    0.000 
#
# Total GULP energy -247808.426878 kJ/mol
# GULP energy per Si atom -12390.421344 kJ/mol
# Density = 2.001747 g / cm^3
# Si number density = 20.063138 Si / 1000 Ang^3
#
#
#
# Elastic Constant Matrix: (Units=GPa)
#
#
# Indices 1 2 3 4 5 6 
#
# 1 113.6391 45.9471 94.6662 0.0000 0.0000 0.0000
# 2 45.9471 64.0811 35.9653 0.0000 0.0000 0.0000
# 3 94.6662 35.9653 180.2103 0.0000 0.0000 0.0000
# 4 0.0000 0.0000 0.0000 34.5310 0.0000 0.0000
# 5 0.0000 0.0000 0.0000 0.0000 1.1909 0.0000
# 6 0.0000 0.0000 0.0000 0.0000 0.0000 11.8823
#
#
#
# Elastic Compliance Matrix: (Units=1/GPa)
#
#
# Indices 1 2 3 4 5 6 
#
# 1 0.019590 -0.009314 -0.008432 0.000000 0.000000 0.000000
# 2 -0.009314 0.022002 0.000502 0.000000 0.000000 0.000000
# 3 -0.008432 0.000502 0.009878 0.000000 0.000000 0.000000
# 4 0.000000 0.000000 0.000000 0.028960 0.000000 0.000000
# 5 0.000000 0.000000 0.000000 0.000000 0.839682 0.000000
# 6 0.000000 0.000000 0.000000 0.000000 0.000000 0.084159
#
#
# Mechanical properties :
#
#
# Convention : Reuss Voigt Hill
#
# Bulk Modulus (GPa) = 58.88663 79.00973 68.94818
# Shear Modulus (GPa) = 4.78735 21.61097 13.19916
#
# Velocity S-wave (km/s) = 1.54639 3.28555 2.56770
# Velocity P-wave (km/s) = 5.70989 7.33888 6.57503
#
# Compressibility (1/GPa) = 0.01698178
#
# Stress axis : x y z
#
# Youngs Moduli (GPa) = 51.04740 45.45092 101.23201
#
# Poissons Ratio (x) = 0.42332 0.85357
# Poissons Ratio (y) = 0.47544 -0.05078
# Poissons Ratio (z) = 0.43042 -0.02280
#
# Static dielectric constant tensor:
#      x y z
#    x 4.209610 0.000000 0.000000 
#    y 0.000000 3.455270 0.000000 
#    z 0.000000 0.000000 3.924380 
# 
# 
# High freq. dielectric constant tensor:
#      x y z
#    x 1.784880 0.000000 0.000000 
#    y 0.000000 1.768960 0.000000 
#    z 0.000000 0.000000 1.799070 
# 
# From -- ./inp_files/7762.got.cif
#   From: 2010.03.12/outbox.cif.g09.slc.cpg/sg38_4_cif.got.tgz:7762.got - 2010.04.14 02:38:36.
