data_PCOD8180176
_publ_section_title
;
Structure prediction by ZEFSAII (Michael W. Deem and Ramdas Pophale) SiO2 
 PCOD8180176
Probable space group: A M M 2
;
_chemical_formula_sum "Si O2"
_cell_formula_units_Z 48
_cell_length_a 8.543621
_cell_length_b 18.609198
_cell_length_c 15.208995
_cell_angle_alpha 90.000000
_cell_angle_beta 90.000000
_cell_angle_gamma 90.000000
_cell_volume 2418.077124
_symmetry_space_group_name_H-M "A M M 2"
_symmetry_group_IT_number 38
_symmetry_cell_setting 'orthorhombic'
loop_
_space_group_symop_operation_xyz
x,y,z
-x,-y,z
-x,y,z
x,-y,z
x,1/2+y,1/2+z
-x,1/2-y,1/2+z
-x,1/2+y,1/2+z
x,1/2-y,1/2+z
loop_
_atom_site_type_symbol
_atom_site_label
_atom_site_fract_x
_atom_site_fract_y
_atom_site_fract_z
Si Si1 0.680481 0.581663 0.652080
Si Si2 0.314383 0.579362 0.142088
Si Si3 0.180986 0.583115 0.836372
Si Si4 0.321412 0.415422 0.338529
Si Si5 0.179678 0.166996 0.994722
Si Si6 0.316780 0.322146 0.985462
O O1 0.500000 0.589443 0.678490
O O2 0.719739 0.500000 0.623099
O O3 0.783199 0.604417 0.735876
O O4 0.715559 0.634259 0.571844
O O5 0.500000 0.574128 0.136703
O O6 0.243971 0.500000 0.122542
O O7 0.266262 0.604797 0.239836
O O8 0.250752 0.635197 0.070386
O O9 0.224850 0.500000 0.852258
O O10 0.288372 0.630772 0.899057
O O11 0.000000 0.598400 0.856338
O O12 0.500000 0.390320 0.354811
O O13 0.307168 0.500000 0.354102
O O14 0.207695 0.374715 0.404247
O O15 0.221008 0.249364 0.979042
O O16 0.000000 0.159027 0.021707
O O17 0.500000 0.305275 0.994065
#
# Coordination Sequence:
#
# PCOD8180176 Si02
#       6
#     8   8   8   8   8   8
#     4  10  21  39  63  87 110 144 193 240 282 338
#     4   8  16  33  59  87 109 134 176 230 279 323
#     4  10  21  38  60  87 118 149 184 232 290 345
#     4   9  18  36  61  85 109 140 183 233 282 338
#     4  12  25  38  53  79 118 155 188 233 289 341
#     4  11  22  37  58  83 114 152 194 234 276 336
#
# _framework density 19.850484999999999
#
# number of rings (size 3 to 8) (size 9 to 14) (size 15 to 20)
#    0.000    2.000    0.000    5.000    0.000    6.333 
#    0.000    6.667    0.000    2.000    0.000    0.000 
#    0.000    0.000    0.000    0.000    0.000    0.000 
#
# Total GULP energy -297687.257526 kJ/mol
# GULP energy per Si atom -12403.635730 kJ/mol
# Density = 1.980530 g / cm^3
# Si number density = 19.850485 Si / 1000 Ang^3
#
#
#
# Elastic Constant Matrix: (Units=GPa)
#
#
# Indices 1 2 3 4 5 6 
#
# 1 56.5568 19.0412 15.5414 0.0000 0.0000 0.0000
# 2 19.0412 82.7381 56.8540 0.0000 0.0000 0.0000
# 3 15.5414 56.8540 116.8732 0.0000 0.0000 0.0000
# 4 0.0000 0.0000 0.0000 17.2072 0.0000 0.0000
# 5 0.0000 0.0000 0.0000 0.0000 23.1543 0.0000
# 6 0.0000 0.0000 0.0000 0.0000 0.0000 17.2592
#
#
#
# Elastic Compliance Matrix: (Units=1/GPa)
#
#
# Indices 1 2 3 4 5 6 
#
# 1 0.019195 -0.004001 -0.000606 0.000000 0.000000 0.000000
# 2 -0.004001 0.018989 -0.008705 0.000000 0.000000 0.000000
# 3 -0.000606 -0.008705 0.012872 0.000000 0.000000 0.000000
# 4 0.000000 0.000000 0.000000 0.058115 0.000000 0.000000
# 5 0.000000 0.000000 0.000000 0.000000 0.043188 0.000000
# 6 0.000000 0.000000 0.000000 0.000000 0.000000 0.057940
#
#
# Mechanical properties :
#
#
# Convention : Reuss Voigt Hill
#
# Bulk Modulus (GPa) = 40.93210 48.78235 44.85722
# Shear Modulus (GPa) = 20.40251 22.50626 21.45439
#
# Velocity S-wave (km/s) = 3.20942 3.37083 3.29112
# Velocity P-wave (km/s) = 5.86505 6.30700 6.09004
#
# Compressibility (1/GPa) = 0.02443071
#
# Stress axis : x y z
#
# Youngs Moduli (GPa) = 52.09709 52.66192 77.68987
#
# Poissons Ratio (x) = 0.21070 0.04709
# Poissons Ratio (y) = 0.20844 0.67632
# Poissons Ratio (z) = 0.03158 0.45844
#
# Static dielectric constant tensor:
#      x y z
#    x 3.386430 0.000000 0.000000 
#    y 0.000000 3.623800 0.000000 
#    z 0.000000 0.000000 3.722660 
# 
# 
# High freq. dielectric constant tensor:
#      x y z
#    x 1.759900 0.000000 0.000000 
#    y 0.000000 1.769880 0.000000 
#    z 0.000000 0.000000 1.785480 
# 
# From -- ./inp_files/12008.got.cif
#   From: 2010.03.12/outbox.cif.g09.slc.cpg/sg38_7_cif.got.tgz:12008.got - 2010.04.14 02:38:36.
