data_PCOD8180662
_publ_section_title
;
Structure prediction by ZEFSAII (Michael W. Deem and Ramdas Pophale) SiO2 
 PCOD8180662
Probable space group: A B M 2
;
_chemical_formula_sum "Si O2"
_cell_formula_units_Z 64
_cell_length_a 20.716966
_cell_length_b 8.935928
_cell_length_c 18.641944
_cell_angle_alpha 90.000000
_cell_angle_beta 90.000000
_cell_angle_gamma 90.000000
_cell_volume 3451.095784
_symmetry_space_group_name_H-M "A B M 2"
_symmetry_group_IT_number 39
_symmetry_cell_setting 'orthorhombic'
loop_
_space_group_symop_operation_xyz
x,y,z
-x,-y,z
-x,1/2+y,z
x,1/2-y,z
x,1/2+y,1/2+z
-x,1/2-y,1/2+z
-x,y,1/2+z
x,-y,1/2+z
loop_
_atom_site_type_symbol
_atom_site_label
_atom_site_fract_x
_atom_site_fract_y
_atom_site_fract_z
Si Si1 0.812768 0.073460 0.331790
Si Si2 0.297715 0.079229 0.417362
Si Si3 0.563367 0.572578 0.080192
Si Si4 0.934095 0.074030 0.584656
Si Si5 0.065718 0.926231 0.420236
Si Si6 0.308273 0.074922 0.581659
Si Si7 0.440261 0.423515 0.426000
Si Si8 0.818973 0.925658 0.668404
O O1 0.813089 0.250000 0.336223
O O2 0.875160 0.009289 0.373439
O O3 0.814531 0.018755 0.250074
O O4 0.747310 0.020460 0.368350
O O5 0.274521 0.250000 0.411725
O O6 0.293431 0.025290 0.499932
O O7 0.371086 0.061566 0.386960
O O8 0.500000 0.500000 0.118637
O O9 0.559883 0.750000 0.086586
O O10 0.630254 0.513168 0.114690
O O11 0.564105 0.517906 0.998573
O O12 0.940593 0.250000 0.593707
O O13 0.921139 0.027589 0.502386
O O14 0.875884 0.015807 0.631895
O O15 0.000000 0.000000 0.612695
O O16 0.058418 0.750000 0.411409
O O17 0.000000 0.000000 0.391513
O O18 0.324845 0.250000 0.583532
O O19 0.247618 0.032097 0.630114
O O20 0.500000 0.500000 0.381431
O O21 0.455171 0.250000 0.442852
O O22 0.833676 0.750000 0.662403
#
# Coordination Sequence:
#
# PCOD8180662 Si02
#       8
#     8   8   8   8   8   8   8   8
#     4  10  21  35  51  74 103 133 166 204 247 296
#     4   9  18  31  49  73  99 130 168 208 248 293
#     4  10  17  26  44  71 101 130 163 206 255 303
#     4  10  20  35  56  79 103 132 166 206 248 294
#     4   9  19  35  54  77 102 128 163 203 243 291
#     4   9  18  33  51  72 100 133 170 210 252 299
#     4   9  16  27  44  70 101 130 164 206 253 301
#     4  10  21  36  53  74 103 136 168 207 252 297
#
# _framework density 18.544836
#
# number of rings (size 3 to 8) (size 9 to 14) (size 15 to 20)
#    0.000    2.500    0.000    4.125    0.000    5.000 
#    0.000    1.250    0.000    0.750    0.000    1.750 
#    0.000    0.000    0.000    0.000    0.000    0.000 
#
# Total GULP energy -396712.982989 kJ/mol
# GULP energy per Si atom -12397.280718 kJ/mol
# Density = 1.850263 g / cm^3
# Si number density = 18.544836 Si / 1000 Ang^3
#
#
#
# Elastic Constant Matrix: (Units=GPa)
#
#
# Indices 1 2 3 4 5 6 
#
# 1 175.3063 64.7229 71.3015 0.0000 0.0000 0.0000
# 2 64.7229 72.3390 33.2370 0.0000 0.0000 0.0000
# 3 71.3015 33.2370 81.3373 0.0000 0.0000 0.0000
# 4 0.0000 0.0000 0.0000 16.6147 0.0000 0.0000
# 5 0.0000 0.0000 0.0000 0.0000 -4.7708 0.0000
# 6 0.0000 0.0000 0.0000 0.0000 0.0000 40.0046
#
#
#
# Elastic Compliance Matrix: (Units=1/GPa)
#
#
# Indices 1 2 3 4 5 6 
#
# 1 0.010959 -0.006637 -0.006895 0.000000 0.000000 0.000000
# 2 -0.006637 0.021039 -0.002779 0.000000 0.000000 0.000000
# 3 -0.006895 -0.002779 0.019474 0.000000 0.000000 0.000000
# 4 0.000000 0.000000 0.000000 0.060188 0.000000 0.000000
# 5 0.000000 0.000000 0.000000 0.000000 -0.209608 0.000000
# 6 0.000000 0.000000 0.000000 0.000000 0.000000 0.024997
#
#
# Mechanical properties :
#
#
# Convention : Reuss Voigt Hill
#
# Bulk Modulus (GPa) = 53.04910 74.16728 63.60819
# Shear Modulus (GPa) = -146.86149 21.01778 -62.92185
#
# Velocity S-wave (km/s) = -8.90868 3.37018 -5.83123
# Velocity P-wave (km/s) = 8.78359 7.43132 3.31112
#
# Compressibility (1/GPa) = 0.01885046
#
# Stress axis : x y z
#
# Youngs Moduli (GPa) = 91.24877 47.53041 51.35077
#
# Poissons Ratio (x) = 0.31548 0.35404
# Poissons Ratio (y) = 0.60566 0.14269
# Poissons Ratio (z) = 0.62912 0.13208
#
# Static dielectric constant tensor:
#      x y z
#    x 4.046520 0.000000 0.000000 
#    y 0.000000 3.369270 0.000000 
#    z 0.000000 0.000000 3.169050 
# 
# 
# High freq. dielectric constant tensor:
#      x y z
#    x 1.743770 0.000000 0.000000 
#    y 0.000000 1.717800 0.000000 
#    z 0.000000 0.000000 1.676250 
# 
# From -- ./inp_files/13234.got.cif
#   From: 2010.03.12/outbox.cif.g09.slc.cpg/sg39_7_cif.got.tgz:13234.got - 2010.04.14 02:53:20.
