data_PCOD8180343
_publ_section_title
;
Structure prediction by ZEFSAII (Michael W. Deem and Ramdas Pophale) SiO2 
 PCOD8180343
Probable space group: A M M 2
;
_chemical_formula_sum "Si O2"
_cell_formula_units_Z 40
_cell_length_a 17.499876
_cell_length_b 8.729954
_cell_length_c 13.058161
_cell_angle_alpha 90.000000
_cell_angle_beta 90.000000
_cell_angle_gamma 90.000000
_cell_volume 1994.935899
_symmetry_space_group_name_H-M "A M M 2"
_symmetry_group_IT_number 38
_symmetry_cell_setting 'orthorhombic'
loop_
_space_group_symop_operation_xyz
x,y,z
-x,-y,z
-x,y,z
x,-y,z
x,1/2+y,1/2+z
-x,1/2-y,1/2+z
-x,1/2+y,1/2+z
x,1/2-y,1/2+z
loop_
_atom_site_type_symbol
_atom_site_label
_atom_site_fract_x
_atom_site_fract_y
_atom_site_fract_z
Si Si1 0.171947 0.264617 0.733960
Si Si2 0.299011 0.831896 0.380818
Si Si3 0.089025 0.500000 0.595667
Si Si4 0.703460 0.818555 0.088357
Si Si5 0.411173 0.680416 0.223759
Si Si6 0.908450 0.000000 0.859207
O O1 0.220431 0.357285 0.818332
O O2 0.113163 0.355399 0.662732
O O3 0.237694 0.211326 0.653614
O O4 0.123524 0.141387 0.795169
O O5 0.282510 0.712118 0.470252
O O6 0.367859 0.759182 0.317396
O O7 0.324151 0.000000 0.420899
O O8 0.121768 0.500000 0.478020
O O9 0.000000 0.500000 0.583077
O O10 0.618593 0.763080 0.119878
O O11 0.717356 0.000000 0.111801
O O12 0.500000 0.716023 0.235066
O O13 0.394618 0.500000 0.221184
O O14 0.000000 0.000000 0.856191
#
# Coordination Sequence:
#
# PCOD8180343 Si02
#       6
#     8   8   4   8   8   4
#     4  11  22  41  63  92 126 165 210 262 317 381
#     4  11  23  38  63  94 124 165 219 266 322 384
#     4  11  22  44  67  91 130 167 211 265 321 385
#     4  11  23  39  64  93 124 169 219 268 324 382
#     4  10  22  40  61  89 127 169 214 268 325 383
#     4  11  26  42  65  97 128 171 213 261 329 393
#
# _framework density 20.05077
#
# number of rings (size 3 to 8) (size 9 to 14) (size 15 to 20)
#    0.000    1.200    2.000    4.800    8.400    2.400 
#    0.000    0.000    0.000    4.800    0.000    0.000 
#    0.000    0.000    0.000    0.000    0.000    0.000 
#
# Total GULP energy -247768.592821 kJ/mol
# GULP energy per Si atom -12388.429641 kJ/mol
# Density = 2.000513 g / cm^3
# Si number density = 20.050770 Si / 1000 Ang^3
#
#
#
# Elastic Constant Matrix: (Units=GPa)
#
#
# Indices 1 2 3 4 5 6 
#
# 1 107.4375 50.8204 57.0315 0.0000 0.0000 0.0000
# 2 50.8204 108.5941 63.1017 0.0000 0.0000 0.0000
# 3 57.0315 63.1017 145.6006 0.0000 0.0000 0.0000
# 4 0.0000 0.0000 0.0000 37.0717 0.0000 0.0000
# 5 0.0000 0.0000 0.0000 0.0000 20.2488 0.0000
# 6 0.0000 0.0000 0.0000 0.0000 0.0000 18.7859
#
#
#
# Elastic Compliance Matrix: (Units=1/GPa)
#
#
# Indices 1 2 3 4 5 6 
#
# 1 0.013036 -0.004188 -0.003291 0.000000 0.000000 0.000000
# 2 -0.004188 0.013654 -0.004277 0.000000 0.000000 0.000000
# 3 -0.003291 -0.004277 0.010011 0.000000 0.000000 0.000000
# 4 0.000000 0.000000 0.000000 0.026975 0.000000 0.000000
# 5 0.000000 0.000000 0.000000 0.000000 0.049386 0.000000
# 6 0.000000 0.000000 0.000000 0.000000 0.000000 0.053231
#
#
# Mechanical properties :
#
#
# Convention : Reuss Voigt Hill
#
# Bulk Modulus (GPa) = 75.82552 78.17104 76.99828
# Shear Modulus (GPa) = 25.74657 27.93319 26.83988
#
# Velocity S-wave (km/s) = 3.58728 3.73651 3.66265
# Velocity P-wave (km/s) = 7.42004 7.59516 7.50811
#
# Compressibility (1/GPa) = 0.01318817
#
# Stress axis : x y z
#
# Youngs Moduli (GPa) = 76.71154 73.23933 99.89283
#
# Poissons Ratio (x) = 0.30675 0.32874
# Poissons Ratio (y) = 0.32129 0.42723
# Poissons Ratio (z) = 0.25246 0.31324
#
# Static dielectric constant tensor:
#      x y z
#    x 3.689380 0.000000 0.000000 
#    y 0.000000 3.686170 0.000000 
#    z 0.000000 0.000000 3.885300 
# 
# 
# High freq. dielectric constant tensor:
#      x y z
#    x 1.786620 0.000000 0.000000 
#    y 0.000000 1.778210 0.000000 
#    z 0.000000 0.000000 1.796320 
# 
# From -- ./inp_files/10395.got.cif
#   From: 2010.03.12/outbox.cif.g09.slc.cpg/sg38_6_cif.got.tgz:10395.got - 2010.04.14 02:38:36.
