data_PCOD8180967
_publ_section_title
;
Structure prediction by ZEFSAII (Michael W. Deem and Ramdas Pophale) SiO2 
 PCOD8180967
Probable space group: A B M 2
;
_chemical_formula_sum "Si O2"
_cell_formula_units_Z 64
_cell_length_a 17.682002
_cell_length_b 9.036508
_cell_length_c 22.856522
_cell_angle_alpha 90.000000
_cell_angle_beta 90.000000
_cell_angle_gamma 90.000000
_cell_volume 3652.096284
_symmetry_space_group_name_H-M "A B M 2"
_symmetry_group_IT_number 39
_symmetry_cell_setting 'orthorhombic'
loop_
_space_group_symop_operation_xyz
x,y,z
-x,-y,z
-x,1/2+y,z
x,1/2-y,z
x,1/2+y,1/2+z
-x,1/2-y,1/2+z
-x,y,1/2+z
x,-y,1/2+z
loop_
_atom_site_type_symbol
_atom_site_label
_atom_site_fract_x
_atom_site_fract_y
_atom_site_fract_z
Si Si1 0.156351 0.918520 0.078120
Si Si2 0.076095 0.420054 0.464849
Si Si3 0.730595 0.578090 0.298391
Si Si4 0.794844 0.086986 0.196467
Si Si5 0.364105 0.084368 0.631103
Si Si6 0.573420 0.077134 0.737230
Si Si7 0.223288 0.576846 0.415626
Si Si8 0.703328 0.919751 0.032463
O O1 0.189193 0.750000 0.070619
O O2 0.138925 0.945105 0.147859
O O3 0.214617 0.042835 0.057832
O O4 0.083852 0.935302 0.035706
O O5 0.071143 0.250000 0.445517
O O6 0.147102 0.490644 0.431659
O O7 0.000000 0.500000 0.444348
O O8 0.741464 0.750000 0.312445
O O9 0.791506 0.532770 0.248269
O O10 0.646343 0.540358 0.276509
O O11 0.744402 0.481028 0.354978
O O12 0.805301 0.250000 0.224750
O O13 0.719276 0.081837 0.157884
O O14 0.396981 0.250000 0.627706
O O15 0.418105 0.986543 0.671776
O O16 0.360764 0.017047 0.565186
O O17 0.559231 0.250000 0.732896
O O18 0.500000 0.000000 0.766475
O O19 0.203923 0.750000 0.411588
O O20 0.290493 0.548360 0.462938
O O21 0.684666 0.750000 0.045772
#
# Coordination Sequence:
#
# PCOD8180967 Si02
#       8
#     8   8   8   8   8   8   8   8
#     4   8  15  27  44  66  92 122 152 186 233 287
#     4  10  19  32  50  73 101 130 163 204 251 303
#     4  10  20  32  48  72  99 129 168 212 252 295
#     4   8  14  26  44  66  91 119 152 189 232 282
#     4   9  16  27  45  68  94 123 152 186 234 287
#     4  10  20  33  50  73 100 129 163 204 252 303
#     4  10  20  33  50  72  98 132 172 212 252 295
#     4   9  16  26  43  68  94 118 150 193 237 282
#
# _framework density 17.524183000000001
#
# number of rings (size 3 to 8) (size 9 to 14) (size 15 to 20)
#    0.000    2.750    0.000    3.000    0.000    6.500 
#    0.000    0.000    0.000    1.500    0.000    5.250 
#    0.000    0.000    0.000    0.000    0.000    0.000 
#
# Total GULP energy -396523.972405 kJ/mol
# GULP energy per Si atom -12391.374138 kJ/mol
# Density = 1.748430 g / cm^3
# Si number density = 17.524183 Si / 1000 Ang^3
#
#
#
# Elastic Constant Matrix: (Units=GPa)
#
#
# Indices 1 2 3 4 5 6 
#
# 1 54.2339 38.2196 30.7543 0.0000 0.0000 0.0000
# 2 38.2196 110.9312 58.1236 0.0000 0.0000 0.0000
# 3 30.7543 58.1236 107.1047 0.0000 0.0000 0.0000
# 4 0.0000 0.0000 0.0000 29.3525 0.0000 0.0000
# 5 0.0000 0.0000 0.0000 0.0000 14.6408 0.0000
# 6 0.0000 0.0000 0.0000 0.0000 0.0000 23.7420
#
#
#
# Elastic Compliance Matrix: (Units=1/GPa)
#
#
# Indices 1 2 3 4 5 6 
#
# 1 0.025275 -0.006855 -0.003538 0.000000 0.000000 0.000000
# 2 -0.006855 0.014455 -0.005876 0.000000 0.000000 0.000000
# 3 -0.003538 -0.005876 0.013541 0.000000 0.000000 0.000000
# 4 0.000000 0.000000 0.000000 0.034069 0.000000 0.000000
# 5 0.000000 0.000000 0.000000 0.000000 0.068302 0.000000
# 6 0.000000 0.000000 0.000000 0.000000 0.000000 0.042119
#
#
# Mechanical properties :
#
#
# Convention : Reuss Voigt Hill
#
# Bulk Modulus (GPa) = 48.22835 58.49607 53.36221
# Shear Modulus (GPa) = 21.07828 23.22524 22.15176
#
# Velocity S-wave (km/s) = 3.47192 3.64445 3.55923
# Velocity P-wave (km/s) = 6.60705 7.15276 6.88531
#
# Compressibility (1/GPa) = 0.02073469
#
# Stress axis : x y z
#
# Youngs Moduli (GPa) = 39.56422 69.17939 73.84738
#
# Poissons Ratio (x) = 0.47420 0.26126
# Poissons Ratio (y) = 0.27120 0.43395
# Poissons Ratio (z) = 0.13997 0.40652
#
# Static dielectric constant tensor:
#      x y z
#    x 2.957150 0.000000 0.000000 
#    y 0.000000 3.379140 0.000000 
#    z 0.000000 0.000000 3.382000 
# 
# 
# High freq. dielectric constant tensor:
#      x y z
#    x 1.629040 0.000000 0.000000 
#    y 0.000000 1.693360 0.000000 
#    z 0.000000 0.000000 1.670280 
# 
# From -- ./inp_files/16324.got.cif
#   From: 2010.03.12/outbox.cif.g09.slc.cpg/sg39_9_cif.got.tgz:16324.got - 2010.04.14 02:53:20.
