data_PCOD8180810
_publ_section_title
;
Structure prediction by ZEFSAII (Michael W. Deem and Ramdas Pophale) SiO2 
 PCOD8180810
Probable space group: A B M 2
;
_chemical_formula_sum "Si O2"
_cell_formula_units_Z 56
_cell_length_a 19.579936
_cell_length_b 9.070980
_cell_length_c 15.470442
_cell_angle_alpha 90.000000
_cell_angle_beta 90.000000
_cell_angle_gamma 90.000000
_cell_volume 2747.692949
_symmetry_space_group_name_H-M "A B M 2"
_symmetry_group_IT_number 39
_symmetry_cell_setting 'orthorhombic'
loop_
_space_group_symop_operation_xyz
x,y,z
-x,-y,z
-x,1/2+y,z
x,1/2-y,z
x,1/2+y,1/2+z
-x,1/2-y,1/2+z
-x,y,1/2+z
x,-y,1/2+z
loop_
_atom_site_type_symbol
_atom_site_label
_atom_site_fract_x
_atom_site_fract_y
_atom_site_fract_z
Si Si1 0.299636 0.420113 0.544860
Si Si2 0.566016 0.583705 0.061206
Si Si3 0.712448 0.073579 0.365205
Si Si4 0.839258 0.923983 0.290013
Si Si5 0.072024 0.922917 0.953358
Si Si6 0.436551 0.912059 0.355148
Si Si7 0.155573 0.581723 0.120927
O O1 0.316625 0.250000 0.522971
O O2 0.365628 0.496015 0.588478
O O3 0.275916 0.502028 0.458413
O O4 0.237187 0.431856 0.611322
O O5 0.500000 0.500000 0.100184
O O6 0.569017 0.750000 0.098058
O O7 0.560759 0.587057 0.958337
O O8 0.717212 0.250000 0.373944
O O9 0.637845 0.026017 0.327870
O O10 0.768334 0.010824 0.300307
O O11 0.825876 0.750000 0.290894
O O12 0.891019 0.972354 0.365228
O O13 0.870077 0.976543 0.198442
O O14 0.059854 0.750000 0.953388
O O15 0.118624 0.972208 0.033766
O O16 0.000000 0.000000 0.960593
O O17 0.445492 0.750000 0.317434
O O18 0.500000 0.000000 0.314612
O O19 0.135177 0.750000 0.142137
#
# Coordination Sequence:
#
# PCOD8180810 Si02
#       7
#     8   8   8   8   8   8   8
#     4  10  18  32  54  79 114 155 196 250 305 354
#     4   9  16  26  42  71 108 148 198 248 300 359
#     4  10  19  32  53  81 114 154 201 247 299 358
#     4  11  23  40  62  91 123 157 202 247 294 354
#     4  10  23  44  66  92 125 158 195 239 292 353
#     4   8  15  25  40  68 104 143 189 239 288 346
#     4  10  22  41  62  88 124 160 198 243 297 354
#
# _framework density 20.380732999999999
#
# number of rings (size 3 to 8) (size 9 to 14) (size 15 to 20)
#    0.000    2.286    1.429    2.571    0.000    7.429 
#    0.000    2.857    0.000    0.857    0.000    4.000 
#    0.000    0.000    0.000    0.000    0.000    0.000 
#
# Total GULP energy -347177.062434 kJ/mol
# GULP energy per Si atom -12399.180801 kJ/mol
# Density = 2.033435 g / cm^3
# Si number density = 20.380733 Si / 1000 Ang^3
#
#
#
# Elastic Constant Matrix: (Units=GPa)
#
#
# Indices 1 2 3 4 5 6 
#
# 1 139.4213 57.4899 41.9598 0.0000 0.0000 0.0000
# 2 57.4899 105.0467 41.3607 0.0000 0.0000 0.0000
# 3 41.9598 41.3607 87.9934 0.0000 0.0000 0.0000
# 4 0.0000 0.0000 0.0000 26.1306 0.0000 0.0000
# 5 0.0000 0.0000 0.0000 0.0000 4.4751 0.0000
# 6 0.0000 0.0000 0.0000 0.0000 0.0000 39.3772
#
#
#
# Elastic Compliance Matrix: (Units=1/GPa)
#
#
# Indices 1 2 3 4 5 6 
#
# 1 0.009732 -0.004294 -0.002623 0.000000 0.000000 0.000000
# 2 -0.004294 0.013576 -0.004334 0.000000 0.000000 0.000000
# 3 -0.002623 -0.004334 0.014652 0.000000 0.000000 0.000000
# 4 0.000000 0.000000 0.000000 0.038269 0.000000 0.000000
# 5 0.000000 0.000000 0.000000 0.000000 0.223457 0.000000
# 6 0.000000 0.000000 0.000000 0.000000 0.000000 0.025395
#
#
# Mechanical properties :
#
#
# Convention : Reuss Voigt Hill
#
# Bulk Modulus (GPa) = 64.68271 68.23133 66.45702
# Shear Modulus (GPa) = 14.17492 26.77333 20.47413
#
# Velocity S-wave (km/s) = 2.64011 3.62838 3.17295
# Velocity P-wave (km/s) = 6.41090 7.14874 6.78985
#
# Compressibility (1/GPa) = 0.01546008
#
# Stress axis : x y z
#
# Youngs Moduli (GPa) = 102.75087 73.66072 68.24929
#
# Poissons Ratio (x) = 0.31627 0.17899
# Poissons Ratio (y) = 0.44117 0.29578
# Poissons Ratio (z) = 0.26948 0.31923
#
# Static dielectric constant tensor:
#      x y z
#    x 3.808580 0.000000 0.000000 
#    y 0.000000 3.742020 0.000000 
#    z 0.000000 0.000000 3.365280 
# 
# 
# High freq. dielectric constant tensor:
#      x y z
#    x 1.800740 0.000000 0.000000 
#    y 0.000000 1.798370 0.000000 
#    z 0.000000 0.000000 1.770150 
# 
# From -- ./inp_files/10365.got.cif
#   From: 2010.03.12/outbox.cif.g09.slc.cpg/sg39_6_cif.got.tgz:10365.got - 2010.04.14 02:53:20.
