data_PCOD8180633
_publ_section_title
;
Structure prediction by ZEFSAII (Michael W. Deem and Ramdas Pophale) SiO2 
 PCOD8180633
Probable space group: A B M 2
;
_chemical_formula_sum "Si O2"
_cell_formula_units_Z 64
_cell_length_a 20.902839
_cell_length_b 9.128204
_cell_length_c 19.002203
_cell_angle_alpha 90.000000
_cell_angle_beta 90.000000
_cell_angle_gamma 90.000000
_cell_volume 3625.722537
_symmetry_space_group_name_H-M "A B M 2"
_symmetry_group_IT_number 39
_symmetry_cell_setting 'orthorhombic'
loop_
_space_group_symop_operation_xyz
x,y,z
-x,-y,z
-x,1/2+y,z
x,1/2-y,z
x,1/2+y,1/2+z
-x,1/2-y,1/2+z
-x,y,1/2+z
x,-y,1/2+z
loop_
_atom_site_type_symbol
_atom_site_label
_atom_site_fract_x
_atom_site_fract_y
_atom_site_fract_z
Si Si1 0.058518 0.088963 0.020210
Si Si2 0.563863 0.421540 0.255220
Si Si3 0.192929 0.919214 0.499107
Si Si4 0.436427 0.920981 0.093680
Si Si5 0.315576 0.079645 0.844664
Si Si6 0.062717 0.418025 0.852098
Si Si7 0.332193 0.085331 0.009294
Si Si8 0.189406 0.576160 0.854971
O O1 0.041358 0.250000 0.044615
O O2 0.130277 0.045710 0.047683
O O3 0.062018 0.072563 0.936335
O O4 0.000000 0.000000 0.053787
O O5 0.500000 0.500000 0.283309
O O6 0.553238 0.250000 0.265179
O O7 0.576997 0.464095 0.174335
O O8 0.623947 0.477480 0.300273
O O9 0.186593 0.750000 0.469739
O O10 0.259934 0.933216 0.540677
O O11 0.193911 0.036029 0.436772
O O12 0.446742 0.750000 0.083942
O O13 0.500000 0.000000 0.065542
O O14 0.376622 0.969335 0.047313
O O15 0.301641 0.250000 0.829861
O O16 0.253719 0.987802 0.818782
O O17 0.330937 0.052753 0.926374
O O18 0.062593 0.250000 0.826266
O O19 0.125777 0.500681 0.822465
O O20 0.000000 0.500000 0.821964
O O21 0.357273 0.250000 0.023705
O O22 0.185412 0.750000 0.844451
#
# Coordination Sequence:
#
# PCOD8180633 Si02
#       8
#     8   8   8   8   8   8   8   8
#     4   8  13  20  31  48  72 105 143 178 212 253
#     4   9  19  35  53  70  90 118 150 185 225 269
#     4   8  15  27  39  53  80 117 150 181 221 266
#     4  10  20  34  51  70  92 118 148 183 224 271
#     4   9  18  33  49  66  91 122 153 185 226 272
#     4   9  15  23  34  50  76 112 151 188 225 267
#     4   9  17  30  48  68  91 120 151 185 226 270
#     4  10  17  24  37  59  85 114 148 185 226 270
#
# _framework density 17.651655000000002
#
# number of rings (size 3 to 8) (size 9 to 14) (size 15 to 20)
#    0.000    3.000    0.000    3.375    0.000    6.500 
#    0.000    1.250    0.000    0.000    0.000    0.000 
#    0.000    1.000    0.000    6.750    0.000   12.000 
#
# Total GULP energy -396542.867875 kJ/mol
# GULP energy per Si atom -12391.964621 kJ/mol
# Density = 1.761148 g / cm^3
# Si number density = 17.651655 Si / 1000 Ang^3
#
#
#
# Elastic Constant Matrix: (Units=GPa)
#
#
# Indices 1 2 3 4 5 6 
#
# 1 189.5802 78.1102 37.1988 0.0000 0.0000 0.0000
# 2 78.1102 101.6650 20.3687 0.0000 0.0000 0.0000
# 3 37.1988 20.3687 22.4236 0.0000 0.0000 0.0000
# 4 0.0000 0.0000 0.0000 12.3479 0.0000 0.0000
# 5 0.0000 0.0000 0.0000 0.0000 0.0151 0.0000
# 6 0.0000 0.0000 0.0000 0.0000 0.0000 38.5626
#
#
#
# Elastic Compliance Matrix: (Units=1/GPa)
#
#
# Indices 1 2 3 4 5 6 
#
# 1 0.009592 -0.005112 -0.011269 0.000000 0.000000 0.000000
# 2 -0.005112 0.014749 -0.004917 0.000000 0.000000 0.000000
# 3 -0.011269 -0.004917 0.067757 0.000000 0.000000 0.000000
# 4 0.000000 0.000000 0.000000 0.080985 0.000000 0.000000
# 5 0.000000 0.000000 0.000000 0.000000 66.427201 0.000000
# 6 0.000000 0.000000 0.000000 0.000000 0.000000 0.025932
#
#
# Mechanical properties :
#
#
# Convention : Reuss Voigt Hill
#
# Bulk Modulus (GPa) = 20.20133 65.00269 42.60201
# Shear Modulus (GPa) = 0.07498 22.05118 11.06308
#
# Velocity S-wave (km/s) = 0.20632 3.53830 2.50620
# Velocity P-wave (km/s) = 3.39500 7.32106 5.70631
#
# Compressibility (1/GPa) = 0.04950169
#
# Stress axis : x y z
#
# Youngs Moduli (GPa) = 104.25089 67.80127 14.75868
#
# Poissons Ratio (x) = 0.34660 0.16632
# Poissons Ratio (y) = 0.53293 0.07257
# Poissons Ratio (z) = 1.17481 0.33338
#
# Static dielectric constant tensor:
#      x y z
#    x 3.811550 0.000000 0.000000 
#    y 0.000000 3.246210 0.000000 
#    z 0.000000 0.000000 2.656110 
# 
# 
# High freq. dielectric constant tensor:
#      x y z
#    x 1.710840 0.000000 0.000000 
#    y 0.000000 1.683370 0.000000 
#    z 0.000000 0.000000 1.603290 
# 
# From -- ./inp_files/15051.got.cif
#   From: 2010.03.12/outbox.cif.g09.slc.cpg/sg39_8_cif.got.tgz:15051.got - 2010.04.14 02:53:20.
