data_PCOD8180215
_publ_section_title
;
Structure prediction by ZEFSAII (Michael W. Deem and Ramdas Pophale) SiO2 
 PCOD8180215
Probable space group: A M M 2
;
_chemical_formula_sum "Si O2"
_cell_formula_units_Z 64
_cell_length_a 22.041325
_cell_length_b 15.309970
_cell_length_c 9.531229
_cell_angle_alpha 90.000000
_cell_angle_beta 90.000000
_cell_angle_gamma 90.000000
_cell_volume 3216.332522
_symmetry_space_group_name_H-M "A M M 2"
_symmetry_group_IT_number 38
_symmetry_cell_setting 'orthorhombic'
loop_
_space_group_symop_operation_xyz
x,y,z
-x,-y,z
-x,y,z
x,-y,z
x,1/2+y,1/2+z
-x,1/2-y,1/2+z
-x,1/2+y,1/2+z
x,1/2-y,1/2+z
loop_
_atom_site_type_symbol
_atom_site_label
_atom_site_fract_x
_atom_site_fract_y
_atom_site_fract_z
Si Si1 0.172569 0.097098 0.220440
Si Si2 0.650706 0.242617 0.559435
Si Si3 0.739183 0.249271 0.808858
Si Si4 0.068590 0.338385 0.223058
Si Si5 0.430430 0.096469 0.462362
Si Si6 0.172051 0.596931 0.399635
Si Si7 0.931337 0.838297 0.396835
Si Si8 0.430467 0.899082 0.136423
O O1 0.220931 0.165983 0.276228
O O2 0.113665 0.094464 0.321310
O O3 0.201393 0.000000 0.226886
O O4 0.153988 0.120221 0.060159
O O5 0.695111 0.225440 0.685330
O O6 0.694343 0.227963 0.431181
O O7 0.601256 0.166209 0.562244
O O8 0.616579 0.336393 0.555229
O O9 0.780602 0.166495 0.841946
O O10 0.112996 0.406088 0.299310
O O11 0.076003 0.250057 0.310000
O O12 0.000000 0.374225 0.232531
O O13 0.087008 0.323960 0.059972
O O14 0.500000 0.096014 0.506504
O O15 0.423279 0.122538 0.300037
O O16 0.402633 0.000000 0.487580
O O17 0.201035 0.500000 0.393390
O O18 0.000000 0.874202 0.386817
O O19 0.500000 0.880916 0.089014
O O20 0.413668 0.000000 0.104697
#
# Coordination Sequence:
#
# PCOD8180215 Si02
#       8
#     8   8   8   8   8   8   8   8
#     4  11  25  44  65  89 123 166 212 261 315 375
#     4  12  23  40  65  91 124 163 211 254 299 366
#     4  12  26  42  61  89 124 167 212 257 304 359
#     4  10  21  38  64  95 126 160 202 256 317 379
#     4   9  19  38  64  95 128 160 200 250 305 365
#     4  11  25  44  64  89 125 165 209 262 318 373
#     4  10  21  38  64  95 125 159 203 257 317 378
#     4   9  19  38  65  95 126 162 203 247 303 369
#
# _framework density 19.898440000000001
#
# number of rings (size 3 to 8) (size 9 to 14) (size 15 to 20)
#    0.000    1.500    3.750    1.875    1.750    4.500 
#    0.000    2.500    0.000    1.500    0.000    0.000 
#    0.000    0.000    0.000    0.000    0.000    0.000 
#
# Total GULP energy -396708.319404 kJ/mol
# GULP energy per Si atom -12397.134981 kJ/mol
# Density = 1.985315 g / cm^3
# Si number density = 19.898440 Si / 1000 Ang^3
#
#
#
# Elastic Constant Matrix: (Units=GPa)
#
#
# Indices 1 2 3 4 5 6 
#
# 1 97.9498 58.1551 60.1375 0.0000 0.0000 0.0000
# 2 58.1551 126.7235 50.7628 0.0000 0.0000 0.0000
# 3 60.1375 50.7628 141.2920 0.0000 0.0000 0.0000
# 4 0.0000 0.0000 0.0000 23.6876 0.0000 0.0000
# 5 0.0000 0.0000 0.0000 0.0000 34.2792 0.0000
# 6 0.0000 0.0000 0.0000 0.0000 0.0000 2.2182
#
#
#
# Elastic Compliance Matrix: (Units=1/GPa)
#
#
# Indices 1 2 3 4 5 6 
#
# 1 0.016656 -0.005611 -0.005073 0.000000 0.000000 0.000000
# 2 -0.005611 0.011108 -0.001603 0.000000 0.000000 0.000000
# 3 -0.005073 -0.001603 0.009813 0.000000 0.000000 0.000000
# 4 0.000000 0.000000 0.000000 0.042216 0.000000 0.000000
# 5 0.000000 0.000000 0.000000 0.000000 0.029172 0.000000
# 6 0.000000 0.000000 0.000000 0.000000 0.000000 0.450818
#
#
# Mechanical properties :
#
#
# Convention : Reuss Voigt Hill
#
# Bulk Modulus (GPa) = 76.90855 78.23069 77.56962
# Shear Modulus (GPa) = 8.49342 25.16432 16.82887
#
# Velocity S-wave (km/s) = 2.06825 3.56003 2.91131
# Velocity P-wave (km/s) = 6.66618 7.50325 7.09707
#
# Compressibility (1/GPa) = 0.01300245
#
# Stress axis : x y z
#
# Youngs Moduli (GPa) = 60.04017 90.02305 101.91044
#
# Poissons Ratio (x) = 0.50515 0.51699
# Poissons Ratio (y) = 0.33690 0.16332
# Poissons Ratio (z) = 0.30458 0.14427
#
# Static dielectric constant tensor:
#      x y z
#    x 3.813350 0.000000 0.000000 
#    y 0.000000 3.549720 0.000000 
#    z 0.000000 0.000000 3.674040 
# 
# 
# High freq. dielectric constant tensor:
#      x y z
#    x 1.780280 0.000000 0.000000 
#    y 0.000000 1.776330 0.000000 
#    z 0.000000 0.000000 1.777910 
# 
# From -- ./inp_files/6969.got.cif
#   From: 2010.03.12/outbox.cif.g09.slc.cpg/sg38_4_cif.got.tgz:6969.got - 2010.04.14 02:38:36.
