data_PCOD8180928
_publ_section_title
;
Structure prediction by ZEFSAII (Michael W. Deem and Ramdas Pophale) SiO2 
 PCOD8180928
Probable space group: A B M 2
;
_chemical_formula_sum "Si O2"
_cell_formula_units_Z 64
_cell_length_a 16.092862
_cell_length_b 9.305045
_cell_length_c 21.833976
_cell_angle_alpha 90.000000
_cell_angle_beta 90.000000
_cell_angle_gamma 90.000000
_cell_volume 3269.524480
_symmetry_space_group_name_H-M "A B M 2"
_symmetry_group_IT_number 39
_symmetry_cell_setting 'orthorhombic'
loop_
_space_group_symop_operation_xyz
x,y,z
-x,-y,z
-x,1/2+y,z
x,1/2-y,z
x,1/2+y,1/2+z
-x,1/2-y,1/2+z
-x,y,1/2+z
x,-y,1/2+z
loop_
_atom_site_type_symbol
_atom_site_label
_atom_site_fract_x
_atom_site_fract_y
_atom_site_fract_z
Si Si1 0.078958 0.588197 0.421320
Si Si2 0.584287 0.919161 0.441296
Si Si3 0.240410 0.918262 0.881856
Si Si4 0.612593 0.908925 0.581298
Si Si5 0.752643 0.586281 0.240373
Si Si6 0.202770 0.409055 0.628375
Si Si7 0.427925 0.913729 0.694462
Si Si8 0.074337 0.408605 0.064658
O O1 0.082150 0.750000 0.392619
O O2 0.166917 0.507748 0.413367
O O3 0.062756 0.603480 0.492720
O O4 0.000000 0.500000 0.392661
O O5 0.569739 0.750000 0.431995
O O6 0.667193 0.967875 0.403643
O O7 0.601309 0.960785 0.511736
O O8 0.500000 0.000000 0.418563
O O9 0.228796 0.750000 0.897719
O O10 0.227940 0.948987 0.810181
O O11 0.572589 0.750000 0.590264
O O12 0.707542 0.897752 0.599749
O O13 0.572468 0.027747 0.624857
O O14 0.776033 0.750000 0.223398
O O15 0.802375 0.479571 0.195950
O O16 0.655373 0.559686 0.231271
O O17 0.162866 0.250000 0.633164
O O18 0.158126 0.509256 0.579689
O O19 0.453861 0.750000 0.691763
O O20 0.500000 0.000000 0.730601
O O21 0.075256 0.250000 0.094188
O O22 0.000000 0.500000 0.094749
#
# Coordination Sequence:
#
# PCOD8180928 Si02
#       8
#     8   8   8   8   8   8   8   8
#     4  10  21  37  60  89 116 144 180 223 272 327
#     4  10  21  35  52  77 109 145 184 226 274 327
#     4  10  21  39  59  78 108 149 189 232 279 324
#     4   9  18  32  50  74 103 135 172 216 269 326
#     4   9  20  37  54  73 101 140 182 222 267 320
#     4  10  19  33  55  80 106 137 174 219 270 321
#     4  10  19  31  49  73 100 132 173 220 270 321
#     4  10  20  34  54  82 114 142 170 208 259 320
#
# _framework density 19.574712999999999
#
# number of rings (size 3 to 8) (size 9 to 14) (size 15 to 20)
#    0.000    2.250    0.000    2.625    0.000    6.500 
#    0.000    0.625    0.000    3.000    0.000    0.000 
#    0.000    0.000    0.000    0.000    0.000    0.000 
#
# Total GULP energy -396626.903973 kJ/mol
# GULP energy per Si atom -12394.590749 kJ/mol
# Density = 1.953016 g / cm^3
# Si number density = 19.574713 Si / 1000 Ang^3
#
#
#
# Elastic Constant Matrix: (Units=GPa)
#
#
# Indices 1 2 3 4 5 6 
#
# 1 91.0557 52.2075 13.6209 0.0000 0.0000 0.0000
# 2 52.2075 130.3183 18.9241 0.0000 0.0000 0.0000
# 3 13.6209 18.9241 31.0417 0.0000 0.0000 0.0000
# 4 0.0000 0.0000 0.0000 -21.4134 0.0000 0.0000
# 5 0.0000 0.0000 0.0000 0.0000 6.9137 0.0000
# 6 0.0000 0.0000 0.0000 0.0000 0.0000 34.6546
#
#
#
# Elastic Compliance Matrix: (Units=1/GPa)
#
#
# Indices 1 2 3 4 5 6 
#
# 1 0.014524 -0.005368 -0.003100 0.000000 0.000000 0.000000
# 2 -0.005368 0.010403 -0.003986 0.000000 0.000000 0.000000
# 3 -0.003100 -0.003986 0.036005 0.000000 0.000000 0.000000
# 4 0.000000 0.000000 0.000000 -0.046700 0.000000 0.000000
# 5 0.000000 0.000000 0.000000 0.000000 0.144639 0.000000
# 6 0.000000 0.000000 0.000000 0.000000 0.000000 0.028856
#
#
# Mechanical properties :
#
#
# Convention : Reuss Voigt Hill
#
# Bulk Modulus (GPa) = 27.76062 46.88007 37.32034
# Shear Modulus (GPa) = 22.25724 15.20853 18.73288
#
# Velocity S-wave (km/s) = 3.37566 2.79040 3.09689
# Velocity P-wave (km/s) = 5.42274 5.86371 5.64753
#
# Compressibility (1/GPa) = 0.03602226
#
# Stress axis : x y z
#
# Youngs Moduli (GPa) = 68.85131 96.12552 27.77359
#
# Poissons Ratio (x) = 0.51604 0.08611
# Poissons Ratio (y) = 0.36962 0.11072
# Poissons Ratio (z) = 0.21346 0.38320
#
# Static dielectric constant tensor:
#      x y z
#    x 3.736960 0.000000 0.000000 
#    y 0.000000 3.892280 0.000000 
#    z 0.000000 0.000000 3.342900 
# 
# 
# High freq. dielectric constant tensor:
#      x y z
#    x 1.766060 0.000000 0.000000 
#    y 0.000000 1.771460 0.000000 
#    z 0.000000 0.000000 1.737880 
# 
# From -- ./inp_files/16149.got.cif
#   From: 2010.03.12/outbox.cif.g09.slc.cpg/sg39_9_cif.got.tgz:16149.got - 2010.04.14 02:53:20.
