data_PCOD8180320
_publ_section_title
;
Structure prediction by ZEFSAII (Michael W. Deem and Ramdas Pophale) SiO2 
 PCOD8180320
Probable space group: A M M 2
;
_chemical_formula_sum "Si O2"
_cell_formula_units_Z 64
_cell_length_a 23.592857
_cell_length_b 8.775573
_cell_length_c 15.296395
_cell_angle_alpha 90.000000
_cell_angle_beta 90.000000
_cell_angle_gamma 90.000000
_cell_volume 3166.978453
_symmetry_space_group_name_H-M "A M M 2"
_symmetry_group_IT_number 38
_symmetry_cell_setting 'orthorhombic'
loop_
_space_group_symop_operation_xyz
x,y,z
-x,-y,z
-x,y,z
x,-y,z
x,1/2+y,1/2+z
-x,1/2-y,1/2+z
-x,1/2+y,1/2+z
x,1/2-y,1/2+z
loop_
_atom_site_type_symbol
_atom_site_label
_atom_site_fract_x
_atom_site_fract_y
_atom_site_fract_z
Si Si1 0.638442 0.325224 0.516320
Si Si2 0.437036 0.679559 0.871157
Si Si3 0.130974 0.678779 0.784370
Si Si4 0.883580 0.675799 0.460409
Si Si5 0.764986 0.326248 0.540014
Si Si6 0.933849 0.175006 0.627196
Si Si7 0.239995 0.177877 0.721094
Si Si8 0.358353 0.678979 0.716431
O O1 0.622802 0.500000 0.499217
O O2 0.599386 0.224550 0.455005
O O3 0.704608 0.293011 0.493881
O O4 0.625485 0.279684 0.616835
O O5 0.500000 0.752113 0.876410
O O6 0.441648 0.500000 0.870677
O O7 0.408276 0.734354 0.780653
O O8 0.128148 0.500000 0.799149
O O9 0.099952 0.761524 0.865182
O O10 0.099655 0.720949 0.695081
O O11 0.195931 0.732706 0.781733
O O12 0.901201 0.500000 0.467947
O O13 0.815921 0.698452 0.472620
O O14 0.919158 0.770818 0.530124
O O15 0.764414 0.500000 0.576843
O O16 0.774076 0.212241 0.620184
O O17 0.000000 0.195738 0.644068
O O18 0.915048 0.000000 0.638982
O O19 0.302636 0.231312 0.746436
O O20 0.233415 0.000000 0.739692
O O21 0.345829 0.500000 0.724750
#
# Coordination Sequence:
#
# PCOD8180320 Si02
#       8
#     8   8   8   8   8   8   8   8
#     4   9  19  36  58  85 116 150 195 243 294 356
#     4  10  22  39  58  83 116 154 200 249 298 357
#     4  12  25  41  63  93 129 168 211 256 307 366
#     4  11  23  40  65  96 128 164 207 256 311 370
#     4   9  19  37  60  88 124 160 196 246 307 371
#     4  11  25  46  69  94 127 166 211 260 308 365
#     4  11  21  35  60  91 125 159 201 253 309 368
#     4   9  20  39  59  82 115 158 200 242 301 366
#
# _framework density 20.208535999999999
#
# number of rings (size 3 to 8) (size 9 to 14) (size 15 to 20)
#    0.000    1.750    1.250    3.750    1.750    5.250 
#    0.000    1.250    0.000    0.000    0.000    0.000 
#    0.000    0.000    0.000    0.000    0.000    0.000 
#
# Total GULP energy -396906.292193 kJ/mol
# GULP energy per Si atom -12403.321631 kJ/mol
# Density = 2.016254 g / cm^3
# Si number density = 20.208536 Si / 1000 Ang^3
#
#
#
# Elastic Constant Matrix: (Units=GPa)
#
#
# Indices 1 2 3 4 5 6 
#
# 1 78.0021 34.0496 24.1509 0.0000 0.0000 0.0000
# 2 34.0496 68.2537 16.0122 0.0000 0.0000 0.0000
# 3 24.1509 16.0122 79.0881 0.0000 0.0000 0.0000
# 4 0.0000 0.0000 0.0000 35.3303 0.0000 0.0000
# 5 0.0000 0.0000 0.0000 0.0000 22.0008 0.0000
# 6 0.0000 0.0000 0.0000 0.0000 0.0000 28.6945
#
#
#
# Elastic Compliance Matrix: (Units=1/GPa)
#
#
# Indices 1 2 3 4 5 6 
#
# 1 0.017377 -0.007794 -0.003728 0.000000 0.000000 0.000000
# 2 -0.007794 0.018878 -0.001442 0.000000 0.000000 0.000000
# 3 -0.003728 -0.001442 0.014075 0.000000 0.000000 0.000000
# 4 0.000000 0.000000 0.000000 0.028304 0.000000 0.000000
# 5 0.000000 0.000000 0.000000 0.000000 0.045453 0.000000
# 6 0.000000 0.000000 0.000000 0.000000 0.000000 0.034850
#
#
# Mechanical properties :
#
#
# Convention : Reuss Voigt Hill
#
# Bulk Modulus (GPa) = 40.98285 41.52990 41.25638
# Shear Modulus (GPa) = 25.90696 27.28054 26.59375
#
# Velocity S-wave (km/s) = 3.58436 3.67815 3.63156
# Velocity P-wave (km/s) = 6.11998 6.21560 6.16798
#
# Compressibility (1/GPa) = 0.02440045
#
# Stress axis : x y z
#
# Youngs Moduli (GPa) = 57.54804 52.97251 71.05015
#
# Poissons Ratio (x) = 0.41287 0.26490
# Poissons Ratio (y) = 0.44853 0.10245
# Poissons Ratio (z) = 0.21456 0.07638
#
# Static dielectric constant tensor:
#      x y z
#    x 3.817440 0.000000 0.000000 
#    y 0.000000 3.572890 0.000000 
#    z 0.000000 0.000000 3.622620 
# 
# 
# High freq. dielectric constant tensor:
#      x y z
#    x 1.788140 0.000000 0.000000 
#    y 0.000000 1.785470 0.000000 
#    z 0.000000 0.000000 1.790500 
# 
# From -- ./inp_files/15818.got.cif
#   From: 2010.03.12/outbox.cif.g09.slc.cpg/sg38_8_cif.got.tgz:15818.got - 2010.04.14 02:38:36.
