data_PCOD8180045
_publ_section_title
;
Structure prediction by ZEFSAII (Michael W. Deem and Ramdas Pophale) SiO2 
 PCOD8180045
Probable space group: A M M 2
;
_chemical_formula_sum "Si O2"
_cell_formula_units_Z 56
_cell_length_a 14.605781
_cell_length_b 8.997258
_cell_length_c 21.231044
_cell_angle_alpha 90.000000
_cell_angle_beta 90.000000
_cell_angle_gamma 90.000000
_cell_volume 2790.013528
_symmetry_space_group_name_H-M "A M M 2"
_symmetry_group_IT_number 38
_symmetry_cell_setting 'orthorhombic'
loop_
_space_group_symop_operation_xyz
x,y,z
-x,-y,z
-x,y,z
x,-y,z
x,1/2+y,1/2+z
-x,1/2-y,1/2+z
-x,1/2+y,1/2+z
x,1/2-y,1/2+z
loop_
_atom_site_type_symbol
_atom_site_label
_atom_site_fract_x
_atom_site_fract_y
_atom_site_fract_z
Si Si1 0.102482 0.822772 0.832040
Si Si2 0.602251 0.672008 0.385481
Si Si3 0.608427 0.665548 0.761709
Si Si4 0.217456 0.672725 0.447408
Si Si5 0.226107 0.176381 0.085351
Si Si6 0.604961 0.324592 0.136481
Si Si7 0.108139 0.671367 0.191859
O O1 0.162996 0.752164 0.888889
O O2 0.137327 0.773355 0.762217
O O3 0.000000 0.763285 0.842864
O O4 0.103327 0.000000 0.832500
O O5 0.500000 0.724131 0.405804
O O6 0.600803 0.500000 0.365695
O O7 0.642298 0.761935 0.326294
O O8 0.673250 0.703115 0.441737
O O9 0.500000 0.658470 0.763227
O O10 0.649936 0.500000 0.753925
O O11 0.640103 0.769290 0.704520
O O12 0.196356 0.500000 0.441637
O O13 0.185908 0.726606 0.516800
O O14 0.327675 0.246788 0.087218
O O15 0.159738 0.231536 0.140039
O O16 0.235978 0.000000 0.089413
O O17 0.500000 0.276136 0.122905
O O18 0.615822 0.500000 0.133238
O O19 0.135713 0.500000 0.181669
O O20 0.000000 0.693162 0.183030
#
# Coordination Sequence:
#
# PCOD8180045 Si02
#       7
#     8   8   8   8   8   8   8
#     4   8  15  31  56  82 105 135 182 234 275 319
#     4   9  17  30  49  74 105 143 186 226 267 325
#     4   9  17  30  49  76 107 136 173 227 286 331
#     4   9  19  33  50  77 110 146 187 228 275 331
#     4  11  23  36  54  85 121 152 185 235 295 342
#     4  10  21  37  56  77 106 150 199 239 277 332
#     4   9  19  37  61  86 112 147 192 239 285 339
#
# _framework density 20.071587000000001
#
# number of rings (size 3 to 8) (size 9 to 14) (size 15 to 20)
#    0.000    2.714    0.000    2.143    2.000    4.000 
#    0.000    4.286    0.000    3.429    0.000    0.000 
#    0.000    0.000    0.000    0.000    0.000    0.000 
#
# Total GULP energy -347003.414761 kJ/mol
# GULP energy per Si atom -12392.979099 kJ/mol
# Density = 2.002590 g / cm^3
# Si number density = 20.071587 Si / 1000 Ang^3
#
#
#
# Elastic Constant Matrix: (Units=GPa)
#
#
# Indices 1 2 3 4 5 6 
#
# 1 77.7147 24.1165 69.1285 0.0000 0.0000 0.0000
# 2 24.1165 64.4557 38.8907 0.0000 0.0000 0.0000
# 3 69.1285 38.8907 166.1773 0.0000 0.0000 0.0000
# 4 0.0000 0.0000 0.0000 25.8530 0.0000 0.0000
# 5 0.0000 0.0000 0.0000 0.0000 25.5685 0.0000
# 6 0.0000 0.0000 0.0000 0.0000 0.0000 21.8145
#
#
#
# Elastic Compliance Matrix: (Units=1/GPa)
#
#
# Indices 1 2 3 4 5 6 
#
# 1 0.020912 -0.002999 -0.007997 0.000000 0.000000 0.000000
# 2 -0.002999 0.018496 -0.003081 0.000000 0.000000 0.000000
# 3 -0.007997 -0.003081 0.010066 0.000000 0.000000 0.000000
# 4 0.000000 0.000000 0.000000 0.038680 0.000000 0.000000
# 5 0.000000 0.000000 0.000000 0.000000 0.039111 0.000000
# 6 0.000000 0.000000 0.000000 0.000000 0.000000 0.045841
#
#
# Mechanical properties :
#
#
# Convention : Reuss Voigt Hill
#
# Bulk Modulus (GPa) = 46.90763 63.62433 55.26598
# Shear Modulus (GPa) = 23.99623 26.39467 25.19545
#
# Velocity S-wave (km/s) = 3.46140 3.63026 3.54684
# Velocity P-wave (km/s) = 6.27662 7.02419 6.66090
#
# Compressibility (1/GPa) = 0.02131849
#
# Stress axis : x y z
#
# Youngs Moduli (GPa) = 47.81928 54.06691 99.34842
#
# Poissons Ratio (x) = 0.16214 0.79453
# Poissons Ratio (y) = 0.14341 0.30609
# Poissons Ratio (z) = 0.38243 0.16658
#
# Static dielectric constant tensor:
#      x y z
#    x 3.701180 0.000000 0.000000 
#    y 0.000000 3.394860 0.000000 
#    z 0.000000 0.000000 3.848880 
# 
# 
# High freq. dielectric constant tensor:
#      x y z
#    x 1.780360 0.000000 0.000000 
#    y 0.000000 1.748410 0.000000 
#    z 0.000000 0.000000 1.785170 
# 
# From -- ./inp_files/21020.got.cif
#   From: 2010.03.12/outbox.cif.g09.slc.cpg/sg38_11_cif.got.tgz:21020.got - 2010.04.14 02:38:36.
