data_PCOD8180093
_publ_section_title
;
Structure prediction by ZEFSAII (Michael W. Deem and Ramdas Pophale) SiO2 
 PCOD8180093
Probable space group: A M M 2
;
_chemical_formula_sum "Si O2"
_cell_formula_units_Z 64
_cell_length_a 13.514452
_cell_length_b 8.822115
_cell_length_c 25.889182
_cell_angle_alpha 90.000000
_cell_angle_beta 90.000000
_cell_angle_gamma 90.000000
_cell_volume 3086.664900
_symmetry_space_group_name_H-M "A M M 2"
_symmetry_group_IT_number 38
_symmetry_cell_setting 'orthorhombic'
loop_
_space_group_symop_operation_xyz
x,y,z
-x,-y,z
-x,y,z
x,-y,z
x,1/2+y,1/2+z
-x,1/2-y,1/2+z
-x,1/2+y,1/2+z
x,1/2-y,1/2+z
loop_
_atom_site_type_symbol
_atom_site_label
_atom_site_fract_x
_atom_site_fract_y
_atom_site_fract_z
Si Si1 0.295968 0.321576 0.545630
Si Si2 0.117578 0.329085 0.687882
Si Si3 0.700817 0.825921 0.848389
Si Si4 0.614765 0.325641 0.946789
Si Si5 0.110516 0.326793 0.289757
Si Si6 0.382899 0.670234 0.749205
Si Si7 0.617421 0.671250 0.146421
Si Si8 0.112235 0.821661 0.583787
O O1 0.291950 0.500000 0.551080
O O2 0.353582 0.278617 0.494048
O O3 0.353506 0.253219 0.593897
O O4 0.183844 0.256571 0.542007
O O5 0.153708 0.500000 0.678155
O O6 0.158348 0.269697 0.742761
O O7 0.154181 0.225709 0.640266
O O8 0.000000 0.316712 0.691158
O O9 0.674625 0.719870 0.896024
O O10 0.818736 0.807397 0.839148
O O11 0.642945 0.775800 0.797391
O O12 0.672899 0.000000 0.860562
O O13 0.500000 0.299191 0.935002
O O14 0.637362 0.500000 0.960319
O O15 0.107596 0.500000 0.270865
O O16 0.000000 0.271265 0.304974
O O17 0.500000 0.665001 0.744258
O O18 0.340667 0.500000 0.756728
O O19 0.337663 0.739757 0.696050
O O20 0.500000 0.669087 0.150241
O O21 0.659282 0.500000 0.145988
O O22 0.000000 0.762641 0.575410
O O23 0.117553 0.000000 0.577617
#
# Coordination Sequence:
#
# PCOD8180093 Si02
#       8
#     8   8   8   8   8   8   8   8
#     4  12  25  40  63  92 122 158 201 251 307 367
#     4   9  17  30  51  81 117 157 201 248 296 348
#     4  11  23  38  61  90 119 156 203 254 308 365
#     4  11  25  46  69  91 118 155 201 254 309 371
#     4   9  19  36  56  81 118 162 204 245 295 357
#     4  10  21  37  57  84 120 159 197 243 304 370
#     4  10  21  38  60  87 121 159 199 247 304 368
#     4  10  21  38  60  86 121 164 207 251 300 357
#
# _framework density 20.734352000000001
#
# number of rings (size 3 to 8) (size 9 to 14) (size 15 to 20)
#    0.000    1.750    0.000    4.125    1.750    8.750 
#    0.000    0.625    0.000    2.250    0.000    0.000 
#    0.000    0.000    0.000    0.000    0.000    0.000 
#
# Total GULP energy -396927.241822 kJ/mol
# GULP energy per Si atom -12403.976307 kJ/mol
# Density = 2.068716 g / cm^3
# Si number density = 20.734352 Si / 1000 Ang^3
#
#
#
# Elastic Constant Matrix: (Units=GPa)
#
#
# Indices 1 2 3 4 5 6 
#
# 1 48.9482 34.3450 29.7080 0.0000 0.0000 0.0000
# 2 34.3450 111.6873 31.6536 0.0000 0.0000 0.0000
# 3 29.7080 31.6536 104.5003 0.0000 0.0000 0.0000
# 4 0.0000 0.0000 0.0000 39.2435 0.0000 0.0000
# 5 0.0000 0.0000 0.0000 0.0000 31.6897 0.0000
# 6 0.0000 0.0000 0.0000 0.0000 0.0000 29.5984
#
#
#
# Elastic Compliance Matrix: (Units=1/GPa)
#
#
# Indices 1 2 3 4 5 6 
#
# 1 0.029231 -0.007257 -0.006112 0.000000 0.000000 0.000000
# 2 -0.007257 0.011596 -0.001449 0.000000 0.000000 0.000000
# 3 -0.006112 -0.001449 0.011746 0.000000 0.000000 0.000000
# 4 0.000000 0.000000 0.000000 0.025482 0.000000 0.000000
# 5 0.000000 0.000000 0.000000 0.000000 0.031556 0.000000
# 6 0.000000 0.000000 0.000000 0.000000 0.000000 0.033786
#
#
# Mechanical properties :
#
#
# Convention : Reuss Voigt Hill
#
# Bulk Modulus (GPa) = 43.59821 50.72766 47.16293
# Shear Modulus (GPa) = 27.67360 31.40161 29.53760
#
# Velocity S-wave (km/s) = 3.65728 3.89584 3.77845
# Velocity P-wave (km/s) = 6.23755 6.68995 6.46770
#
# Compressibility (1/GPa) = 0.02293672
#
# Stress axis : x y z
#
# Youngs Moduli (GPa) = 34.21042 86.23775 85.13589
#
# Poissons Ratio (x) = 0.62579 0.52034
# Poissons Ratio (y) = 0.24825 0.12340
# Poissons Ratio (z) = 0.20909 0.12500
#
# Static dielectric constant tensor:
#      x y z
#    x 3.964850 0.000000 0.000000 
#    y 0.000000 3.904360 0.000000 
#    z 0.000000 0.000000 3.618740 
# 
# 
# High freq. dielectric constant tensor:
#      x y z
#    x 1.828050 0.000000 0.000000 
#    y 0.000000 1.822190 0.000000 
#    z 0.000000 0.000000 1.790750 
# 
# From -- ./inp_files/22927.got.cif
#   From: 2010.03.12/outbox.cif.g09.slc.cpg/sg38_12_cif.got.tgz:22927.got - 2010.04.14 02:38:36.
