data_PCOD8180814
_publ_section_title
;
Structure prediction by ZEFSAII (Michael W. Deem and Ramdas Pophale) SiO2 
 PCOD8180814
Probable space group: A B M 2
;
_chemical_formula_sum "Si O2"
_cell_formula_units_Z 56
_cell_length_a 22.011312
_cell_length_b 9.668526
_cell_length_c 13.414335
_cell_angle_alpha 90.000000
_cell_angle_beta 90.000000
_cell_angle_gamma 90.000000
_cell_volume 2854.797759
_symmetry_space_group_name_H-M "A B M 2"
_symmetry_group_IT_number 39
_symmetry_cell_setting 'orthorhombic'
loop_
_space_group_symop_operation_xyz
x,y,z
-x,-y,z
-x,1/2+y,z
x,1/2-y,z
x,1/2+y,1/2+z
-x,1/2-y,1/2+z
-x,y,1/2+z
x,-y,1/2+z
loop_
_atom_site_type_symbol
_atom_site_label
_atom_site_fract_x
_atom_site_fract_y
_atom_site_fract_z
Si Si1 0.140444 0.903528 0.578260
Si Si2 0.665898 0.593316 0.607225
Si Si3 0.940161 0.586961 0.444080
Si Si4 0.250000 0.039450 0.950441
Si Si5 0.440161 0.586961 0.956802
Si Si6 0.640444 0.596472 0.822622
Si Si7 0.165898 0.406684 0.293657
O O1 0.110425 0.750000 0.592841
O O2 0.195794 0.875409 0.501190
O O3 0.162555 0.972344 0.682814
O O4 0.092419 0.015234 0.538071
O O5 0.679887 0.750000 0.628476
O O6 0.722418 0.547050 0.541218
O O7 0.601866 0.569572 0.553207
O O8 0.662555 0.527656 0.718068
O O9 0.953024 0.750000 0.466392
O O10 0.898134 0.569572 0.347675
O O11 0.000000 0.500000 0.419678
O O12 0.304206 0.124591 0.899692
O O13 0.222418 0.952950 0.859664
O O14 0.500000 0.500000 0.981203
O O15 0.453024 0.750000 0.934489
O O16 0.592419 0.484766 0.862811
O O17 0.610425 0.750000 0.808041
O O18 0.179887 0.250000 0.272406
#
# Coordination Sequence:
#
# PCOD8180814 Si02
#       7
#     8   8   8   8   8   8   8
#     4  10  20  35  54  81 112 143 178 219 263 314
#     4   9  19  34  54  79 110 144 179 218 265 315
#     4  10  21  38  57  78 104 139 178 222 270 319
#     4  10  18  32  54  82 111 144 179 218 261 310
#     4  10  21  38  57  78 104 139 178 222 270 319
#     4  10  20  35  54  81 112 143 178 219 263 314
#     4   9  19  34  54  79 110 144 179 218 265 315
#
# _framework density 19.616099999999999
#
# number of rings (size 3 to 8) (size 9 to 14) (size 15 to 20)
#    0.000    2.286    0.000    2.571    0.000    2.286 
#    0.000   11.429    0.000    0.000    0.000    0.000 
#    0.000    0.000    0.000    0.000    0.000    0.000 
#
# Total GULP energy -346866.588476 kJ/mol
# GULP energy per Si atom -12388.092446 kJ/mol
# Density = 1.957145 g / cm^3
# Si number density = 19.616100 Si / 1000 Ang^3
#
#
#
# Elastic Constant Matrix: (Units=GPa)
#
#
# Indices 1 2 3 4 5 6 
#
# 1 65.6988 41.6197 9.2703 0.0000 0.0000 0.0000
# 2 41.6197 97.0433 30.0489 0.0000 0.0000 0.0000
# 3 9.2703 30.0489 113.7447 0.0000 0.0000 0.0000
# 4 0.0000 0.0000 0.0000 25.8709 0.0000 0.0000
# 5 0.0000 0.0000 0.0000 0.0000 18.5552 0.0000
# 6 0.0000 0.0000 0.0000 0.0000 0.0000 47.3197
#
#
#
# Elastic Compliance Matrix: (Units=1/GPa)
#
#
# Indices 1 2 3 4 5 6 
#
# 1 0.020954 -0.009211 0.000726 0.000000 0.000000 0.000000
# 2 -0.009211 0.015272 -0.003284 0.000000 0.000000 0.000000
# 3 0.000726 -0.003284 0.009600 0.000000 0.000000 0.000000
# 4 0.000000 0.000000 0.000000 0.038653 0.000000 0.000000
# 5 0.000000 0.000000 0.000000 0.000000 0.053893 0.000000
# 6 0.000000 0.000000 0.000000 0.000000 0.000000 0.021133
#
#
# Mechanical properties :
#
#
# Convention : Reuss Voigt Hill
#
# Bulk Modulus (GPa) = 44.86929 48.70716 46.78822
# Shear Modulus (GPa) = 26.25038 31.38570 28.81804
#
# Velocity S-wave (km/s) = 3.66212 4.00434 3.83704
# Velocity P-wave (km/s) = 6.38787 6.80174 6.59805
#
# Compressibility (1/GPa) = 0.02228696
#
# Stress axis : x y z
#
# Youngs Moduli (GPa) = 47.72377 65.47916 104.16679
#
# Poissons Ratio (x) = 0.60315 -0.07559
# Poissons Ratio (y) = 0.43960 0.34206
# Poissons Ratio (z) = -0.03463 0.21502
#
# Static dielectric constant tensor:
#      x y z
#    x 3.550740 0.000000 0.000000 
#    y 0.000000 3.472030 0.000000 
#    z 0.000000 0.000000 3.780720 
# 
# 
# High freq. dielectric constant tensor:
#      x y z
#    x 1.757780 0.000000 0.000000 
#    y 0.000000 1.756180 0.000000 
#    z 0.000000 0.000000 1.776160 
# 
# From -- ./inp_files/6980.got.cif
#   From: 2010.03.12/outbox.cif.g09.slc.cpg/sg39_4_cif.got.tgz:6980.got - 2010.04.14 02:53:20.
