data_PCOD8180901
_publ_section_title
;
Structure prediction by ZEFSAII (Michael W. Deem and Ramdas Pophale) SiO2 
 PCOD8180901
Probable space group: A B M 2
;
_chemical_formula_sum "Si O2"
_cell_formula_units_Z 56
_cell_length_a 17.904002
_cell_length_b 8.706055
_cell_length_c 18.871132
_cell_angle_alpha 90.000000
_cell_angle_beta 90.000000
_cell_angle_gamma 90.000000
_cell_volume 2941.504226
_symmetry_space_group_name_H-M "A B M 2"
_symmetry_group_IT_number 39
_symmetry_cell_setting 'orthorhombic'
loop_
_space_group_symop_operation_xyz
x,y,z
-x,-y,z
-x,1/2+y,z
x,1/2-y,z
x,1/2+y,1/2+z
-x,1/2-y,1/2+z
-x,y,1/2+z
x,-y,1/2+z
loop_
_atom_site_type_symbol
_atom_site_label
_atom_site_fract_x
_atom_site_fract_y
_atom_site_fract_z
Si Si1 0.798850 0.426524 0.238650
Si Si2 0.259237 0.067869 0.380326
Si Si3 0.188971 0.924647 0.513702
Si Si4 0.919927 0.574344 0.627740
Si Si5 0.696620 0.918369 0.130494
Si Si6 0.418953 0.066533 0.854224
Si Si7 0.571498 0.077010 0.194644
O O1 0.768982 0.250000 0.232851
O O2 0.787400 0.483965 0.318214
O O3 0.882476 0.436173 0.206257
O O4 0.755537 0.546334 0.190811
O O5 0.263326 0.250000 0.368337
O O6 0.205377 0.031376 0.446580
O O7 0.344371 0.003385 0.391556
O O8 0.167206 0.750000 0.491786
O O9 0.267806 0.924206 0.553793
O O10 0.125220 0.991489 0.564699
O O11 0.927576 0.750000 0.604145
O O12 0.000000 0.500000 0.635447
O O13 0.662326 0.750000 0.145571
O O14 0.634208 0.048647 0.136174
O O15 0.419078 0.250000 0.865230
O O16 0.407810 0.012783 0.772594
O O17 0.500000 0.000000 0.881613
O O18 0.551671 0.250000 0.204958
O O19 0.500000 0.000000 0.161180
#
# Coordination Sequence:
#
# PCOD8180901 Si02
#       7
#     8   8   8   8   8   8   8
#     4  10  20  35  57  84 113 146 184 229 278 332
#     4  12  23  36  57  85 117 153 195 242 288 342
#     4  10  22  39  59  83 115 153 192 233 282 340
#     4  10  21  39  64  91 119 150 187 229 281 342
#     4  10  19  33  54  79 106 140 183 231 279 333
#     4  10  20  34  53  79 112 151 192 239 293 342
#     4  10  19  30  49  75 107 143 183 235 287 337
#
# _framework density 19.037879
#
# number of rings (size 3 to 8) (size 9 to 14) (size 15 to 20)
#    0.000    1.714    1.429    3.857    0.000    4.571 
#    0.000    1.429    0.000    5.143    0.000    0.000 
#    0.000    0.000    0.000    0.000    0.000    0.000 
#
# Total GULP energy -346913.731838 kJ/mol
# GULP energy per Si atom -12389.776137 kJ/mol
# Density = 1.899455 g / cm^3
# Si number density = 19.037879 Si / 1000 Ang^3
#
#
#
# Elastic Constant Matrix: (Units=GPa)
#
#
# Indices 1 2 3 4 5 6 
#
# 1 107.5450 37.7289 32.3655 0.0000 0.0000 0.0000
# 2 37.7289 99.9358 28.4197 0.0000 0.0000 0.0000
# 3 32.3655 28.4197 77.6744 0.0000 0.0000 0.0000
# 4 0.0000 0.0000 0.0000 26.6628 0.0000 0.0000
# 5 0.0000 0.0000 0.0000 0.0000 16.5536 0.0000
# 6 0.0000 0.0000 0.0000 0.0000 0.0000 35.8476
#
#
#
# Elastic Compliance Matrix: (Units=1/GPa)
#
#
# Indices 1 2 3 4 5 6 
#
# 1 0.011551 -0.003340 -0.003591 0.000000 0.000000 0.000000
# 2 -0.003340 0.012134 -0.003048 0.000000 0.000000 0.000000
# 3 -0.003591 -0.003048 0.015486 0.000000 0.000000 0.000000
# 4 0.000000 0.000000 0.000000 0.037505 0.000000 0.000000
# 5 0.000000 0.000000 0.000000 0.000000 0.060410 0.000000
# 6 0.000000 0.000000 0.000000 0.000000 0.000000 0.027896
#
#
# Mechanical properties :
#
#
# Convention : Reuss Voigt Hill
#
# Bulk Modulus (GPa) = 52.04776 53.57595 52.81185
# Shear Modulus (GPa) = 26.13097 28.25551 27.19324
#
# Velocity S-wave (km/s) = 3.70885 3.85668 3.78349
# Velocity P-wave (km/s) = 6.76307 6.93071 6.84741
#
# Compressibility (1/GPa) = 0.01921312
#
# Stress axis : x y z
#
# Youngs Moduli (GPa) = 86.57446 82.41291 64.57507
#
# Poissons Ratio (x) = 0.27522 0.23190
# Poissons Ratio (y) = 0.28912 0.19683
# Poissons Ratio (z) = 0.31090 0.25120
#
# Static dielectric constant tensor:
#      x y z
#    x 3.586120 0.000000 0.000000 
#    y 0.000000 3.664040 0.000000 
#    z 0.000000 0.000000 3.401080 
# 
# 
# High freq. dielectric constant tensor:
#      x y z
#    x 1.732870 0.000000 0.000000 
#    y 0.000000 1.759520 0.000000 
#    z 0.000000 0.000000 1.717060 
# 
# From -- ./inp_files/14936.got.cif
#   From: 2010.03.12/outbox.cif.g09.slc.cpg/sg39_8_cif.got.tgz:14936.got - 2010.04.14 02:53:20.
