data_PCOD8180486
_publ_section_title
;
Structure prediction by ZEFSAII (Michael W. Deem and Ramdas Pophale) SiO2 
 PCOD8180486
Probable space group: A M M 2
;
_chemical_formula_sum "Si O2"
_cell_formula_units_Z 40
_cell_length_a 14.977137
_cell_length_b 8.462130
_cell_length_c 14.739194
_cell_angle_alpha 90.000000
_cell_angle_beta 90.000000
_cell_angle_gamma 90.000000
_cell_volume 1868.023049
_symmetry_space_group_name_H-M "A M M 2"
_symmetry_group_IT_number 38
_symmetry_cell_setting 'orthorhombic'
loop_
_space_group_symop_operation_xyz
x,y,z
-x,-y,z
-x,y,z
x,-y,z
x,1/2+y,1/2+z
-x,1/2-y,1/2+z
-x,1/2+y,1/2+z
x,1/2-y,1/2+z
loop_
_atom_site_type_symbol
_atom_site_label
_atom_site_fract_x
_atom_site_fract_y
_atom_site_fract_z
Si Si1 0.602818 0.817139 0.889460
Si Si2 0.280069 0.817158 0.237492
Si Si3 0.903914 0.317533 0.545723
Si Si4 0.272716 0.315846 0.036953
Si Si5 0.097037 0.816627 0.741380
O O1 0.500000 0.768185 0.882945
O O2 0.647206 0.781545 0.792788
O O3 0.614837 0.000000 0.913571
O O4 0.645984 0.714632 0.969594
O O5 0.288617 0.771031 0.132386
O O6 0.181180 0.781829 0.279137
O O7 0.301350 0.000000 0.250585
O O8 0.888863 0.500000 0.573543
O O9 0.818362 0.254329 0.489471
O O10 0.906581 0.208660 0.634035
O O11 0.000000 0.299835 0.493815
O O12 0.262599 0.500000 0.055465
O O13 0.000000 0.763850 0.782569
O O14 0.113697 0.000000 0.763183
#
# Coordination Sequence:
#
# PCOD8180486 Si02
#       5
#     8   8   8   8   8
#     4  11  25  45  66  87 114 149 193 248 304 355
#     4  11  22  38  62  90 122 158 196 240 290 349
#     4   9  16  28  50  81 117 156 196 237 282 336
#     4  11  22  38  62  90 122 158 196 240 290 349
#     4   9  16  28  50  81 117 156 196 237 282 336
#
# _framework density 21.413011999999998
#
# number of rings (size 3 to 8) (size 9 to 14) (size 15 to 20)
#    0.000    1.800    0.000    7.800    0.000    4.800 
#    0.000    1.000    0.000    6.000    0.000    0.000 
#    0.000    0.000    0.000    0.000    0.000    0.000 
#
# Total GULP energy -247875.829323 kJ/mol
# GULP energy per Si atom -12393.791466 kJ/mol
# Density = 2.136428 g / cm^3
# Si number density = 21.413012 Si / 1000 Ang^3
#
#
#
# Elastic Constant Matrix: (Units=GPa)
#
#
# Indices 1 2 3 4 5 6 
#
# 1 176.5616 35.9014 41.4665 0.0000 0.0000 0.0000
# 2 35.9014 78.5266 5.0408 0.0000 0.0000 0.0000
# 3 41.4665 5.0408 60.4465 0.0000 0.0000 0.0000
# 4 0.0000 0.0000 0.0000 25.7749 0.0000 0.0000
# 5 0.0000 0.0000 0.0000 0.0000 59.1612 0.0000
# 6 0.0000 0.0000 0.0000 0.0000 0.0000 34.2119
#
#
#
# Elastic Compliance Matrix: (Units=1/GPa)
#
#
# Indices 1 2 3 4 5 6 
#
# 1 0.007427 -0.003085 -0.004838 0.000000 0.000000 0.000000
# 2 -0.003085 0.014085 0.000942 0.000000 0.000000 0.000000
# 3 -0.004838 0.000942 0.019784 0.000000 0.000000 0.000000
# 4 0.000000 0.000000 0.000000 0.038797 0.000000 0.000000
# 5 0.000000 0.000000 0.000000 0.000000 0.016903 0.000000
# 6 0.000000 0.000000 0.000000 0.000000 0.000000 0.029230
#
#
# Mechanical properties :
#
#
# Convention : Reuss Voigt Hill
#
# Bulk Modulus (GPa) = 36.58528 53.37247 44.97887
# Shear Modulus (GPa) = 33.48987 39.37134 36.43060
#
# Velocity S-wave (km/s) = 3.95903 4.29262 4.12919
# Velocity P-wave (km/s) = 6.16613 7.03904 6.61700
#
# Compressibility (1/GPa) = 0.02733340
#
# Stress axis : x y z
#
# Youngs Moduli (GPa) = 134.63915 70.99978 50.54641
#
# Poissons Ratio (x) = 0.21904 0.24454
# Poissons Ratio (y) = 0.41538 -0.04761
# Poissons Ratio (z) = 0.65137 -0.06687
#
# Static dielectric constant tensor:
#      x y z
#    x 4.453180 0.000000 0.000000 
#    y 0.000000 3.811890 0.000000 
#    z 0.000000 0.000000 3.379330 
# 
# 
# High freq. dielectric constant tensor:
#      x y z
#    x 1.855700 0.000000 0.000000 
#    y 0.000000 1.848990 0.000000 
#    z 0.000000 0.000000 1.804150 
# 
# From -- ./inp_files/14269.got.cif
#   From: 2010.03.12/outbox.cif.g09.slc.cpg/sg38_8_cif.got.tgz:14269.got - 2010.04.14 02:38:36.
