data_PCOD8180232
_publ_section_title
;
Structure prediction by ZEFSAII (Michael W. Deem and Ramdas Pophale) SiO2 
 PCOD8180232
Probable space group: A M M 2
;
_chemical_formula_sum "Si O2"
_cell_formula_units_Z 64
_cell_length_a 25.462503
_cell_length_b 13.385578
_cell_length_c 9.549703
_cell_angle_alpha 90.000000
_cell_angle_beta 90.000000
_cell_angle_gamma 90.000000
_cell_volume 3254.828329
_symmetry_space_group_name_H-M "A M M 2"
_symmetry_group_IT_number 38
_symmetry_cell_setting 'orthorhombic'
loop_
_space_group_symop_operation_xyz
x,y,z
-x,-y,z
-x,y,z
x,-y,z
x,1/2+y,1/2+z
-x,1/2-y,1/2+z
-x,1/2+y,1/2+z
x,1/2-y,1/2+z
loop_
_atom_site_type_symbol
_atom_site_label
_atom_site_fract_x
_atom_site_fract_y
_atom_site_fract_z
Si Si1 0.611164 0.247073 0.605920
Si Si2 0.943204 0.117200 0.765136
Si Si3 0.142365 0.743426 0.382336
Si Si4 0.699590 0.389561 0.513979
Si Si5 0.561986 0.881372 0.353785
Si Si6 0.298804 0.111029 0.696392
Si Si7 0.058681 0.886554 0.452011
Si Si8 0.784602 0.241033 0.133049
O O1 0.648843 0.319899 0.519546
O O2 0.577852 0.180626 0.494584
O O3 0.579627 0.317716 0.715899
O O4 0.646000 0.168415 0.691816
O O5 0.891918 0.144139 0.855603
O O6 0.937901 0.160024 0.607813
O O7 0.000000 0.154412 0.828256
O O8 0.945266 0.000000 0.753852
O O9 0.100511 0.831305 0.353846
O O10 0.194170 0.757693 0.290165
O O11 0.163634 0.742707 0.539247
O O12 0.683109 0.500000 0.563827
O O13 0.720634 0.390647 0.355973
O O14 0.747990 0.355588 0.611608
O O15 0.500000 0.884317 0.350206
O O16 0.581977 0.000000 0.353713
O O17 0.252989 0.163228 0.605537
O O18 0.306746 0.000000 0.635874
O O19 0.000000 0.874199 0.390627
O O20 0.076502 0.000000 0.453105
#
# Coordination Sequence:
#
# PCOD8180232 Si02
#       8
#     8   8   8   8   8   8   8   8
#     4  11  21  42  65  95 125 168 221 260 308 375
#     4   9  19  36  58  81 105 144 192 229 278 354
#     4  12  21  37  56  82 113 145 183 229 292 350
#     4  10  21  39  62  86 117 157 203 256 305 355
#     4  11  24  41  64  98 139 176 212 264 323 373
#     4  10  21  39  63  86 115 158 206 253 300 358
#     4   9  19  36  57  80 106 140 183 228 278 345
#     4  11  24  36  55  85 116 147 186 239 294 361
#
# _framework density 19.663094000000001
#
# number of rings (size 3 to 8) (size 9 to 14) (size 15 to 20)
#    0.000    1.625    3.750    2.250    0.000    2.000 
#    0.000    1.250    0.000    4.500    0.000    0.000 
#    0.000    0.000    0.000    0.000    0.000    0.000 
#
# Total GULP energy -396488.097011 kJ/mol
# GULP energy per Si atom -12390.253032 kJ/mol
# Density = 1.961834 g / cm^3
# Si number density = 19.663094 Si / 1000 Ang^3
#
#
#
# Elastic Constant Matrix: (Units=GPa)
#
#
# Indices 1 2 3 4 5 6 
#
# 1 102.0520 43.3311 22.9235 0.0000 0.0000 0.0000
# 2 43.3311 121.8605 31.5891 0.0000 0.0000 0.0000
# 3 22.9235 31.5891 57.3495 0.0000 0.0000 0.0000
# 4 0.0000 0.0000 0.0000 29.7853 0.0000 0.0000
# 5 0.0000 0.0000 0.0000 0.0000 33.4372 0.0000
# 6 0.0000 0.0000 0.0000 0.0000 0.0000 37.9013
#
#
#
# Elastic Compliance Matrix: (Units=1/GPa)
#
#
# Indices 1 2 3 4 5 6 
#
# 1 0.011924 -0.003505 -0.002836 0.000000 0.000000 0.000000
# 2 -0.003505 0.010603 -0.004439 0.000000 0.000000 0.000000
# 3 -0.002836 -0.004439 0.021016 0.000000 0.000000 0.000000
# 4 0.000000 0.000000 0.000000 0.033574 0.000000 0.000000
# 5 0.000000 0.000000 0.000000 0.000000 0.029907 0.000000
# 6 0.000000 0.000000 0.000000 0.000000 0.000000 0.026384
#
#
# Mechanical properties :
#
#
# Convention : Reuss Voigt Hill
#
# Bulk Modulus (GPa) = 45.48987 52.99441 49.24214
# Shear Modulus (GPa) = 30.80802 32.45265 31.63034
#
# Velocity S-wave (km/s) = 3.96257 4.06696 4.01510
# Velocity P-wave (km/s) = 6.64235 7.00452 6.82584
#
# Compressibility (1/GPa) = 0.02198291
#
# Stress axis : x y z
#
# Youngs Moduli (GPa) = 83.86401 94.31133 47.58339
#
# Poissons Ratio (x) = 0.33055 0.13493
# Poissons Ratio (y) = 0.29393 0.21124
# Poissons Ratio (z) = 0.23781 0.41869
#
# Static dielectric constant tensor:
#      x y z
#    x 3.572170 0.000000 0.000000 
#    y 0.000000 3.785630 0.000000 
#    z 0.000000 0.000000 3.497270 
# 
# 
# High freq. dielectric constant tensor:
#      x y z
#    x 1.774430 0.000000 0.000000 
#    y 0.000000 1.770450 0.000000 
#    z 0.000000 0.000000 1.751100 
# 
# From -- ./inp_files/6981.got.cif
#   From: 2010.03.12/outbox.cif.g09.slc.cpg/sg38_4_cif.got.tgz:6981.got - 2010.04.14 02:38:36.
