data_PCOD8180855
_publ_section_title
;
Structure prediction by ZEFSAII (Michael W. Deem and Ramdas Pophale) SiO2 
 PCOD8180855
Probable space group: A B M 2
;
_chemical_formula_sum "Si O2"
_cell_formula_units_Z 64
_cell_length_a 19.320124
_cell_length_b 8.830611
_cell_length_c 20.724445
_cell_angle_alpha 90.000000
_cell_angle_beta 90.000000
_cell_angle_gamma 90.000000
_cell_volume 3535.766465
_symmetry_space_group_name_H-M "A B M 2"
_symmetry_group_IT_number 39
_symmetry_cell_setting 'orthorhombic'
loop_
_space_group_symop_operation_xyz
x,y,z
-x,-y,z
-x,1/2+y,z
x,1/2-y,z
x,1/2+y,1/2+z
-x,1/2-y,1/2+z
-x,y,1/2+z
x,-y,1/2+z
loop_
_atom_site_type_symbol
_atom_site_label
_atom_site_fract_x
_atom_site_fract_y
_atom_site_fract_z
Si Si1 0.428859 0.428446 0.169160
Si Si2 0.284105 0.572773 0.726054
Si Si3 0.782751 0.071091 0.350606
Si Si4 0.211917 0.070187 0.097895
Si Si5 0.929507 0.071212 0.396866
Si Si6 0.700388 0.929747 0.976611
Si Si7 0.069552 0.928570 0.544539
Si Si8 0.428259 0.429964 0.531010
O O1 0.500000 0.500000 0.197082
O O2 0.439165 0.250000 0.158065
O O3 0.366128 0.461128 0.218609
O O4 0.409216 0.503148 0.101086
O O5 0.270583 0.750000 0.732276
O O6 0.254605 0.493707 0.788575
O O7 0.242939 0.505720 0.664375
O O8 0.782015 0.250000 0.346354
O O9 0.862523 0.014459 0.356504
O O10 0.740370 0.017035 0.412936
O O11 0.215105 0.250000 0.098025
O O12 0.133176 0.013501 0.088369
O O13 0.256439 0.011421 0.037868
O O14 0.936464 0.250000 0.392780
O O15 0.919009 0.018128 0.470793
O O16 0.000000 0.000000 0.367832
O O17 0.688535 0.750000 0.978034
O O18 0.627631 0.016857 0.978468
O O19 0.063169 0.750000 0.547507
O O20 0.000000 0.000000 0.573753
O O21 0.500000 0.500000 0.506758
O O22 0.433053 0.250000 0.534922
#
# Coordination Sequence:
#
# PCOD8180855 Si02
#       8
#     8   8   8   8   8   8   8   8
#     4  10  19  34  56  80 107 142 181 220 267 322
#     4  10  21  36  55  78 108 146 181 221 268 322
#     4  10  21  36  56  80 109 144 181 225 271 319
#     4   9  16  32  56  76 100 139 179 213 262 322
#     4   9  17  31  52  78 104 136 175 219 267 317
#     4  10  18  35  58  78 104 140 181 220 266 321
#     4   9  16  29  51  77 104 134 174 220 267 318
#     4  11  21  33  53  83 113 141 176 224 272 317
#
# _framework density 18.100743000000001
#
# number of rings (size 3 to 8) (size 9 to 14) (size 15 to 20)
#    0.000    2.250    2.500    2.250    0.000    2.000 
#    0.000    2.500    0.000    4.500    0.000    0.000 
#    0.000    0.000    0.000    0.000    0.000    0.000 
#
# Total GULP energy -396743.229168 kJ/mol
# GULP energy per Si atom -12398.225912 kJ/mol
# Density = 1.805955 g / cm^3
# Si number density = 18.100743 Si / 1000 Ang^3
#
#
#
# Elastic Constant Matrix: (Units=GPa)
#
#
# Indices 1 2 3 4 5 6 
#
# 1 174.6434 46.7194 77.6905 0.0000 0.0000 0.0000
# 2 46.7194 53.4651 30.2271 0.0000 0.0000 0.0000
# 3 77.6905 30.2271 111.7253 0.0000 0.0000 0.0000
# 4 0.0000 0.0000 0.0000 23.9247 0.0000 0.0000
# 5 0.0000 0.0000 0.0000 0.0000 26.4205 0.0000
# 6 0.0000 0.0000 0.0000 0.0000 0.0000 32.4922
#
#
#
# Elastic Compliance Matrix: (Units=1/GPa)
#
#
# Indices 1 2 3 4 5 6 
#
# 1 0.009431 -0.005352 -0.005110 0.000000 0.000000 0.000000
# 2 -0.005352 0.025119 -0.003074 0.000000 0.000000 0.000000
# 3 -0.005110 -0.003074 0.013336 0.000000 0.000000 0.000000
# 4 0.000000 0.000000 0.000000 0.041798 0.000000 0.000000
# 5 0.000000 0.000000 0.000000 0.000000 0.037849 0.000000
# 6 0.000000 0.000000 0.000000 0.000000 0.000000 0.030777
#
#
# Mechanical properties :
#
#
# Convention : Reuss Voigt Hill
#
# Bulk Modulus (GPa) = 48.04758 72.12310 60.08534
# Shear Modulus (GPa) = 25.99855 28.91395 27.45625
#
# Velocity S-wave (km/s) = 3.79400 4.00107 3.89891
# Velocity P-wave (km/s) = 6.76718 7.82794 7.31681
#
# Compressibility (1/GPa) = 0.02081270
#
# Stress axis : x y z
#
# Youngs Moduli (GPa) = 106.03479 39.81127 74.98749
#
# Poissons Ratio (x) = 0.21307 0.38318
# Poissons Ratio (y) = 0.56750 0.23052
# Poissons Ratio (z) = 0.54184 0.12239
#
# Static dielectric constant tensor:
#      x y z
#    x 3.701310 0.000000 0.000000 
#    y 0.000000 3.131900 0.000000 
#    z 0.000000 0.000000 3.206910 
# 
# 
# High freq. dielectric constant tensor:
#      x y z
#    x 1.721970 0.000000 0.000000 
#    y 0.000000 1.683920 0.000000 
#    z 0.000000 0.000000 1.670610 
# 
# From -- ./inp_files/13109.got.cif
#   From: 2010.03.12/outbox.cif.g09.slc.cpg/sg39_7_cif.got.tgz:13109.got - 2010.04.14 02:53:20.
