data_PCOD8180905
_publ_section_title
;
Structure prediction by ZEFSAII (Michael W. Deem and Ramdas Pophale) SiO2 
 PCOD8180905
Probable space group: A B M 2
;
_chemical_formula_sum "Si O2"
_cell_formula_units_Z 60
_cell_length_a 19.350006
_cell_length_b 18.695078
_cell_length_c 8.779389
_cell_angle_alpha 90.000000
_cell_angle_beta 90.000000
_cell_angle_gamma 90.000000
_cell_volume 3175.942842
_symmetry_space_group_name_H-M "A B M 2"
_symmetry_group_IT_number 39
_symmetry_cell_setting 'orthorhombic'
loop_
_space_group_symop_operation_xyz
x,y,z
-x,-y,z
-x,1/2+y,z
x,1/2-y,z
x,1/2+y,1/2+z
-x,1/2-y,1/2+z
-x,y,1/2+z
x,-y,1/2+z
loop_
_atom_site_type_symbol
_atom_site_label
_atom_site_fract_x
_atom_site_fract_y
_atom_site_fract_z
Si Si1 0.725113 0.934062 0.722950
Si Si2 0.824310 0.168750 0.678922
Si Si3 0.000000 0.500000 0.271827
Si Si4 0.444555 0.911842 0.510319
Si Si5 0.910871 0.061345 0.510128
Si Si6 0.797010 0.950669 0.411062
Si Si7 0.429356 0.061176 0.667133
Si Si8 0.304852 0.329872 0.980113
O O1 0.774120 0.925587 0.578269
O O2 0.650049 0.918258 0.653608
O O3 0.735573 0.873919 0.850601
O O4 0.737207 0.011152 0.806903
O O5 0.847749 0.250000 0.716422
O O6 0.875500 0.137639 0.547311
O O7 0.827444 0.119234 0.828424
O O8 0.744727 0.168198 0.625893
O O9 0.971626 0.435639 0.382556
O O10 0.938696 0.531109 0.169862
O O11 0.520512 0.884842 0.569377
O O12 0.454299 0.935560 0.339189
O O13 0.380541 0.857998 0.529129
O O14 0.431901 0.979662 0.615892
O O15 0.856034 0.008382 0.435410
O O16 0.315192 0.250000 0.918205
#
# Coordination Sequence:
#
# PCOD8180905 Si02
#       8
#     8   8   4   8   8   8   8   8
#     4  11  20  33  59  88 115 151 207 261 297 366
#     4  11  23  39  60  92 130 161 202 257 313 362
#     4  10  22  36  68  92 124 154 212 248 280 362
#     4  10  19  33  50  77 109 145 187 248 305 368
#     4  11  20  39  62  95 119 163 203 247 294 359
#     4  12  20  36  64  94 121 157 209 251 306 359
#     4  10  19  30  51  78 108 138 192 251 308 351
#     4  10  22  39  56  79 118 163 202 252 318 371
#
# _framework density 18.892028
#
# number of rings (size 3 to 8) (size 9 to 14) (size 15 to 20)
#    0.000    1.333    4.000    4.000    0.000    1.600 
#    0.000    3.333    0.000    0.000    0.000    0.000 
#    0.000    0.000    0.000    0.000    0.000    0.000 
#
# Total GULP energy -371688.607032 kJ/mol
# GULP energy per Si atom -12389.620234 kJ/mol
# Density = 1.884903 g / cm^3
# Si number density = 18.892028 Si / 1000 Ang^3
#
#
#
# Elastic Constant Matrix: (Units=GPa)
#
#
# Indices 1 2 3 4 5 6 
#
# 1 67.7153 27.6775 30.0188 0.0000 0.0000 0.0000
# 2 27.6775 114.1429 36.0532 0.0000 0.0000 0.0000
# 3 30.0188 36.0532 78.3255 0.0000 0.0000 0.0000
# 4 0.0000 0.0000 0.0000 24.9686 0.0000 0.0000
# 5 0.0000 0.0000 0.0000 0.0000 41.1329 0.0000
# 6 0.0000 0.0000 0.0000 0.0000 0.0000 22.7680
#
#
#
# Elastic Compliance Matrix: (Units=1/GPa)
#
#
# Indices 1 2 3 4 5 6 
#
# 1 0.018436 -0.002619 -0.005860 0.000000 0.000000 0.000000
# 2 -0.002619 0.010624 -0.003886 0.000000 0.000000 0.000000
# 3 -0.005860 -0.003886 0.016802 0.000000 0.000000 0.000000
# 4 0.000000 0.000000 0.000000 0.040050 0.000000 0.000000
# 5 0.000000 0.000000 0.000000 0.000000 0.024311 0.000000
# 6 0.000000 0.000000 0.000000 0.000000 0.000000 0.043921
#
#
# Mechanical properties :
#
#
# Convention : Reuss Voigt Hill
#
# Bulk Modulus (GPa) = 47.32512 49.74253 48.53382
# Shear Modulus (GPa) = 26.89337 28.86951 27.88144
#
# Velocity S-wave (km/s) = 3.77706 3.91337 3.84582
# Velocity P-wave (km/s) = 6.64276 6.84152 6.74287
#
# Compressibility (1/GPa) = 0.02113043
#
# Stress axis : x y z
#
# Youngs Moduli (GPa) = 54.24118 94.13021 59.51700
#
# Poissons Ratio (x) = 0.24657 0.34877
# Poissons Ratio (y) = 0.14208 0.23129
# Poissons Ratio (z) = 0.31786 0.36580
#
# Static dielectric constant tensor:
#      x y z
#    x 3.366210 0.000000 0.000000 
#    y 0.000000 3.260840 0.000000 
#    z 0.000000 0.000000 3.662500 
# 
# 
# High freq. dielectric constant tensor:
#      x y z
#    x 1.748590 0.000000 0.000000 
#    y 0.000000 1.691420 0.000000 
#    z 0.000000 0.000000 1.746650 
# 
# From -- ./inp_files/4018.got.cif
#   From: 2010.03.12/outbox.cif.g09.slc.cpg/sg39_3_cif.got.tgz:4018.got - 2010.04.14 02:53:20.
