data_PCOD8180767
_publ_section_title
;
Structure prediction by ZEFSAII (Michael W. Deem and Ramdas Pophale) SiO2 
 PCOD8180767
Probable space group: A B M 2
;
_chemical_formula_sum "Si O2"
_cell_formula_units_Z 64
_cell_length_a 10.495443
_cell_length_b 18.424225
_cell_length_c 19.085634
_cell_angle_alpha 90.000000
_cell_angle_beta 90.000000
_cell_angle_gamma 90.000000
_cell_volume 3690.596744
_symmetry_space_group_name_H-M "A B M 2"
_symmetry_group_IT_number 39
_symmetry_cell_setting 'orthorhombic'
loop_
_space_group_symop_operation_xyz
x,y,z
-x,-y,z
-x,1/2+y,z
x,1/2-y,z
x,1/2+y,1/2+z
-x,1/2-y,1/2+z
-x,y,1/2+z
x,-y,1/2+z
loop_
_atom_site_type_symbol
_atom_site_label
_atom_site_fract_x
_atom_site_fract_y
_atom_site_fract_z
Si Si1 0.007716 0.416723 0.558430
Si Si2 0.120291 0.164616 0.436097
Si Si3 0.746543 0.333660 0.716195
Si Si4 0.746543 0.833660 0.060399
Si Si5 0.879709 0.335384 0.340498
Si Si6 0.370741 0.664524 0.419320
Si Si7 0.629259 0.335476 0.857275
Si Si8 0.992284 0.083277 0.218164
O O1 0.110133 0.375796 0.510333
O O2 0.055283 0.409295 0.638297
O O3 0.000000 0.500000 0.535272
O O4 0.869958 0.381716 0.548206
O O5 0.126192 0.250000 0.450151
O O6 0.247631 0.134959 0.398617
O O7 1.000000 0.143880 0.388297
O O8 0.788832 0.250000 0.726533
O O9 0.688827 0.346262 0.638297
O O10 0.641415 0.354858 0.774518
O O11 0.869958 0.381716 0.728388
O O12 0.788832 0.750000 0.050061
O O13 0.641415 0.854859 0.002076
O O14 0.873807 0.250000 0.326443
O O15 0.752369 0.365041 0.377978
O O16 0.889867 0.375796 0.266261
O O17 0.376772 0.750000 0.408534
O O18 0.500000 0.628754 0.388297
O O19 0.623228 0.250000 0.868060
O O20 0.000000 0.000000 0.241322
#
# Coordination Sequence:
#
# PCOD8180767 Si02
#       8
#     8   8   8   8   8   8   8   8
#     4  10  20  32  48  73 102 130 164 207 250 290
#     4  10  18  31  51  75  99 125 162 204 248 291
#     4   9  16  29  50  72  96 130 168 200 240 297
#     4   9  16  29  50  72  96 130 168 200 240 297
#     4  10  18  31  51  75  99 125 162 204 248 291
#     4   9  17  30  48  73 103 129 158 203 249 290
#     4   9  17  30  48  73 103 129 158 203 249 290
#     4  10  20  32  48  73 102 130 164 207 250 290
#
# _framework density 17.341367999999999
#
# number of rings (size 3 to 8) (size 9 to 14) (size 15 to 20)
#    0.000    2.500    2.500    0.750    0.000    2.000 
#    0.000    1.250    0.000    7.500    0.000    5.250 
#    0.000    0.000    0.000    0.000    0.000    0.000 
#
# Total GULP energy -396720.863231 kJ/mol
# GULP energy per Si atom -12397.526976 kJ/mol
# Density = 1.730190 g / cm^3
# Si number density = 17.341368 Si / 1000 Ang^3
#
#
#
# Elastic Constant Matrix: (Units=GPa)
#
#
# Indices 1 2 3 4 5 6 
#
# 1 123.2421 28.3166 76.1632 0.0000 0.0000 0.0000
# 2 28.3166 51.1462 42.9651 0.0000 0.0000 0.0000
# 3 76.1632 42.9651 147.4826 0.0000 0.0000 0.0000
# 4 0.0000 0.0000 0.0000 20.4467 0.0000 0.0000
# 5 0.0000 0.0000 0.0000 0.0000 27.6851 0.0000
# 6 0.0000 0.0000 0.0000 0.0000 0.0000 5.9974
#
#
#
# Elastic Compliance Matrix: (Units=1/GPa)
#
#
# Indices 1 2 3 4 5 6 
#
# 1 0.012057 -0.001913 -0.005669 0.000000 0.000000 0.000000
# 2 -0.001913 0.026190 -0.006642 0.000000 0.000000 0.000000
# 3 -0.005669 -0.006642 0.011643 0.000000 0.000000 0.000000
# 4 0.000000 0.000000 0.000000 0.048908 0.000000 0.000000
# 5 0.000000 0.000000 0.000000 0.000000 0.036121 0.000000
# 6 0.000000 0.000000 0.000000 0.000000 0.000000 0.166739
#
#
# Mechanical properties :
#
#
# Convention : Reuss Voigt Hill
#
# Bulk Modulus (GPa) = 46.63659 68.52894 57.58277
# Shear Modulus (GPa) = 14.82560 22.45423 18.63991
#
# Velocity S-wave (km/s) = 2.92708 3.60229 3.28209
# Velocity P-wave (km/s) = 6.19479 7.54356 6.90220
#
# Compressibility (1/GPa) = 0.02144239
#
# Stress axis : x y z
#
# Youngs Moduli (GPa) = 82.93751 38.18189 85.88690
#
# Poissons Ratio (x) = 0.07304 0.48692
# Poissons Ratio (y) = 0.15865 0.57046
# Poissons Ratio (z) = 0.47020 0.25361
#
# Static dielectric constant tensor:
#      x y z
#    x 3.219370 0.000000 0.000000 
#    y 0.000000 2.993850 0.000000 
#    z 0.000000 0.000000 3.536690 
# 
# 
# High freq. dielectric constant tensor:
#      x y z
#    x 1.642180 0.000000 0.000000 
#    y 0.000000 1.640770 0.000000 
#    z 0.000000 0.000000 1.687380 
# 
# From -- ./inp_files/12434.got.cif
#   From: 2010.03.12/outbox.cif.g09.slc.cpg/sg39_7_cif.got.tgz:12434.got - 2010.04.14 02:53:20.
