data_PCOD8180766
_publ_section_title
;
Structure prediction by ZEFSAII (Michael W. Deem and Ramdas Pophale) SiO2 
 PCOD8180766
Probable space group: A B M 2
;
_chemical_formula_sum "Si O2"
_cell_formula_units_Z 56
_cell_length_a 17.365505
_cell_length_b 9.248948
_cell_length_c 18.676586
_cell_angle_alpha 90.000000
_cell_angle_beta 90.000000
_cell_angle_gamma 90.000000
_cell_volume 2999.696022
_symmetry_space_group_name_H-M "A B M 2"
_symmetry_group_IT_number 39
_symmetry_cell_setting 'orthorhombic'
loop_
_space_group_symop_operation_xyz
x,y,z
-x,-y,z
-x,1/2+y,z
x,1/2-y,z
x,1/2+y,1/2+z
-x,1/2-y,1/2+z
-x,y,1/2+z
x,-y,1/2+z
loop_
_atom_site_type_symbol
_atom_site_label
_atom_site_fract_x
_atom_site_fract_y
_atom_site_fract_z
Si Si1 0.169320 0.090869 0.202560
Si Si2 0.696743 0.407172 0.594819
Si Si3 0.783202 0.086401 0.991758
Si Si4 0.732951 0.417656 0.836823
Si Si5 0.077253 0.419274 0.595390
Si Si6 0.426105 0.086930 0.831389
Si Si7 0.430278 0.909866 0.163075
O O1 0.134494 0.250000 0.222807
O O2 0.224380 0.114479 0.135781
O O3 0.215635 0.024403 0.270442
O O4 0.104762 0.980510 0.173156
O O5 0.657975 0.250000 0.581011
O O6 0.714208 0.484369 0.519629
O O7 0.647080 0.507834 0.645431
O O8 0.759567 0.250000 0.010731
O O9 0.787295 0.063849 0.906437
O O10 0.863898 0.050062 0.030028
O O11 0.710621 0.250000 0.823075
O O12 0.653985 0.505585 0.847292
O O13 0.061684 0.250000 0.605330
O O14 0.000000 0.500000 0.572018
O O15 0.423325 0.250000 0.863974
O O16 0.439036 0.099694 0.747388
O O17 0.500000 0.000000 0.864087
O O18 0.429620 0.750000 0.129084
O O19 0.500000 0.000000 0.128357
#
# Coordination Sequence:
#
# PCOD8180766 Si02
#       7
#     8   8   8   8   8   8   8
#     4   9  18  32  54  80 105 135 171 213 261 312
#     4  10  18  31  51  75 102 134 173 218 262 312
#     4   9  20  36  55  78 107 144 178 213 262 320
#     4  10  19  35  56  79 110 144 180 223 269 320
#     4  10  20  36  58  82 108 139 176 216 263 319
#     4  10  20  32  50  76 107 143 183 227 274 321
#     4  10  19  30  47  72 102 135 175 224 273 320
#
# _framework density 18.668558999999998
#
# number of rings (size 3 to 8) (size 9 to 14) (size 15 to 20)
#    0.000    2.286    1.429    1.714    0.000    3.429 
#    0.000    1.429    0.000    5.143    0.000    0.000 
#    0.000    0.000    0.000    0.000    0.000    0.000 
#
# Total GULP energy -347033.326049 kJ/mol
# GULP energy per Si atom -12394.047359 kJ/mol
# Density = 1.862607 g / cm^3
# Si number density = 18.668559 Si / 1000 Ang^3
#
#
#
# Elastic Constant Matrix: (Units=GPa)
#
#
# Indices 1 2 3 4 5 6 
#
# 1 82.3242 57.2818 25.1078 0.0000 0.0000 0.0000
# 2 57.2818 137.7466 28.7148 0.0000 0.0000 0.0000
# 3 25.1078 28.7148 71.3324 0.0000 0.0000 0.0000
# 4 0.0000 0.0000 0.0000 19.7780 0.0000 0.0000
# 5 0.0000 0.0000 0.0000 0.0000 20.1001 0.0000
# 6 0.0000 0.0000 0.0000 0.0000 0.0000 29.1119
#
#
#
# Elastic Compliance Matrix: (Units=1/GPa)
#
#
# Indices 1 2 3 4 5 6 
#
# 1 0.017905 -0.006694 -0.003608 0.000000 0.000000 0.000000
# 2 -0.006694 0.010427 -0.001841 0.000000 0.000000 0.000000
# 3 -0.003608 -0.001841 0.016030 0.000000 0.000000 0.000000
# 4 0.000000 0.000000 0.000000 0.050561 0.000000 0.000000
# 5 0.000000 0.000000 0.000000 0.000000 0.049751 0.000000
# 6 0.000000 0.000000 0.000000 0.000000 0.000000 0.034350
#
#
# Mechanical properties :
#
#
# Convention : Reuss Voigt Hill
#
# Bulk Modulus (GPa) = 49.80944 57.06802 53.43873
# Shear Modulus (GPa) = 23.80927 25.81790 24.81358
#
# Velocity S-wave (km/s) = 3.57510 3.72285 3.64973
# Velocity P-wave (km/s) = 6.61670 7.00820 6.81526
#
# Compressibility (1/GPa) = 0.02007652
#
# Stress axis : x y z
#
# Youngs Moduli (GPa) = 55.85063 95.90367 62.38313
#
# Poissons Ratio (x) = 0.64195 0.22506
# Poissons Ratio (y) = 0.37385 0.11487
# Poissons Ratio (z) = 0.20149 0.17659
#
# Static dielectric constant tensor:
#      x y z
#    x 3.273100 0.000000 0.000000 
#    y 0.000000 3.885640 0.000000 
#    z 0.000000 0.000000 3.200410 
# 
# 
# High freq. dielectric constant tensor:
#      x y z
#    x 1.707020 0.000000 0.000000 
#    y 0.000000 1.738740 0.000000 
#    z 0.000000 0.000000 1.699100 
# 
# From -- ./inp_files/14910.got.cif
#   From: 2010.03.12/outbox.cif.g09.slc.cpg/sg39_8_cif.got.tgz:14910.got - 2010.04.14 02:53:20.
