data_PCOD8180335
_publ_section_title
;
Structure prediction by ZEFSAII (Michael W. Deem and Ramdas Pophale) SiO2 
 PCOD8180335
Probable space group: A M M 2
;
_chemical_formula_sum "Si O2"
_cell_formula_units_Z 48
_cell_length_a 9.099230
_cell_length_b 7.564076
_cell_length_c 34.798113
_cell_angle_alpha 90.000000
_cell_angle_beta 90.000000
_cell_angle_gamma 90.000000
_cell_volume 2395.059024
_symmetry_space_group_name_H-M "A M M 2"
_symmetry_group_IT_number 38
_symmetry_cell_setting 'orthorhombic'
loop_
_space_group_symop_operation_xyz
x,y,z
-x,-y,z
-x,y,z
x,-y,z
x,1/2+y,1/2+z
-x,1/2-y,1/2+z
-x,1/2+y,1/2+z
x,1/2-y,1/2+z
loop_
_atom_site_type_symbol
_atom_site_label
_atom_site_fract_x
_atom_site_fract_y
_atom_site_fract_z
Si Si1 0.336129 0.207267 0.008300
Si Si2 0.337232 0.294578 0.091444
Si Si3 0.827841 0.707609 0.432919
Si Si4 0.676006 0.000000 0.383548
Si Si5 0.326717 0.201021 0.739689
Si Si6 0.673775 0.000000 0.296408
Si Si7 0.836368 0.210205 0.663418
O O1 0.500000 0.291447 0.003430
O O2 0.266711 0.262426 0.049352
O O3 0.349155 0.000000 0.005949
O O4 0.228983 0.273150 0.974579
O O5 0.500000 0.207527 0.092338
O O6 0.350339 0.500000 0.099960
O O7 0.238132 0.208951 0.124948
O O8 0.795235 0.500000 0.425782
O O9 0.740386 0.821012 0.401647
O O10 0.000000 0.748891 0.430251
O O11 0.732561 0.000000 0.339677
O O12 0.500000 0.000000 0.387334
O O13 0.500000 0.215761 0.733573
O O14 0.270530 0.323917 0.774512
O O15 0.253624 0.271577 0.700639
O O16 0.279341 0.000000 0.749229
O O17 0.500000 0.000000 0.297002
O O18 0.000000 0.288344 0.666189
O O19 0.840134 0.000000 0.661146
#
# Coordination Sequence:
#
# PCOD8180335 Si02
#       7
#     8   8   8   4   8   4   8
#     4   9  18  33  52  76 106 141 185 233 281 332
#     4   9  17  29  47  72 102 138 181 227 274 325
#     4  10  22  40  60  84 117 156 194 234 288 353
#     4  11  23  39  63  91 119 149 191 243 295 351
#     4   9  17  33  57  79 104 140 177 219 273 328
#     4   9  20  37  57  87 113 135 179 233 279 335
#     4   9  17  30  48  72 103 139 180 221 266 322
#
# _framework density 20.041260999999999
#
# number of rings (size 3 to 8) (size 9 to 14) (size 15 to 20)
#    0.000    2.667    0.000    1.250    1.167    4.333 
#    1.500    3.750    0.000    2.000    0.000    0.000 
#    0.000    0.000    0.000    0.000    0.000    0.000 
#
# Total GULP energy -297526.919269 kJ/mol
# GULP energy per Si atom -12396.954970 kJ/mol
# Density = 1.999565 g / cm^3
# Si number density = 20.041261 Si / 1000 Ang^3
#
#
#
# Elastic Constant Matrix: (Units=GPa)
#
#
# Indices 1 2 3 4 5 6 
#
# 1 94.1187 34.7636 72.8564 0.0000 0.0000 0.0000
# 2 34.7636 69.1019 59.1864 0.0000 0.0000 0.0000
# 3 72.8564 59.1864 202.4497 0.0000 0.0000 0.0000
# 4 0.0000 0.0000 0.0000 8.7606 0.0000 0.0000
# 5 0.0000 0.0000 0.0000 0.0000 1.5541 0.0000
# 6 0.0000 0.0000 0.0000 0.0000 0.0000 17.2122
#
#
#
# Elastic Compliance Matrix: (Units=1/GPa)
#
#
# Indices 1 2 3 4 5 6 
#
# 1 0.015528 -0.004036 -0.004408 0.000000 0.000000 0.000000
# 2 -0.004036 0.020355 -0.004498 0.000000 0.000000 0.000000
# 3 -0.004408 -0.004498 0.007841 0.000000 0.000000 0.000000
# 4 0.000000 0.000000 0.000000 0.114147 0.000000 0.000000
# 5 0.000000 0.000000 0.000000 0.000000 0.643463 0.000000
# 6 0.000000 0.000000 0.000000 0.000000 0.000000 0.058098
#
#
# Mechanical properties :
#
#
# Convention : Reuss Voigt Hill
#
# Bulk Modulus (GPa) = 56.05839 77.69812 66.87826
# Shear Modulus (GPa) = 5.61002 18.76297 12.18649
#
# Velocity S-wave (km/s) = 1.67491 3.06309 2.46858
# Velocity P-wave (km/s) = 5.63672 7.16681 6.44732
#
# Compressibility (1/GPa) = 0.01783854
#
# Stress axis : x y z
#
# Youngs Moduli (GPa) = 64.39988 49.12888 127.53596
#
# Poissons Ratio (x) = 0.19829 0.56220
# Poissons Ratio (y) = 0.25993 0.57368
# Poissons Ratio (z) = 0.28388 0.22099
#
# Static dielectric constant tensor:
#      x y z
#    x 3.695090 0.000000 0.000000 
#    y 0.000000 3.504210 0.000000 
#    z 0.000000 0.000000 3.868490 
# 
# 
# High freq. dielectric constant tensor:
#      x y z
#    x 1.765830 0.000000 0.000000 
#    y 0.000000 1.774080 0.000000 
#    z 0.000000 0.000000 1.784290 
# 
# From -- ./inp_files/24330.got.cif
#   From: 2010.03.12/outbox.cif.g09.slc.cpg/sg38_13_cif.got.tgz:24330.got - 2010.04.14 02:38:36.
