data_PCOD8180828
_publ_section_title
;
Structure prediction by ZEFSAII (Michael W. Deem and Ramdas Pophale) SiO2 
 PCOD8180828
Probable space group: A B M 2
;
_chemical_formula_sum "Si O2"
_cell_formula_units_Z 64
_cell_length_a 14.694574
_cell_length_b 8.653084
_cell_length_c 24.553384
_cell_angle_alpha 90.000000
_cell_angle_beta 90.000000
_cell_angle_gamma 90.000000
_cell_volume 3122.045844
_symmetry_space_group_name_H-M "A B M 2"
_symmetry_group_IT_number 39
_symmetry_cell_setting 'orthorhombic'
loop_
_space_group_symop_operation_xyz
x,y,z
-x,-y,z
-x,1/2+y,z
x,1/2-y,z
x,1/2+y,1/2+z
-x,1/2-y,1/2+z
-x,y,1/2+z
x,-y,1/2+z
loop_
_atom_site_type_symbol
_atom_site_label
_atom_site_fract_x
_atom_site_fract_y
_atom_site_fract_z
Si Si1 0.216631 0.572543 0.805550
Si Si2 0.591087 0.566015 0.533395
Si Si3 0.354786 0.566736 0.644605
Si Si4 0.086562 0.426089 0.208307
Si Si5 0.899222 0.069096 0.399695
Si Si6 0.779910 0.432137 0.500983
Si Si7 0.407354 0.068356 0.264422
Si Si8 0.170675 0.070161 0.610876
O O1 0.213200 0.750000 0.825578
O O2 0.175448 0.557784 0.745262
O O3 0.158257 0.469476 0.846126
O O4 0.320349 0.510238 0.799677
O O5 0.500000 0.500000 0.503487
O O6 0.588995 0.750000 0.537467
O O7 0.586539 0.489378 0.593337
O O8 0.681487 0.515665 0.500639
O O9 0.336169 0.750000 0.641147
O O10 0.402325 0.518874 0.701086
O O11 0.261431 0.473975 0.642921
O O12 0.067714 0.250000 0.193622
O O13 0.091306 0.521800 0.151910
O O14 0.000000 0.500000 0.240007
O O15 0.912424 0.250000 0.403845
O O16 0.840528 0.007262 0.450759
O O17 0.000000 0.000000 0.398388
O O18 0.762665 0.250000 0.498145
O O19 0.836233 0.474612 0.554970
O O20 0.410300 0.250000 0.269245
O O21 0.500000 0.000000 0.289865
O O22 0.167776 0.250000 0.596502
#
# Coordination Sequence:
#
# PCOD8180828 Si02
#       8
#     8   8   8   8   8   8   8   8
#     4  10  22  42  64  87 121 159 200 250 303 355
#     4  11  21  34  55  87 123 163 207 248 300 358
#     4  10  18  33  54  80 120 163 205 248 294 349
#     4  11  22  38  58  85 120 158 198 243 301 365
#     4  11  25  44  69  95 117 151 199 251 308 364
#     4  10  22  41  62  87 121 158 201 253 304 358
#     4  10  21  36  56  86 120 161 202 244 295 351
#     4  11  21  34  56  87 121 160 200 242 300 359
#
# _framework density 20.499376999999999
#
# number of rings (size 3 to 8) (size 9 to 14) (size 15 to 20)
#    0.000    1.500    1.250    6.000    0.000    7.000 
#    0.000    1.875    0.000    1.500    0.000    0.000 
#    0.000    0.000    0.000    0.000    0.000    0.000 
#
# Total GULP energy -396743.298476 kJ/mol
# GULP energy per Si atom -12398.228077 kJ/mol
# Density = 2.045272 g / cm^3
# Si number density = 20.499377 Si / 1000 Ang^3
#
#
#
# Elastic Constant Matrix: (Units=GPa)
#
#
# Indices 1 2 3 4 5 6 
#
# 1 150.1262 33.5310 50.7613 0.0000 0.0000 0.0000
# 2 33.5310 64.0408 22.6956 0.0000 0.0000 0.0000
# 3 50.7613 22.6956 81.8644 0.0000 0.0000 0.0000
# 4 0.0000 0.0000 0.0000 22.3591 0.0000 0.0000
# 5 0.0000 0.0000 0.0000 0.0000 22.8286 0.0000
# 6 0.0000 0.0000 0.0000 0.0000 0.0000 36.8993
#
#
#
# Elastic Compliance Matrix: (Units=1/GPa)
#
#
# Indices 1 2 3 4 5 6 
#
# 1 0.008921 -0.003006 -0.004698 0.000000 0.000000 0.000000
# 2 -0.003006 0.018329 -0.003218 0.000000 0.000000 0.000000
# 3 -0.004698 -0.003218 0.016021 0.000000 0.000000 0.000000
# 4 0.000000 0.000000 0.000000 0.044725 0.000000 0.000000
# 5 0.000000 0.000000 0.000000 0.000000 0.043805 0.000000
# 6 0.000000 0.000000 0.000000 0.000000 0.000000 0.027101
#
#
# Mechanical properties :
#
#
# Convention : Reuss Voigt Hill
#
# Bulk Modulus (GPa) = 46.66961 56.66746 51.66854
# Shear Modulus (GPa) = 26.61176 29.02030 27.81603
#
# Velocity S-wave (km/s) = 3.60693 3.76662 3.68764
# Velocity P-wave (km/s) = 6.33738 6.82789 6.58720
#
# Compressibility (1/GPa) = 0.02142722
#
# Stress axis : x y z
#
# Youngs Moduli (GPa) = 112.09453 54.55776 62.41967
#
# Poissons Ratio (x) = 0.16400 0.29327
# Poissons Ratio (y) = 0.33695 0.20084
# Poissons Ratio (z) = 0.52665 0.17555
#
# Static dielectric constant tensor:
#      x y z
#    x 4.200770 0.000000 0.000000 
#    y 0.000000 3.686310 0.000000 
#    z 0.000000 0.000000 3.594610 
# 
# 
# High freq. dielectric constant tensor:
#      x y z
#    x 1.817360 0.000000 0.000000 
#    y 0.000000 1.804110 0.000000 
#    z 0.000000 0.000000 1.777390 
# 
# From -- ./inp_files/16278.got.cif
#   From: 2010.03.12/outbox.cif.g09.slc.cpg/sg39_9_cif.got.tgz:16278.got - 2010.04.14 02:53:20.
