data_PCOD8180007
_publ_section_title
;
Structure prediction by ZEFSAII (Michael W. Deem and Ramdas Pophale) SiO2 
 PCOD8180007
Probable space group: A M M 2
;
_chemical_formula_sum "Si O2"
_cell_formula_units_Z 56
_cell_length_a 14.199400
_cell_length_b 9.226202
_cell_length_c 20.930840
_cell_angle_alpha 90.000000
_cell_angle_beta 90.000000
_cell_angle_gamma 90.000000
_cell_volume 2742.076774
_symmetry_space_group_name_H-M "A M M 2"
_symmetry_group_IT_number 38
_symmetry_cell_setting 'orthorhombic'
loop_
_space_group_symop_operation_xyz
x,y,z
-x,-y,z
-x,y,z
x,-y,z
x,1/2+y,1/2+z
-x,1/2-y,1/2+z
-x,1/2+y,1/2+z
x,1/2-y,1/2+z
loop_
_atom_site_type_symbol
_atom_site_label
_atom_site_fract_x
_atom_site_fract_y
_atom_site_fract_z
Si Si1 0.602607 0.671362 0.650060
Si Si2 0.888325 0.165806 0.579796
Si Si3 0.610817 0.158747 0.010922
Si Si4 0.604475 0.334154 0.891709
Si Si5 0.889177 0.167931 0.954660
Si Si6 0.797249 0.666364 0.839049
Si Si7 0.798190 0.669504 0.696687
O O1 0.500000 0.734543 0.672300
O O2 0.591356 0.500000 0.643123
O O3 0.632434 0.730919 0.579805
O O4 0.687013 0.712934 0.697285
O O5 0.848175 0.251040 0.517689
O O6 0.854357 0.237415 0.645514
O O7 0.000000 0.175108 0.579861
O O8 0.853392 0.000000 0.576635
O O9 0.500000 0.144460 0.002932
O O10 0.658391 0.000000 0.004703
O O11 0.649198 0.257118 0.953858
O O12 0.500000 0.275196 0.870693
O O13 0.593429 0.500000 0.910619
O O14 0.683118 0.312106 0.837105
O O15 0.846033 0.230056 0.889703
O O16 0.000000 0.192585 0.950423
O O17 0.862612 0.000000 0.960561
O O18 0.821463 0.500000 0.856547
O O19 0.835360 0.703789 0.768044
O O20 0.810934 0.500000 0.680010
#
# Coordination Sequence:
#
# PCOD8180007 Si02
#       7
#     8   8   8   8   8   8   8
#     4   8  15  29  50  77 109 146 190 235 276 323
#     4  10  22  41  64  88 115 146 181 229 290 349
#     4   8  14  26  45  70  98 131 178 234 284 325
#     4   9  18  32  49  73 109 151 192 232 275 326
#     4  10  22  41  65  89 111 141 186 237 287 344
#     4  10  22  37  54  83 121 157 192 233 284 334
#     4  10  21  36  56  85 119 155 195 235 277 331
#
# _framework density 20.422478000000002
#
# number of rings (size 3 to 8) (size 9 to 14) (size 15 to 20)
#    0.000    2.714    0.000    1.714    2.000    4.000 
#    0.000    5.714    0.000    0.429    0.000    2.000 
#    0.000    0.000    0.000    0.000    0.000    0.000 
#
# Total GULP energy -346983.525215 kJ/mol
# GULP energy per Si atom -12392.268758 kJ/mol
# Density = 2.037600 g / cm^3
# Si number density = 20.422478 Si / 1000 Ang^3
#
#
#
# Elastic Constant Matrix: (Units=GPa)
#
#
# Indices 1 2 3 4 5 6 
#
# 1 30.6177 33.8793 35.5145 0.0000 0.0000 0.0000
# 2 33.8793 100.1551 68.3290 0.0000 0.0000 0.0000
# 3 35.5145 68.3290 133.6393 0.0000 0.0000 0.0000
# 4 0.0000 0.0000 0.0000 30.8530 0.0000 0.0000
# 5 0.0000 0.0000 0.0000 0.0000 26.8743 0.0000
# 6 0.0000 0.0000 0.0000 0.0000 0.0000 20.1550
#
#
#
# Elastic Compliance Matrix: (Units=1/GPa)
#
#
# Indices 1 2 3 4 5 6 
#
# 1 0.057503 -0.013861 -0.008194 0.000000 0.000000 0.000000
# 2 -0.013861 0.018674 -0.005864 0.000000 0.000000 0.000000
# 3 -0.008194 -0.005864 0.012659 0.000000 0.000000 0.000000
# 4 0.000000 0.000000 0.000000 0.032412 0.000000 0.000000
# 5 0.000000 0.000000 0.000000 0.000000 0.037210 0.000000
# 6 0.000000 0.000000 0.000000 0.000000 0.000000 0.049615
#
#
# Mechanical properties :
#
#
# Convention : Reuss Voigt Hill
#
# Bulk Modulus (GPa) = 30.30604 59.98418 45.14511
# Shear Modulus (GPa) = 18.18758 24.02242 21.10500
#
# Velocity S-wave (km/s) = 2.98747 3.43340 3.21817
# Velocity P-wave (km/s) = 5.17414 6.71961 5.99687
#
# Compressibility (1/GPa) = 0.03299673
#
# Stress axis : x y z
#
# Youngs Moduli (GPa) = 17.39025 53.54980 78.99573
#
# Poissons Ratio (x) = 0.74226 0.64732
# Poissons Ratio (y) = 0.24105 0.46326
# Poissons Ratio (z) = 0.14250 0.31404
#
# Static dielectric constant tensor:
#      x y z
#    x 3.769420 0.000000 0.000000 
#    y 0.000000 3.694440 0.000000 
#    z 0.000000 0.000000 3.712050 
# 
# 
# High freq. dielectric constant tensor:
#      x y z
#    x 1.801590 0.000000 0.000000 
#    y 0.000000 1.770000 0.000000 
#    z 0.000000 0.000000 1.794660 
# 
# From -- ./inp_files/21022.got.cif
#   From: 2010.03.12/outbox.cif.g09.slc.cpg/sg38_11_cif.got.tgz:21022.got - 2010.04.14 02:38:36.
