data_PCOD8180687
_publ_section_title
;
Structure prediction by ZEFSAII (Michael W. Deem and Ramdas Pophale) SiO2 
 PCOD8180687
Probable space group: A B M 2
;
_chemical_formula_sum "Si O2"
_cell_formula_units_Z 48
_cell_length_a 9.905175
_cell_length_b 30.394950
_cell_length_c 8.588080
_cell_angle_alpha 90.000000
_cell_angle_beta 90.000000
_cell_angle_gamma 90.000000
_cell_volume 2585.590048
_symmetry_space_group_name_H-M "A B M 2"
_symmetry_group_IT_number 39
_symmetry_cell_setting 'orthorhombic'
loop_
_space_group_symop_operation_xyz
x,y,z
-x,-y,z
-x,1/2+y,z
x,1/2-y,z
x,1/2+y,1/2+z
-x,1/2-y,1/2+z
-x,y,1/2+z
x,-y,1/2+z
loop_
_atom_site_type_symbol
_atom_site_label
_atom_site_fract_x
_atom_site_fract_y
_atom_site_fract_z
Si Si1 0.851608 0.866636 0.970540
Si Si2 0.357474 0.198444 0.473424
Si Si3 0.851608 0.366636 0.836885
Si Si4 0.849404 0.955966 0.837948
Si Si5 0.849404 0.044034 0.969478
Si Si6 0.642526 0.198444 0.334002
O O1 0.781883 0.910792 0.898721
O O2 0.760649 0.825208 0.927773
O O3 0.000000 0.858180 0.903713
O O4 0.862753 0.872310 0.153713
O O5 0.335526 0.250000 0.448251
O O6 0.239352 0.174792 0.379653
O O7 0.500000 0.183169 0.403713
O O8 0.351664 0.185198 0.653713
O O9 0.781883 0.410792 0.908705
O O10 0.848901 0.957306 0.653713
O O11 0.000000 0.955445 0.903713
O O12 0.775113 1.000000 0.903713
O O13 0.664474 0.250000 0.359175
#
# Coordination Sequence:
#
# PCOD8180687 Si02
#       6
#     8   8   8   8   8   8
#     4  11  21  34  53  79 109 140 176 219 265 309
#     4  10  21  38  58  79 104 137 176 216 261 315
#     4  11  21  34  53  79 109 140 176 219 265 309
#     4  10  17  28  46  71 103 137 173 212 257 308
#     4  10  17  28  46  71 103 137 173 212 257 308
#     4  10  21  38  58  79 104 137 176 216 261 315
#
# _framework density 18.564427999999999
#
# number of rings (size 3 to 8) (size 9 to 14) (size 15 to 20)
#    0.000    1.667    0.000   10.000    0.000    2.667 
#    0.000    0.000    0.000    1.000    0.000    7.000 
#    0.000    0.000    0.000    0.000    0.000    0.000 
#
# Total GULP energy -297578.763527 kJ/mol
# GULP energy per Si atom -12399.115147 kJ/mol
# Density = 1.852217 g / cm^3
# Si number density = 18.564428 Si / 1000 Ang^3
#
#
#
# Elastic Constant Matrix: (Units=GPa)
#
#
# Indices 1 2 3 4 5 6 
#
# 1 71.7361 49.2770 40.1404 0.0000 0.0000 0.0000
# 2 49.2770 90.2231 53.1695 0.0000 0.0000 0.0000
# 3 40.1404 53.1695 185.4482 0.0000 0.0000 0.0000
# 4 0.0000 0.0000 0.0000 35.9265 0.0000 0.0000
# 5 0.0000 0.0000 0.0000 0.0000 26.8982 0.0000
# 6 0.0000 0.0000 0.0000 0.0000 0.0000 6.5716
#
#
#
# Elastic Compliance Matrix: (Units=1/GPa)
#
#
# Indices 1 2 3 4 5 6 
#
# 1 0.022715 -0.011442 -0.001636 0.000000 0.000000 0.000000
# 2 -0.011442 0.019101 -0.003000 0.000000 0.000000 0.000000
# 3 -0.001636 -0.003000 0.006607 0.000000 0.000000 0.000000
# 4 0.000000 0.000000 0.000000 0.027835 0.000000 0.000000
# 5 0.000000 0.000000 0.000000 0.000000 0.037177 0.000000
# 6 0.000000 0.000000 0.000000 0.000000 0.000000 0.152170
#
#
# Mechanical properties :
#
#
# Convention : Reuss Voigt Hill
#
# Bulk Modulus (GPa) = 61.47585 70.28678 65.88132
# Shear Modulus (GPa) = 16.49170 27.53397 22.01283
#
# Velocity S-wave (km/s) = 2.98375 3.85536 3.44721
# Velocity P-wave (km/s) = 6.71246 7.60010 7.17003
#
# Compressibility (1/GPa) = 0.01626655
#
# Stress axis : x y z
#
# Youngs Moduli (GPa) = 44.02299 52.35397 151.36549
#
# Poissons Ratio (x) = 0.59904 0.24766
# Poissons Ratio (y) = 0.50372 0.45405
# Poissons Ratio (z) = 0.07203 0.15704
#
# Static dielectric constant tensor:
#      x y z
#    x 3.005050 0.000000 0.000000 
#    y 0.000000 4.301620 0.000000 
#    z 0.000000 0.000000 3.582600 
# 
# 
# High freq. dielectric constant tensor:
#      x y z
#    x 1.668850 0.000000 0.000000 
#    y 0.000000 1.741270 0.000000 
#    z 0.000000 0.000000 1.746470 
# 
# From -- ./inp_files/2324.got.cif
#   From: 2010.03.12/outbox.cif.g09.slc.cpg/sg39_2_cif.got.tgz:2324.got - 2010.04.14 02:53:20.
