data_PCOD8180865
_publ_section_title
;
Structure prediction by ZEFSAII (Michael W. Deem and Ramdas Pophale) SiO2 
 PCOD8180865
Probable space group: A B M 2
;
_chemical_formula_sum "Si O2"
_cell_formula_units_Z 40
_cell_length_a 14.708067
_cell_length_b 14.818085
_cell_length_c 8.975961
_cell_angle_alpha 90.000000
_cell_angle_beta 90.000000
_cell_angle_gamma 90.000000
_cell_volume 1956.269294
_symmetry_space_group_name_H-M "A B M 2"
_symmetry_group_IT_number 39
_symmetry_cell_setting 'orthorhombic'
loop_
_space_group_symop_operation_xyz
x,y,z
-x,-y,z
-x,1/2+y,z
x,1/2-y,z
x,1/2+y,1/2+z
-x,1/2-y,1/2+z
-x,y,1/2+z
x,-y,1/2+z
loop_
_atom_site_type_symbol
_atom_site_label
_atom_site_fract_x
_atom_site_fract_y
_atom_site_fract_z
Si Si1 0.085271 0.446609 0.564860
Si Si2 0.205267 0.444814 0.845888
Si Si3 0.622438 0.068764 0.894189
Si Si4 0.707733 0.250000 0.988733
Si Si5 0.096648 0.750000 0.044740
Si Si6 0.780341 0.250000 0.301064
Si Si7 0.500000 0.000000 0.150993
O O1 0.171668 0.436614 0.674583
O O2 0.123115 0.505509 0.428732
O O3 0.047717 0.346683 0.512734
O O4 0.000000 0.500000 0.635223
O O5 0.299710 0.496522 0.857216
O O6 0.225390 0.341419 0.901089
O O7 0.663386 0.166262 0.908342
O O8 0.550394 0.071356 0.759054
O O9 0.574546 0.048796 0.050718
O O10 0.813413 0.250000 0.941811
O O11 0.701628 0.250000 0.170709
O O12 0.120651 0.750000 0.221299
#
# Coordination Sequence:
#
# PCOD8180865 Si02
#       7
#     8   8   8   4   4   4   4
#     4  11  22  37  61  89 120 160 211 258 301 360
#     4  11  20  40  61  84 119 170 199 245 317 368
#     4  11  21  40  63  86 125 160 201 250 313 369
#     4  10  18  38  64  85 114 168 195 234 311 378
#     4   8  18  39  55  87 119 162 194 245 310 350
#     4   8  18  33  59  86 111 152 209 237 291 366
#     4  10  24  38  58  96 120 152 204 266 298 364
#
# _framework density 20.447082999999999
#
# number of rings (size 3 to 8) (size 9 to 14) (size 15 to 20)
#    0.600    1.200    2.000    3.000    0.000    1.600 
#    0.000   13.000    0.000    0.000    0.000    0.000 
#    0.000    0.000    0.000    0.000    0.000    0.000 
#
# Total GULP energy -247785.697601 kJ/mol
# GULP energy per Si atom -12389.284880 kJ/mol
# Density = 2.040054 g / cm^3
# Si number density = 20.447083 Si / 1000 Ang^3
#
#
#
# Elastic Constant Matrix: (Units=GPa)
#
#
# Indices 1 2 3 4 5 6 
#
# 1 88.0906 56.9201 18.2156 0.0000 0.0000 0.0000
# 2 56.9201 220.3221 35.9673 0.0000 0.0000 0.0000
# 3 18.2156 35.9673 65.2424 0.0000 0.0000 0.0000
# 4 0.0000 0.0000 0.0000 35.0488 0.0000 0.0000
# 5 0.0000 0.0000 0.0000 0.0000 31.0835 0.0000
# 6 0.0000 0.0000 0.0000 0.0000 0.0000 43.1444
#
#
#
# Elastic Compliance Matrix: (Units=1/GPa)
#
#
# Indices 1 2 3 4 5 6 
#
# 1 0.013880 -0.003245 -0.002086 0.000000 0.000000 0.000000
# 2 -0.003245 0.005747 -0.002262 0.000000 0.000000 0.000000
# 3 -0.002086 -0.002262 0.017157 0.000000 0.000000 0.000000
# 4 0.000000 0.000000 0.000000 0.028532 0.000000 0.000000
# 5 0.000000 0.000000 0.000000 0.000000 0.032171 0.000000
# 6 0.000000 0.000000 0.000000 0.000000 0.000000 0.023178
#
#
# Mechanical properties :
#
#
# Convention : Reuss Voigt Hill
#
# Bulk Modulus (GPa) = 46.30329 66.20680 56.25504
# Shear Modulus (GPa) = 34.95265 39.35882 37.15574
#
# Velocity S-wave (km/s) = 4.13900 4.39214 4.26745
# Velocity P-wave (km/s) = 6.74806 7.62700 7.20095
#
# Compressibility (1/GPa) = 0.02159674
#
# Stress axis : x y z
#
# Youngs Moduli (GPa) = 72.04415 174.01879 58.28572
#
# Poissons Ratio (x) = 0.56476 0.12160
# Poissons Ratio (y) = 0.23381 0.13183
# Poissons Ratio (z) = 0.15030 0.39361
#
# Static dielectric constant tensor:
#      x y z
#    x 3.591440 0.000000 0.000000 
#    y 0.000000 3.893900 0.000000 
#    z 0.000000 0.000000 3.444290 
# 
# 
# High freq. dielectric constant tensor:
#      x y z
#    x 1.790110 0.000000 0.000000 
#    y 0.000000 1.813660 0.000000 
#    z 0.000000 0.000000 1.772920 
# 
# From -- ./inp_files/3120.got.cif
#   From: 2010.03.12/outbox.cif.g09.slc.cpg/sg39_2_cif.got.tgz:3120.got - 2010.04.14 02:53:20.
