data_PCOD8180364
_publ_section_title
;
Structure prediction by ZEFSAII (Michael W. Deem and Ramdas Pophale) SiO2 
 PCOD8180364
Probable space group: A M M 2
;
_chemical_formula_sum "Si O2"
_cell_formula_units_Z 64
_cell_length_a 19.243552
_cell_length_b 17.287243
_cell_length_c 9.606333
_cell_angle_alpha 90.000000
_cell_angle_beta 90.000000
_cell_angle_gamma 90.000000
_cell_volume 3195.719198
_symmetry_space_group_name_H-M "A M M 2"
_symmetry_group_IT_number 38
_symmetry_cell_setting 'orthorhombic'
loop_
_space_group_symop_operation_xyz
x,y,z
-x,-y,z
-x,y,z
x,-y,z
x,1/2+y,1/2+z
-x,1/2-y,1/2+z
-x,1/2+y,1/2+z
x,1/2-y,1/2+z
loop_
_atom_site_type_symbol
_atom_site_label
_atom_site_fract_x
_atom_site_fract_y
_atom_site_fract_z
Si Si1 0.420410 0.330451 0.142900
Si Si2 0.786837 0.681899 0.301271
Si Si3 0.283031 0.087580 0.576316
Si Si4 0.578214 0.817967 0.965918
Si Si5 0.297859 0.412275 0.514671
Si Si6 0.777163 0.633091 0.790799
Si Si7 0.924567 0.343173 0.757046
Si Si8 0.075398 0.302918 0.441984
O O1 0.500000 0.358909 0.113910
O O2 0.364272 0.396823 0.109384
O O3 0.412157 0.303667 0.301774
O O4 0.399027 0.259743 0.044277
O O5 0.771562 0.644735 0.151669
O O6 0.728990 0.648954 0.403030
O O7 0.779333 0.773906 0.291391
O O8 0.862146 0.654237 0.360096
O O9 0.267343 0.098216 0.414692
O O10 0.267905 0.000000 0.622414
O O11 0.500000 0.839443 0.004137
O O12 0.621155 0.890557 0.026275
O O13 0.289411 0.500000 0.461626
O O14 0.259261 0.401630 0.657858
O O15 0.857836 0.602392 0.787864
O O16 0.910637 0.300326 0.608256
O O17 0.927884 0.283712 0.884574
O O18 0.000000 0.387002 0.751365
O O19 0.000000 0.343383 0.413087
#
# Coordination Sequence:
#
# PCOD8180364 Si02
#       8
#     8   8   8   8   8   8   8   8
#     4  10  22  41  65  91 120 156 201 247 296 356
#     4  11  21  38  64  88 116 156 203 251 293 353
#     4  12  26  41  59  90 127 161 198 246 303 357
#     4  10  22  40  64  92 120 156 201 248 297 355
#     4  12  24  39  59  89 124 157 195 245 300 351
#     4  11  23  40  62  89 119 162 204 247 297 357
#     4   9  18  33  56  88 120 150 197 256 304 348
#     4   9  18  32  55  89 120 150 197 256 306 347
#
# _framework density 20.026790999999999
#
# number of rings (size 3 to 8) (size 9 to 14) (size 15 to 20)
#    0.000    1.500    2.500    3.000    7.000    0.500 
#    0.000    1.250    0.000    6.000    0.000    0.000 
#    0.000    0.000    0.000    0.000    0.000    0.000 
#
# Total GULP energy -396605.374440 kJ/mol
# GULP energy per Si atom -12393.917951 kJ/mol
# Density = 1.998121 g / cm^3
# Si number density = 20.026791 Si / 1000 Ang^3
#
#
#
# Elastic Constant Matrix: (Units=GPa)
#
#
# Indices 1 2 3 4 5 6 
#
# 1 111.6572 33.0748 4.6111 0.0000 0.0000 0.0000
# 2 33.0748 71.8840 12.3684 0.0000 0.0000 0.0000
# 3 4.6111 12.3684 30.3170 0.0000 0.0000 0.0000
# 4 0.0000 0.0000 0.0000 14.6092 0.0000 0.0000
# 5 0.0000 0.0000 0.0000 0.0000 34.6237 0.0000
# 6 0.0000 0.0000 0.0000 0.0000 0.0000 1.9309
#
#
#
# Elastic Compliance Matrix: (Units=1/GPa)
#
#
# Indices 1 2 3 4 5 6 
#
# 1 0.010374 -0.004841 0.000397 0.000000 0.000000 0.000000
# 2 -0.004841 0.017221 -0.006289 0.000000 0.000000 0.000000
# 3 0.000397 -0.006289 0.035490 0.000000 0.000000 0.000000
# 4 0.000000 0.000000 0.000000 0.068450 0.000000 0.000000
# 5 0.000000 0.000000 0.000000 0.000000 0.028882 0.000000
# 6 0.000000 0.000000 0.000000 0.000000 0.000000 0.517896
#
#
# Mechanical properties :
#
#
# Convention : Reuss Voigt Hill
#
# Bulk Modulus (GPa) = 24.02796 34.88521 29.45659
# Shear Modulus (GPa) = 7.00621 21.15302 14.07961
#
# Velocity S-wave (km/s) = 1.87243 3.25350 2.65436
# Velocity P-wave (km/s) = 4.08640 5.61879 4.91271
#
# Compressibility (1/GPa) = 0.04161818
#
# Stress axis : x y z
#
# Youngs Moduli (GPa) = 96.39771 58.06850 28.17681
#
# Poissons Ratio (x) = 0.28114 -0.01120
# Poissons Ratio (y) = 0.46670 0.17721
# Poissons Ratio (z) = -0.03830 0.36521
#
# Static dielectric constant tensor:
#      x y z
#    x 4.335700 0.000000 0.000000 
#    y 0.000000 3.231290 0.000000 
#    z 0.000000 0.000000 3.850330 
# 
# 
# High freq. dielectric constant tensor:
#      x y z
#    x 1.808870 0.000000 0.000000 
#    y 0.000000 1.733260 0.000000 
#    z 0.000000 0.000000 1.795430 
# 
# From -- ./inp_files/6826.got.cif
#   From: 2010.03.12/outbox.cif.g09.slc.cpg/sg38_4_cif.got.tgz:6826.got - 2010.04.14 02:38:36.
