data_PCOD8180713
_publ_section_title
;
Structure prediction by ZEFSAII (Michael W. Deem and Ramdas Pophale) SiO2 
 PCOD8180713
Probable space group: A B M 2
;
_chemical_formula_sum "Si O2"
_cell_formula_units_Z 56
_cell_length_a 17.616279
_cell_length_b 9.055564
_cell_length_c 18.947894
_cell_angle_alpha 90.000000
_cell_angle_beta 90.000000
_cell_angle_gamma 90.000000
_cell_volume 3022.669269
_symmetry_space_group_name_H-M "A B M 2"
_symmetry_group_IT_number 39
_symmetry_cell_setting 'orthorhombic'
loop_
_space_group_symop_operation_xyz
x,y,z
-x,-y,z
-x,1/2+y,z
x,1/2-y,z
x,1/2+y,1/2+z
-x,1/2-y,1/2+z
-x,y,1/2+z
x,-y,1/2+z
loop_
_atom_site_type_symbol
_atom_site_label
_atom_site_fract_x
_atom_site_fract_y
_atom_site_fract_z
Si Si1 0.252725 0.576054 0.865420
Si Si2 0.822922 0.084707 0.233385
Si Si3 0.429286 0.418550 0.186144
Si Si4 0.186191 0.418164 0.512787
Si Si5 0.693160 0.592364 0.619712
Si Si6 0.919628 0.426492 0.622341
Si Si7 0.576738 0.076670 0.846929
O O1 0.253284 0.750000 0.848023
O O2 0.214160 0.492160 0.800794
O O3 0.341354 0.527476 0.879685
O O4 0.197900 0.537921 0.931194
O O5 0.852788 0.250000 0.253326
O O6 0.761070 0.100093 0.173880
O O7 0.889456 0.986601 0.198001
O O8 0.500000 0.500000 0.151457
O O9 0.448005 0.250000 0.184416
O O10 0.358253 0.453058 0.136978
O O11 0.415004 0.473416 0.265593
O O12 0.155050 0.250000 0.520429
O O13 0.271738 0.429211 0.542660
O O14 0.131520 0.529453 0.554523
O O15 0.648458 0.750000 0.623278
O O16 0.925167 0.250000 0.626012
O O17 0.000000 0.500000 0.607798
O O18 0.563822 0.250000 0.856140
O O19 0.500000 0.000000 0.879346
#
# Coordination Sequence:
#
# PCOD8180713 Si02
#       7
#     8   8   8   8   8   8   8
#     4  10  19  35  56  81 114 150 188 231 277 328
#     4  10  20  34  56  84 112 140 178 223 271 322
#     4  10  18  28  45  70  99 132 178 229 279 329
#     4   9  20  37  57  81 113 149 183 220 272 331
#     4   9  17  31  49  72 101 137 176 219 267 319
#     4  11  22  39  63  87 114 144 181 223 271 330
#     4   9  18  30  47  73 104 142 186 231 281 329
#
# _framework density 18.526669999999999
#
# number of rings (size 3 to 8) (size 9 to 14) (size 15 to 20)
#    0.000    2.286    1.429    3.000    0.000    4.000 
#    0.000    1.429    0.000    5.143    0.000    0.000 
#    0.000    0.000    0.000    0.000    0.000    0.000 
#
# Total GULP energy -346940.057379 kJ/mol
# GULP energy per Si atom -12390.716335 kJ/mol
# Density = 1.848450 g / cm^3
# Si number density = 18.526670 Si / 1000 Ang^3
#
#
#
# Elastic Constant Matrix: (Units=GPa)
#
#
# Indices 1 2 3 4 5 6 
#
# 1 90.7719 45.9242 22.0882 0.0000 0.0000 0.0000
# 2 45.9242 95.9972 29.2138 0.0000 0.0000 0.0000
# 3 22.0882 29.2138 62.6533 0.0000 0.0000 0.0000
# 4 0.0000 0.0000 0.0000 -20.0662 0.0000 0.0000
# 5 0.0000 0.0000 0.0000 0.0000 20.3318 0.0000
# 6 0.0000 0.0000 0.0000 0.0000 0.0000 33.8542
#
#
#
# Elastic Compliance Matrix: (Units=1/GPa)
#
#
# Indices 1 2 3 4 5 6 
#
# 1 0.014798 -0.006400 -0.002233 0.000000 0.000000 0.000000
# 2 -0.006400 0.014907 -0.004695 0.000000 0.000000 0.000000
# 3 -0.002233 -0.004695 0.018937 0.000000 0.000000 0.000000
# 4 0.000000 0.000000 0.000000 -0.049835 0.000000 0.000000
# 5 0.000000 0.000000 0.000000 0.000000 0.049184 0.000000
# 6 0.000000 0.000000 0.000000 0.000000 0.000000 0.029538
#
#
# Mechanical properties :
#
#
# Convention : Reuss Voigt Hill
#
# Bulk Modulus (GPa) = 45.48026 49.31941 47.39983
# Shear Modulus (GPa) = 44.83787 16.97039 30.90413
#
# Velocity S-wave (km/s) = 4.92487 3.02983 4.08865
# Velocity P-wave (km/s) = 7.54592 6.23846 6.92312
#
# Compressibility (1/GPa) = 0.02198756
#
# Stress axis : x y z
#
# Youngs Moduli (GPa) = 67.57803 67.08182 52.80645
#
# Poissons Ratio (x) = 0.42930 0.11791
# Poissons Ratio (y) = 0.43247 0.24791
# Poissons Ratio (z) = 0.15089 0.31493
#
# Static dielectric constant tensor:
#      x y z
#    x 3.591980 0.000000 0.000000 
#    y 0.000000 3.750250 0.000000 
#    z 0.000000 0.000000 3.353440 
# 
# 
# High freq. dielectric constant tensor:
#      x y z
#    x 1.710770 0.000000 0.000000 
#    y 0.000000 1.721240 0.000000 
#    z 0.000000 0.000000 1.698460 
# 
# From -- ./inp_files/14930.got.cif
#   From: 2010.03.12/outbox.cif.g09.slc.cpg/sg39_8_cif.got.tgz:14930.got - 2010.04.14 02:53:20.
