data_PCOD8180984
_publ_section_title
;
Structure prediction by ZEFSAII (Michael W. Deem and Ramdas Pophale) SiO2 
 PCOD8180984
Probable space group: A B M 2
;
_chemical_formula_sum "Si O2"
_cell_formula_units_Z 64
_cell_length_a 16.434720
_cell_length_b 9.081786
_cell_length_c 21.439672
_cell_angle_alpha 90.000000
_cell_angle_beta 90.000000
_cell_angle_gamma 90.000000
_cell_volume 3200.012762
_symmetry_space_group_name_H-M "A B M 2"
_symmetry_group_IT_number 39
_symmetry_cell_setting 'orthorhombic'
loop_
_space_group_symop_operation_xyz
x,y,z
-x,-y,z
-x,1/2+y,z
x,1/2-y,z
x,1/2+y,1/2+z
-x,1/2-y,1/2+z
-x,y,1/2+z
x,-y,1/2+z
loop_
_atom_site_type_symbol
_atom_site_label
_atom_site_fract_x
_atom_site_fract_y
_atom_site_fract_z
Si Si1 0.921485 0.413590 0.431470
Si Si2 0.583911 0.926345 0.452435
Si Si3 0.241268 0.917681 0.896760
Si Si4 0.614253 0.913544 0.589557
Si Si5 0.734732 0.581743 0.254843
Si Si6 0.207418 0.415177 0.639633
Si Si7 0.423229 0.074284 0.722871
Si Si8 0.074039 0.411747 0.076792
O O1 0.917486 0.250000 0.401005
O O2 0.833405 0.490579 0.424940
O O3 0.939587 0.396004 0.503853
O O4 0.000000 0.500000 0.401903
O O5 0.575009 0.750000 0.448505
O O6 0.667254 0.974764 0.415892
O O7 0.593709 0.990035 0.523518
O O8 0.500000 0.000000 0.425262
O O9 0.233336 0.750000 0.920893
O O10 0.226204 0.925688 0.822800
O O11 0.579139 0.750000 0.583712
O O12 0.709187 0.910753 0.602661
O O13 0.575373 0.987257 0.651203
O O14 0.715549 0.750000 0.235419
O O15 0.793415 0.508045 0.203738
O O16 0.653710 0.485337 0.259369
O O17 0.178124 0.250000 0.655665
O O18 0.152979 0.493583 0.588998
O O19 0.423611 0.250000 0.726249
O O20 0.500000 0.000000 0.756960
O O21 0.080348 0.250000 0.107596
O O22 0.000000 0.500000 0.108403
#
# Coordination Sequence:
#
# PCOD8180984 Si02
#       8
#     8   8   8   8   8   8   8   8
#     4  10  21  37  61  90 118 147 183 226 276 332
#     4  10  20  35  53  77 109 145 183 226 275 330
#     4  10  22  39  58  79 110 151 192 235 284 330
#     4   8  16  30  50  75 103 134 171 216 271 329
#     4  10  21  37  54  75 104 141 185 231 276 328
#     4  10  19  34  56  80 106 140 178 222 276 331
#     4  10  19  32  51  76 103 136 178 226 280 335
#     4  10  20  34  54  84 116 144 173 212 264 325
#
# _framework density 19.999921000000001
#
# number of rings (size 3 to 8) (size 9 to 14) (size 15 to 20)
#    0.000    2.250    0.000    3.750    0.000    4.500 
#    0.000    5.000    0.000    3.000    0.000    0.000 
#    0.000    0.000    0.000    0.000    0.000    0.000 
#
# Total GULP energy -396465.734695 kJ/mol
# GULP energy per Si atom -12389.554209 kJ/mol
# Density = 1.995440 g / cm^3
# Si number density = 19.999921 Si / 1000 Ang^3
#
#
#
# Elastic Constant Matrix: (Units=GPa)
#
#
# Indices 1 2 3 4 5 6 
#
# 1 108.6375 56.1669 9.3286 0.0000 0.0000 0.0000
# 2 56.1669 128.9709 19.3403 0.0000 0.0000 0.0000
# 3 9.3286 19.3403 37.0352 0.0000 0.0000 0.0000
# 4 0.0000 0.0000 0.0000 14.2620 0.0000 0.0000
# 5 0.0000 0.0000 0.0000 0.0000 -7.6158 0.0000
# 6 0.0000 0.0000 0.0000 0.0000 0.0000 36.3449
#
#
#
# Elastic Compliance Matrix: (Units=1/GPa)
#
#
# Indices 1 2 3 4 5 6 
#
# 1 0.011883 -0.005128 -0.000315 0.000000 0.000000 0.000000
# 2 -0.005128 0.010625 -0.004257 0.000000 0.000000 0.000000
# 3 -0.000315 -0.004257 0.029304 0.000000 0.000000 0.000000
# 4 0.000000 0.000000 0.000000 0.070116 0.000000 0.000000
# 5 0.000000 0.000000 0.000000 0.000000 -0.131307 0.000000
# 6 0.000000 0.000000 0.000000 0.000000 0.000000 0.027514
#
#
# Mechanical properties :
#
#
# Convention : Reuss Voigt Hill
#
# Bulk Modulus (GPa) = 30.85296 49.36836 40.11066
# Shear Modulus (GPa) = 103.43340 21.25209 62.34275
#
# Velocity S-wave (km/s) = 7.19925 3.26330 5.58920
# Velocity P-wave (km/s) = 9.19596 6.23993 7.85819
#
# Compressibility (1/GPa) = 0.03241181
#
# Stress axis : x y z
#
# Youngs Moduli (GPa) = 84.15278 94.11560 34.12521
#
# Poissons Ratio (x) = 0.48261 0.01076
# Poissons Ratio (y) = 0.43152 0.14527
# Poissons Ratio (z) = 0.02654 0.40065
#
# Static dielectric constant tensor:
#      x y z
#    x 3.578340 0.000000 0.000000 
#    y 0.000000 3.798970 0.000000 
#    z 0.000000 0.000000 3.493690 
# 
# 
# High freq. dielectric constant tensor:
#      x y z
#    x 1.782650 0.000000 0.000000 
#    y 0.000000 1.778890 0.000000 
#    z 0.000000 0.000000 1.758450 
# 
# From -- ./inp_files/16150.got.cif
#   From: 2010.03.12/outbox.cif.g09.slc.cpg/sg39_9_cif.got.tgz:16150.got - 2010.04.14 02:53:20.
