data_PCOD8180264
_publ_section_title
;
Structure prediction by ZEFSAII (Michael W. Deem and Ramdas Pophale) SiO2 
 PCOD8180264
Probable space group: A M M 2
;
_chemical_formula_sum "Si O2"
_cell_formula_units_Z 56
_cell_length_a 19.739003
_cell_length_b 8.947978
_cell_length_c 15.902378
_cell_angle_alpha 90.000000
_cell_angle_beta 90.000000
_cell_angle_gamma 90.000000
_cell_volume 2808.744229
_symmetry_space_group_name_H-M "A M M 2"
_symmetry_group_IT_number 38
_symmetry_cell_setting 'orthorhombic'
loop_
_space_group_symop_operation_xyz
x,y,z
-x,-y,z
-x,y,z
x,-y,z
x,1/2+y,1/2+z
-x,1/2-y,1/2+z
-x,1/2+y,1/2+z
x,1/2-y,1/2+z
loop_
_atom_site_type_symbol
_atom_site_label
_atom_site_fract_x
_atom_site_fract_y
_atom_site_fract_z
Si Si1 0.575817 0.671026 0.149180
Si Si2 0.846256 0.322912 0.340779
Si Si3 0.838533 0.823973 0.653898
Si Si4 0.709674 0.670725 0.410001
Si Si5 0.427346 0.827149 0.846205
Si Si6 0.077339 0.322932 0.504546
Si Si7 0.708225 0.830331 0.101911
O O1 0.500000 0.719672 0.120693
O O2 0.589039 0.500000 0.123432
O O3 0.583977 0.692201 0.247876
O O4 0.631078 0.774583 0.105055
O O5 0.841818 0.500000 0.350175
O O6 0.869636 0.280903 0.245978
O O7 0.770972 0.255162 0.357226
O O8 0.896984 0.262942 0.413303
O O9 0.881355 0.745369 0.581731
O O10 0.760257 0.770960 0.654564
O O11 0.840602 0.000000 0.638878
O O12 0.700455 0.500000 0.380460
O O13 0.637008 0.751174 0.392323
O O14 0.732134 0.680360 0.506066
O O15 0.500000 0.752522 0.872288
O O16 0.431818 0.000000 0.871301
O O17 0.085298 0.500000 0.510281
O O18 0.000000 0.271532 0.513694
O O19 0.711715 0.000000 0.134902
#
# Coordination Sequence:
#
# PCOD8180264 Si02
#       7
#     8   8   8   8   8   8   8
#     4   9  18  33  52  74 104 143 189 242 296 346
#     4   9  18  35  59  84 110 150 199 236 273 333
#     4  11  22  37  62  90 117 152 195 241 285 336
#     4   9  16  28  49  74 102 137 184 236 275 323
#     4   8  14  26  46  71  97 131 180 234 280 326
#     4  10  21  40  64  88 118 153 188 232 287 344
#     4  11  21  33  53  80 113 149 189 240 293 345
#
# _framework density 19.937736000000001
#
# number of rings (size 3 to 8) (size 9 to 14) (size 15 to 20)
#    0.000    2.429    1.429    2.571    0.000    4.000 
#    0.000    4.286    0.000    0.857    0.000    0.000 
#    0.000    0.000    0.000    0.000    0.000    0.000 
#
# Total GULP energy -346989.894378 kJ/mol
# GULP energy per Si atom -12392.496228 kJ/mol
# Density = 1.989236 g / cm^3
# Si number density = 19.937736 Si / 1000 Ang^3
#
#
#
# Elastic Constant Matrix: (Units=GPa)
#
#
# Indices 1 2 3 4 5 6 
#
# 1 138.0846 29.0714 57.0639 0.0000 0.0000 0.0000
# 2 29.0714 34.9527 22.9679 0.0000 0.0000 0.0000
# 3 57.0639 22.9679 100.3215 0.0000 0.0000 0.0000
# 4 0.0000 0.0000 0.0000 20.4499 0.0000 0.0000
# 5 0.0000 0.0000 0.0000 0.0000 30.6481 0.0000
# 6 0.0000 0.0000 0.0000 0.0000 0.0000 24.4682
#
#
#
# Elastic Compliance Matrix: (Units=1/GPa)
#
#
# Indices 1 2 3 4 5 6 
#
# 1 0.010310 -0.005557 -0.004592 0.000000 0.000000 0.000000
# 2 -0.005557 0.036672 -0.005235 0.000000 0.000000 0.000000
# 3 -0.004592 -0.005235 0.013778 0.000000 0.000000 0.000000
# 4 0.000000 0.000000 0.000000 0.048900 0.000000 0.000000
# 5 0.000000 0.000000 0.000000 0.000000 0.032628 0.000000
# 6 0.000000 0.000000 0.000000 0.000000 0.000000 0.040869
#
#
# Mechanical properties :
#
#
# Convention : Reuss Voigt Hill
#
# Bulk Modulus (GPa) = 33.34218 54.61837 43.98028
# Shear Modulus (GPa) = 22.32907 26.06361 24.19634
#
# Velocity S-wave (km/s) = 3.35018 3.61951 3.48745
# Velocity P-wave (km/s) = 5.63244 6.70237 6.19057
#
# Compressibility (1/GPa) = 0.02999204
#
# Stress axis : x y z
#
# Youngs Moduli (GPa) = 96.99728 27.26861 72.57793
#
# Poissons Ratio (x) = 0.15154 0.33327
# Poissons Ratio (y) = 0.53906 0.37992
# Poissons Ratio (z) = 0.44540 0.14274
#
# Static dielectric constant tensor:
#      x y z
#    x 3.935450 0.000000 0.000000 
#    y 0.000000 3.150290 0.000000 
#    z 0.000000 0.000000 3.618660 
# 
# 
# High freq. dielectric constant tensor:
#      x y z
#    x 1.792380 0.000000 0.000000 
#    y 0.000000 1.723550 0.000000 
#    z 0.000000 0.000000 1.779040 
# 
# From -- ./inp_files/15454.got.cif
#   From: 2010.03.12/outbox.cif.g09.slc.cpg/sg38_8_cif.got.tgz:15454.got - 2010.04.14 02:38:36.
