data_PCOD8180720
_publ_section_title
;
Structure prediction by ZEFSAII (Michael W. Deem and Ramdas Pophale) SiO2 
 PCOD8180720
Probable space group: A B M 2
;
_chemical_formula_sum "Si O2"
_cell_formula_units_Z 64
_cell_length_a 14.340395
_cell_length_b 8.676298
_cell_length_c 31.047609
_cell_angle_alpha 90.000000
_cell_angle_beta 90.000000
_cell_angle_gamma 90.000000
_cell_volume 3862.991339
_symmetry_space_group_name_H-M "A B M 2"
_symmetry_group_IT_number 39
_symmetry_cell_setting 'orthorhombic'
loop_
_space_group_symop_operation_xyz
x,y,z
-x,-y,z
-x,1/2+y,z
x,1/2-y,z
x,1/2+y,1/2+z
-x,1/2-y,1/2+z
-x,y,1/2+z
x,-y,1/2+z
loop_
_atom_site_type_symbol
_atom_site_label
_atom_site_fract_x
_atom_site_fract_y
_atom_site_fract_z
Si Si1 0.603384 0.067824 0.319920
Si Si2 0.095980 0.930872 0.436991
Si Si3 0.397123 0.429986 0.139482
Si Si4 0.600594 0.072281 0.734811
Si Si5 0.716682 0.431415 0.063755
Si Si6 0.097357 0.067662 0.036410
Si Si7 0.398791 0.932128 0.486399
Si Si8 0.709939 0.933411 0.903435
O O1 0.596702 0.250000 0.321474
O O2 0.668441 0.004953 0.358508
O O3 0.500000 0.000000 0.325077
O O4 0.651491 0.013694 0.274783
O O5 0.087756 0.750000 0.432609
O O6 0.111628 0.978654 0.486537
O O7 0.184126 0.994675 0.409699
O O8 0.000000 0.000000 0.418433
O O9 0.500000 0.500000 0.135340
O O10 0.402198 0.250000 0.126886
O O11 0.353483 0.450114 0.187745
O O12 0.328025 0.522391 0.109022
O O13 0.592099 0.250000 0.747352
O O14 0.500000 0.000000 0.730912
O O15 0.708577 0.250000 0.056672
O O16 0.823571 0.485308 0.064566
O O17 0.665509 0.519756 0.025671
O O18 0.101219 0.250000 0.043369
O O19 0.000000 0.000000 0.053371
O O20 0.405823 0.750000 0.485557
O O21 0.354874 0.996232 0.442079
O O22 0.500000 0.000000 0.493481
O O23 0.710914 0.750000 0.905071
#
# Coordination Sequence:
#
# PCOD8180720 Si02
#       8
#     8   8   8   8   8   8   8   8
#     4  10  18  29  47  69  96 128 161 197 238 284
#     4   9  17  32  50  69  92 122 158 200 243 283
#     4  10  20  34  51  71  97 130 164 202 246 292
#     4   9  17  30  48  69  94 123 158 199 243 287
#     4  12  23  34  49  72  98 129 167 202 242 294
#     4  10  19  34  54  73  97 127 161 206 248 289
#     4  11  21  35  48  64  95 134 169 202 238 282
#     4   9  18  32  48  67  95 130 162 195 240 286
#
# _framework density 16.567471999999999
#
# number of rings (size 3 to 8) (size 9 to 14) (size 15 to 20)
#    0.000    2.000    1.250    4.500    0.000    2.000 
#    0.000    3.125    0.000    0.000    0.000    0.875 
#    0.000    4.000    0.000    0.000    0.000    0.000 
#
# Total GULP energy -396716.531104 kJ/mol
# GULP energy per Si atom -12397.391597 kJ/mol
# Density = 1.652976 g / cm^3
# Si number density = 16.567472 Si / 1000 Ang^3
#
#
#
# Elastic Constant Matrix: (Units=GPa)
#
#
# Indices 1 2 3 4 5 6 
#
# 1 104.6079 24.0188 44.6808 0.0000 0.0000 0.0000
# 2 24.0188 60.5654 24.2393 0.0000 0.0000 0.0000
# 3 44.6808 24.2393 102.9370 0.0000 0.0000 0.0000
# 4 0.0000 0.0000 0.0000 21.1392 0.0000 0.0000
# 5 0.0000 0.0000 0.0000 0.0000 11.6037 0.0000
# 6 0.0000 0.0000 0.0000 0.0000 0.0000 25.8742
#
#
#
# Elastic Compliance Matrix: (Units=1/GPa)
#
#
# Indices 1 2 3 4 5 6 
#
# 1 0.012211 -0.003004 -0.004593 0.000000 0.000000 0.000000
# 2 -0.003004 0.018968 -0.003162 0.000000 0.000000 0.000000
# 3 -0.004593 -0.003162 0.012453 0.000000 0.000000 0.000000
# 4 0.000000 0.000000 0.000000 0.047306 0.000000 0.000000
# 5 0.000000 0.000000 0.000000 0.000000 0.086180 0.000000
# 6 0.000000 0.000000 0.000000 0.000000 0.000000 0.038649
#
#
# Mechanical properties :
#
#
# Convention : Reuss Voigt Hill
#
# Bulk Modulus (GPa) = 45.22294 50.44313 47.83303
# Shear Modulus (GPa) = 20.43681 23.40150 21.91915
#
# Velocity S-wave (km/s) = 3.51600 3.76240 3.64128
# Velocity P-wave (km/s) = 6.62107 7.02761 6.82737
#
# Compressibility (1/GPa) = 0.02211267
#
# Stress axis : x y z
#
# Youngs Moduli (GPa) = 81.89284 52.71967 80.30237
#
# Poissons Ratio (x) = 0.15840 0.36882
# Poissons Ratio (y) = 0.24605 0.25395
# Poissons Ratio (z) = 0.37612 0.16672
#
# Static dielectric constant tensor:
#      x y z
#    x 3.158800 0.000000 0.000000 
#    y 0.000000 3.134410 0.000000 
#    z 0.000000 0.000000 3.515440 
# 
# 
# High freq. dielectric constant tensor:
#      x y z
#    x 1.618350 0.000000 0.000000 
#    y 0.000000 1.644050 0.000000 
#    z 0.000000 0.000000 1.630610 
# 
# From -- ./inp_files/17992.got.cif
#   From: 2010.03.12/outbox.cif.g09.slc.cpg/sg39_9_cif.got.tgz:17992.got - 2010.04.14 02:53:20.
