data_PCOD8180939
_publ_section_title
;
Structure prediction by ZEFSAII (Michael W. Deem and Ramdas Pophale) SiO2 
 PCOD8180939
Probable space group: A B M 2
;
_chemical_formula_sum "Si O2"
_cell_formula_units_Z 64
_cell_length_a 16.520184
_cell_length_b 9.013813
_cell_length_c 22.660921
_cell_angle_alpha 90.000000
_cell_angle_beta 90.000000
_cell_angle_gamma 90.000000
_cell_volume 3374.434331
_symmetry_space_group_name_H-M "A B M 2"
_symmetry_group_IT_number 39
_symmetry_cell_setting 'orthorhombic'
loop_
_space_group_symop_operation_xyz
x,y,z
-x,-y,z
-x,1/2+y,z
x,1/2-y,z
x,1/2+y,1/2+z
-x,1/2-y,1/2+z
-x,y,1/2+z
x,-y,1/2+z
loop_
_atom_site_type_symbol
_atom_site_label
_atom_site_fract_x
_atom_site_fract_y
_atom_site_fract_z
Si Si1 0.414580 0.428170 0.942350
Si Si2 0.076236 0.580311 0.326578
Si Si3 0.205487 0.411278 0.264485
Si Si4 0.425293 0.923642 0.201618
Si Si5 0.620188 0.919880 0.318786
Si Si6 0.082939 0.074009 0.960757
Si Si7 0.747058 0.922512 0.011332
Si Si8 0.285110 0.082516 0.144573
O O1 0.500000 0.500000 0.965378
O O2 0.422824 0.250000 0.943969
O O3 0.398317 0.483828 0.876346
O O4 0.336621 0.483591 0.981504
O O5 0.056476 0.750000 0.325824
O O6 0.151923 0.546877 0.285563
O O7 0.091452 0.525166 0.392912
O O8 0.000000 0.500000 0.297796
O O9 0.165760 0.250000 0.277461
O O10 0.286170 0.423196 0.302626
O O11 0.215942 0.427317 0.194149
O O12 0.435513 0.750000 0.210219
O O13 0.500000 0.000000 0.167291
O O14 0.425183 0.003936 0.264807
O O15 0.349302 0.957369 0.160743
O O16 0.590154 0.750000 0.327637
O O17 0.075420 0.250000 0.970205
O O18 0.167143 0.010318 0.988462
O O19 0.000000 0.000000 0.987038
O O20 0.748761 0.750000 0.996590
O O21 0.748984 0.956979 0.080711
O O22 0.322528 0.250000 0.145379
#
# Coordination Sequence:
#
# PCOD8180939 Si02
#       8
#     8   8   8   8   8   8   8   8
#     4  11  22  36  54  79 110 146 185 226 271 323
#     4  10  19  31  51  78 109 137 168 209 259 319
#     4   9  18  32  52  76 103 134 170 212 264 317
#     4  11  21  34  53  77 104 135 174 222 270 320
#     4  10  20  35  54  78 107 139 174 218 271 327
#     4   9  18  34  56  83 108 137 175 218 267 321
#     4   9  19  37  59  78 106 147 186 222 269 323
#     4   9  19  37  56  75 102 139 179 219 262 316
#
# _framework density 18.966142000000001
#
# number of rings (size 3 to 8) (size 9 to 14) (size 15 to 20)
#    0.000    2.250    0.000    4.125    0.000    4.500 
#    0.000    5.000    0.000    1.500    0.000    0.000 
#    0.000    0.000    0.000    0.000    0.000    0.000 
#
# Total GULP energy -396541.526190 kJ/mol
# GULP energy per Si atom -12391.922693 kJ/mol
# Density = 1.892297 g / cm^3
# Si number density = 18.966142 Si / 1000 Ang^3
#
#
#
# Elastic Constant Matrix: (Units=GPa)
#
#
# Indices 1 2 3 4 5 6 
#
# 1 134.6813 45.7165 54.7584 0.0000 0.0000 0.0000
# 2 45.7165 80.9917 28.8441 0.0000 0.0000 0.0000
# 3 54.7584 28.8441 76.3338 0.0000 0.0000 0.0000
# 4 0.0000 0.0000 0.0000 22.4462 0.0000 0.0000
# 5 0.0000 0.0000 0.0000 0.0000 -205.9741 0.0000
# 6 0.0000 0.0000 0.0000 0.0000 0.0000 35.1083
#
#
#
# Elastic Compliance Matrix: (Units=1/GPa)
#
#
# Indices 1 2 3 4 5 6 
#
# 1 0.011565 -0.004129 -0.006736 0.000000 0.000000 0.000000
# 2 -0.004129 0.015741 -0.002986 0.000000 0.000000 0.000000
# 3 -0.006736 -0.002986 0.019061 0.000000 0.000000 0.000000
# 4 0.000000 0.000000 0.000000 0.044551 0.000000 0.000000
# 5 0.000000 0.000000 0.000000 0.000000 -0.004855 0.000000
# 6 0.000000 0.000000 0.000000 0.000000 0.000000 0.028483
#
#
# Mechanical properties :
#
#
# Convention : Reuss Voigt Hill
#
# Bulk Modulus (GPa) = 53.57710 61.18275 57.37993
# Shear Modulus (GPa) = 33.67666 -18.83807 7.41929
#
# Velocity S-wave (km/s) = 4.21838 -3.15500 1.97999
# Velocity P-wave (km/s) = 7.21363 4.36542 5.96210
#
# Compressibility (1/GPa) = 0.01866469
#
# Stress axis : x y z
#
# Youngs Moduli (GPa) = 86.46545 63.52800 52.46343
#
# Poissons Ratio (x) = 0.26232 0.35340
# Poissons Ratio (y) = 0.35703 0.15666
# Poissons Ratio (z) = 0.58245 0.18969
#
# Static dielectric constant tensor:
#      x y z
#    x 4.330810 0.000000 0.000000 
#    y 0.000000 3.376670 0.000000 
#    z 0.000000 0.000000 3.355820 
# 
# 
# High freq. dielectric constant tensor:
#      x y z
#    x 1.743220 0.000000 0.000000 
#    y 0.000000 1.729460 0.000000 
#    z 0.000000 0.000000 1.721050 
# 
# From -- ./inp_files/16155.got.cif
#   From: 2010.03.12/outbox.cif.g09.slc.cpg/sg39_9_cif.got.tgz:16155.got - 2010.04.14 02:53:20.
