data_PCOD8180020
_publ_section_title
;
Structure prediction by ZEFSAII (Michael W. Deem and Ramdas Pophale) SiO2 
 PCOD8180020
Probable space group: A M M 2
;
_chemical_formula_sum "Si O2"
_cell_formula_units_Z 48
_cell_length_a 8.692599
_cell_length_b 16.908266
_cell_length_c 16.835525
_cell_angle_alpha 90.000000
_cell_angle_beta 90.000000
_cell_angle_gamma 90.000000
_cell_volume 2474.431189
_symmetry_space_group_name_H-M "A M M 2"
_symmetry_group_IT_number 38
_symmetry_cell_setting 'orthorhombic'
loop_
_space_group_symop_operation_xyz
x,y,z
-x,-y,z
-x,y,z
x,-y,z
x,1/2+y,1/2+z
-x,1/2-y,1/2+z
-x,1/2+y,1/2+z
x,1/2-y,1/2+z
loop_
_atom_site_type_symbol
_atom_site_label
_atom_site_fract_x
_atom_site_fract_y
_atom_site_fract_z
Si Si1 0.179279 0.177974 0.316080
Si Si2 0.680126 0.500000 0.553681
Si Si3 0.179675 0.592652 0.971135
Si Si4 0.819936 0.000000 0.883130
Si Si5 0.679770 0.185328 0.613797
Si Si6 0.182570 0.649358 0.641285
Si Si7 0.821328 0.851938 0.776609
O O1 0.250326 0.132273 0.391205
O O2 0.245739 0.146140 0.232098
O O3 0.214044 0.271253 0.324266
O O4 0.000000 0.160185 0.315499
O O5 0.500000 0.500000 0.566417
O O6 0.718913 0.500000 0.461352
O O7 0.748973 0.422452 0.593010
O O8 0.208130 0.500000 0.964656
O O9 0.000000 0.613081 0.982199
O O10 0.273861 0.625565 0.044823
O O11 0.773288 0.923433 0.832881
O O12 0.000000 0.000000 0.905312
O O13 0.500000 0.202301 0.611263
O O14 0.767465 0.268184 0.601585
O O15 0.723220 0.143567 0.696510
O O16 0.000000 0.644452 0.638328
O O17 0.000000 0.856302 0.752003
#
# Coordination Sequence:
#
# PCOD8180020 Si02
#       7
#     8   4   8   4   8   8   8
#     4   8  17  35  61  88 111 144 196 253 297 340
#     4  12  26  40  58  93 132 159 192 243 306 363
#     4  10  21  36  59  88 118 154 200 251 296 352
#     4  10  22  38  62  91 116 155 208 251 292 355
#     4  11  23  39  59  87 123 159 196 244 310 366
#     4  10  21  41  67  89 115 157 206 249 293 353
#     4   9  19  38  61  87 115 151 202 249 294 355
#
# _framework density 19.398396999999999
#
# number of rings (size 3 to 8) (size 9 to 14) (size 15 to 20)
#    0.000    2.167    0.000    3.750    4.667    1.000 
#    0.000    4.167    0.000    0.000    0.000    0.000 
#    0.000    0.000    0.000    0.000    0.000    0.000 
#
# Total GULP energy -297642.815979 kJ/mol
# GULP energy per Si atom -12401.783999 kJ/mol
# Density = 1.935425 g / cm^3
# Si number density = 19.398397 Si / 1000 Ang^3
#
#
#
# Elastic Constant Matrix: (Units=GPa)
#
#
# Indices 1 2 3 4 5 6 
#
# 1 82.0511 42.1279 41.7699 0.0000 0.0000 0.0000
# 2 42.1279 134.5934 80.5833 0.0000 0.0000 0.0000
# 3 41.7699 80.5833 121.7550 0.0000 0.0000 0.0000
# 4 0.0000 0.0000 0.0000 36.6788 0.0000 0.0000
# 5 0.0000 0.0000 0.0000 0.0000 10.2728 0.0000
# 6 0.0000 0.0000 0.0000 0.0000 0.0000 19.8786
#
#
#
# Elastic Compliance Matrix: (Units=1/GPa)
#
#
# Indices 1 2 3 4 5 6 
#
# 1 0.015352 -0.002736 -0.003456 0.000000 0.000000 0.000000
# 2 -0.002736 0.012794 -0.007529 0.000000 0.000000 0.000000
# 3 -0.003456 -0.007529 0.014382 0.000000 0.000000 0.000000
# 4 0.000000 0.000000 0.000000 0.027264 0.000000 0.000000
# 5 0.000000 0.000000 0.000000 0.000000 0.097344 0.000000
# 6 0.000000 0.000000 0.000000 0.000000 0.000000 0.050305
#
#
# Mechanical properties :
#
#
# Convention : Reuss Voigt Hill
#
# Bulk Modulus (GPa) = 66.28786 74.15130 70.21958
# Shear Modulus (GPa) = 20.00718 24.96062 22.48390
#
# Velocity S-wave (km/s) = 3.21500 3.59100 3.40819
# Velocity P-wave (km/s) = 6.93020 7.44998 7.19478
#
# Compressibility (1/GPa) = 0.01508572
#
# Stress axis : x y z
#
# Youngs Moduli (GPa) = 65.14015 78.16231 69.53246
#
# Poissons Ratio (x) = 0.21386 0.24028
# Poissons Ratio (y) = 0.17823 0.52351
# Poissons Ratio (z) = 0.22511 0.58848
#
# Static dielectric constant tensor:
#      x y z
#    x 3.321920 0.000000 0.000000 
#    y 0.000000 3.654900 0.000000 
#    z 0.000000 0.000000 3.770800 
# 
# 
# High freq. dielectric constant tensor:
#      x y z
#    x 1.732350 0.000000 0.000000 
#    y 0.000000 1.766070 0.000000 
#    z 0.000000 0.000000 1.764150 
# 
# From -- ./inp_files/12132.got.cif
#   From: 2010.03.12/outbox.cif.g09.slc.cpg/sg38_7_cif.got.tgz:12132.got - 2010.04.14 02:38:36.
