data_PCOD8180785
_publ_section_title
;
Structure prediction by ZEFSAII (Michael W. Deem and Ramdas Pophale) SiO2 
 PCOD8180785
Probable space group: A B M 2
;
_chemical_formula_sum "Si O2"
_cell_formula_units_Z 64
_cell_length_a 20.881018
_cell_length_b 15.853399
_cell_length_c 9.335437
_cell_angle_alpha 90.000000
_cell_angle_beta 90.000000
_cell_angle_gamma 90.000000
_cell_volume 3090.357413
_symmetry_space_group_name_H-M "A B M 2"
_symmetry_group_IT_number 39
_symmetry_cell_setting 'orthorhombic'
loop_
_space_group_symop_operation_xyz
x,y,z
-x,-y,z
-x,1/2+y,z
x,1/2-y,z
x,1/2+y,1/2+z
-x,1/2-y,1/2+z
-x,y,1/2+z
x,-y,1/2+z
loop_
_atom_site_type_symbol
_atom_site_label
_atom_site_fract_x
_atom_site_fract_y
_atom_site_fract_z
Si Si1 0.535596 0.410494 0.123760
Si Si2 0.637146 0.050514 0.341464
Si Si3 0.971030 0.588503 0.629730
Si Si4 0.922030 0.153842 0.427056
Si Si5 0.148736 0.485596 0.484957
Si Si6 0.571062 0.622127 0.332039
Si Si7 0.234740 0.472083 0.230325
Si Si8 0.326818 0.657346 0.609341
O O1 0.500000 0.500000 0.088304
O O2 0.605738 0.412342 0.198083
O O3 0.488848 0.362656 0.230686
O O4 0.547171 0.347818 0.988096
O O5 0.635499 0.109156 0.482467
O O6 0.591008 0.972705 0.376950
O O7 0.710147 0.026614 0.306559
O O8 0.948038 0.640226 0.766771
O O9 0.913892 0.568554 0.518946
O O10 0.000000 0.500000 0.685768
O O11 0.021720 0.643863 0.542961
O O12 0.895422 0.250000 0.438025
O O13 0.866755 0.085233 0.460788
O O14 0.180465 0.445624 0.343682
O O15 0.200066 0.472069 0.610684
O O16 0.630735 0.665880 0.254084
O O17 0.262059 0.389356 0.153137
O O18 0.308855 0.750000 0.553785
#
# Coordination Sequence:
#
# PCOD8180785 Si02
#       8
#     8   8   8   8   8   8   8   8
#     4  10  18  31  59  92 116 148 205 254 292 349
#     4  10  20  36  60  87 114 157 199 250 296 360
#     4  10  21  39  63  90 123 167 206 246 295 363
#     4  11  23  39  62  95 130 159 198 254 309 351
#     4  11  22  40  66  91 118 163 212 247 290 364
#     4  10  19  34  59  87 118 154 202 250 298 361
#     4  11  22  40  65  89 117 160 209 248 293 359
#     4  11  24  41  60  87 123 158 198 254 317 364
#
# _framework density 20.709579000000002
#
# number of rings (size 3 to 8) (size 9 to 14) (size 15 to 20)
#    0.000    1.500    2.500    5.625    3.500    0.500 
#    0.000    4.375    0.000    0.000    0.000    0.000 
#    0.000    0.000    0.000    0.000    0.000    0.000 
#
# Total GULP energy -396588.532354 kJ/mol
# GULP energy per Si atom -12393.391636 kJ/mol
# Density = 2.066244 g / cm^3
# Si number density = 20.709579 Si / 1000 Ang^3
#
#
#
# Elastic Constant Matrix: (Units=GPa)
#
#
# Indices 1 2 3 4 5 6 
#
# 1 80.0116 4.1469 27.5043 0.0000 0.0000 0.0000
# 2 4.1469 56.6641 16.6673 0.0000 0.0000 0.0000
# 3 27.5043 16.6673 123.5360 0.0000 0.0000 0.0000
# 4 0.0000 0.0000 0.0000 11.2050 0.0000 0.0000
# 5 0.0000 0.0000 0.0000 0.0000 43.9682 0.0000
# 6 0.0000 0.0000 0.0000 0.0000 0.0000 4.4810
#
#
#
# Elastic Compliance Matrix: (Units=1/GPa)
#
#
# Indices 1 2 3 4 5 6 
#
# 1 0.013535 -0.000108 -0.002999 0.000000 0.000000 0.000000
# 2 -0.000108 0.018378 -0.002455 0.000000 0.000000 0.000000
# 3 -0.002999 -0.002455 0.009094 0.000000 0.000000 0.000000
# 4 0.000000 0.000000 0.000000 0.089246 0.000000 0.000000
# 5 0.000000 0.000000 0.000000 0.000000 0.022744 0.000000
# 6 0.000000 0.000000 0.000000 0.000000 0.000000 0.223163
#
#
# Mechanical properties :
#
#
# Convention : Reuss Voigt Hill
#
# Bulk Modulus (GPa) = 33.46583 39.64983 36.55783
# Shear Modulus (GPa) = 12.58669 26.05706 19.32188
#
# Velocity S-wave (km/s) = 2.46798 3.55098 3.05781
# Velocity P-wave (km/s) = 4.93111 5.99998 5.49162
#
# Compressibility (1/GPa) = 0.02988122
#
# Stress axis : x y z
#
# Youngs Moduli (GPa) = 73.88452 54.41281 109.96588
#
# Poissons Ratio (x) = 0.00590 0.32976
# Poissons Ratio (y) = 0.00801 0.27001
# Poissons Ratio (z) = 0.22156 0.13360
#
# Static dielectric constant tensor:
#      x y z
#    x 3.805770 0.000000 0.000000 
#    y 0.000000 3.362010 0.000000 
#    z 0.000000 0.000000 4.006240 
# 
# 
# High freq. dielectric constant tensor:
#      x y z
#    x 1.816890 0.000000 0.000000 
#    y 0.000000 1.763980 0.000000 
#    z 0.000000 0.000000 1.832980 
# 
# From -- ./inp_files/4007.got.cif
#   From: 2010.03.12/outbox.cif.g09.slc.cpg/sg39_3_cif.got.tgz:4007.got - 2010.04.14 02:53:20.
