data_PCOD8180698
_publ_section_title
;
Structure prediction by ZEFSAII (Michael W. Deem and Ramdas Pophale) SiO2 
 PCOD8180698
Probable space group: A B M 2
;
_chemical_formula_sum "Si O2"
_cell_formula_units_Z 56
_cell_length_a 15.103403
_cell_length_b 20.424642
_cell_length_c 8.901699
_cell_angle_alpha 90.000000
_cell_angle_beta 90.000000
_cell_angle_gamma 90.000000
_cell_volume 2746.010344
_symmetry_space_group_name_H-M "A B M 2"
_symmetry_group_IT_number 39
_symmetry_cell_setting 'orthorhombic'
loop_
_space_group_symop_operation_xyz
x,y,z
-x,-y,z
-x,1/2+y,z
x,1/2-y,z
x,1/2+y,1/2+z
-x,1/2-y,1/2+z
-x,y,1/2+z
x,-y,1/2+z
loop_
_atom_site_type_symbol
_atom_site_label
_atom_site_fract_x
_atom_site_fract_y
_atom_site_fract_z
Si Si1 0.752075 0.172958 0.111760
Si Si2 0.273074 0.367202 0.952481
Si Si3 0.427574 0.373276 0.597780
Si Si4 0.923244 0.173324 0.942935
Si Si5 0.102047 0.171787 0.096715
Si Si6 0.621982 0.250000 0.573895
Si Si7 0.555675 0.436429 0.391444
Si Si8 0.478578 0.750000 0.283736
O O1 0.742783 0.250000 0.079348
O O2 0.750746 0.159425 0.288807
O O3 0.671998 0.132035 0.032089
O O4 0.841896 0.144143 0.039667
O O5 0.320337 0.313460 0.053750
O O6 0.341040 0.430077 0.947709
O O7 0.180215 0.376519 0.038330
O O8 0.499148 0.375771 0.463753
O O9 0.443654 0.434670 0.710391
O O10 0.431635 0.312439 0.711338
O O11 0.923071 0.250000 0.968203
O O12 0.913042 0.154711 0.769905
O O13 0.016209 0.147267 0.005884
O O14 0.121964 0.250000 0.072501
O O15 0.536186 0.250000 0.462474
O O16 0.583185 0.250000 0.743800
O O17 0.500000 0.500000 0.443736
#
# Coordination Sequence:
#
# PCOD8180698 Si02
#       8
#     8   8   8   8   8   4   8   4
#     4  10  17  31  49  75 106 140 178 222 283 338
#     4  11  19  33  53  72 105 148 187 236 278 331
#     4  11  20  35  55  75 107 142 185 236 282 337
#     4   9  19  30  46  76 115 152 181 219 276 350
#     4  10  18  31  48  75 111 150 187 225 279 343
#     4  12  20  34  50  79 113 140 188 233 291 343
#     4  11  24  38  52  74 107 151 193 233 279 333
#     4  12  18  36  52  81 103 140 184 233 301 331
#
# _framework density 20.393222999999999
#
# number of rings (size 3 to 8) (size 9 to 14) (size 15 to 20)
#    0.000    1.429    6.429    1.286    0.000    3.429 
#    2.571    0.000    0.000    0.000    0.000    1.000 
#    0.000    6.857    0.000    0.000    0.000    0.000 
#
# Total GULP energy -346911.234557 kJ/mol
# GULP energy per Si atom -12389.686948 kJ/mol
# Density = 2.034681 g / cm^3
# Si number density = 20.393223 Si / 1000 Ang^3
#
#
#
# Elastic Constant Matrix: (Units=GPa)
#
#
# Indices 1 2 3 4 5 6 
#
# 1 196.5128 29.3234 75.0543 0.0000 0.0000 0.0000
# 2 29.3234 42.8881 7.7810 0.0000 0.0000 0.0000
# 3 75.0543 7.7810 65.4893 0.0000 0.0000 0.0000
# 4 0.0000 0.0000 0.0000 11.4940 0.0000 0.0000
# 5 0.0000 0.0000 0.0000 0.0000 44.0339 0.0000
# 6 0.0000 0.0000 0.0000 0.0000 0.0000 25.8601
#
#
#
# Elastic Compliance Matrix: (Units=1/GPa)
#
#
# Indices 1 2 3 4 5 6 
#
# 1 0.009943 -0.004835 -0.010821 0.000000 0.000000 0.000000
# 2 -0.004835 0.026181 0.002431 0.000000 0.000000 0.000000
# 3 -0.010821 0.002431 0.027382 0.000000 0.000000 0.000000
# 4 0.000000 0.000000 0.000000 0.087002 0.000000 0.000000
# 5 0.000000 0.000000 0.000000 0.000000 0.022710 0.000000
# 6 0.000000 0.000000 0.000000 0.000000 0.000000 0.038670
#
#
# Mechanical properties :
#
#
# Convention : Reuss Voigt Hill
#
# Bulk Modulus (GPa) = 26.98623 58.80082 42.89353
# Shear Modulus (GPa) = 19.94494 29.12636 24.53565
#
# Velocity S-wave (km/s) = 3.13072 3.78330 3.47238
# Velocity P-wave (km/s) = 5.13130 6.92680 6.09552
#
# Compressibility (1/GPa) = 0.03705594
#
# Stress axis : x y z
#
# Youngs Moduli (GPa) = 100.57341 38.19511 36.52024
#
# Poissons Ratio (x) = 0.18468 0.39518
# Poissons Ratio (y) = 0.48628 -0.08876
# Poissons Ratio (z) = 1.08828 -0.09284
#
# Static dielectric constant tensor:
#      x y z
#    x 4.215470 0.000000 0.000000 
#    y 0.000000 3.184870 0.000000 
#    z 0.000000 0.000000 3.612950 
# 
# 
# High freq. dielectric constant tensor:
#      x y z
#    x 1.811990 0.000000 0.000000 
#    y 0.000000 1.730000 0.000000 
#    z 0.000000 0.000000 1.801780 
# 
# From -- ./inp_files/3434.got.cif
#   From: 2010.03.12/outbox.cif.g09.slc.cpg/sg39_2_cif.got.tgz:3434.got - 2010.04.14 02:53:20.
