data_PCOD8180330
_publ_section_title
;
Structure prediction by ZEFSAII (Michael W. Deem and Ramdas Pophale) SiO2 
 PCOD8180330
Probable space group: A M M 2
;
_chemical_formula_sum "Si O2"
_cell_formula_units_Z 64
_cell_length_a 9.144773
_cell_length_b 24.430697
_cell_length_c 15.093565
_cell_angle_alpha 90.000000
_cell_angle_beta 90.000000
_cell_angle_gamma 90.000000
_cell_volume 3372.101328
_symmetry_space_group_name_H-M "A M M 2"
_symmetry_group_IT_number 38
_symmetry_cell_setting 'orthorhombic'
loop_
_space_group_symop_operation_xyz
x,y,z
-x,-y,z
-x,y,z
x,-y,z
x,1/2+y,1/2+z
-x,1/2-y,1/2+z
-x,1/2+y,1/2+z
x,1/2-y,1/2+z
loop_
_atom_site_type_symbol
_atom_site_label
_atom_site_fract_x
_atom_site_fract_y
_atom_site_fract_z
Si Si1 0.672178 0.356814 0.820060
Si Si2 0.668368 0.063156 0.476888
Si Si3 0.167261 0.641241 0.450192
Si Si4 0.333447 0.937599 0.823648
Si Si5 0.170791 0.837467 0.152368
Si Si6 0.169881 0.734354 0.916678
Si Si7 0.828566 0.219635 0.611161
Si Si8 0.172379 0.600116 0.152569
O O1 0.500000 0.353609 0.811078
O O2 0.720692 0.401701 0.892409
O O3 0.740018 0.372921 0.724426
O O4 0.736015 0.297159 0.843768
O O5 0.500000 0.075990 0.500691
O O6 0.766665 0.077538 0.560779
O O7 0.690037 0.000000 0.451432
O O8 0.272164 0.598676 0.402870
O O9 0.204500 0.640369 0.554284
O O10 0.193341 0.700747 0.407341
O O11 0.000000 0.623450 0.434383
O O12 0.500000 0.920547 0.804364
O O13 0.243194 0.931540 0.733546
O O14 0.322080 0.000000 0.855212
O O15 0.228950 0.774298 0.159391
O O16 0.000000 0.841970 0.174296
O O17 0.000000 0.719142 0.903191
O O18 0.233251 0.714472 0.011526
O O19 0.790428 0.164711 0.664838
O O20 0.000000 0.228787 0.598380
O O21 0.000000 0.590024 0.153231
#
# Coordination Sequence:
#
# PCOD8180330 Si02
#       8
#     8   8   8   8   8   8   8   8
#     4  11  22  34  53  85 117 150 193 234 277 335
#     4  10  22  40  57  76 113 159 195 233 284 337
#     4   9  20  39  63  86 108 144 193 240 285 333
#     4  11  25  42  58  80 115 155 190 231 288 343
#     4   9  19  37  59  82 114 151 185 230 286 341
#     4   9  17  34  57  81 112 147 181 225 284 340
#     4   8  16  32  54  81 111 145 181 217 272 336
#     4  11  21  35  59  88 114 146 191 238 279 332
#
# _framework density 18.979264000000001
#
# number of rings (size 3 to 8) (size 9 to 14) (size 15 to 20)
#    0.000    2.250    1.250    3.000    1.750    4.250 
#    0.000    3.125    0.000    2.250    0.000    0.000 
#    0.000    0.000    0.000    0.000    0.000    0.000 
#
# Total GULP energy -396783.497636 kJ/mol
# GULP energy per Si atom -12399.484301 kJ/mol
# Density = 1.893607 g / cm^3
# Si number density = 18.979264 Si / 1000 Ang^3
#
#
#
# Elastic Constant Matrix: (Units=GPa)
#
#
# Indices 1 2 3 4 5 6 
#
# 1 89.0544 53.3604 61.4733 0.0000 0.0000 0.0000
# 2 53.3604 89.5983 55.8380 0.0000 0.0000 0.0000
# 3 61.4733 55.8380 121.3379 0.0000 0.0000 0.0000
# 4 0.0000 0.0000 0.0000 26.8754 0.0000 0.0000
# 5 0.0000 0.0000 0.0000 0.0000 32.5877 0.0000
# 6 0.0000 0.0000 0.0000 0.0000 0.0000 26.6302
#
#
#
# Elastic Compliance Matrix: (Units=1/GPa)
#
#
# Indices 1 2 3 4 5 6 
#
# 1 0.020801 -0.008161 -0.006783 0.000000 0.000000 0.000000
# 2 -0.008161 0.018851 -0.004540 0.000000 0.000000 0.000000
# 3 -0.006783 -0.004540 0.013767 0.000000 0.000000 0.000000
# 4 0.000000 0.000000 0.000000 0.037209 0.000000 0.000000
# 5 0.000000 0.000000 0.000000 0.000000 0.030686 0.000000
# 6 0.000000 0.000000 0.000000 0.000000 0.000000 0.037551
#
#
# Mechanical properties :
#
#
# Convention : Reuss Voigt Hill
#
# Bulk Modulus (GPa) = 69.20021 71.25932 70.22976
# Shear Modulus (GPa) = 24.67293 25.83992 25.25643
#
# Velocity S-wave (km/s) = 3.60945 3.69383 3.65189
# Velocity P-wave (km/s) = 7.34241 7.47127 7.40712
#
# Compressibility (1/GPa) = 0.01445082
#
# Stress axis : x y z
#
# Youngs Moduli (GPa) = 48.07384 53.04832 72.63634
#
# Poissons Ratio (x) = 0.43293 0.49269
# Poissons Ratio (y) = 0.39234 0.32978
# Poissons Ratio (z) = 0.32608 0.24085
#
# Static dielectric constant tensor:
#      x y z
#    x 3.330620 0.000000 0.000000 
#    y 0.000000 3.481540 0.000000 
#    z 0.000000 0.000000 3.484300 
# 
# 
# High freq. dielectric constant tensor:
#      x y z
#    x 1.723770 0.000000 0.000000 
#    y 0.000000 1.729900 0.000000 
#    z 0.000000 0.000000 1.742650 
# 
# From -- ./inp_files/12797.got.cif
#   From: 2010.03.12/outbox.cif.g09.slc.cpg/sg38_7_cif.got.tgz:12797.got - 2010.04.14 02:38:36.
