data_PCOD8180394
_publ_section_title
;
Structure prediction by ZEFSAII (Michael W. Deem and Ramdas Pophale) SiO2 
 PCOD8180394
Probable space group: A M M 2
;
_chemical_formula_sum "Si O2"
_cell_formula_units_Z 48
_cell_length_a 15.536104
_cell_length_b 8.607843
_cell_length_c 18.081877
_cell_angle_alpha 90.000000
_cell_angle_beta 90.000000
_cell_angle_gamma 90.000000
_cell_volume 2418.131796
_symmetry_space_group_name_H-M "A M M 2"
_symmetry_group_IT_number 38
_symmetry_cell_setting 'orthorhombic'
loop_
_space_group_symop_operation_xyz
x,y,z
-x,-y,z
-x,y,z
x,-y,z
x,1/2+y,1/2+z
-x,1/2-y,1/2+z
-x,1/2+y,1/2+z
x,1/2-y,1/2+z
loop_
_atom_site_type_symbol
_atom_site_label
_atom_site_fract_x
_atom_site_fract_y
_atom_site_fract_z
Si Si1 0.500000 0.682261 0.274420
Si Si2 0.000000 0.171062 0.448509
Si Si3 0.656313 0.316587 0.685928
Si Si4 0.000000 0.669840 0.773343
Si Si5 0.821951 0.181472 0.941429
Si Si6 0.332767 0.180504 0.527001
Si Si7 0.817075 0.315260 0.782025
Si Si8 0.500000 0.819668 0.431893
O O1 0.500000 0.500000 0.255858
O O2 0.582936 0.765604 0.241776
O O3 0.500000 0.707671 0.361831
O O4 0.913282 0.259072 0.473318
O O5 0.000000 0.155433 0.361168
O O6 0.000000 0.000000 0.485071
O O7 0.651923 0.500000 0.671718
O O8 0.644650 0.224702 0.610451
O O9 0.746149 0.265771 0.723015
O O10 0.090353 0.754261 0.752671
O O11 0.000000 0.500000 0.735793
O O12 0.793928 0.253239 0.863035
O O13 0.829474 0.000000 0.930747
O O14 0.748810 0.221039 0.000688
O O15 0.416014 0.221652 0.478979
O O16 0.309628 0.000000 0.521405
O O17 0.824572 0.500000 0.789892
O O18 0.500000 0.000000 0.407553
#
# Coordination Sequence:
#
# PCOD8180394 Si02
#       8
#     4   4   8   4   8   8   8   4
#     4  12  25  40  61  87 113 145 185 232 287 344
#     4   9  17  33  56  81 112 151 193 239 291 339
#     4  11  23  39  59  84 116 152 191 235 283 338
#     4   7  12  27  52  79 106 139 181 225 273 331
#     4  11  21  34  56  87 118 150 194 242 286 339
#     4  11  23  40  60  83 116 155 193 235 289 346
#     4   9  18  34  57  83 112 150 191 233 286 341
#     4  10  23  42  63  85 109 145 193 240 283 334
#
# _framework density 19.850034000000001
#
# number of rings (size 3 to 8) (size 9 to 14) (size 15 to 20)
#    0.000    1.833    0.000    6.000    0.000    7.333 
#    0.000    0.833    0.000    2.000    0.000    0.000 
#    0.000    0.000    0.000    0.000    0.000    0.000 
#
# Total GULP energy -297580.155530 kJ/mol
# GULP energy per Si atom -12399.173147 kJ/mol
# Density = 1.980485 g / cm^3
# Si number density = 19.850034 Si / 1000 Ang^3
#
#
#
# Elastic Constant Matrix: (Units=GPa)
#
#
# Indices 1 2 3 4 5 6 
#
# 1 157.8028 34.2717 45.7596 0.0000 0.0000 0.0000
# 2 34.2717 54.5334 16.6141 0.0000 0.0000 0.0000
# 3 45.7596 16.6141 87.3721 0.0000 0.0000 0.0000
# 4 0.0000 0.0000 0.0000 26.7484 0.0000 0.0000
# 5 0.0000 0.0000 0.0000 0.0000 6.5307 0.0000
# 6 0.0000 0.0000 0.0000 0.0000 0.0000 20.6423
#
#
#
# Elastic Compliance Matrix: (Units=1/GPa)
#
#
# Indices 1 2 3 4 5 6 
#
# 1 0.008257 -0.004110 -0.003543 0.000000 0.000000 0.000000
# 2 -0.004110 0.021511 -0.001938 0.000000 0.000000 0.000000
# 3 -0.003543 -0.001938 0.013669 0.000000 0.000000 0.000000
# 4 0.000000 0.000000 0.000000 0.037385 0.000000 0.000000
# 5 0.000000 0.000000 0.000000 0.000000 0.153122 0.000000
# 6 0.000000 0.000000 0.000000 0.000000 0.000000 0.048444
#
#
# Mechanical properties :
#
#
# Convention : Reuss Voigt Hill
#
# Bulk Modulus (GPa) = 41.22742 54.77769 48.00255
# Shear Modulus (GPa) = 16.14698 24.32180 20.23439
#
# Velocity S-wave (km/s) = 2.85520 3.50419 3.19621
# Velocity P-wave (km/s) = 5.62886 6.63537 6.15273
#
# Compressibility (1/GPa) = 0.02425570
#
# Stress axis : x y z
#
# Youngs Moduli (GPa) = 121.10993 46.48877 73.15629
#
# Poissons Ratio (x) = 0.19106 0.25919
# Poissons Ratio (y) = 0.49773 0.14177
# Poissons Ratio (z) = 0.42909 0.09009
#
# Static dielectric constant tensor:
#      x y z
#    x 4.039750 0.000000 0.000000 
#    y 0.000000 3.536960 0.000000 
#    z 0.000000 0.000000 3.338990 
# 
# 
# High freq. dielectric constant tensor:
#      x y z
#    x 1.800220 0.000000 0.000000 
#    y 0.000000 1.768210 0.000000 
#    z 0.000000 0.000000 1.751990 
# 
# From -- ./inp_files/18224.got.cif
#   From: 2010.03.12/outbox.cif.g09.slc.cpg/sg38_10_cif.got.tgz:18224.got - 2010.04.14 02:38:36.
