data_PCOD8180488
_publ_section_title
;
Structure prediction by ZEFSAII (Michael W. Deem and Ramdas Pophale) SiO2 
 PCOD8180488
Probable space group: A M M 2
;
_chemical_formula_sum "Si O2"
_cell_formula_units_Z 48
_cell_length_a 19.074644
_cell_length_b 17.944483
_cell_length_c 7.485022
_cell_angle_alpha 90.000000
_cell_angle_beta 90.000000
_cell_angle_gamma 90.000000
_cell_volume 2562.007948
_symmetry_space_group_name_H-M "A M M 2"
_symmetry_group_IT_number 38
_symmetry_cell_setting 'orthorhombic'
loop_
_space_group_symop_operation_xyz
x,y,z
-x,-y,z
-x,y,z
x,-y,z
x,1/2+y,1/2+z
-x,1/2-y,1/2+z
-x,1/2+y,1/2+z
x,1/2-y,1/2+z
loop_
_atom_site_type_symbol
_atom_site_label
_atom_site_fract_x
_atom_site_fract_y
_atom_site_fract_z
Si Si1 0.328167 0.663469 0.033580
Si Si2 0.077763 0.411757 0.326096
Si Si3 0.184215 0.086716 0.121974
Si Si4 0.815973 0.586697 0.029865
Si Si5 0.582007 0.913308 0.826607
Si Si6 0.671699 0.663676 0.619464
O O1 0.252351 0.632202 0.087898
O O2 0.387055 0.622427 0.147609
O O3 0.329536 0.749849 0.077066
O O4 0.344517 0.647798 0.826509
O O5 0.070920 0.500000 0.326458
O O6 0.119589 0.385148 0.501791
O O7 0.119267 0.385301 0.149765
O O8 0.000000 0.375718 0.326380
O O9 0.163011 0.102343 0.325864
O O10 0.252632 0.132193 0.064439
O O11 0.200648 0.000000 0.088375
O O12 0.799488 0.500000 0.063439
O O13 0.500000 0.897444 0.825807
O O14 0.600104 0.000000 0.827745
O O15 0.612585 0.876929 0.005277
#
# Coordination Sequence:
#
# PCOD8180488 Si02
#       6
#     8   8   8   8   8   8
#     4  11  22  39  61  90 117 155 198 244 293 343
#     4   9  17  29  49  79 113 148 186 233 288 343
#     4   9  18  32  53  80 109 144 190 242 287 336
#     4   9  18  32  53  80 109 144 190 242 287 336
#     4  11  25  43  63  89 122 157 192 237 293 352
#     4  11  22  39  61  90 117 155 198 244 293 343
#
# _framework density 18.735303999999999
#
# number of rings (size 3 to 8) (size 9 to 14) (size 15 to 20)
#    0.000    2.000    1.667    2.000    0.000    5.333 
#    0.000    5.000    0.000    1.000    0.000    0.000 
#    0.000    0.000    0.000    0.000    0.000    0.000 
#
# Total GULP energy -297667.905198 kJ/mol
# GULP energy per Si atom -12402.829383 kJ/mol
# Density = 1.869266 g / cm^3
# Si number density = 18.735304 Si / 1000 Ang^3
#
#
#
# Elastic Constant Matrix: (Units=GPa)
#
#
# Indices 1 2 3 4 5 6 
#
# 1 152.5071 76.9817 85.8572 0.0000 0.0000 0.0000
# 2 76.9817 93.0495 48.7619 0.0000 0.0000 0.0000
# 3 85.8572 48.7619 130.4464 0.0000 0.0000 0.0000
# 4 0.0000 0.0000 0.0000 18.4127 0.0000 0.0000
# 5 0.0000 0.0000 0.0000 0.0000 71.3213 0.0000
# 6 0.0000 0.0000 0.0000 0.0000 0.0000 -1.6886
#
#
#
# Elastic Compliance Matrix: (Units=1/GPa)
#
#
# Indices 1 2 3 4 5 6 
#
# 1 0.014478 -0.008686 -0.006283 0.000000 0.000000 0.000000
# 2 -0.008686 0.018576 -0.001227 0.000000 0.000000 0.000000
# 3 -0.006283 -0.001227 0.012260 0.000000 0.000000 0.000000
# 4 0.000000 0.000000 0.000000 0.054310 0.000000 0.000000
# 5 0.000000 0.000000 0.000000 0.000000 0.014021 0.000000
# 6 0.000000 0.000000 0.000000 0.000000 0.000000 -0.592189
#
#
# Mechanical properties :
#
#
# Convention : Reuss Voigt Hill
#
# Bulk Modulus (GPa) = 77.37997 88.80050 83.09023
# Shear Modulus (GPa) = -11.31618 28.56923 8.62652
#
# Velocity S-wave (km/s) = -2.46031 3.90922 2.14812
# Velocity P-wave (km/s) = 5.77239 8.23871 7.11325
#
# Compressibility (1/GPa) = 0.01292324
#
# Stress axis : x y z
#
# Youngs Moduli (GPa) = 69.06832 53.83282 81.56853
#
# Poissons Ratio (x) = 0.46759 0.51245
# Poissons Ratio (y) = 0.59993 0.10008
# Poissons Ratio (z) = 0.43392 0.06605
#
# Static dielectric constant tensor:
#      x y z
#    x 3.526170 0.000000 0.000000 
#    y 0.000000 3.338370 0.000000 
#    z 0.000000 0.000000 3.668010 
# 
# 
# High freq. dielectric constant tensor:
#      x y z
#    x 1.724940 0.000000 0.000000 
#    y 0.000000 1.712340 0.000000 
#    z 0.000000 0.000000 1.745410 
# 
# From -- ./inp_files/5470.got.cif
#   From: 2010.03.12/outbox.cif.g09.slc.cpg/sg38_3_cif.got.tgz:5470.got - 2010.04.14 02:38:36.
