data_PCOD8180469
_publ_section_title
;
Structure prediction by ZEFSAII (Michael W. Deem and Ramdas Pophale) SiO2 
 PCOD8180469
Probable space group: A M M 2
;
_chemical_formula_sum "Si O2"
_cell_formula_units_Z 40
_cell_length_a 12.853003
_cell_length_b 8.679633
_cell_length_c 18.507413
_cell_angle_alpha 90.000000
_cell_angle_beta 90.000000
_cell_angle_gamma 90.000000
_cell_volume 2064.674946
_symmetry_space_group_name_H-M "A M M 2"
_symmetry_group_IT_number 38
_symmetry_cell_setting 'orthorhombic'
loop_
_space_group_symop_operation_xyz
x,y,z
-x,-y,z
-x,y,z
x,-y,z
x,1/2+y,1/2+z
-x,1/2-y,1/2+z
-x,1/2+y,1/2+z
x,1/2-y,1/2+z
loop_
_atom_site_type_symbol
_atom_site_label
_atom_site_fract_x
_atom_site_fract_y
_atom_site_fract_z
Si Si1 0.500000 0.182220 0.792440
Si Si2 0.119936 0.820800 0.795305
Si Si3 0.885937 0.183235 0.631846
Si Si4 0.500000 0.316477 0.128962
Si Si5 0.693211 0.318862 0.876632
Si Si6 0.696240 0.683642 0.040152
O O1 0.500000 0.246681 0.710632
O O2 0.603747 0.238462 0.831045
O O3 0.500000 0.000000 0.792215
O O4 0.141367 0.765906 0.713370
O O5 0.192850 0.720644 0.846875
O O6 0.000000 0.790122 0.816511
O O7 0.147988 0.000000 0.804463
O O8 0.801551 0.250619 0.576171
O O9 0.000000 0.246913 0.609797
O O10 0.887484 0.000000 0.629749
O O11 0.500000 0.500000 0.128756
O O12 0.399562 0.252389 0.086968
O O13 0.674459 0.500000 0.873874
O O14 0.686551 0.256318 0.958520
O O15 0.698385 0.500000 0.041547
#
# Coordination Sequence:
#
# PCOD8180469 Si02
#       6
#     4   8   8   4   8   8
#     4  11  22  37  59  79  98 133 178 218 256 305
#     4   9  18  34  56  79 104 138 179 218 253 296
#     4   8  14  27  49  74  97 127 174 222 250 278
#     4   9  17  31  53  75  92 121 172 222 252 285
#     4  11  22  34  52  80 112 139 164 207 267 319
#     4   9  17  29  47  73 102 129 163 211 259 298
#
# _framework density 19.37351
#
# number of rings (size 3 to 8) (size 9 to 14) (size 15 to 20)
#    0.000    2.600    0.000    3.900    0.000    6.000 
#    0.000    2.000    0.000   16.800    0.000    0.000 
#    0.000    0.000    0.000    0.000    0.000    0.000 
#
# Total GULP energy -247977.026163 kJ/mol
# GULP energy per Si atom -12398.851308 kJ/mol
# Density = 1.932942 g / cm^3
# Si number density = 19.373510 Si / 1000 Ang^3
#
#
#
# Elastic Constant Matrix: (Units=GPa)
#
#
# Indices 1 2 3 4 5 6 
#
# 1 158.5710 20.1584 102.8126 0.0000 0.0000 0.0000
# 2 20.1584 28.8826 25.0493 0.0000 0.0000 0.0000
# 3 102.8126 25.0493 179.0141 0.0000 0.0000 0.0000
# 4 0.0000 0.0000 0.0000 22.1738 0.0000 0.0000
# 5 0.0000 0.0000 0.0000 0.0000 28.4609 0.0000
# 6 0.0000 0.0000 0.0000 0.0000 0.0000 21.5823
#
#
#
# Elastic Compliance Matrix: (Units=1/GPa)
#
#
# Indices 1 2 3 4 5 6 
#
# 1 0.010182 -0.002316 -0.005524 0.000000 0.000000 0.000000
# 2 -0.002316 0.039932 -0.004258 0.000000 0.000000 0.000000
# 3 -0.005524 -0.004258 0.009354 0.000000 0.000000 0.000000
# 4 0.000000 0.000000 0.000000 0.045098 0.000000 0.000000
# 5 0.000000 0.000000 0.000000 0.000000 0.035136 0.000000
# 6 0.000000 0.000000 0.000000 0.000000 0.000000 0.046334
#
#
# Mechanical properties :
#
#
# Convention : Reuss Voigt Hill
#
# Bulk Modulus (GPa) = 28.34964 73.61205 50.98084
# Shear Modulus (GPa) = 22.52359 29.00656 25.76508
#
# Velocity S-wave (km/s) = 3.41339 3.87360 3.65075
# Velocity P-wave (km/s) = 5.49545 7.62136 6.64398
#
# Compressibility (1/GPa) = 0.03527381
#
# Stress axis : x y z
#
# Youngs Moduli (GPa) = 98.21022 25.04272 106.90134
#
# Poissons Ratio (x) = 0.05800 0.59051
# Poissons Ratio (y) = 0.22744 0.45514
# Poissons Ratio (z) = 0.54250 0.10662
#
# Static dielectric constant tensor:
#      x y z
#    x 3.850810 0.000000 0.000000 
#    y 0.000000 2.995260 0.000000 
#    z 0.000000 0.000000 3.743870 
# 
# 
# High freq. dielectric constant tensor:
#      x y z
#    x 1.772900 0.000000 0.000000 
#    y 0.000000 1.700490 0.000000 
#    z 0.000000 0.000000 1.761800 
# 
# From -- ./inp_files/14314.got.cif
#   From: 2010.03.12/outbox.cif.g09.slc.cpg/sg38_8_cif.got.tgz:14314.got - 2010.04.14 02:38:36.
