data_PCOD8180743
_publ_section_title
;
Structure prediction by ZEFSAII (Michael W. Deem and Ramdas Pophale) SiO2 
 PCOD8180743
Probable space group: A B M 2
;
_chemical_formula_sum "Si O2"
_cell_formula_units_Z 40
_cell_length_a 14.217042
_cell_length_b 8.796693
_cell_length_c 20.363092
_cell_angle_alpha 90.000000
_cell_angle_beta 90.000000
_cell_angle_gamma 90.000000
_cell_volume 2546.668435
_symmetry_space_group_name_H-M "A B M 2"
_symmetry_group_IT_number 39
_symmetry_cell_setting 'orthorhombic'
loop_
_space_group_symop_operation_xyz
x,y,z
-x,-y,z
-x,1/2+y,z
x,1/2-y,z
x,1/2+y,1/2+z
-x,1/2-y,1/2+z
-x,y,1/2+z
x,-y,1/2+z
loop_
_atom_site_type_symbol
_atom_site_label
_atom_site_fract_x
_atom_site_fract_y
_atom_site_fract_z
Si Si1 0.744363 0.421277 0.091910
Si Si2 0.255637 0.078723 0.735556
Si Si3 0.399616 0.931723 0.344594
Si Si4 0.101524 0.427596 0.163733
Si Si5 0.600384 0.568278 0.482873
O O1 0.773010 0.250000 0.072389
O O2 0.693210 0.423324 0.163733
O O3 0.840642 0.519408 0.098347
O O4 0.674563 0.488565 0.037364
O O5 0.226990 0.250000 0.755077
O O6 0.325436 0.011435 0.790102
O O7 0.159358 0.980593 0.729119
O O8 0.406955 0.750000 0.348463
O O9 0.500000 0.000000 0.324761
O O10 0.365617 0.000000 0.413733
O O11 0.089476 0.250000 0.163733
O O12 0.000000 0.500000 0.163733
O O13 0.500000 0.500000 0.502705
O O14 0.593045 0.750000 0.479003
#
# Coordination Sequence:
#
# PCOD8180743 Si02
#       5
#     8   8   8   8   8
#     4   8  17  33  48  68  95 124 158 195 234 274
#     4   8  17  33  48  68  95 124 158 195 234 274
#     4  10  19  31  48  68  97 131 161 195 230 276
#     4  10  18  30  51  74  95 120 151 192 238 286
#     4  10  19  31  48  68  97 131 161 195 230 276
#
# _framework density 15.706796000000001
#
# number of rings (size 3 to 8) (size 9 to 14) (size 15 to 20)
#    1.200    1.600    0.000    3.600    0.000    4.000 
#    0.000    0.000    0.000    1.200    0.000    8.400 
#    0.000    0.000    0.000    0.000    0.000    0.000 
#
# Total GULP energy -247769.399953 kJ/mol
# GULP energy per Si atom -12388.469998 kJ/mol
# Density = 1.567105 g / cm^3
# Si number density = 15.706796 Si / 1000 Ang^3
#
#
#
# Elastic Constant Matrix: (Units=GPa)
#
#
# Indices 1 2 3 4 5 6 
#
# 1 132.7844 59.3406 81.8471 0.0000 0.0000 0.0000
# 2 59.3406 98.0149 42.9994 0.0000 0.0000 0.0000
# 3 81.8471 42.9994 89.9392 0.0000 0.0000 0.0000
# 4 0.0000 0.0000 0.0000 22.2468 0.0000 0.0000
# 5 0.0000 0.0000 0.0000 0.0000 10.7580 0.0000
# 6 0.0000 0.0000 0.0000 0.0000 0.0000 27.7956
#
#
#
# Elastic Compliance Matrix: (Units=1/GPa)
#
#
# Indices 1 2 3 4 5 6 
#
# 1 0.018858 -0.004920 -0.014809 0.000000 0.000000 0.000000
# 2 -0.004920 0.014194 -0.002308 0.000000 0.000000 0.000000
# 3 -0.014809 -0.002308 0.025699 0.000000 0.000000 0.000000
# 4 0.000000 0.000000 0.000000 0.044950 0.000000 0.000000
# 5 0.000000 0.000000 0.000000 0.000000 0.092954 0.000000
# 6 0.000000 0.000000 0.000000 0.000000 0.000000 0.035977
#
#
# Mechanical properties :
#
#
# Convention : Reuss Voigt Hill
#
# Bulk Modulus (GPa) = 68.14090 76.56810 72.35450
# Shear Modulus (GPa) = 17.75575 21.26352 19.50963
#
# Velocity S-wave (km/s) = 3.36586 3.68336 3.52819
# Velocity P-wave (km/s) = 7.65393 8.18192 7.92232
#
# Compressibility (1/GPa) = 0.01467547
#
# Stress axis : x y z
#
# Youngs Moduli (GPa) = 53.02817 70.45138 38.91247
#
# Poissons Ratio (x) = 0.34665 0.57625
# Poissons Ratio (y) = 0.26092 0.08983
# Poissons Ratio (z) = 0.78528 0.16264
#
# Static dielectric constant tensor:
#      x y z
#    x 2.880760 0.000000 0.000000 
#    y 0.000000 3.013980 0.000000 
#    z 0.000000 0.000000 2.967470 
# 
# 
# High freq. dielectric constant tensor:
#      x y z
#    x 1.586780 0.000000 0.000000 
#    y 0.000000 1.612140 0.000000 
#    z 0.000000 0.000000 1.586410 
# 
# From -- ./inp_files/14574.got.cif
#   From: 2010.03.12/outbox.cif.g09.slc.cpg/sg39_8_cif.got.tgz:14574.got - 2010.04.14 02:53:20.
