data_PCOD8180341
_publ_section_title
;
Structure prediction by ZEFSAII (Michael W. Deem and Ramdas Pophale) SiO2 
 PCOD8180341
Probable space group: A M M 2
;
_chemical_formula_sum "Si O2"
_cell_formula_units_Z 52
_cell_length_a 17.445050
_cell_length_b 17.562849
_cell_length_c 8.665068
_cell_angle_alpha 90.000000
_cell_angle_beta 90.000000
_cell_angle_gamma 90.000000
_cell_volume 2654.844944
_symmetry_space_group_name_H-M "A M M 2"
_symmetry_group_IT_number 38
_symmetry_cell_setting 'orthorhombic'
loop_
_space_group_symop_operation_xyz
x,y,z
-x,-y,z
-x,y,z
x,-y,z
x,1/2+y,1/2+z
-x,1/2-y,1/2+z
-x,1/2+y,1/2+z
x,1/2-y,1/2+z
loop_
_atom_site_type_symbol
_atom_site_label
_atom_site_fract_x
_atom_site_fract_y
_atom_site_fract_z
Si Si1 0.355699 0.000000 0.967911
Si Si2 0.086278 0.355606 0.552146
Si Si3 0.185787 0.000000 0.978889
Si Si4 0.086711 0.295758 0.891813
Si Si5 0.265467 0.500000 0.176701
Si Si6 0.679458 0.256045 0.766587
Si Si7 0.587875 0.163096 0.008590
Si Si8 0.236494 0.343145 0.027401
O O1 0.342780 0.000000 0.781353
O O2 0.403804 0.072543 0.021869
O O3 0.271688 0.000000 0.049898
O O4 0.144126 0.424967 0.538307
O O5 0.102644 0.294304 0.417452
O O6 0.000000 0.387809 0.540167
O O7 0.099454 0.312914 0.713108
O O8 0.191308 0.000000 0.791697
O O9 0.145251 0.344376 0.996443
O O10 0.000000 0.316230 0.945098
O O11 0.264806 0.427081 0.067373
O O12 0.638130 0.190994 0.865110
O O13 0.615811 0.297958 0.665344
O O14 0.744589 0.215742 0.664172
O O15 0.720212 0.318420 0.872253
O O16 0.500000 0.185579 0.982347
#
# Coordination Sequence:
#
# PCOD8180341 Si02
#       8
#     4   8   4   8   4   8   8   8
#     4  10  23  38  61  88 123 160 201 237 305 369
#     4  10  22  40  61  88 122 163 205 255 311 361
#     4  10  23  38  61  86 123 157 209 247 299 369
#     4  10  23  38  62  92 121 160 206 255 312 357
#     4  10  24  40  58  92 120 159 204 248 306 356
#     4  10  23  38  67  96 118 162 205 248 303 360
#     4  11  22  42  65  94 126 157 198 251 307 369
#     4  11  22  40  63  89 130 159 207 255 294 363
#
# _framework density 19.586829999999999
#
# number of rings (size 3 to 8) (size 9 to 14) (size 15 to 20)
#    0.462    1.231    1.538    1.846   10.769    1.231 
#    0.000    1.923    0.000    0.000    0.000    0.000 
#    0.000    0.000    0.000    0.000    0.000    0.000 
#
# Total GULP energy -322442.595523 kJ/mol
# GULP energy per Si atom -12401.638289 kJ/mol
# Density = 1.954225 g / cm^3
# Si number density = 19.586830 Si / 1000 Ang^3
#
#
#
# Elastic Constant Matrix: (Units=GPa)
#
#
# Indices 1 2 3 4 5 6 
#
# 1 95.2855 19.5473 31.7523 0.0000 0.0000 0.0000
# 2 19.5473 102.4717 36.7132 0.0000 0.0000 0.0000
# 3 31.7523 36.7132 88.9440 0.0000 0.0000 0.0000
# 4 0.0000 0.0000 0.0000 30.7463 0.0000 0.0000
# 5 0.0000 0.0000 0.0000 0.0000 20.7753 0.0000
# 6 0.0000 0.0000 0.0000 0.0000 0.0000 30.0251
#
#
#
# Elastic Compliance Matrix: (Units=1/GPa)
#
#
# Indices 1 2 3 4 5 6 
#
# 1 0.011980 -0.000884 -0.003912 0.000000 0.000000 0.000000
# 2 -0.000884 0.011518 -0.004439 0.000000 0.000000 0.000000
# 3 -0.003912 -0.004439 0.014472 0.000000 0.000000 0.000000
# 4 0.000000 0.000000 0.000000 0.032524 0.000000 0.000000
# 5 0.000000 0.000000 0.000000 0.000000 0.048134 0.000000
# 6 0.000000 0.000000 0.000000 0.000000 0.000000 0.033305
#
#
# Mechanical properties :
#
#
# Convention : Reuss Voigt Hill
#
# Bulk Modulus (GPa) = 51.28065 51.41408 51.34736
# Shear Modulus (GPa) = 28.26436 29.55524 28.90980
#
# Velocity S-wave (km/s) = 3.80284 3.88871 3.84602
# Velocity P-wave (km/s) = 6.74686 6.81682 6.78193
#
# Compressibility (1/GPa) = 0.01950053
#
# Stress axis : x y z
#
# Youngs Moduli (GPa) = 83.47503 86.82350 69.10057
#
# Poissons Ratio (x) = 0.07672 0.27031
# Poissons Ratio (y) = 0.07376 0.30671
# Poissons Ratio (z) = 0.32654 0.38538
#
# Static dielectric constant tensor:
#      x y z
#    x 3.608020 0.000000 0.000000 
#    y 0.000000 3.421480 0.000000 
#    z 0.000000 0.000000 3.548870 
# 
# 
# High freq. dielectric constant tensor:
#      x y z
#    x 1.765080 0.000000 0.000000 
#    y 0.000000 1.760250 0.000000 
#    z 0.000000 0.000000 1.761650 
# 
# From -- ./inp_files/6337.got.cif
#   From: 2010.03.12/outbox.cif.g09.slc.cpg/sg38_4_cif.got.tgz:6337.got - 2010.04.14 02:38:36.
