data_PCOD8180108
_publ_section_title
;
Structure prediction by ZEFSAII (Michael W. Deem and Ramdas Pophale) SiO2 
 PCOD8180108
Probable space group: A M M 2
;
_chemical_formula_sum "Si O2"
_cell_formula_units_Z 64
_cell_length_a 8.943140
_cell_length_b 14.486136
_cell_length_c 24.031510
_cell_angle_alpha 90.000000
_cell_angle_beta 90.000000
_cell_angle_gamma 90.000000
_cell_volume 3113.319184
_symmetry_space_group_name_H-M "A M M 2"
_symmetry_group_IT_number 38
_symmetry_cell_setting 'orthorhombic'
loop_
_space_group_symop_operation_xyz
x,y,z
-x,-y,z
-x,y,z
x,-y,z
x,1/2+y,1/2+z
-x,1/2-y,1/2+z
-x,1/2+y,1/2+z
x,1/2-y,1/2+z
loop_
_atom_site_type_symbol
_atom_site_label
_atom_site_fract_x
_atom_site_fract_y
_atom_site_fract_z
Si Si1 0.175136 0.607003 0.318180
Si Si2 0.824044 0.262498 0.995729
Si Si3 0.676792 0.236565 0.381124
Si Si4 0.835040 0.890628 0.169243
Si Si5 0.672940 0.392210 0.559954
Si Si6 0.825445 0.392561 0.792761
Si Si7 0.825554 0.894299 0.596164
Si Si8 0.331406 0.390260 0.206374
O O1 0.213174 0.500000 0.327491
O O2 0.256383 0.662902 0.366937
O O3 0.235914 0.643753 0.259057
O O4 0.000000 0.626761 0.320236
O O5 0.742355 0.295489 0.940037
O O6 0.000000 0.259274 0.985170
O O7 0.767745 0.161313 0.013641
O O8 0.778360 0.336331 0.042483
O O9 0.500000 0.243540 0.384685
O O10 0.723128 0.162299 0.335308
O O11 0.720495 0.858312 0.121697
O O12 0.783397 0.857137 0.230440
O O13 0.000000 0.850864 0.154559
O O14 0.845377 0.000000 0.171989
O O15 0.500000 0.369238 0.551753
O O16 0.707633 0.500000 0.551979
O O17 0.788388 0.500000 0.800047
O O18 0.000000 0.373277 0.804612
O O19 0.741017 0.851516 0.649652
O O20 0.000000 0.886541 0.608899
O O21 0.778217 0.000000 0.585073
O O22 0.500000 0.353075 0.212267
O O23 0.326710 0.500000 0.203927
#
# Coordination Sequence:
#
# PCOD8180108 Si02
#       8
#     8   8   8   8   8   8   8   8
#     4  10  21  39  63  87 113 149 192 236 282 338
#     4  11  24  41  60  81 108 148 197 241 280 332
#     4  12  26  41  58  83 116 151 191 241 291 342
#     4   8  15  31  57  87 115 145 184 228 275 331
#     4  10  21  37  58  85 117 150 183 228 286 340
#     4   9  19  38  63  88 117 154 194 236 280 331
#     4   9  19  37  60  85 113 147 187 230 277 331
#     4   9  17  31  55  88 121 149 180 224 281 340
#
# _framework density 20.556837999999999
#
# number of rings (size 3 to 8) (size 9 to 14) (size 15 to 20)
#    0.000    2.250    0.000    3.375    0.000    6.750 
#    0.000    3.750    0.000    0.000    0.000    0.000 
#    0.000    0.000    0.000    0.000    0.000    0.000 
#
# Total GULP energy -396875.298454 kJ/mol
# GULP energy per Si atom -12402.353077 kJ/mol
# Density = 2.051005 g / cm^3
# Si number density = 20.556838 Si / 1000 Ang^3
#
#
#
# Elastic Constant Matrix: (Units=GPa)
#
#
# Indices 1 2 3 4 5 6 
#
# 1 91.3787 14.7228 28.5307 0.0000 0.0000 0.0000
# 2 14.7228 43.1909 8.4026 0.0000 0.0000 0.0000
# 3 28.5307 8.4026 86.9309 0.0000 0.0000 0.0000
# 4 0.0000 0.0000 0.0000 32.0483 0.0000 0.0000
# 5 0.0000 0.0000 0.0000 0.0000 26.6749 0.0000
# 6 0.0000 0.0000 0.0000 0.0000 0.0000 27.4154
#
#
#
# Elastic Compliance Matrix: (Units=1/GPa)
#
#
# Indices 1 2 3 4 5 6 
#
# 1 0.012717 -0.003590 -0.003827 0.000000 0.000000 0.000000
# 2 -0.003590 0.024610 -0.001200 0.000000 0.000000 0.000000
# 3 -0.003827 -0.001200 0.012875 0.000000 0.000000 0.000000
# 4 0.000000 0.000000 0.000000 0.031203 0.000000 0.000000
# 5 0.000000 0.000000 0.000000 0.000000 0.037488 0.000000
# 6 0.000000 0.000000 0.000000 0.000000 0.000000 0.036476
#
#
# Mechanical properties :
#
#
# Convention : Reuss Voigt Hill
#
# Bulk Modulus (GPa) = 30.33279 36.09030 33.21154
# Shear Modulus (GPa) = 27.23404 28.55066 27.89235
#
# Velocity S-wave (km/s) = 3.64375 3.73079 3.68753
# Velocity P-wave (km/s) = 5.70002 6.01272 5.85846
#
# Compressibility (1/GPa) = 0.03296763
#
# Stress axis : x y z
#
# Youngs Moduli (GPa) = 78.63672 40.63315 77.66809
#
# Poissons Ratio (x) = 0.14589 0.29720
# Poissons Ratio (y) = 0.28234 0.09324
# Poissons Ratio (z) = 0.30091 0.04878
#
# Static dielectric constant tensor:
#      x y z
#    x 3.707530 0.000000 0.000000 
#    y 0.000000 3.626810 0.000000 
#    z 0.000000 0.000000 3.825050 
# 
# 
# High freq. dielectric constant tensor:
#      x y z
#    x 1.802470 0.000000 0.000000 
#    y 0.000000 1.798470 0.000000 
#    z 0.000000 0.000000 1.806090 
# 
# From -- ./inp_files/22158.got.cif
#   From: 2010.03.12/outbox.cif.g09.slc.cpg/sg38_12_cif.got.tgz:22158.got - 2010.04.14 02:38:36.
