data_PCOD8180072
_publ_section_title
;
Structure prediction by ZEFSAII (Michael W. Deem and Ramdas Pophale) SiO2 
 PCOD8180072
Probable space group: A M M 2
;
_chemical_formula_sum "Si O2"
_cell_formula_units_Z 64
_cell_length_a 16.229532
_cell_length_b 15.171864
_cell_length_c 13.717026
_cell_angle_alpha 90.000000
_cell_angle_beta 90.000000
_cell_angle_gamma 90.000000
_cell_volume 3377.574207
_symmetry_space_group_name_H-M "A M M 2"
_symmetry_group_IT_number 38
_symmetry_cell_setting 'orthorhombic'
loop_
_space_group_symop_operation_xyz
x,y,z
-x,-y,z
-x,y,z
x,-y,z
x,1/2+y,1/2+z
-x,1/2-y,1/2+z
-x,1/2+y,1/2+z
x,1/2-y,1/2+z
loop_
_atom_site_type_symbol
_atom_site_label
_atom_site_fract_x
_atom_site_fract_y
_atom_site_fract_z
Si Si1 0.804903 0.673668 0.593480
Si Si2 0.184440 0.597421 0.886462
Si Si3 0.096791 0.398721 0.410465
Si Si4 0.096198 0.243792 0.268055
Si Si5 0.684716 0.407092 0.727599
Si Si6 0.403817 0.254601 0.811640
Si Si7 0.305695 0.191187 0.503733
Si Si8 0.403522 0.600403 0.171543
O O1 0.859787 0.632493 0.508952
O O2 0.858376 0.736873 0.664452
O O3 0.762621 0.596184 0.654678
O O4 0.722715 0.722035 0.558784
O O5 0.145212 0.500000 0.902717
O O6 0.117185 0.659958 0.835863
O O7 0.271660 0.590566 0.832144
O O8 0.217657 0.641804 0.985477
O O9 0.120789 0.500000 0.385240
O O10 0.123861 0.334647 0.321594
O O11 0.000000 0.389941 0.429466
O O12 0.000000 0.243721 0.247085
O O13 0.637775 0.500000 0.709068
O O14 0.618913 0.327838 0.729164
O O15 0.500000 0.258745 0.835196
O O16 0.377940 0.160657 0.764314
O O17 0.354673 0.272419 0.910142
O O18 0.361713 0.129712 0.570911
O O19 0.500000 0.609639 0.152572
O O20 0.378240 0.500000 0.196203
#
# Coordination Sequence:
#
# PCOD8180072 Si02
#       8
#     8   8   8   8   8   8   8   8
#     4  11  20  35  58  84 115 149 188 235 286 340
#     4   9  18  33  54  80 110 139 177 227 280 336
#     4  10  21  38  60  86 116 155 199 237 282 346
#     4  10  21  37  57  81 113 149 188 238 289 339
#     4   9  18  33  54  80 110 139 177 227 280 336
#     4  10  21  37  57  81 113 149 188 238 289 339
#     4  11  20  35  58  84 115 149 188 235 286 340
#     4  10  21  38  60  86 116 155 199 237 282 346
#
# _framework density 18.948511
#
# number of rings (size 3 to 8) (size 9 to 14) (size 15 to 20)
#    0.000    2.000    2.500    1.500    0.000    1.500 
#    0.000    3.750    0.000    0.000    0.000    0.000 
#    0.000    0.000    0.000    0.000    0.000    0.000 
#
# Total GULP energy -396523.629680 kJ/mol
# GULP energy per Si atom -12391.363427 kJ/mol
# Density = 1.890538 g / cm^3
# Si number density = 18.948511 Si / 1000 Ang^3
#
#
#
# Elastic Constant Matrix: (Units=GPa)
#
#
# Indices 1 2 3 4 5 6 
#
# 1 56.5978 41.0436 42.2721 0.0000 0.0000 0.0000
# 2 41.0436 149.6081 55.9473 0.0000 0.0000 0.0000
# 3 42.2721 55.9473 90.3771 0.0000 0.0000 0.0000
# 4 0.0000 0.0000 0.0000 19.0089 0.0000 0.0000
# 5 0.0000 0.0000 0.0000 0.0000 25.9167 0.0000
# 6 0.0000 0.0000 0.0000 0.0000 0.0000 28.7599
#
#
#
# Elastic Compliance Matrix: (Units=1/GPa)
#
#
# Indices 1 2 3 4 5 6 
#
# 1 0.028652 -0.003707 -0.011107 0.000000 0.000000 0.000000
# 2 -0.003707 0.009177 -0.003947 0.000000 0.000000 0.000000
# 3 -0.011107 -0.003947 0.018703 0.000000 0.000000 0.000000
# 4 0.000000 0.000000 0.000000 0.052607 0.000000 0.000000
# 5 0.000000 0.000000 0.000000 0.000000 0.038585 0.000000
# 6 0.000000 0.000000 0.000000 0.000000 0.000000 0.034771
#
#
# Mechanical properties :
#
#
# Convention : Reuss Voigt Hill
#
# Bulk Modulus (GPa) = 52.60177 63.90098 58.25137
# Shear Modulus (GPa) = 22.08928 25.22511 23.65719
#
# Velocity S-wave (km/s) = 3.41802 3.65258 3.53724
# Velocity P-wave (km/s) = 6.58770 7.18228 6.89140
#
# Compressibility (1/GPa) = 0.01901077
#
# Stress axis : x y z
#
# Youngs Moduli (GPa) = 34.90128 108.96565 53.46681
#
# Poissons Ratio (x) = 0.40394 0.59384
# Poissons Ratio (y) = 0.12938 0.21104
# Poissons Ratio (z) = 0.38764 0.43011
#
# Static dielectric constant tensor:
#      x y z
#    x 3.297990 0.000000 0.000000 
#    y 0.000000 3.812790 0.000000 
#    z 0.000000 0.000000 3.419460 
# 
# 
# High freq. dielectric constant tensor:
#      x y z
#    x 1.726240 0.000000 0.000000 
#    y 0.000000 1.746470 0.000000 
#    z 0.000000 0.000000 1.729980 
# 
# From -- ./inp_files/10625.got.cif
#   From: 2010.03.12/outbox.cif.g09.slc.cpg/sg38_6_cif.got.tgz:10625.got - 2010.04.14 02:38:36.
