data_PCOD8180044
_publ_section_title
;
Structure prediction by ZEFSAII (Michael W. Deem and Ramdas Pophale) SiO2 
 PCOD8180044
Probable space group: A M M 2
;
_chemical_formula_sum "Si O2"
_cell_formula_units_Z 64
_cell_length_a 9.058658
_cell_length_b 32.457998
_cell_length_c 11.701700
_cell_angle_alpha 90.000000
_cell_angle_beta 90.000000
_cell_angle_gamma 90.000000
_cell_volume 3440.602912
_symmetry_space_group_name_H-M "A M M 2"
_symmetry_group_IT_number 38
_symmetry_cell_setting 'orthorhombic'
loop_
_space_group_symop_operation_xyz
x,y,z
-x,-y,z
-x,y,z
x,-y,z
x,1/2+y,1/2+z
-x,1/2-y,1/2+z
-x,1/2+y,1/2+z
x,1/2-y,1/2+z
loop_
_atom_site_type_symbol
_atom_site_label
_atom_site_fract_x
_atom_site_fract_y
_atom_site_fract_z
Si Si1 0.326794 0.687853 0.267630
Si Si2 0.662908 0.604205 0.654773
Si Si3 0.172308 0.227852 0.215803
Si Si4 0.326268 0.047765 0.705925
Si Si5 0.662060 0.811336 0.024907
Si Si6 0.175063 0.876420 0.601158
Si Si7 0.675652 0.454114 0.462537
Si Si8 0.171673 0.644775 0.845980
O O1 0.500000 0.685212 0.239697
O O2 0.269922 0.733893 0.252160
O O3 0.289829 0.676255 0.397928
O O4 0.241095 0.655589 0.190406
O O5 0.500000 0.587262 0.686271
O O6 0.649230 0.648043 0.597759
O O7 0.743318 0.574333 0.562697
O O8 0.754287 0.608534 0.771278
O O9 0.216222 0.217642 0.084718
O O10 0.213312 0.190480 0.301600
O O11 0.000000 0.238896 0.219571
O O12 0.500000 0.055784 0.691887
O O13 0.238456 0.077676 0.620543
O O14 0.273795 0.058859 0.835100
O O15 0.289257 0.000000 0.677814
O O16 0.500000 0.789507 0.022419
O O17 0.223432 0.860526 0.476164
O O18 0.000000 0.877518 0.614398
O O19 0.500000 0.451061 0.465091
O O20 0.730785 0.500000 0.488471
O O21 0.000000 0.637406 0.832323
#
# Coordination Sequence:
#
# PCOD8180044 Si02
#       8
#     8   8   8   8   8   8   8   8
#     4  11  23  37  56  82 110 139 179 228 276 329
#     4   9  16  30  54  78 101 133 175 218 262 316
#     4  10  21  37  56  77 105 141 181 225 277 332
#     4   9  18  35  59  85 114 148 185 229 282 333
#     4   9  19  35  53  76 103 134 174 220 269 321
#     4  11  23  38  56  81 112 150 191 229 278 334
#     4   8  14  27  51  82 112 138 168 216 275 327
#     4   9  21  39  54  72 105 147 184 222 271 328
#
# _framework density 18.601391
#
# number of rings (size 3 to 8) (size 9 to 14) (size 15 to 20)
#    0.000    2.500    0.000    2.625    1.750    4.750 
#    0.000    3.750    0.000    3.375    0.000    0.000 
#    0.000    0.000    0.000    0.000    0.000    0.000 
#
# Total GULP energy -396681.793800 kJ/mol
# GULP energy per Si atom -12396.306056 kJ/mol
# Density = 1.855905 g / cm^3
# Si number density = 18.601391 Si / 1000 Ang^3
#
#
#
# Elastic Constant Matrix: (Units=GPa)
#
#
# Indices 1 2 3 4 5 6 
#
# 1 58.9106 40.5654 52.0145 0.0000 0.0000 0.0000
# 2 40.5654 75.2482 48.5192 0.0000 0.0000 0.0000
# 3 52.0145 48.5192 130.9785 0.0000 0.0000 0.0000
# 4 0.0000 0.0000 0.0000 19.1768 0.0000 0.0000
# 5 0.0000 0.0000 0.0000 0.0000 28.0602 0.0000
# 6 0.0000 0.0000 0.0000 0.0000 0.0000 24.2198
#
#
#
# Elastic Compliance Matrix: (Units=1/GPa)
#
#
# Indices 1 2 3 4 5 6 
#
# 1 0.032965 -0.012258 -0.008550 0.000000 0.000000 0.000000
# 2 -0.012258 0.022018 -0.003288 0.000000 0.000000 0.000000
# 3 -0.008550 -0.003288 0.012248 0.000000 0.000000 0.000000
# 4 0.000000 0.000000 0.000000 0.052146 0.000000 0.000000
# 5 0.000000 0.000000 0.000000 0.000000 0.035638 0.000000
# 6 0.000000 0.000000 0.000000 0.000000 0.000000 0.041289
#
#
# Mechanical properties :
#
#
# Convention : Reuss Voigt Hill
#
# Bulk Modulus (GPa) = 52.52614 60.81506 56.67060
# Shear Modulus (GPa) = 19.93280 22.56058 21.24669
#
# Velocity S-wave (km/s) = 3.27704 3.48637 3.38333
# Velocity P-wave (km/s) = 6.52823 6.99794 6.76716
#
# Compressibility (1/GPa) = 0.01903814
#
# Stress axis : x y z
#
# Youngs Moduli (GPa) = 30.33513 45.41805 81.64266
#
# Poissons Ratio (x) = 0.55673 0.69808
# Poissons Ratio (y) = 0.37184 0.26846
# Poissons Ratio (z) = 0.25938 0.14935
#
# Static dielectric constant tensor:
#      x y z
#    x 3.492570 0.000000 0.000000 
#    y 0.000000 3.468680 0.000000 
#    z 0.000000 0.000000 3.650490 
# 
# 
# High freq. dielectric constant tensor:
#      x y z
#    x 1.707510 0.000000 0.000000 
#    y 0.000000 1.717020 0.000000 
#    z 0.000000 0.000000 1.724860 
# 
# From -- ./inp_files/8539.got.cif
#   From: 2010.03.12/outbox.cif.g09.slc.cpg/sg38_5_cif.got.tgz:8539.got - 2010.04.14 02:38:36.
