data_PCOD8180584
_publ_section_title
;
Structure prediction by ZEFSAII (Michael W. Deem and Ramdas Pophale) SiO2 
 PCOD8180584
Probable space group: A B M 2
;
_chemical_formula_sum "Si O2"
_cell_formula_units_Z 52
_cell_length_a 20.228783
_cell_length_b 30.921374
_cell_length_c 5.353360
_cell_angle_alpha 90.000000
_cell_angle_beta 90.000000
_cell_angle_gamma 90.000000
_cell_volume 3348.536127
_symmetry_space_group_name_H-M "A B M 2"
_symmetry_group_IT_number 39
_symmetry_cell_setting 'orthorhombic'
loop_
_space_group_symop_operation_xyz
x,y,z
-x,-y,z
-x,1/2+y,z
x,1/2-y,z
x,1/2+y,1/2+z
-x,1/2-y,1/2+z
-x,y,1/2+z
x,-y,1/2+z
loop_
_atom_site_type_symbol
_atom_site_label
_atom_site_fract_x
_atom_site_fract_y
_atom_site_fract_z
Si Si1 0.042334 0.750000 0.898830
Si Si2 0.316167 0.451115 0.368012
Si Si3 0.922518 0.344142 0.883485
Si Si4 0.472528 0.951444 0.869539
Si Si5 0.108688 0.027010 0.879190
Si Si6 0.738961 0.952440 0.868042
Si Si7 0.070392 0.379748 0.883463
O O1 0.087853 0.707458 0.880574
O O2 0.992019 0.750000 0.668337
O O3 0.394330 0.450053 0.384758
O O4 0.284196 0.428176 0.613181
O O5 0.291757 0.500100 0.350363
O O6 0.289859 0.428000 0.113709
O O7 0.889999 0.364781 0.633525
O O8 0.000034 0.356161 0.886219
O O9 0.889915 0.364450 0.134350
O O10 0.497455 0.927872 0.615550
O O11 0.500000 0.000000 0.857190
O O12 0.182562 0.045280 0.882645
O O13 0.060686 0.068507 0.881999
O O14 0.094025 0.000564 0.627166
#
# Coordination Sequence:
#
# PCOD8180584 Si02
#       7
#     4   8   8   8   8   8   8
#     4  12  16  30  58  72  92 104 128 140 174 274
#     4  10  16  25  38  48  67  86 116 172 192 242
#     4  10  19  35  47  73  86 108 120 149 205 251
#     4  10  16  22  31  49  68  86 104 134 206 272
#     4  12  21  34  44  59  73 108 148 178 204 234
#     4  10  16  27  38  50  63  86 132 169 196 222
#     4  10  20  32  48  61  91 102 129 170 200 237
#
# _framework density 15.529173999999999
#
# number of rings (size 3 to 8) (size 9 to 14) (size 15 to 20)
#    0.000    1.538    6.154    5.538    0.000    0.000 
#    0.000    9.231    0.000    0.000    0.000    0.000 
#    0.000    0.000    0.000    0.000    0.000    0.000 
#
# Total GULP energy -322146.376216 kJ/mol
# GULP energy per Si atom -12390.245239 kJ/mol
# Density = 1.549383 g / cm^3
# Si number density = 15.529174 Si / 1000 Ang^3
#
#
#
# Elastic Constant Matrix: (Units=GPa)
#
#
# Indices 1 2 3 4 5 6 
#
# 1 20.0922 6.8723 -1.3790 0.0000 0.0000 0.0000
# 2 6.8723 73.0513 33.6762 0.0000 0.0000 0.0000
# 3 -1.3790 33.6762 170.0999 0.0000 0.0000 0.0000
# 4 0.0000 0.0000 0.0000 16.7169 0.0000 0.0000
# 5 0.0000 0.0000 0.0000 0.0000 11.8660 0.0000
# 6 0.0000 0.0000 0.0000 0.0000 0.0000 0.5164
#
#
#
# Elastic Compliance Matrix: (Units=1/GPa)
#
#
# Indices 1 2 3 4 5 6 
#
# 1 0.051781 -0.005574 0.001523 0.000000 0.000000 0.000000
# 2 -0.005574 0.015664 -0.003146 0.000000 0.000000 0.000000
# 3 0.001523 -0.003146 0.006514 0.000000 0.000000 0.000000
# 4 0.000000 0.000000 0.000000 0.059820 0.000000 0.000000
# 5 0.000000 0.000000 0.000000 0.000000 0.084274 0.000000
# 6 0.000000 0.000000 0.000000 0.000000 0.000000 1.936450
#
#
# Mechanical properties :
#
#
# Convention : Reuss Voigt Hill
#
# Bulk Modulus (GPa) = 16.78804 37.95360 27.37082
# Shear Modulus (GPa) = 2.28441 20.75813 11.52127
#
# Velocity S-wave (km/s) = 1.21418 3.66008 2.72676
# Velocity P-wave (km/s) = 3.57768 6.50806 5.25141
#
# Compressibility (1/GPa) = 0.05956620
#
# Stress axis : x y z
#
# Youngs Moduli (GPa) = 19.31194 63.84165 153.51206
#
# Poissons Ratio (x) = 0.35582 -0.23384
# Poissons Ratio (y) = 0.10764 0.48299
# Poissons Ratio (z) = -0.02942 0.20086
#
# Static dielectric constant tensor:
#      x y z
#    x 2.646990 0.000000 0.000000 
#    y 0.000000 2.310700 0.000000 
#    z 0.000000 0.000000 7.172050 
# 
# 
# High freq. dielectric constant tensor:
#      x y z
#    x 1.555470 0.000000 0.000000 
#    y 0.000000 1.521370 0.000000 
#    z 0.000000 0.000000 1.648720 
# 
# From -- ./inp_files/896.got.cif
#   From: 2010.03.12/outbox.cif.g09.slc.cpg/sg39_1_cif.got.tgz:896.got - 2010.04.14 02:53:20.
