data_PCOD8180103
_publ_section_title
;
Structure prediction by ZEFSAII (Michael W. Deem and Ramdas Pophale) SiO2 
 PCOD8180103
Probable space group: A M M 2
;
_chemical_formula_sum "Si O2"
_cell_formula_units_Z 64
_cell_length_a 14.334564
_cell_length_b 22.953041
_cell_length_c 9.432577
_cell_angle_alpha 90.000000
_cell_angle_beta 90.000000
_cell_angle_gamma 90.000000
_cell_volume 3103.523795
_symmetry_space_group_name_H-M "A M M 2"
_symmetry_group_IT_number 38
_symmetry_cell_setting 'orthorhombic'
loop_
_space_group_symop_operation_xyz
x,y,z
-x,-y,z
-x,y,z
x,-y,z
x,1/2+y,1/2+z
-x,1/2-y,1/2+z
-x,1/2+y,1/2+z
x,1/2-y,1/2+z
loop_
_atom_site_type_symbol
_atom_site_label
_atom_site_fract_x
_atom_site_fract_y
_atom_site_fract_z
Si Si1 0.206407 0.250392 0.034720
Si Si2 0.394589 0.138271 0.904117
Si Si3 0.702119 0.152290 0.187274
Si Si4 0.605832 0.432627 0.144303
Si Si5 0.108361 0.812712 0.773597
Si Si6 0.892225 0.434879 0.168140
Si Si7 0.753337 0.566143 0.918750
Si Si8 0.395224 0.226642 0.404624
O O1 0.218940 0.197988 0.144578
O O2 0.135713 0.294178 0.112502
O O3 0.167348 0.223503 0.888341
O O4 0.306337 0.283742 0.009240
O O5 0.500000 0.116756 0.924856
O O6 0.348549 0.102525 0.774891
O O7 0.388578 0.205781 0.861442
O O8 0.340632 0.122574 0.047859
O O9 0.757742 0.105639 0.280090
O O10 0.617742 0.185693 0.267770
O O11 0.500000 0.413337 0.118532
O O12 0.616832 0.500000 0.182356
O O13 0.658347 0.416994 0.000244
O O14 0.128487 0.882908 0.781569
O O15 0.000000 0.799378 0.799801
O O16 0.863988 0.500000 0.226888
O O17 0.000000 0.433663 0.127471
O O18 0.839941 0.422343 0.021106
O O19 0.750774 0.500000 0.865869
O O20 0.500000 0.214635 0.469588
#
# Coordination Sequence:
#
# PCOD8180103 Si02
#       8
#     8   8   8   8   8   8   8   8
#     4  11  23  41  59  95 127 163 205 254 309 373
#     4   9  20  35  53  81 115 155 197 240 293 352
#     4  11  22  37  58  84 121 157 195 250 297 359
#     4   9  19  36  57  83 115 153 198 246 295 355
#     4  11  23  42  67  93 127 165 204 256 315 373
#     4   9  20  39  65  93 119 155 205 256 306 366
#     4  10  22  39  60  87 116 154 201 249 305 359
#     4  10  21  37  58  84 120 160 201 246 302 362
#
# _framework density 20.62172
#
# number of rings (size 3 to 8) (size 9 to 14) (size 15 to 20)
#    0.000    2.000    1.250    1.500    3.500    4.000 
#    0.000    5.000    0.000    0.000    0.000    0.000 
#    0.000    0.000    0.000    0.000    0.000    0.000 
#
# Total GULP energy -396632.896526 kJ/mol
# GULP energy per Si atom -12394.778016 kJ/mol
# Density = 2.057478 g / cm^3
# Si number density = 20.621720 Si / 1000 Ang^3
#
#
#
# Elastic Constant Matrix: (Units=GPa)
#
#
# Indices 1 2 3 4 5 6 
#
# 1 91.2973 20.7379 20.1680 0.0000 0.0000 0.0000
# 2 20.7379 69.9831 43.6576 0.0000 0.0000 0.0000
# 3 20.1680 43.6576 70.6746 0.0000 0.0000 0.0000
# 4 0.0000 0.0000 0.0000 41.9916 0.0000 0.0000
# 5 0.0000 0.0000 0.0000 0.0000 19.9034 0.0000
# 6 0.0000 0.0000 0.0000 0.0000 0.0000 17.7434
#
#
#
# Elastic Compliance Matrix: (Units=1/GPa)
#
#
# Indices 1 2 3 4 5 6 
#
# 1 0.011912 -0.002293 -0.001983 0.000000 0.000000 0.000000
# 2 -0.002293 0.023689 -0.013979 0.000000 0.000000 0.000000
# 3 -0.001983 -0.013979 0.023350 0.000000 0.000000 0.000000
# 4 0.000000 0.000000 0.000000 0.023814 0.000000 0.000000
# 5 0.000000 0.000000 0.000000 0.000000 0.050243 0.000000
# 6 0.000000 0.000000 0.000000 0.000000 0.000000 0.056359
#
#
# Mechanical properties :
#
#
# Convention : Reuss Voigt Hill
#
# Bulk Modulus (GPa) = 44.55948 44.56468 44.56208
# Shear Modulus (GPa) = 21.42628 25.75379 23.59004
#
# Velocity S-wave (km/s) = 3.22687 3.53777 3.38589
# Velocity P-wave (km/s) = 5.96142 6.19235 6.07798
#
# Compressibility (1/GPa) = 0.02244191
#
# Stress axis : x y z
#
# Youngs Moduli (GPa) = 83.94843 42.21327 42.82565
#
# Poissons Ratio (x) = 0.09679 0.08492
# Poissons Ratio (y) = 0.19248 0.59867
# Poissons Ratio (z) = 0.16646 0.59011
#
# Static dielectric constant tensor:
#      x y z
#    x 3.858030 0.000000 0.000000 
#    y 0.000000 3.923730 0.000000 
#    z 0.000000 0.000000 3.567870 
# 
# 
# High freq. dielectric constant tensor:
#      x y z
#    x 1.808310 0.000000 0.000000 
#    y 0.000000 1.813460 0.000000 
#    z 0.000000 0.000000 1.786160 
# 
# From -- ./inp_files/5895.got.cif
#   From: 2010.03.12/outbox.cif.g09.slc.cpg/sg38_3_cif.got.tgz:5895.got - 2010.04.14 02:38:36.
