data_PCOD8180646
_publ_section_title
;
Structure prediction by ZEFSAII (Michael W. Deem and Ramdas Pophale) SiO2 
 PCOD8180646
Probable space group: A B M 2
;
_chemical_formula_sum "Si O2"
_cell_formula_units_Z 56
_cell_length_a 16.582968
_cell_length_b 18.932755
_cell_length_c 9.030345
_cell_angle_alpha 90.000000
_cell_angle_beta 90.000000
_cell_angle_gamma 90.000000
_cell_volume 2835.178588
_symmetry_space_group_name_H-M "A B M 2"
_symmetry_group_IT_number 39
_symmetry_cell_setting 'orthorhombic'
loop_
_space_group_symop_operation_xyz
x,y,z
-x,-y,z
-x,1/2+y,z
x,1/2-y,z
x,1/2+y,1/2+z
-x,1/2-y,1/2+z
-x,y,1/2+z
x,-y,1/2+z
loop_
_atom_site_type_symbol
_atom_site_label
_atom_site_fract_x
_atom_site_fract_y
_atom_site_fract_z
Si Si1 0.218346 0.912667 0.326550
Si Si2 0.598364 0.458927 0.890961
Si Si3 0.609624 0.126675 0.370297
Si Si4 0.229169 0.058418 0.483302
Si Si5 0.062608 0.170021 0.777130
Si Si6 0.095505 0.168813 0.436216
Si Si7 0.492377 0.611303 0.628682
O O1 0.294146 0.859069 0.361878
O O2 0.136617 0.870149 0.352431
O O3 0.209619 0.978699 0.435861
O O4 0.226984 0.940508 0.160077
O O5 0.605429 0.541994 0.871712
O O6 0.682689 0.421068 0.925195
O O7 0.567078 0.429992 0.736164
O O8 0.538193 0.443351 0.023902
O O9 0.566004 0.158005 0.519001
O O10 0.558775 0.155119 0.226507
O O11 0.170180 0.116350 0.410775
O O12 0.070548 0.250000 0.831574
O O13 0.063782 0.162511 0.602167
O O14 0.976503 0.140812 0.832023
O O15 0.121151 0.250000 0.400518
#
# Coordination Sequence:
#
# PCOD8180646 Si02
#       7
#     8   8   8   8   8   8   8
#     4  10  21  33  49  77 111 138 165 209 261 306
#     4  10  17  26  41  66  99 136 170 208 247 299
#     4  10  17  26  41  66  99 136 170 208 247 299
#     4  10  21  33  49  77 111 138 165 209 261 306
#     4   9  19  38  60  79  99 131 174 212 250 304
#     4   9  19  38  60  79  99 131 174 212 250 304
#     4  10  17  26  42  64  97 138 173 208 249 290
#
# _framework density 19.751840999999999
#
# number of rings (size 3 to 8) (size 9 to 14) (size 15 to 20)
#    0.000    2.286    1.429    3.429    6.000    1.714 
#    0.000    2.857    0.000    0.000    0.000    6.000 
#    0.000    0.000    0.000    0.000    0.000    0.000 
#
# Total GULP energy -346967.339886 kJ/mol
# GULP energy per Si atom -12391.690710 kJ/mol
# Density = 1.970688 g / cm^3
# Si number density = 19.751841 Si / 1000 Ang^3
#
#
#
# Elastic Constant Matrix: (Units=GPa)
#
#
# Indices 1 2 3 4 5 6 
#
# 1 154.5752 41.1064 45.0097 0.0000 0.0000 0.0000
# 2 41.1064 33.8015 14.7227 0.0000 0.0000 0.0000
# 3 45.0097 14.7227 87.0003 0.0000 0.0000 0.0000
# 4 0.0000 0.0000 0.0000 11.4161 0.0000 0.0000
# 5 0.0000 0.0000 0.0000 0.0000 31.0029 0.0000
# 6 0.0000 0.0000 0.0000 0.0000 0.0000 -9.5080
#
#
#
# Elastic Compliance Matrix: (Units=1/GPa)
#
#
# Indices 1 2 3 4 5 6 
#
# 1 0.010475 -0.011204 -0.003523 0.000000 0.000000 0.000000
# 2 -0.011204 0.043922 -0.001636 0.000000 0.000000 0.000000
# 3 -0.003523 -0.001636 0.013594 0.000000 0.000000 0.000000
# 4 0.000000 0.000000 0.000000 0.087596 0.000000 0.000000
# 5 0.000000 0.000000 0.000000 0.000000 0.032255 0.000000
# 6 0.000000 0.000000 0.000000 0.000000 0.000000 -0.105175
#
#
# Mechanical properties :
#
#
# Convention : Reuss Voigt Hill
#
# Bulk Modulus (GPa) = 28.35749 53.00605 40.68177
# Shear Modulus (GPa) = 39.32421 18.21808 28.77114
#
# Velocity S-wave (km/s) = 4.46681 3.04031 3.82072
# Velocity P-wave (km/s) = 6.40244 6.26250 6.33286
#
# Compressibility (1/GPa) = 0.03526405
#
# Stress axis : x y z
#
# Youngs Moduli (GPa) = 95.46841 22.76744 73.56278
#
# Poissons Ratio (x) = 0.25508 0.25917
# Poissons Ratio (y) = 1.06961 0.12038
# Poissons Ratio (z) = 0.33635 0.03726
#
# Static dielectric constant tensor:
#      x y z
#    x 4.296220 0.000000 0.000000 
#    y 0.000000 3.107270 0.000000 
#    z 0.000000 0.000000 3.890300 
# 
# 
# High freq. dielectric constant tensor:
#      x y z
#    x 1.789780 0.000000 0.000000 
#    y 0.000000 1.713620 0.000000 
#    z 0.000000 0.000000 1.780680 
# 
# From -- ./inp_files/3826.got.cif
#   From: 2010.03.12/outbox.cif.g09.slc.cpg/sg39_2_cif.got.tgz:3826.got - 2010.04.14 02:53:20.
