data_PCOD8180566
_publ_section_title
;
Structure prediction by ZEFSAII (Michael W. Deem and Ramdas Pophale) SiO2 
 PCOD8180566
Probable space group: A M M 2
;
_chemical_formula_sum "Si O2"
_cell_formula_units_Z 24
_cell_length_a 9.000000
_cell_length_b 9.000000
_cell_length_c 30.000000
_cell_angle_alpha 90.000000
_cell_angle_beta 90.000000
_cell_angle_gamma 90.000000
_cell_volume 2430.000000
_symmetry_space_group_name_H-M "A M M 2"
_symmetry_group_IT_number 38
_symmetry_cell_setting 'orthorhombic'
loop_
_space_group_symop_operation_xyz
x,y,z
-x,-y,z
-x,y,z
x,-y,z
x,1/2+y,1/2+z
-x,1/2-y,1/2+z
-x,1/2+y,1/2+z
x,1/2-y,1/2+z
loop_
_atom_site_type_symbol
_atom_site_label
_atom_site_fract_x
_atom_site_fract_y
_atom_site_fract_z
Si Si1 0.830631 0.330568 0.278230
Si Si2 0.173344 0.334461 0.426301
Si Si3 0.335443 0.177537 0.010858
Si Si4 0.161014 0.669398 0.176767
Si Si5 0.664134 0.174200 0.350929
Si Si6 0.674524 0.838198 0.105676
O O1 0.811077 0.500000 0.294481
O O2 0.787253 0.312695 0.227129
O O3 0.715146 0.224787 0.302440
O O4 0.000000 0.280228 0.287004
O O5 0.239865 0.500000 0.419717
O O6 0.233190 0.260158 0.471544
O O7 0.217160 0.233669 0.385427
O O8 0.000000 0.341807 0.429658
O O9 0.500000 0.241307 0.002382
O O10 0.269330 0.231043 0.058558
O O11 0.337486 0.000000 0.011854
O O12 0.144327 0.500000 0.163838
O O13 0.287923 0.735567 0.146574
O O14 0.000000 0.746758 0.169133
O O15 0.500000 0.237638 0.361184
O O16 0.663074 0.000000 0.352657
O O17 0.500000 0.853989 0.101311
O O18 0.746359 0.000000 0.113954
#
# Coordination Sequence:
#
# PCOD8180566 Si02
#       6
#     8   8   8   8   8   8
#     4   9  19  37  58  77  99 131 172 214 254 300
#     4  10  20  34  55  81 104 130 169 213 254 300
#     4   8  15  30  51  74 102 136 172 210 251 295
#     4   9  19  35  53  75 104 136 171 211 253 300
#     4  11  24  38  52  75 106 136 167 206 253 305
#     4   9  18  32  51  77 107 137 171 211 253 299
#
# _framework density 9.8765429999999999
#
# number of rings (size 3 to 8) (size 9 to 14) (size 15 to 20)
#    0.000    2.667    0.000    3.500    0.000    7.333 
#    0.000    7.500    0.000    1.000    0.000    0.000 
#    0.000    0.000    0.000    0.000    0.000    0.000 
#
# Total GULP energy -297420.907714 kJ/mol
# GULP energy per Si atom -12392.537821 kJ/mol
# Density = 0.985406 g / cm^3
# Si number density = 9.876543 Si / 1000 Ang^3
#
#
#
# Elastic Constant Matrix: (Units=GPa)
#
#
# Indices 1 2 3 4 5 6 
#
# 1 42.6745 32.3822 41.4871 0.0000 0.0000 0.0000
# 2 32.3822 27.9346 56.8200 0.0000 0.0000 0.0000
# 3 41.4871 56.8200 71.5153 0.0000 0.0000 0.0000
# 4 0.0000 0.0000 0.0000 12.4903 0.0000 0.0000
# 5 0.0000 0.0000 0.0000 0.0000 -101.8288 0.0000
# 6 0.0000 0.0000 0.0000 0.0000 0.0000 20.4195
#
#
#
# Elastic Compliance Matrix: (Units=1/GPa)
#
#
# Indices 1 2 3 4 5 6 
#
# 1 0.053686 -0.001809 -0.029707 0.000000 0.000000 0.000000
# 2 -0.001809 -0.058046 0.047168 0.000000 0.000000 0.000000
# 3 -0.029707 0.047168 -0.006259 0.000000 0.000000 0.000000
# 4 0.000000 0.000000 0.000000 0.080062 0.000000 0.000000
# 5 0.000000 0.000000 0.000000 0.000000 -0.009820 0.000000
# 6 0.000000 0.000000 0.000000 0.000000 0.000000 0.048973
#
#
# Mechanical properties :
#
#
# Convention : Reuss Voigt Hill
#
# Bulk Modulus (GPa) = 48.34429 44.83367 46.58898
# Shear Modulus (GPa) = 59.39190 -13.02144 23.18523
#
# Velocity S-wave (km/s) = 5.48930 -2.57029 3.42972
# Velocity P-wave (km/s) = 8.04388 3.73333 6.27064
#
# Compressibility (1/GPa) = 0.02068497
#
# Stress axis : x y z
#
# Youngs Moduli (GPa) = 18.62675 -17.22774 -159.76687
#
# Poissons Ratio (x) = -0.03117 -4.74617
# Poissons Ratio (y) = 0.03370 7.53585
# Poissons Ratio (z) = 0.55334 0.81259
#
# Static dielectric constant tensor:
#      x y z
#    x 3.917880 0.000000 0.000000 
#    y 0.000000 3.200740 0.000000 
#    z 0.000000 0.000000 3.640890 
# 
# 
# High freq. dielectric constant tensor:
#      x y z
#    x 1.751920 0.000000 0.000000 
#    y 0.000000 1.725160 0.000000 
#    z 0.000000 0.000000 1.770250 
# 
# From -- ./inp_files/24269.got.cif
#   From: 2010.03.12/outbox.ucp.g09.slc.cvg/sg38_13_cif.got.tgz:24269.got - 2010.05.04 21:14:20.
