data_PCOD8180608
_publ_section_title
;
Structure prediction by ZEFSAII (Michael W. Deem and Ramdas Pophale) SiO2 
 PCOD8180608
Probable space group: A B M 2
;
_chemical_formula_sum "Si O2"
_cell_formula_units_Z 60
_cell_length_a 24.983465
_cell_length_b 22.781627
_cell_length_c 5.278338
_cell_angle_alpha 90.000000
_cell_angle_beta 90.000000
_cell_angle_gamma 90.000000
_cell_volume 3004.239868
_symmetry_space_group_name_H-M "A B M 2"
_symmetry_group_IT_number 39
_symmetry_cell_setting 'orthorhombic'
loop_
_space_group_symop_operation_xyz
x,y,z
-x,-y,z
-x,1/2+y,z
x,1/2-y,z
x,1/2+y,1/2+z
-x,1/2-y,1/2+z
-x,y,1/2+z
x,-y,1/2+z
loop_
_atom_site_type_symbol
_atom_site_label
_atom_site_fract_x
_atom_site_fract_y
_atom_site_fract_z
Si Si1 0.848871 0.314792 0.717570
Si Si2 0.522851 0.933268 0.197988
Si Si3 0.615362 0.355847 0.728422
Si Si4 0.674294 0.180594 0.229884
Si Si5 0.034022 0.656046 0.698618
Si Si6 0.941022 0.476680 0.641979
Si Si7 0.534048 0.750000 0.250249
Si Si8 0.799052 0.819046 0.717653
O O1 0.822677 0.250000 0.720012
O O2 0.912772 0.305566 0.712978
O O3 0.826575 0.347899 0.467195
O O4 0.827770 0.347639 0.970697
O O5 0.496934 0.901510 0.441838
O O6 0.586935 0.920934 0.215638
O O7 0.500000 0.000000 0.188552
O O8 0.654623 0.348148 0.490844
O O9 0.569289 0.307685 0.711850
O O10 0.647264 0.350582 0.990191
O O11 0.661897 0.250000 0.225315
O O12 0.736709 0.166994 0.211700
O O13 0.056511 0.590669 0.713029
O O14 0.003224 0.670185 0.438828
O O15 0.911374 0.511366 0.872249
O O16 0.000000 0.500000 0.573760
O O17 0.511225 0.750000 0.534822
O O18 0.811084 0.750000 0.721065
#
# Coordination Sequence:
#
# PCOD8180608 Si02
#       8
#     8   8   8   8   8   8   4   8
#     4  10  21  36  50  74 107 146 185 212 263 331
#     4  10  21  38  56  75 111 148 194 230 256 315
#     4  12  21  34  53  83 115 143 190 222 275 334
#     4  11  20  35  55  83 111 141 183 239 285 339
#     4  12  21  31  51  76 106 143 175 217 256 318
#     4  10  16  30  47  68 101 124 162 205 256 303
#     4  12  22  32  46  72 122 164 158 196 268 340
#     4   9  19  36  56  71 103 145 178 228 278 317
#
# _framework density 19.971775000000001
#
# number of rings (size 3 to 8) (size 9 to 14) (size 15 to 20)
#    0.000    1.333    4.000    4.000    0.000    2.667 
#    0.000    0.000    0.000    0.000    0.000    0.000 
#   80.000    0.000    0.000    0.000    0.000    0.000 
#
# Total GULP energy -371751.646159 kJ/mol
# GULP energy per Si atom -12391.721539 kJ/mol
# Density = 1.992632 g / cm^3
# Si number density = 19.971775 Si / 1000 Ang^3
#
#
#
# Elastic Constant Matrix: (Units=GPa)
#
#
# Indices 1 2 3 4 5 6 
#
# 1 99.7581 14.6546 50.3049 0.0000 0.0000 0.0000
# 2 14.6546 43.9036 4.4493 0.0000 0.0000 0.0000
# 3 50.3049 4.4493 187.6869 0.0000 0.0000 0.0000
# 4 0.0000 0.0000 0.0000 5.2792 0.0000 0.0000
# 5 0.0000 0.0000 0.0000 0.0000 36.2508 0.0000
# 6 0.0000 0.0000 0.0000 0.0000 0.0000 16.0338
#
#
#
# Elastic Compliance Matrix: (Units=1/GPa)
#
#
# Indices 1 2 3 4 5 6 
#
# 1 0.012175 -0.003742 -0.003174 0.000000 0.000000 0.000000
# 2 -0.003742 0.023982 0.000434 0.000000 0.000000 0.000000
# 3 -0.003174 0.000434 0.006169 0.000000 0.000000 0.000000
# 4 0.000000 0.000000 0.000000 0.189424 0.000000 0.000000
# 5 0.000000 0.000000 0.000000 0.000000 0.027586 0.000000
# 6 0.000000 0.000000 0.000000 0.000000 0.000000 0.062368
#
#
# Mechanical properties :
#
#
# Convention : Reuss Voigt Hill
#
# Bulk Modulus (GPa) = 34.05837 52.24070 43.14954
# Shear Modulus (GPa) = 14.51570 28.97541 21.74555
#
# Velocity S-wave (km/s) = 2.69887 3.81309 3.30330
# Velocity P-wave (km/s) = 5.17708 6.75280 6.01674
#
# Compressibility (1/GPa) = 0.02936136
#
# Stress axis : x y z
#
# Youngs Moduli (GPa) = 82.13727 41.69754 162.11259
#
# Poissons Ratio (x) = 0.15604 0.51462
# Poissons Ratio (y) = 0.30737 -0.07043
# Poissons Ratio (z) = 0.26074 -0.01812
#
# Static dielectric constant tensor:
#      x y z
#    x 3.510520 0.000000 0.000000 
#    y 0.000000 3.271910 0.000000 
#    z 0.000000 0.000000 4.602470 
# 
# 
# High freq. dielectric constant tensor:
#      x y z
#    x 1.756780 0.000000 0.000000 
#    y 0.000000 1.733130 0.000000 
#    z 0.000000 0.000000 1.821140 
# 
# From -- ./inp_files/1136.got.cif
#   From: 2010.03.12/outbox.cif.g09.slc.cpg/sg39_1_cif.got.tgz:1136.got - 2010.04.14 02:53:20.
