data_PCOD8180866
_publ_section_title
;
Structure prediction by ZEFSAII (Michael W. Deem and Ramdas Pophale) SiO2 
 PCOD8180866
Probable space group: A B M 2
;
_chemical_formula_sum "Si O2"
_cell_formula_units_Z 48
_cell_length_a 8.951694
_cell_length_b 15.576262
_cell_length_c 15.550089
_cell_angle_alpha 90.000000
_cell_angle_beta 90.000000
_cell_angle_gamma 90.000000
_cell_volume 2168.210038
_symmetry_space_group_name_H-M "A B M 2"
_symmetry_group_IT_number 39
_symmetry_cell_setting 'orthorhombic'
loop_
_space_group_symop_operation_xyz
x,y,z
-x,-y,z
-x,1/2+y,z
x,1/2-y,z
x,1/2+y,1/2+z
-x,1/2-y,1/2+z
-x,y,1/2+z
x,-y,1/2+z
loop_
_atom_site_type_symbol
_atom_site_label
_atom_site_fract_x
_atom_site_fract_y
_atom_site_fract_z
Si Si1 0.000232 0.250000 0.524660
Si Si2 0.729898 0.250000 0.131426
Si Si3 0.463970 0.750000 0.510727
Si Si4 0.607351 0.581028 0.920055
Si Si5 0.233987 0.250000 0.154276
Si Si6 0.865687 0.414452 0.707980
Si Si7 0.808270 0.902799 0.756885
Si Si8 0.897330 0.572886 0.010784
O O1 0.940093 0.250000 0.624406
O O2 0.948070 0.165342 0.472107
O O3 0.177291 0.250000 0.542082
O O4 0.752941 0.336168 0.185863
O O5 0.562357 0.250000 0.096776
O O6 0.485772 0.835696 0.452838
O O7 0.303314 0.750000 0.558039
O O8 0.500000 0.500000 0.898707
O O9 0.712310 0.613409 0.842260
O O10 0.723310 0.552034 0.994095
O O11 0.255145 0.164269 0.211714
O O12 0.772556 0.498555 0.732464
O O13 0.928982 0.425839 0.612089
O O14 0.010694 0.396604 0.768906
O O15 0.000000 0.500000 0.966960
#
# Coordination Sequence:
#
# PCOD8180866 Si02
#       8
#     4   4   4   8   4   8   8   8
#     4  10  18  38  67 105 121 166 231 288 333 381
#     4  12  23  40  74 101 133 183 238 278 331 415
#     4  12  27  44  68 101 138 189 229 276 343 421
#     4  12  29  46  64 100 153 186 218 281 369 418
#     4  10  18  40  67 101 126 158 234 284 327 393
#     4  10  19  39  72 102 122 168 235 286 335 399
#     4  11  23  42  65 102 137 175 223 287 348 399
#     4  11  20  40  72  98 131 171 235 292 330 410
#
# _framework density 22.138076000000002
#
# number of rings (size 3 to 8) (size 9 to 14) (size 15 to 20)
#    0.000    1.000    8.333    0.500    7.000    1.333 
#    0.000    0.833    0.000    0.000    0.000    0.000 
#    0.000    0.000    0.000    0.000    0.000    0.000 
#
# Total GULP energy -297348.138120 kJ/mol
# GULP energy per Si atom -12389.505755 kJ/mol
# Density = 2.208769 g / cm^3
# Si number density = 22.138076 Si / 1000 Ang^3
#
#
#
# Elastic Constant Matrix: (Units=GPa)
#
#
# Indices 1 2 3 4 5 6 
#
# 1 66.4285 40.0607 34.6070 0.0000 0.0000 0.0000
# 2 40.0607 178.7945 40.2708 0.0000 0.0000 0.0000
# 3 34.6070 40.2708 64.6054 0.0000 0.0000 0.0000
# 4 0.0000 0.0000 0.0000 22.3578 0.0000 0.0000
# 5 0.0000 0.0000 0.0000 0.0000 31.0726 0.0000
# 6 0.0000 0.0000 0.0000 0.0000 0.0000 29.5386
#
#
#
# Elastic Compliance Matrix: (Units=1/GPa)
#
#
# Indices 1 2 3 4 5 6 
#
# 1 0.021898 -0.002634 -0.010088 0.000000 0.000000 0.000000
# 2 -0.002634 0.006823 -0.002842 0.000000 0.000000 0.000000
# 3 -0.010088 -0.002842 0.022654 0.000000 0.000000 0.000000
# 4 0.000000 0.000000 0.000000 0.044727 0.000000 0.000000
# 5 0.000000 0.000000 0.000000 0.000000 0.032183 0.000000
# 6 0.000000 0.000000 0.000000 0.000000 0.000000 0.033854
#
#
# Mechanical properties :
#
#
# Convention : Reuss Voigt Hill
#
# Bulk Modulus (GPa) = 49.39127 59.96728 54.67927
# Shear Modulus (GPa) = 24.99791 29.58647 27.29219
#
# Velocity S-wave (km/s) = 3.36398 3.65972 3.51496
# Velocity P-wave (km/s) = 6.11943 6.70855 6.42075
#
# Compressibility (1/GPa) = 0.02024649
#
# Stress axis : x y z
#
# Youngs Moduli (GPa) = 45.66641 146.55435 44.14234
#
# Poissons Ratio (x) = 0.38607 0.44531
# Poissons Ratio (y) = 0.12030 0.12546
# Poissons Ratio (z) = 0.46068 0.41653
#
# Static dielectric constant tensor:
#      x y z
#    x 3.765720 0.000000 0.000000 
#    y 0.000000 4.780230 0.000000 
#    z 0.000000 0.000000 3.565970 
# 
# 
# High freq. dielectric constant tensor:
#      x y z
#    x 1.851640 0.000000 0.000000 
#    y 0.000000 1.899980 0.000000 
#    z 0.000000 0.000000 1.836210 
# 
# From -- ./inp_files/8413.got.cif
#   From: 2010.03.12/outbox.cif.g09.slc.cpg/sg39_5_cif.got.tgz:8413.got - 2010.04.14 02:53:20.
