data_PCOD8180736
_publ_section_title
;
Structure prediction by ZEFSAII (Michael W. Deem and Ramdas Pophale) SiO2 
 PCOD8180736
Probable space group: A B M 2
;
_chemical_formula_sum "Si O2"
_cell_formula_units_Z 64
_cell_length_a 19.334966
_cell_length_b 8.941613
_cell_length_c 20.394460
_cell_angle_alpha 90.000000
_cell_angle_beta 90.000000
_cell_angle_gamma 90.000000
_cell_volume 3525.912193
_symmetry_space_group_name_H-M "A B M 2"
_symmetry_group_IT_number 39
_symmetry_cell_setting 'orthorhombic'
loop_
_space_group_symop_operation_xyz
x,y,z
-x,-y,z
-x,1/2+y,z
x,1/2-y,z
x,1/2+y,1/2+z
-x,1/2-y,1/2+z
-x,y,1/2+z
x,-y,1/2+z
loop_
_atom_site_type_symbol
_atom_site_label
_atom_site_fract_x
_atom_site_fract_y
_atom_site_fract_z
Si Si1 0.574533 0.574052 0.397420
Si Si2 0.427427 0.572959 0.639126
Si Si3 0.932169 0.917583 0.718701
Si Si4 0.341535 0.573824 0.027033
Si Si5 0.207170 0.074767 0.061706
Si Si6 0.067995 0.580587 0.062571
Si Si7 0.649186 0.927346 0.267900
Si Si8 0.793487 0.924886 0.214906
O O1 0.500000 0.500000 0.399492
O O2 0.563661 0.750000 0.390303
O O3 0.616099 0.531487 0.462326
O O4 0.618980 0.510846 0.336167
O O5 0.500000 0.500000 0.621929
O O6 0.433895 0.750000 0.633728
O O7 0.372129 0.516980 0.587335
O O8 0.402739 0.519905 0.710733
O O9 0.932735 0.750000 0.746221
O O10 0.934557 0.919954 0.640662
O O11 0.861832 0.995883 0.743169
O O12 0.000000 0.000000 0.747208
O O13 0.343229 0.750000 0.040938
O O14 0.263318 0.516064 0.019206
O O15 0.212562 0.250000 0.046691
O O16 0.218455 0.039898 0.138436
O O17 0.133310 0.014065 0.037681
O O18 0.072018 0.750000 0.035892
O O19 0.000000 0.500000 0.033977
O O20 0.653508 0.750000 0.267924
O O21 0.726834 0.987802 0.254477
O O22 0.804279 0.750000 0.225773
#
# Coordination Sequence:
#
# PCOD8180736 Si02
#       8
#     8   8   8   8   8   8   8   8
#     4  10  22  39  57  75 100 133 171 213 258 310
#     4  11  21  35  54  77 101 130 165 208 257 310
#     4   9  16  25  39  64  98 135 169 204 244 293
#     4  11  22  35  52  76 103 135 170 211 259 311
#     4  10  18  30  49  73 101 136 172 213 259 305
#     4   9  16  26  41  66 101 139 174 211 252 303
#     4   9  18  35  55  75 100 132 170 209 257 308
#     4   9  16  29  48  70  97 131 166 206 253 299
#
# _framework density 18.151330999999999
#
# number of rings (size 3 to 8) (size 9 to 14) (size 15 to 20)
#    0.000    2.250    1.250    2.625    0.000    5.500 
#    0.000    1.250    0.000    0.000    0.000    0.875 
#    0.000    4.000    0.000    0.000    0.000    0.000 
#
# Total GULP energy -396812.171750 kJ/mol
# GULP energy per Si atom -12400.380367 kJ/mol
# Density = 1.811002 g / cm^3
# Si number density = 18.151331 Si / 1000 Ang^3
#
#
#
# Elastic Constant Matrix: (Units=GPa)
#
#
# Indices 1 2 3 4 5 6 
#
# 1 165.9790 54.7378 37.7506 0.0000 0.0000 0.0000
# 2 54.7378 81.1738 30.7698 0.0000 0.0000 0.0000
# 3 37.7506 30.7698 62.1804 0.0000 0.0000 0.0000
# 4 0.0000 0.0000 0.0000 14.7042 0.0000 0.0000
# 5 0.0000 0.0000 0.0000 0.0000 -31.4494 0.0000
# 6 0.0000 0.0000 0.0000 0.0000 0.0000 36.7896
#
#
#
# Elastic Compliance Matrix: (Units=1/GPa)
#
#
# Indices 1 2 3 4 5 6 
#
# 1 0.008107 -0.004433 -0.002729 0.000000 0.000000 0.000000
# 2 -0.004433 0.017587 -0.006012 0.000000 0.000000 0.000000
# 3 -0.002729 -0.006012 0.020714 0.000000 0.000000 0.000000
# 4 0.000000 0.000000 0.000000 0.068008 0.000000 0.000000
# 5 0.000000 0.000000 0.000000 0.000000 -0.031797 0.000000
# 6 0.000000 0.000000 0.000000 0.000000 0.000000 0.027182
#
#
# Mechanical properties :
#
#
# Convention : Reuss Voigt Hill
#
# Bulk Modulus (GPa) = 49.84530 61.76105 55.80318
# Shear Modulus (GPa) = 35.00570 16.41390 25.70980
#
# Velocity S-wave (km/s) = 4.39629 3.01039 3.76761
# Velocity P-wave (km/s) = 7.30002 6.79579 7.05242
#
# Compressibility (1/GPa) = 0.02006207
#
# Stress axis : x y z
#
# Youngs Moduli (GPa) = 123.34580 56.85964 48.27727
#
# Poissons Ratio (x) = 0.25204 0.13173
# Poissons Ratio (y) = 0.54675 0.29023
# Poissons Ratio (z) = 0.33655 0.34183
#
# Static dielectric constant tensor:
#      x y z
#    x 3.631860 0.000000 0.000000 
#    y 0.000000 3.314830 0.000000 
#    z 0.000000 0.000000 3.062660 
# 
# 
# High freq. dielectric constant tensor:
#      x y z
#    x 1.725180 0.000000 0.000000 
#    y 0.000000 1.701340 0.000000 
#    z 0.000000 0.000000 1.652140 
# 
# From -- ./inp_files/16349.got.cif
#   From: 2010.03.12/outbox.cif.g09.slc.cpg/sg39_9_cif.got.tgz:16349.got - 2010.04.14 02:53:20.
