data_PCOD8180795
_publ_section_title
;
Structure prediction by ZEFSAII (Michael W. Deem and Ramdas Pophale) SiO2 
 PCOD8180795
Probable space group: A B M 2
;
_chemical_formula_sum "Si O2"
_cell_formula_units_Z 48
_cell_length_a 8.504091
_cell_length_b 15.703456
_cell_length_c 18.896827
_cell_angle_alpha 90.000000
_cell_angle_beta 90.000000
_cell_angle_gamma 90.000000
_cell_volume 2523.550662
_symmetry_space_group_name_H-M "A B M 2"
_symmetry_group_IT_number 39
_symmetry_cell_setting 'orthorhombic'
loop_
_space_group_symop_operation_xyz
x,y,z
-x,-y,z
-x,1/2+y,z
x,1/2-y,z
x,1/2+y,1/2+z
-x,1/2-y,1/2+z
-x,y,1/2+z
x,-y,1/2+z
loop_
_atom_site_type_symbol
_atom_site_label
_atom_site_fract_x
_atom_site_fract_y
_atom_site_fract_z
Si Si1 0.208244 0.844311 0.300170
Si Si2 0.186043 0.996009 0.049421
Si Si3 0.682616 0.490371 0.204453
Si Si4 0.199787 0.844570 0.461646
Si Si5 0.892720 0.917440 0.310147
Si Si6 0.828749 0.154870 0.954701
O O1 0.267836 0.750000 0.284597
O O2 0.246518 0.869949 0.381431
O O3 0.019856 0.847465 0.285126
O O4 0.301584 0.902928 0.246489
O O5 0.228540 0.988211 0.130663
O O6 0.249554 0.910471 0.010633
O O7 0.000000 0.000000 0.040143
O O8 0.262580 0.081616 0.014552
O O9 0.500000 0.500000 0.190245
O O10 0.763927 0.565568 0.249574
O O11 0.268140 0.750000 0.481144
O O12 0.013333 0.838805 0.467220
O O13 0.795240 0.883975 0.377225
O O14 0.000000 0.000000 0.329346
O O15 0.754086 0.250000 0.961964
#
# Coordination Sequence:
#
# PCOD8180795 Si02
#       6
#     8   8   8   8   8   8
#     4   9  17  34  60  83 102 128 172 226 269 310
#     4  10  18  32  52  75 104 136 174 215 257 310
#     4  11  23  36  49  72 111 152 179 207 256 313
#     4   8  15  30  55  82 100 121 164 223 274 308
#     4   9  16  32  56  80 101 129 173 219 264 311
#     4   9  16  28  52  82 104 124 162 220 272 310
#
# _framework density 19.020817999999998
#
# number of rings (size 3 to 8) (size 9 to 14) (size 15 to 20)
#    0.000    2.667    0.000    6.500    0.000    0.667 
#    0.000   10.833    0.000    2.000    0.000    0.000 
#    0.000    0.000    0.000    0.000    0.000    0.000 
#
# Total GULP energy -297423.838812 kJ/mol
# GULP energy per Si atom -12392.659951 kJ/mol
# Density = 1.897753 g / cm^3
# Si number density = 19.020818 Si / 1000 Ang^3
#
#
#
# Elastic Constant Matrix: (Units=GPa)
#
#
# Indices 1 2 3 4 5 6 
#
# 1 15.5082 2.5436 -1.6493 0.0000 0.0000 0.0000
# 2 2.5436 131.4297 69.8961 0.0000 0.0000 0.0000
# 3 -1.6493 69.8961 107.7649 0.0000 0.0000 0.0000
# 4 0.0000 0.0000 0.0000 13.7622 0.0000 0.0000
# 5 0.0000 0.0000 0.0000 0.0000 -1.1814 0.0000
# 6 0.0000 0.0000 0.0000 0.0000 0.0000 7.8729
#
#
#
# Elastic Compliance Matrix: (Units=1/GPa)
#
#
# Indices 1 2 3 4 5 6 
#
# 1 0.065226 -0.002738 0.002774 0.000000 0.000000 0.000000
# 2 -0.002738 0.011730 -0.007650 0.000000 0.000000 0.000000
# 3 0.002774 -0.007650 0.014284 0.000000 0.000000 0.000000
# 4 0.000000 0.000000 0.000000 0.072663 0.000000 0.000000
# 5 0.000000 0.000000 0.000000 0.000000 -0.846425 0.000000
# 6 0.000000 0.000000 0.000000 0.000000 0.000000 0.127017
#
#
# Mechanical properties :
#
#
# Convention : Reuss Voigt Hill
#
# Bulk Modulus (GPa) = 13.15575 44.03150 28.59363
# Shear Modulus (GPa) = -9.70986 16.35157 3.32086
#
# Velocity S-wave (km/s) = -2.26184 2.93519 1.32276
# Velocity P-wave (km/s) = 0.33206 5.88952 4.17114
#
# Compressibility (1/GPa) = 0.07601238
#
# Stress axis : x y z
#
# Youngs Moduli (GPa) = 15.33131 85.25196 70.01024
#
# Poissons Ratio (x) = 0.23338 -0.19420
# Poissons Ratio (y) = 0.04197 0.53557
# Poissons Ratio (z) = -0.04253 0.65217
#
# Static dielectric constant tensor:
#      x y z
#    x 2.941060 0.000000 0.000000 
#    y 0.000000 4.062260 0.000000 
#    z 0.000000 0.000000 3.410650 
# 
# 
# High freq. dielectric constant tensor:
#      x y z
#    x 1.682430 0.000000 0.000000 
#    y 0.000000 1.751910 0.000000 
#    z 0.000000 0.000000 1.735520 
# 
# From -- ./inp_files/11700.got.cif
#   From: 2010.03.12/outbox.cif.g09.slc.cpg/sg39_6_cif.got.tgz:11700.got - 2010.04.14 02:53:20.
