data_PCOD8180588
_publ_section_title
;
Structure prediction by ZEFSAII (Michael W. Deem and Ramdas Pophale) SiO2 
 PCOD8180588
Probable space group: A B M 2
;
_chemical_formula_sum "Si O2"
_cell_formula_units_Z 64
_cell_length_a 20.910418
_cell_length_b 8.936819
_cell_length_c 19.029888
_cell_angle_alpha 90.000000
_cell_angle_beta 90.000000
_cell_angle_gamma 90.000000
_cell_volume 3556.165046
_symmetry_space_group_name_H-M "A B M 2"
_symmetry_group_IT_number 39
_symmetry_cell_setting 'orthorhombic'
loop_
_space_group_symop_operation_xyz
x,y,z
-x,-y,z
-x,1/2+y,z
x,1/2-y,z
x,1/2+y,1/2+z
-x,1/2-y,1/2+z
-x,y,1/2+z
x,-y,1/2+z
loop_
_atom_site_type_symbol
_atom_site_label
_atom_site_fract_x
_atom_site_fract_y
_atom_site_fract_z
Si Si1 0.060485 0.926918 0.004420
Si Si2 0.564787 0.425773 0.254942
Si Si3 0.198714 0.084127 0.512120
Si Si4 0.434846 0.925693 0.094073
Si Si5 0.316611 0.075334 0.845805
Si Si6 0.062909 0.427842 0.852391
Si Si7 0.323607 0.077183 0.009282
Si Si8 0.188883 0.581504 0.845025
O O1 0.050544 0.750000 0.989828
O O2 0.128316 0.952895 0.044924
O O3 0.000000 0.000000 0.047109
O O4 0.062984 0.020057 0.932718
O O5 0.500000 0.500000 0.283486
O O6 0.556783 0.250000 0.263373
O O7 0.577652 0.472804 0.174575
O O8 0.623287 0.485553 0.301733
O O9 0.220815 0.250000 0.535414
O O10 0.189569 0.078384 0.428866
O O11 0.252756 0.967768 0.536957
O O12 0.442207 0.750000 0.085397
O O13 0.500000 0.000000 0.065952
O O14 0.375919 0.980240 0.048409
O O15 0.305472 0.250000 0.833571
O O16 0.253996 0.992243 0.816581
O O17 0.329560 0.039754 0.927174
O O18 0.060711 0.250000 0.846331
O O19 0.127835 0.489039 0.816056
O O20 0.000000 0.500000 0.815128
O O21 0.335031 0.250000 0.025956
O O22 0.184266 0.750000 0.816317
#
# Coordination Sequence:
#
# PCOD8180588 Si02
#       8
#     8   8   8   8   8   8   8   8
#     4   9  15  22  33  51  77 111 150 188 225 269
#     4   9  19  35  53  71  92 120 153 188 227 271
#     4   8  15  26  38  55  83 117 151 186 224 268
#     4  10  20  35  53  70  92 121 152 188 227 271
#     4   9  18  32  48  69  95 122 153 188 229 274
#     4  10  16  22  33  50  76 112 151 189 227 269
#     4  10  19  30  47  70  95 122 152 189 230 274
#     4   9  16  26  39  58  84 115 150 186 227 272
#
# _framework density 17.996914
#
# number of rings (size 3 to 8) (size 9 to 14) (size 15 to 20)
#    0.000    2.750    0.000    4.125    0.000    5.500 
#    0.000    1.250    0.000    0.000    0.000    0.000 
#    0.000    1.000    0.000    6.500    0.000   13.625 
#
# Total GULP energy -396617.984023 kJ/mol
# GULP energy per Si atom -12394.312001 kJ/mol
# Density = 1.795595 g / cm^3
# Si number density = 17.996914 Si / 1000 Ang^3
#
#
#
# Elastic Constant Matrix: (Units=GPa)
#
#
# Indices 1 2 3 4 5 6 
#
# 1 190.5250 76.0144 38.5996 0.0000 0.0000 0.0000
# 2 76.0144 103.6394 23.7530 0.0000 0.0000 0.0000
# 3 38.5996 23.7530 23.2678 0.0000 0.0000 0.0000
# 4 0.0000 0.0000 0.0000 12.2665 0.0000 0.0000
# 5 0.0000 0.0000 0.0000 0.0000 -1.3621 0.0000
# 6 0.0000 0.0000 0.0000 0.0000 0.0000 41.2764
#
#
#
# Elastic Compliance Matrix: (Units=1/GPa)
#
#
# Indices 1 2 3 4 5 6 
#
# 1 0.009123 -0.004207 -0.010840 0.000000 0.000000 0.000000
# 2 -0.004207 0.014536 -0.007860 0.000000 0.000000 0.000000
# 3 -0.010840 -0.007860 0.068984 0.000000 0.000000 0.000000
# 4 0.000000 0.000000 0.000000 0.081523 0.000000 0.000000
# 5 0.000000 0.000000 0.000000 0.000000 -0.734152 0.000000
# 6 0.000000 0.000000 0.000000 0.000000 0.000000 0.024227
#
#
# Mechanical properties :
#
#
# Convention : Reuss Voigt Hill
#
# Bulk Modulus (GPa) = 21.35397 66.01846 43.68622
# Shear Modulus (GPa) = -10.54109 22.37384 5.91638
#
# Velocity S-wave (km/s) = -2.42278 3.52974 1.81510
# Velocity P-wave (km/s) = 2.01609 7.30581 5.35908
#
# Compressibility (1/GPa) = 0.04682969
#
# Stress axis : x y z
#
# Youngs Moduli (GPa) = 109.60905 68.79520 14.49605
#
# Poissons Ratio (x) = 0.28943 0.15714
# Poissons Ratio (y) = 0.46113 0.11394
# Poissons Ratio (z) = 1.18817 0.54071
#
# Static dielectric constant tensor:
#      x y z
#    x 4.042740 0.000000 0.000000 
#    y 0.000000 3.389040 0.000000 
#    z 0.000000 0.000000 2.751260 
# 
# 
# High freq. dielectric constant tensor:
#      x y z
#    x 1.725140 0.000000 0.000000 
#    y 0.000000 1.706200 0.000000 
#    z 0.000000 0.000000 1.617930 
# 
# From -- ./inp_files/15058.got.cif
#   From: 2010.03.12/outbox.cif.g09.slc.cpg/sg39_8_cif.got.tgz:15058.got - 2010.04.14 02:53:20.
