data_PCOD8180068
_publ_section_title
;
Structure prediction by ZEFSAII (Michael W. Deem and Ramdas Pophale) SiO2 
 PCOD8180068
Probable space group: A M M 2
;
_chemical_formula_sum "Si O2"
_cell_formula_units_Z 40
_cell_length_a 9.698696
_cell_length_b 19.554905
_cell_length_c 10.679434
_cell_angle_alpha 90.000000
_cell_angle_beta 90.000000
_cell_angle_gamma 90.000000
_cell_volume 2025.430257
_symmetry_space_group_name_H-M "A M M 2"
_symmetry_group_IT_number 38
_symmetry_cell_setting 'orthorhombic'
loop_
_space_group_symop_operation_xyz
x,y,z
-x,-y,z
-x,y,z
x,-y,z
x,1/2+y,1/2+z
-x,1/2-y,1/2+z
-x,1/2+y,1/2+z
x,1/2-y,1/2+z
loop_
_atom_site_type_symbol
_atom_site_label
_atom_site_fract_x
_atom_site_fract_y
_atom_site_fract_z
Si Si1 0.660737 0.210214 0.971570
Si Si2 0.664347 0.696496 0.195500
Si Si3 0.660494 0.923073 0.102397
Si Si4 0.849419 0.919097 0.325299
Si Si5 0.160312 0.079120 0.605726
O O1 0.500000 0.220578 0.988441
O O2 0.705265 0.230671 0.830318
O O3 0.725213 0.257130 0.082081
O O4 0.698330 0.129948 0.992356
O O5 0.500000 0.684535 0.189385
O O6 0.740400 0.623475 0.193597
O O7 0.500000 0.922088 0.135244
O O8 0.735623 0.895075 0.226610
O O9 0.708118 0.000000 0.064023
O O10 0.807695 0.895692 0.464293
O O11 0.000000 0.888942 0.288561
O O12 0.859929 0.000000 0.326896
O O13 0.000000 0.091475 0.638652
O O14 0.199161 0.000000 0.625460
#
# Coordination Sequence:
#
# PCOD8180068 Si02
#       5
#     8   8   8   8   8
#     4   9  20  36  54  79 112 145 178 225 277 318
#     4  10  21  37  57  80 109 147 186 223 269 327
#     4   9  17  30  51  78 107 140 180 224 269 318
#     4   8  15  29  49  75 107 139 169 210 267 320
#     4   9  19  36  56  80 112 144 177 227 282 322
#
# _framework density 19.748891
#
# number of rings (size 3 to 8) (size 9 to 14) (size 15 to 20)
#    0.000    3.000    0.000    1.200    2.800    2.000 
#    0.000    7.000    0.000    2.400    0.000    0.000 
#    0.000    0.000    0.000    0.000    0.000    0.000 
#
# Total GULP energy -247820.537885 kJ/mol
# GULP energy per Si atom -12391.026894 kJ/mol
# Density = 1.970394 g / cm^3
# Si number density = 19.748891 Si / 1000 Ang^3
#
#
#
# Elastic Constant Matrix: (Units=GPa)
#
#
# Indices 1 2 3 4 5 6 
#
# 1 37.4624 28.1476 32.5897 0.0000 0.0000 0.0000
# 2 28.1476 86.5364 60.5022 0.0000 0.0000 0.0000
# 3 32.5897 60.5022 126.8506 0.0000 0.0000 0.0000
# 4 0.0000 0.0000 0.0000 30.8729 0.0000 0.0000
# 5 0.0000 0.0000 0.0000 0.0000 18.3527 0.0000
# 6 0.0000 0.0000 0.0000 0.0000 0.0000 20.6981
#
#
#
# Elastic Compliance Matrix: (Units=1/GPa)
#
#
# Indices 1 2 3 4 5 6 
#
# 1 0.037971 -0.008297 -0.005798 0.000000 0.000000 0.000000
# 2 -0.008297 0.019150 -0.007002 0.000000 0.000000 0.000000
# 3 -0.005798 -0.007002 0.012713 0.000000 0.000000 0.000000
# 4 0.000000 0.000000 0.000000 0.032391 0.000000 0.000000
# 5 0.000000 0.000000 0.000000 0.000000 0.054488 0.000000
# 6 0.000000 0.000000 0.000000 0.000000 0.000000 0.048314
#
#
# Mechanical properties :
#
#
# Convention : Reuss Voigt Hill
#
# Bulk Modulus (GPa) = 36.18009 54.81426 45.49718
# Shear Modulus (GPa) = 19.49815 22.62540 21.06178
#
# Velocity S-wave (km/s) = 3.14555 3.38842 3.26924
# Velocity P-wave (km/s) = 5.61716 6.56692 6.11052
#
# Compressibility (1/GPa) = 0.02763951
#
# Stress axis : x y z
#
# Youngs Moduli (GPa) = 26.33564 52.21862 78.66220
#
# Poissons Ratio (x) = 0.43327 0.45608
# Poissons Ratio (y) = 0.21851 0.55081
# Poissons Ratio (z) = 0.15269 0.36564
#
# Static dielectric constant tensor:
#      x y z
#    x 3.503850 0.000000 0.000000 
#    y 0.000000 3.497510 0.000000 
#    z 0.000000 0.000000 3.779440 
# 
# 
# High freq. dielectric constant tensor:
#      x y z
#    x 1.741720 0.000000 0.000000 
#    y 0.000000 1.761950 0.000000 
#    z 0.000000 0.000000 1.766000 
# 
# From -- ./inp_files/4280.got.cif
#   From: 2010.03.12/outbox.cif.g09.slc.cpg/sg38_3_cif.got.tgz:4280.got - 2010.04.14 02:38:36.
