data_PCOD8180347
_publ_section_title
;
Structure prediction by ZEFSAII (Michael W. Deem and Ramdas Pophale) SiO2 
 PCOD8180347
Probable space group: A M M 2
;
_chemical_formula_sum "Si O2"
_cell_formula_units_Z 56
_cell_length_a 20.041810
_cell_length_b 8.574603
_cell_length_c 15.438563
_cell_angle_alpha 90.000000
_cell_angle_beta 90.000000
_cell_angle_gamma 90.000000
_cell_volume 2653.125761
_symmetry_space_group_name_H-M "A M M 2"
_symmetry_group_IT_number 38
_symmetry_cell_setting 'orthorhombic'
loop_
_space_group_symop_operation_xyz
x,y,z
-x,-y,z
-x,y,z
x,-y,z
x,1/2+y,1/2+z
-x,1/2-y,1/2+z
-x,1/2+y,1/2+z
x,1/2-y,1/2+z
loop_
_atom_site_type_symbol
_atom_site_label
_atom_site_fract_x
_atom_site_fract_y
_atom_site_fract_z
Si Si1 0.574292 0.316116 0.507960
Si Si2 0.927612 0.181909 0.109251
Si Si3 0.928005 0.180862 0.421458
Si Si4 0.334397 0.319757 0.662938
Si Si5 0.795185 0.183132 0.908990
Si Si6 0.795103 0.819426 0.598491
Si Si7 0.658758 0.678888 0.856584
O O1 0.500000 0.242577 0.508422
O O2 0.569353 0.500000 0.515044
O O3 0.614752 0.251691 0.591063
O O4 0.610757 0.274969 0.418934
O O5 0.864597 0.276671 0.148346
O O6 0.000000 0.230006 0.150312
O O7 0.914883 0.000000 0.124529
O O8 0.930473 0.217222 0.007705
O O9 0.864224 0.245745 0.368402
O O10 0.000000 0.200571 0.372503
O O11 0.916186 0.000000 0.444967
O O12 0.317668 0.500000 0.643858
O O13 0.266133 0.222081 0.660490
O O14 0.366893 0.300094 0.757951
O O15 0.734203 0.260951 0.859132
O O16 0.793354 0.000000 0.893019
O O17 0.788707 0.219689 0.010803
O O18 0.794053 0.000000 0.574429
O O19 0.656673 0.500000 0.886137
#
# Coordination Sequence:
#
# PCOD8180347 Si02
#       7
#     8   8   8   8   8   8   8
#     4  10  22  42  67  93 123 160 196 235 289 351
#     4   9  16  26  43  70 106 149 196 243 295 354
#     4   9  16  26  43  71 107 146 193 248 300 350
#     4  10  22  40  62  88 122 161 199 241 293 353
#     4  11  20  32  53  79 114 157 199 245 301 356
#     4  11  20  31  53  82 114 152 198 249 299 351
#     4  11  23  39  62  92 122 157 203 248 292 346
#
# _framework density 21.107178999999999
#
# number of rings (size 3 to 8) (size 9 to 14) (size 15 to 20)
#    0.000    1.857    1.429    5.571    0.000    3.714 
#    0.000    1.429    0.000    0.857    0.000    6.000 
#    0.000    0.000    0.000    0.000    0.000    0.000 
#
# Total GULP energy -347054.838100 kJ/mol
# GULP energy per Si atom -12394.815646 kJ/mol
# Density = 2.105914 g / cm^3
# Si number density = 21.107179 Si / 1000 Ang^3
#
#
#
# Elastic Constant Matrix: (Units=GPa)
#
#
# Indices 1 2 3 4 5 6 
#
# 1 169.2088 15.8531 43.6338 0.0000 0.0000 0.0000
# 2 15.8531 31.7369 8.1716 0.0000 0.0000 0.0000
# 3 43.6338 8.1716 74.6075 0.0000 0.0000 0.0000
# 4 0.0000 0.0000 0.0000 18.9897 0.0000 0.0000
# 5 0.0000 0.0000 0.0000 0.0000 3.9243 0.0000
# 6 0.0000 0.0000 0.0000 0.0000 0.0000 26.0681
#
#
#
# Elastic Compliance Matrix: (Units=1/GPa)
#
#
# Indices 1 2 3 4 5 6 
#
# 1 0.007157 -0.002570 -0.003905 0.000000 0.000000 0.000000
# 2 -0.002570 0.033346 -0.002149 0.000000 0.000000 0.000000
# 3 -0.003905 -0.002149 0.015922 0.000000 0.000000 0.000000
# 4 0.000000 0.000000 0.000000 0.052660 0.000000 0.000000
# 5 0.000000 0.000000 0.000000 0.000000 0.254825 0.000000
# 6 0.000000 0.000000 0.000000 0.000000 0.000000 0.038361
#
#
# Mechanical properties :
#
#
# Convention : Reuss Voigt Hill
#
# Bulk Modulus (GPa) = 25.52417 45.65223 35.58820
# Shear Modulus (GPa) = 11.55857 23.65606 17.60732
#
# Velocity S-wave (km/s) = 2.34265 3.35141 2.89136
# Velocity P-wave (km/s) = 4.40866 6.05406 5.29565
#
# Compressibility (1/GPa) = 0.03917855
#
# Stress axis : x y z
#
# Youngs Moduli (GPa) = 139.71363 29.98840 62.80441
#
# Poissons Ratio (x) = 0.07707 0.24522
# Poissons Ratio (y) = 0.35906 0.13499
# Poissons Ratio (z) = 0.54552 0.06445
#
# Static dielectric constant tensor:
#      x y z
#    x 4.587590 0.000000 0.000000 
#    y 0.000000 3.697810 0.000000 
#    z 0.000000 0.000000 3.366500 
# 
# 
# High freq. dielectric constant tensor:
#      x y z
#    x 1.843210 0.000000 0.000000 
#    y 0.000000 1.824960 0.000000 
#    z 0.000000 0.000000 1.786770 
# 
# From -- ./inp_files/15430.got.cif
#   From: 2010.03.12/outbox.cif.g09.slc.cpg/sg38_8_cif.got.tgz:15430.got - 2010.04.14 02:38:36.
