data_PCOD8180279
_publ_section_title
;
Structure prediction by ZEFSAII (Michael W. Deem and Ramdas Pophale) SiO2 
 PCOD8180279
Probable space group: A M M 2
;
_chemical_formula_sum "Si O2"
_cell_formula_units_Z 48
_cell_length_a 8.512692
_cell_length_b 18.380195
_cell_length_c 14.932406
_cell_angle_alpha 90.000000
_cell_angle_beta 90.000000
_cell_angle_gamma 90.000000
_cell_volume 2336.397993
_symmetry_space_group_name_H-M "A M M 2"
_symmetry_group_IT_number 38
_symmetry_cell_setting 'orthorhombic'
loop_
_space_group_symop_operation_xyz
x,y,z
-x,-y,z
-x,y,z
x,-y,z
x,1/2+y,1/2+z
-x,1/2-y,1/2+z
-x,1/2+y,1/2+z
x,1/2-y,1/2+z
loop_
_atom_site_type_symbol
_atom_site_label
_atom_site_fract_x
_atom_site_fract_y
_atom_site_fract_z
Si Si1 0.682247 0.720738 0.627680
Si Si2 0.185450 0.656591 0.995145
Si Si3 0.824411 0.500000 0.042476
Si Si4 0.318875 0.119297 0.867615
Si Si5 0.820145 0.079614 0.046836
Si Si6 0.820081 0.236073 0.318457
Si Si7 0.822973 0.000000 0.753129
O O1 0.500000 0.710049 0.608127
O O2 0.740277 0.785838 0.564149
O O3 0.769003 0.644391 0.611662
O O4 0.708908 0.737164 0.732075
O O5 0.222499 0.674201 0.891222
O O6 0.000000 0.658047 0.014811
O O7 0.257478 0.575354 0.010298
O O8 0.827706 0.500000 0.148078
O O9 0.000000 0.500000 0.002592
O O10 0.500000 0.141744 0.859418
O O11 0.208483 0.189514 0.871392
O O12 0.271332 0.070977 0.783053
O O13 0.287992 0.076431 0.958938
O O14 0.000000 0.092237 0.018559
O O15 0.800738 0.000000 0.094083
O O16 0.000000 0.229599 0.286924
O O17 0.000000 0.000000 0.793134
#
# Coordination Sequence:
#
# PCOD8180279 Si02
#       7
#     8   8   4   8   8   8   4
#     4  12  25  41  65  94 130 166 211 267 324 382
#     4  10  21  41  68  92 124 165 213 265 315 375
#     4   9  20  39  63  92 119 156 209 265 310 360
#     4  12  23  36  59  91 128 161 204 262 321 376
#     4  11  23  41  65  91 124 165 211 257 316 388
#     4  11  23  40  64  91 124 168 217 260 313 387
#     4  11  21  35  59  90 127 166 205 253 318 392
#
# _framework density 20.544446000000001
#
# number of rings (size 3 to 8) (size 9 to 14) (size 15 to 20)
#    0.000    1.000    2.500    5.250    0.000    3.000 
#    1.500    1.250    0.000    0.000    0.000    0.000 
#    0.000    0.000    0.000    0.000    0.000    0.000 
#
# Total GULP energy -297591.170028 kJ/mol
# GULP energy per Si atom -12399.632085 kJ/mol
# Density = 2.049769 g / cm^3
# Si number density = 20.544446 Si / 1000 Ang^3
#
#
#
# Elastic Constant Matrix: (Units=GPa)
#
#
# Indices 1 2 3 4 5 6 
#
# 1 71.0523 34.2932 31.2338 0.0000 0.0000 0.0000
# 2 34.2932 157.2241 39.4776 0.0000 0.0000 0.0000
# 3 31.2338 39.4776 82.6273 0.0000 0.0000 0.0000
# 4 0.0000 0.0000 0.0000 14.8361 0.0000 0.0000
# 5 0.0000 0.0000 0.0000 0.0000 19.5132 0.0000
# 6 0.0000 0.0000 0.0000 0.0000 0.0000 11.9154
#
#
#
# Elastic Compliance Matrix: (Units=1/GPa)
#
#
# Indices 1 2 3 4 5 6 
#
# 1 0.017689 -0.002476 -0.005503 0.000000 0.000000 0.000000
# 2 -0.002476 0.007574 -0.002683 0.000000 0.000000 0.000000
# 3 -0.005503 -0.002683 0.015465 0.000000 0.000000 0.000000
# 4 0.000000 0.000000 0.000000 0.067403 0.000000 0.000000
# 5 0.000000 0.000000 0.000000 0.000000 0.051247 0.000000
# 6 0.000000 0.000000 0.000000 0.000000 0.000000 0.083925
#
#
# Mechanical properties :
#
#
# Convention : Reuss Voigt Hill
#
# Bulk Modulus (GPa) = 51.53946 57.87920 54.70933
# Shear Modulus (GPa) = 18.44372 22.97953 20.71163
#
# Velocity S-wave (km/s) = 2.99949 3.34807 3.17856
# Velocity P-wave (km/s) = 6.09403 6.57114 6.33708
#
# Compressibility (1/GPa) = 0.01940261
#
# Stress axis : x y z
#
# Youngs Moduli (GPa) = 56.53387 132.02937 64.66411
#
# Poissons Ratio (x) = 0.32695 0.35586
# Poissons Ratio (y) = 0.14000 0.17347
# Poissons Ratio (z) = 0.31112 0.35419
#
# Static dielectric constant tensor:
#      x y z
#    x 3.664890 0.000000 0.000000 
#    y 0.000000 4.055950 0.000000 
#    z 0.000000 0.000000 3.529690 
# 
# 
# High freq. dielectric constant tensor:
#      x y z
#    x 1.796620 0.000000 0.000000 
#    y 0.000000 1.817380 0.000000 
#    z 0.000000 0.000000 1.793900 
# 
# From -- ./inp_files/12119.got.cif
#   From: 2010.03.12/outbox.cif.g09.slc.cpg/sg38_7_cif.got.tgz:12119.got - 2010.04.14 02:38:36.
