data_PCOD8180695
_publ_section_title
;
Structure prediction by ZEFSAII (Michael W. Deem and Ramdas Pophale) SiO2 
 PCOD8180695
Probable space group: A B M 2
;
_chemical_formula_sum "Si O2"
_cell_formula_units_Z 64
_cell_length_a 10.505304
_cell_length_b 17.598097
_cell_length_c 18.607683
_cell_angle_alpha 90.000000
_cell_angle_beta 90.000000
_cell_angle_gamma 90.000000
_cell_volume 3440.064856
_symmetry_space_group_name_H-M "A B M 2"
_symmetry_group_IT_number 39
_symmetry_cell_setting 'orthorhombic'
loop_
_space_group_symop_operation_xyz
x,y,z
-x,-y,z
-x,1/2+y,z
x,1/2-y,z
x,1/2+y,1/2+z
-x,1/2-y,1/2+z
-x,y,1/2+z
x,-y,1/2+z
loop_
_atom_site_type_symbol
_atom_site_label
_atom_site_fract_x
_atom_site_fract_y
_atom_site_fract_z
Si Si1 0.375127 0.332389 0.031960
Si Si2 0.518915 0.666007 0.680162
Si Si3 0.745691 0.337512 0.734478
Si Si4 0.785217 0.336180 0.895073
Si Si5 0.068038 0.836799 0.032344
Si Si6 0.433707 0.426456 0.461193
Si Si7 0.283768 0.421287 0.601198
Si Si8 0.160087 0.578858 0.600833
O O1 0.317483 0.250000 0.012090
O O2 0.463487 0.325668 0.100987
O O3 0.262861 0.391496 0.044281
O O4 0.460308 0.360659 0.965763
O O5 0.565556 0.750000 0.706562
O O6 0.403684 0.634770 0.731615
O O7 0.637862 0.606514 0.672800
O O8 0.742991 0.250000 0.710450
O O9 0.815041 0.348474 0.810997
O O10 0.833540 0.380445 0.677673
O O11 0.735363 0.250000 0.907998
O O12 0.677842 0.397799 0.910653
O O13 0.908427 0.349862 0.946304
O O14 0.021814 0.750000 0.047043
O O15 0.203873 0.849289 0.071484
O O16 0.973481 0.900944 0.063061
O O17 0.500000 0.500000 0.426093
O O18 0.382309 0.449141 0.540382
O O19 0.184880 0.489888 0.617036
#
# Coordination Sequence:
#
# PCOD8180695 Si02
#       8
#     8   8   8   8   8   8   8   8
#     4   9  16  26  45  72 100 130 165 214 266 317
#     4   8  15  28  48  73 103 136 169 209 263 322
#     4   9  18  33  53  77 106 139 180 222 264 321
#     4   9  19  35  53  74 102 142 183 219 263 322
#     4  10  20  34  54  75 100 139 188 227 261 315
#     4  10  17  30  47  73 103 132 167 216 272 322
#     4  10  19  30  49  75 108 131 169 219 277 315
#     4  11  19  31  51  79 106 135 177 230 272 312
#
# _framework density 18.604301
#
# number of rings (size 3 to 8) (size 9 to 14) (size 15 to 20)
#    0.000    2.500    1.250    3.000    0.000    3.000 
#    2.250    0.000    0.000    7.500    0.000    7.000 
#    0.000    0.000    0.000    0.000    0.000    0.000 
#
# Total GULP energy -396497.031983 kJ/mol
# GULP energy per Si atom -12390.532249 kJ/mol
# Density = 1.856196 g / cm^3
# Si number density = 18.604301 Si / 1000 Ang^3
#
#
#
# Elastic Constant Matrix: (Units=GPa)
#
#
# Indices 1 2 3 4 5 6 
#
# 1 73.4287 33.9070 32.2621 0.0000 0.0000 0.0000
# 2 33.9070 87.0178 29.4608 0.0000 0.0000 0.0000
# 3 32.2621 29.4608 78.4655 0.0000 0.0000 0.0000
# 4 0.0000 0.0000 0.0000 13.5231 0.0000 0.0000
# 5 0.0000 0.0000 0.0000 0.0000 20.3392 0.0000
# 6 0.0000 0.0000 0.0000 0.0000 0.0000 34.3069
#
#
#
# Elastic Compliance Matrix: (Units=1/GPa)
#
#
# Indices 1 2 3 4 5 6 
#
# 1 0.018549 -0.005322 -0.005628 0.000000 0.000000 0.000000
# 2 -0.005322 0.014693 -0.003328 0.000000 0.000000 0.000000
# 3 -0.005628 -0.003328 0.016308 0.000000 0.000000 0.000000
# 4 0.000000 0.000000 0.000000 0.073948 0.000000 0.000000
# 5 0.000000 0.000000 0.000000 0.000000 0.049166 0.000000
# 6 0.000000 0.000000 0.000000 0.000000 0.000000 0.029149
#
#
# Mechanical properties :
#
#
# Convention : Reuss Voigt Hill
#
# Bulk Modulus (GPa) = 47.63654 47.79686 47.71670
# Shear Modulus (GPa) = 21.06437 23.18598 22.12518
#
# Velocity S-wave (km/s) = 3.36852 3.53408 3.45229
# Velocity P-wave (km/s) = 6.38670 6.51153 6.44942
#
# Compressibility (1/GPa) = 0.02099229
#
# Stress axis : x y z
#
# Youngs Moduli (GPa) = 53.91050 68.06175 61.31862
#
# Poissons Ratio (x) = 0.36224 0.34513
# Poissons Ratio (y) = 0.28693 0.20408
# Poissons Ratio (z) = 0.30343 0.22652
#
# Static dielectric constant tensor:
#      x y z
#    x 3.356210 0.000000 0.000000 
#    y 0.000000 3.524530 0.000000 
#    z 0.000000 0.000000 3.104200 
# 
# 
# High freq. dielectric constant tensor:
#      x y z
#    x 1.704770 0.000000 0.000000 
#    y 0.000000 1.728440 0.000000 
#    z 0.000000 0.000000 1.676300 
# 
# From -- ./inp_files/12462.got.cif
#   From: 2010.03.12/outbox.cif.g09.slc.cpg/sg39_7_cif.got.tgz:12462.got - 2010.04.14 02:53:20.
