data_PCOD8180088
_publ_section_title
;
Structure prediction by ZEFSAII (Michael W. Deem and Ramdas Pophale) SiO2 
 PCOD8180088
Probable space group: A M M 2
;
_chemical_formula_sum "Si O2"
_cell_formula_units_Z 40
_cell_length_a 12.596309
_cell_length_b 8.813452
_cell_length_c 18.151907
_cell_angle_alpha 90.000000
_cell_angle_beta 90.000000
_cell_angle_gamma 90.000000
_cell_volume 2015.169620
_symmetry_space_group_name_H-M "A M M 2"
_symmetry_group_IT_number 38
_symmetry_cell_setting 'orthorhombic'
loop_
_space_group_symop_operation_xyz
x,y,z
-x,-y,z
-x,y,z
x,-y,z
x,1/2+y,1/2+z
-x,1/2-y,1/2+z
-x,1/2+y,1/2+z
x,1/2-y,1/2+z
loop_
_atom_site_type_symbol
_atom_site_label
_atom_site_fract_x
_atom_site_fract_y
_atom_site_fract_z
Si Si1 0.305832 0.822032 0.148920
Si Si2 0.879075 0.174977 0.386640
Si Si3 0.877497 0.323007 0.234774
Si Si4 0.304682 0.324944 0.994232
Si Si5 0.500000 0.178107 0.734060
Si Si6 0.500000 0.674085 0.889011
O O1 0.190355 0.766630 0.174657
O O2 0.395057 0.744376 0.197767
O O3 0.315687 0.000000 0.159536
O O4 0.322180 0.781296 0.063949
O O5 0.843912 0.274884 0.316999
O O6 0.807126 0.217210 0.456443
O O7 0.000000 0.209324 0.409667
O O8 0.862666 0.000000 0.364065
O O9 0.855538 0.500000 0.225285
O O10 0.000000 0.281179 0.220521
O O11 0.307248 0.500000 0.019795
O O12 0.396747 0.289931 0.936596
O O13 0.500000 0.215091 0.820034
O O14 0.500000 0.000000 0.721841
O O15 0.500000 0.500000 0.861702
#
# Coordination Sequence:
#
# PCOD8180088 Si02
#       6
#     8   8   8   8   4   4
#     4  12  25  40  60  87 121 157 196 243 293 347
#     4   9  18  34  57  84 115 152 193 238 289 345
#     4  10  21  38  61  88 119 156 199 245 291 344
#     4  10  21  37  57  83 117 154 190 233 289 349
#     4  12  25  42  65  89 117 153 195 242 291 348
#     4  10  21  38  61  87 115 149 189 234 287 348
#
# _framework density 19.849446
#
# number of rings (size 3 to 8) (size 9 to 14) (size 15 to 20)
#    0.000    1.600    0.000    5.100    0.000    6.000 
#    0.000    2.000    0.000    0.000    0.000    0.000 
#    0.000    0.000    0.000    0.000    0.000    0.000 
#
# Total GULP energy -248131.287067 kJ/mol
# GULP energy per Si atom -12406.564353 kJ/mol
# Density = 1.980427 g / cm^3
# Si number density = 19.849446 Si / 1000 Ang^3
#
#
#
# Elastic Constant Matrix: (Units=GPa)
#
#
# Indices 1 2 3 4 5 6 
#
# 1 109.1865 51.5710 56.8465 0.0000 0.0000 0.0000
# 2 51.5710 126.9785 58.7014 0.0000 0.0000 0.0000
# 3 56.8465 58.7014 113.7927 0.0000 0.0000 0.0000
# 4 0.0000 0.0000 0.0000 37.8254 0.0000 0.0000
# 5 0.0000 0.0000 0.0000 0.0000 -39.7670 0.0000
# 6 0.0000 0.0000 0.0000 0.0000 0.0000 24.9903
#
#
#
# Elastic Compliance Matrix: (Units=1/GPa)
#
#
# Indices 1 2 3 4 5 6 
#
# 1 0.013215 -0.003040 -0.005033 0.000000 0.000000 0.000000
# 2 -0.003040 0.011041 -0.004177 0.000000 0.000000 0.000000
# 3 -0.005033 -0.004177 0.013457 0.000000 0.000000 0.000000
# 4 0.000000 0.000000 0.000000 0.026437 0.000000 0.000000
# 5 0.000000 0.000000 0.000000 0.000000 -0.025146 0.000000
# 6 0.000000 0.000000 0.000000 0.000000 0.000000 0.040015
#
#
# Mechanical properties :
#
#
# Convention : Reuss Voigt Hill
#
# Bulk Modulus (GPa) = 75.68760 76.02173 75.85466
# Shear Modulus (GPa) = 46.32846 16.79899 31.56372
#
# Velocity S-wave (km/s) = 4.83638 2.91231 3.99200
# Velocity P-wave (km/s) = 8.33073 7.04919 7.71661
#
# Compressibility (1/GPa) = 0.01321220
#
# Stress axis : x y z
#
# Youngs Moduli (GPa) = 75.67021 90.57093 74.31005
#
# Poissons Ratio (x) = 0.27536 0.37404
# Poissons Ratio (y) = 0.23006 0.31038
# Poissons Ratio (z) = 0.38088 0.37830
#
# Static dielectric constant tensor:
#      x y z
#    x 4.568170 0.000000 0.000000 
#    y 0.000000 3.647860 0.000000 
#    z 0.000000 0.000000 3.519090 
# 
# 
# High freq. dielectric constant tensor:
#      x y z
#    x 1.791580 0.000000 0.000000 
#    y 0.000000 1.772620 0.000000 
#    z 0.000000 0.000000 1.773920 
# 
# From -- ./inp_files/14293.got.cif
#   From: 2010.03.12/outbox.cif.g09.slc.cpg/sg38_8_cif.got.tgz:14293.got - 2010.04.14 02:38:36.
