data_PCOD8180922
_publ_section_title
;
Structure prediction by ZEFSAII (Michael W. Deem and Ramdas Pophale) SiO2 
 PCOD8180922
Probable space group: A B M 2
;
_chemical_formula_sum "Si O2"
_cell_formula_units_Z 56
_cell_length_a 19.779158
_cell_length_b 8.698767
_cell_length_c 16.114118
_cell_angle_alpha 90.000000
_cell_angle_beta 90.000000
_cell_angle_gamma 90.000000
_cell_volume 2772.503081
_symmetry_space_group_name_H-M "A B M 2"
_symmetry_group_IT_number 39
_symmetry_cell_setting 'orthorhombic'
loop_
_space_group_symop_operation_xyz
x,y,z
-x,-y,z
-x,1/2+y,z
x,1/2-y,z
x,1/2+y,1/2+z
-x,1/2-y,1/2+z
-x,y,1/2+z
x,-y,1/2+z
loop_
_atom_site_type_symbol
_atom_site_label
_atom_site_fract_x
_atom_site_fract_y
_atom_site_fract_z
Si Si1 0.708584 0.432456 0.562940
Si Si2 0.074112 0.567321 0.471299
Si Si3 0.846514 0.568063 0.807841
Si Si4 0.432820 0.933086 0.312362
Si Si5 0.153486 0.431937 0.134757
Si Si6 0.567180 0.933086 0.130235
Si Si7 0.708584 0.932456 0.879658
O O1 0.705794 0.250000 0.563718
O O2 0.768625 0.488199 0.623614
O O3 0.635206 0.497218 0.587729
O O4 0.726166 0.492878 0.471299
O O5 0.072237 0.750000 0.471299
O O6 0.111250 0.508231 0.387488
O O7 0.111250 0.508231 0.555110
O O8 0.000000 0.500000 0.471299
O O9 0.851605 0.750000 0.802614
O O10 0.874919 0.500000 0.721299
O O11 0.768625 0.511801 0.818984
O O12 0.435857 0.750000 0.312018
O O13 0.364794 0.997218 0.354869
O O14 0.500000 0.000000 0.358388
O O15 0.432019 0.000000 0.221299
O O16 0.148395 0.250000 0.139984
O O17 0.564143 0.750000 0.130580
O O18 0.500000 0.000000 0.084210
O O19 0.705794 0.750000 0.878880
#
# Coordination Sequence:
#
# PCOD8180922 Si02
#       7
#     8   8   8   8   8   8   8
#     4   9  17  32  54  77 103 139 183 226 272 326
#     4  10  22  40  62  86 117 152 184 224 273 332
#     4  10  20  37  61  86 113 148 189 230 275 328
#     4  10  19  31  49  71 100 137 177 224 273 324
#     4  10  20  37  61  86 113 148 189 230 275 328
#     4  10  19  31  49  71 100 137 177 224 273 324
#     4   9  17  32  54  77 103 139 183 226 272 326
#
# _framework density 20.198354999999999
#
# number of rings (size 3 to 8) (size 9 to 14) (size 15 to 20)
#    0.000    2.286    1.429    2.571    0.000    2.286 
#    0.000    4.286    0.000    6.000    0.000    0.000 
#    0.000    0.000    0.000    0.000    0.000    0.000 
#
# Total GULP energy -347009.621615 kJ/mol
# GULP energy per Si atom -12393.200772 kJ/mol
# Density = 2.015238 g / cm^3
# Si number density = 20.198355 Si / 1000 Ang^3
#
#
#
# Elastic Constant Matrix: (Units=GPa)
#
#
# Indices 1 2 3 4 5 6 
#
# 1 158.4205 27.0560 69.9649 0.0000 0.0000 0.0000
# 2 27.0560 33.9761 20.4263 0.0000 0.0000 0.0000
# 3 69.9649 20.4263 146.7276 0.0000 0.0000 0.0000
# 4 0.0000 0.0000 0.0000 22.9628 0.0000 0.0000
# 5 0.0000 0.0000 0.0000 0.0000 31.6314 0.0000
# 6 0.0000 0.0000 0.0000 0.0000 0.0000 21.8522
#
#
#
# Elastic Compliance Matrix: (Units=1/GPa)
#
#
# Indices 1 2 3 4 5 6 
#
# 1 0.008663 -0.004819 -0.003460 0.000000 0.000000 0.000000
# 2 -0.004819 0.034801 -0.002547 0.000000 0.000000 0.000000
# 3 -0.003460 -0.002547 0.008820 0.000000 0.000000 0.000000
# 4 0.000000 0.000000 0.000000 0.043549 0.000000 0.000000
# 5 0.000000 0.000000 0.000000 0.000000 0.031614 0.000000
# 6 0.000000 0.000000 0.000000 0.000000 0.000000 0.045762
#
#
# Mechanical properties :
#
#
# Convention : Reuss Voigt Hill
#
# Bulk Modulus (GPa) = 32.64510 63.77987 48.21248
# Shear Modulus (GPa) = 24.38172 30.06775 27.22473
#
# Velocity S-wave (km/s) = 3.47812 3.86245 3.67532
# Velocity P-wave (km/s) = 5.68570 7.17891 6.47549
#
# Compressibility (1/GPa) = 0.03063247
#
# Stress axis : x y z
#
# Youngs Moduli (GPa) = 115.42752 28.73487 113.38015
#
# Poissons Ratio (x) = 0.13846 0.39232
# Poissons Ratio (y) = 0.55620 0.28878
# Poissons Ratio (z) = 0.39940 0.07319
#
# Static dielectric constant tensor:
#      x y z
#    x 4.962070 0.000000 0.000000 
#    y 0.000000 3.255020 0.000000 
#    z 0.000000 0.000000 3.801340 
# 
# 
# High freq. dielectric constant tensor:
#      x y z
#    x 1.803200 0.000000 0.000000 
#    y 0.000000 1.749610 0.000000 
#    z 0.000000 0.000000 1.790160 
# 
# From -- ./inp_files/10360.got.cif
#   From: 2010.03.12/outbox.cif.g09.slc.cpg/sg39_6_cif.got.tgz:10360.got - 2010.04.14 02:53:20.
