data_PCOD8180846
_publ_section_title
;
Structure prediction by ZEFSAII (Michael W. Deem and Ramdas Pophale) SiO2 
 PCOD8180846
Probable space group: A B M 2
;
_chemical_formula_sum "Si O2"
_cell_formula_units_Z 64
_cell_length_a 19.295087
_cell_length_b 8.712918
_cell_length_c 20.473890
_cell_angle_alpha 90.000000
_cell_angle_beta 90.000000
_cell_angle_gamma 90.000000
_cell_volume 3441.998950
_symmetry_space_group_name_H-M "A B M 2"
_symmetry_group_IT_number 39
_symmetry_cell_setting 'orthorhombic'
loop_
_space_group_symop_operation_xyz
x,y,z
-x,-y,z
-x,1/2+y,z
x,1/2-y,z
x,1/2+y,1/2+z
-x,1/2-y,1/2+z
-x,y,1/2+z
x,-y,1/2+z
loop_
_atom_site_type_symbol
_atom_site_label
_atom_site_fract_x
_atom_site_fract_y
_atom_site_fract_z
Si Si1 0.427124 0.931828 0.969780
Si Si2 0.214344 0.073671 0.543211
Si Si3 0.708731 0.430150 0.424792
Si Si4 0.929976 0.569371 0.596347
Si Si5 0.698531 0.072871 0.172650
Si Si6 0.428402 0.069297 0.110711
Si Si7 0.784690 0.567785 0.795670
Si Si8 0.070902 0.568056 0.244601
O O1 0.432263 0.750000 0.971200
O O2 0.500000 0.000000 0.944603
O O3 0.365429 0.984954 0.922279
O O4 0.408958 0.991639 0.041945
O O5 0.220740 0.250000 0.519890
O O6 0.134601 0.020892 0.551074
O O7 0.249294 0.051631 0.613039
O O8 0.250072 0.964726 0.490834
O O9 0.694880 0.250000 0.419694
O O10 0.754171 0.491698 0.364138
O O11 0.936490 0.750000 0.598025
O O12 0.919651 0.508398 0.670268
O O13 0.000000 0.500000 0.565355
O O14 0.676206 0.250000 0.180180
O O15 0.735873 0.008596 0.237192
O O16 0.630450 0.969906 0.162985
O O17 0.435704 0.250000 0.100177
O O18 0.500000 0.000000 0.137579
O O19 0.786380 0.750000 0.792765
O O20 0.863306 0.506465 0.786212
O O21 0.066731 0.750000 0.247223
O O22 0.000000 0.500000 0.274852
#
# Coordination Sequence:
#
# PCOD8180846 Si02
#       8
#     8   8   8   8   8   8   8   8
#     4  11  21  36  57  81 109 143 182 224 271 325
#     4  10  19  33  55  79 106 141 181 223 274 328
#     4  11  22  36  55  82 113 145 184 227 273 324
#     4   9  17  30  51  79 107 138 178 226 276 326
#     4  10  18  34  58  80 105 142 183 222 270 322
#     4  11  21  34  54  84 114 142 179 225 274 322
#     4   9  19  36  57  79 109 149 186 221 269 328
#     4   9  16  31  53  78 104 136 178 222 269 321
#
# _framework density 18.593845999999999
#
# number of rings (size 3 to 8) (size 9 to 14) (size 15 to 20)
#    0.000    2.000    2.500    3.375    0.000    0.500 
#    0.000    4.375    0.000    3.000    0.000    0.000 
#    0.000    0.000    0.000    0.000    0.000    0.000 
#
# Total GULP energy -396823.314735 kJ/mol
# GULP energy per Si atom -12400.728585 kJ/mol
# Density = 1.855153 g / cm^3
# Si number density = 18.593846 Si / 1000 Ang^3
#
#
#
# Elastic Constant Matrix: (Units=GPa)
#
#
# Indices 1 2 3 4 5 6 
#
# 1 162.0756 44.3810 44.7460 0.0000 0.0000 0.0000
# 2 44.3810 77.7118 24.0493 0.0000 0.0000 0.0000
# 3 44.7460 24.0493 67.8845 0.0000 0.0000 0.0000
# 4 0.0000 0.0000 0.0000 16.5597 0.0000 0.0000
# 5 0.0000 0.0000 0.0000 0.0000 26.8324 0.0000
# 6 0.0000 0.0000 0.0000 0.0000 0.0000 33.4368
#
#
#
# Elastic Compliance Matrix: (Units=1/GPa)
#
#
# Indices 1 2 3 4 5 6 
#
# 1 0.008277 -0.003413 -0.004247 0.000000 0.000000 0.000000
# 2 -0.003413 0.015860 -0.003369 0.000000 0.000000 0.000000
# 3 -0.004247 -0.003369 0.018724 0.000000 0.000000 0.000000
# 4 0.000000 0.000000 0.000000 0.060387 0.000000 0.000000
# 5 0.000000 0.000000 0.000000 0.000000 0.037268 0.000000
# 6 0.000000 0.000000 0.000000 0.000000 0.000000 0.029907
#
#
# Mechanical properties :
#
#
# Convention : Reuss Voigt Hill
#
# Bulk Modulus (GPa) = 48.06942 59.33606 53.70274
# Shear Modulus (GPa) = 25.07340 28.33217 26.70279
#
# Velocity S-wave (km/s) = 3.67615 3.90775 3.79371
# Velocity P-wave (km/s) = 6.62776 7.23475 6.93789
#
# Compressibility (1/GPa) = 0.02080325
#
# Stress axis : x y z
#
# Youngs Moduli (GPa) = 120.81848 63.05304 53.40837
#
# Poissons Ratio (x) = 0.21518 0.22681
# Poissons Ratio (y) = 0.41232 0.17994
# Poissons Ratio (z) = 0.51308 0.21243
#
# Static dielectric constant tensor:
#      x y z
#    x 3.781750 0.000000 0.000000 
#    y 0.000000 3.237040 0.000000 
#    z 0.000000 0.000000 3.244660 
# 
# 
# High freq. dielectric constant tensor:
#      x y z
#    x 1.742210 0.000000 0.000000 
#    y 0.000000 1.708090 0.000000 
#    z 0.000000 0.000000 1.687450 
# 
# From -- ./inp_files/13219.got.cif
#   From: 2010.03.12/outbox.cif.g09.slc.cpg/sg39_7_cif.got.tgz:13219.got - 2010.04.14 02:53:20.
