data_PCOD8180143
_publ_section_title
;
Structure prediction by ZEFSAII (Michael W. Deem and Ramdas Pophale) SiO2 
 PCOD8180143
Probable space group: A M M 2
;
_chemical_formula_sum "Si O2"
_cell_formula_units_Z 44
_cell_length_a 30.992046
_cell_length_b 13.496533
_cell_length_c 4.959937
_cell_angle_alpha 90.000000
_cell_angle_beta 90.000000
_cell_angle_gamma 90.000000
_cell_volume 2074.668099
_symmetry_space_group_name_H-M "A M M 2"
_symmetry_group_IT_number 38
_symmetry_cell_setting 'orthorhombic'
loop_
_space_group_symop_operation_xyz
x,y,z
-x,-y,z
-x,y,z
x,-y,z
x,1/2+y,1/2+z
-x,1/2-y,1/2+z
-x,1/2+y,1/2+z
x,1/2-y,1/2+z
loop_
_atom_site_type_symbol
_atom_site_label
_atom_site_fract_x
_atom_site_fract_y
_atom_site_fract_z
Si Si1 0.666263 0.000000 0.170161
Si Si2 0.391134 0.500000 0.170251
Si Si3 0.000000 0.683301 0.762880
Si Si4 0.821675 0.685130 0.770082
Si Si5 0.549170 0.185063 0.660104
Si Si6 0.910581 0.183172 0.129717
Si Si7 0.271439 0.181549 0.173161
O O1 0.693721 0.902230 0.228130
O O2 0.624892 0.000000 0.363552
O O3 0.650328 0.000000 0.863215
O O4 0.419566 0.404237 0.230288
O O5 0.955304 0.623092 0.696225
O O6 0.000000 0.781677 0.571909
O O7 0.822674 0.784392 0.583102
O O8 0.865743 0.623289 0.696343
O O9 0.776276 0.630800 0.705845
O O10 0.500000 0.147600 0.691289
O O11 0.558403 0.223853 0.360506
O O12 0.910575 0.281484 0.321110
O O13 0.277454 0.273205 0.376954
#
# Coordination Sequence:
#
# PCOD8180143 Si02
#       7
#     4   4   4   8   8   8   8
#     4  12  26  38  57  86 112 149 190 222 274 332
#     4  12  25  40  60  88 120 150 184 229 272 318
#     4   8  12  16  24  42  72 103 132 179 234 288
#     4   8  14  25  42  60  81 117 160 202 251 302
#     4  10  22  41  65  91 119 153 190 226 267 316
#     4   8  12  18  29  48  73 104 143 184 236 296
#     4  10  21  38  56  75 105 141 180 229 273 316
#
# _framework density 21.208212
#
# number of rings (size 3 to 8) (size 9 to 14) (size 15 to 20)
#    0.000    2.545    0.000    2.455    0.000    4.364 
#    0.000    3.636    0.000    0.000    0.000    0.000 
#    0.000    0.727    0.000    0.182    0.000  238.909 
#
# Total GULP energy -272537.238705 kJ/mol
# GULP energy per Si atom -12388.056305 kJ/mol
# Density = 2.115994 g / cm^3
# Si number density = 21.208212 Si / 1000 Ang^3
#
#
#
# Elastic Constant Matrix: (Units=GPa)
#
#
# Indices 1 2 3 4 5 6 
#
# 1 151.1082 50.3636 13.1732 0.0000 0.0000 0.0000
# 2 50.3636 50.4096 3.1191 0.0000 0.0000 0.0000
# 3 13.1732 3.1191 83.5230 0.0000 0.0000 0.0000
# 4 0.0000 0.0000 0.0000 10.9046 0.0000 0.0000
# 5 0.0000 0.0000 0.0000 0.0000 36.6286 0.0000
# 6 0.0000 0.0000 0.0000 0.0000 0.0000 -13.9568
#
#
#
# Elastic Compliance Matrix: (Units=1/GPa)
#
#
# Indices 1 2 3 4 5 6 
#
# 1 0.010042 -0.009958 -0.001212 0.000000 0.000000 0.000000
# 2 -0.009958 0.029758 0.000459 0.000000 0.000000 0.000000
# 3 -0.001212 0.000459 0.012147 0.000000 0.000000 0.000000
# 4 0.000000 0.000000 0.000000 0.091705 0.000000 0.000000
# 5 0.000000 0.000000 0.000000 0.000000 0.027301 0.000000
# 6 0.000000 0.000000 0.000000 0.000000 0.000000 -0.071649
#
#
# Mechanical properties :
#
#
# Convention : Reuss Voigt Hill
#
# Bulk Modulus (GPa) = 32.75944 46.48362 39.62153
# Shear Modulus (GPa) = 38.19675 21.27426 29.73550
#
# Velocity S-wave (km/s) = 4.24847 3.17063 3.74849
# Velocity P-wave (km/s) = 6.28857 5.94720 6.12026
#
# Compressibility (1/GPa) = 0.03052555
#
# Stress axis : x y z
#
# Youngs Moduli (GPa) = 99.57682 33.60402 82.32656
#
# Poissons Ratio (x) = 0.33464 0.09978
# Poissons Ratio (y) = 0.99162 -0.03782
# Poissons Ratio (z) = 0.12069 -0.01544
#
# Static dielectric constant tensor:
#      x y z
#    x 4.538450 0.000000 0.000000 
#    y 0.000000 2.931510 0.000000 
#    z 0.000000 0.000000 3.851910 
# 
# 
# High freq. dielectric constant tensor:
#      x y z
#    x 1.870650 0.000000 0.000000 
#    y 0.000000 1.737340 0.000000 
#    z 0.000000 0.000000 1.852610 
# 
# From -- ./inp_files/2268.got.cif
#   From: 2010.03.12/outbox.cif.g09.slc.cpg/sg38_2_cif.got.tgz:2268.got - 2010.04.14 02:38:36.
