data_PCOD8180809
_publ_section_title
;
Structure prediction by ZEFSAII (Michael W. Deem and Ramdas Pophale) SiO2 
 PCOD8180809
Probable space group: A B M 2
;
_chemical_formula_sum "Si O2"
_cell_formula_units_Z 64
_cell_length_a 19.207912
_cell_length_b 9.341265
_cell_length_c 20.513015
_cell_angle_alpha 90.000000
_cell_angle_beta 90.000000
_cell_angle_gamma 90.000000
_cell_volume 3680.572252
_symmetry_space_group_name_H-M "A B M 2"
_symmetry_group_IT_number 39
_symmetry_cell_setting 'orthorhombic'
loop_
_space_group_symop_operation_xyz
x,y,z
-x,-y,z
-x,1/2+y,z
x,1/2-y,z
x,1/2+y,1/2+z
-x,1/2-y,1/2+z
-x,y,1/2+z
x,-y,1/2+z
loop_
_atom_site_type_symbol
_atom_site_label
_atom_site_fract_x
_atom_site_fract_y
_atom_site_fract_z
Si Si1 0.301911 0.416815 0.709100
Si Si2 0.066178 0.584291 0.279004
Si Si3 0.283085 0.919627 0.951496
Si Si4 0.567543 0.084557 0.906484
Si Si5 0.067687 0.417738 0.628465
Si Si6 0.431232 0.418074 0.254964
Si Si7 0.211809 0.914608 0.336731
Si Si8 0.216022 0.419748 0.584972
O O1 0.323010 0.250000 0.702491
O O2 0.369602 0.515232 0.712801
O O3 0.255482 0.442843 0.772132
O O4 0.259635 0.474149 0.646799
O O5 0.048925 0.750000 0.285275
O O6 0.080842 0.544041 0.203971
O O7 0.132421 0.542061 0.322236
O O8 0.000000 0.500000 0.306939
O O9 0.276353 0.750000 0.945023
O O10 0.364276 0.965003 0.946578
O O11 0.238457 0.986277 0.894018
O O12 0.252238 0.977858 0.019439
O O13 0.550983 0.250000 0.917701
O O14 0.582829 0.051243 0.831004
O O15 0.500000 0.000000 0.932125
O O16 0.055045 0.250000 0.618335
O O17 0.135873 0.472393 0.589276
O O18 0.000000 0.500000 0.601229
O O19 0.500000 0.500000 0.231960
O O20 0.438461 0.250000 0.240466
O O21 0.217942 0.750000 0.358432
O O22 0.215981 0.250000 0.586531
#
# Coordination Sequence:
#
# PCOD8180809 Si02
#       8
#     8   8   8   8   8   8   8   8
#     4  10  18  32  54  77 100 133 171 209 255 305
#     4   9  17  30  49  75 103 130 168 213 257 304
#     4  10  20  35  53  76 104 136 174 212 251 304
#     4   9  18  31  49  73  99 128 166 207 248 297
#     4   9  16  30  51  75  99 130 170 211 254 304
#     4  10  19  32  50  77 107 134 169 214 258 304
#     4  10  19  32  52  76 103 132 167 211 258 306
#     4   9  18  34  55  75 102 139 175 207 253 312
#
# _framework density 17.388601000000001
#
# number of rings (size 3 to 8) (size 9 to 14) (size 15 to 20)
#    0.000    2.500    2.500    0.375    0.000    1.500 
#    0.000    3.125    0.000    4.500    0.000    0.000 
#    0.000    0.000    0.000    0.000    0.000    0.000 
#
# Total GULP energy -396798.574214 kJ/mol
# GULP energy per Si atom -12399.955444 kJ/mol
# Density = 1.734902 g / cm^3
# Si number density = 17.388601 Si / 1000 Ang^3
#
#
#
# Elastic Constant Matrix: (Units=GPa)
#
#
# Indices 1 2 3 4 5 6 
#
# 1 176.0454 61.5654 69.3832 0.0000 0.0000 0.0000
# 2 61.5654 52.6219 34.6084 0.0000 0.0000 0.0000
# 3 69.3832 34.6084 90.4999 0.0000 0.0000 0.0000
# 4 0.0000 0.0000 0.0000 17.0139 0.0000 0.0000
# 5 0.0000 0.0000 0.0000 0.0000 25.3424 0.0000
# 6 0.0000 0.0000 0.0000 0.0000 0.0000 35.2448
#
#
#
# Elastic Compliance Matrix: (Units=1/GPa)
#
#
# Indices 1 2 3 4 5 6 
#
# 1 0.010906 -0.009700 -0.004652 0.000000 0.000000 0.000000
# 2 -0.009700 0.034017 -0.005572 0.000000 0.000000 0.000000
# 3 -0.004652 -0.005572 0.016747 0.000000 0.000000 0.000000
# 4 0.000000 0.000000 0.000000 0.058775 0.000000 0.000000
# 5 0.000000 0.000000 0.000000 0.000000 0.039460 0.000000
# 6 0.000000 0.000000 0.000000 0.000000 0.000000 0.028373
#
#
# Mechanical properties :
#
#
# Convention : Reuss Voigt Hill
#
# Bulk Modulus (GPa) = 45.82486 72.25348 59.03917
# Shear Modulus (GPa) = 21.24057 25.76090 23.50074
#
# Velocity S-wave (km/s) = 3.49882 3.85318 3.68027
# Velocity P-wave (km/s) = 6.53704 7.83826 7.21704
#
# Compressibility (1/GPa) = 0.02182221
#
# Stress axis : x y z
#
# Youngs Moduli (GPa) = 91.69276 29.39739 59.71306
#
# Poissons Ratio (x) = 0.28516 0.27777
# Poissons Ratio (y) = 0.88943 0.33270
# Poissons Ratio (z) = 0.42653 0.16379
#
# Static dielectric constant tensor:
#      x y z
#    x 3.533070 0.000000 0.000000 
#    y 0.000000 3.078870 0.000000 
#    z 0.000000 0.000000 3.164210 
# 
# 
# High freq. dielectric constant tensor:
#      x y z
#    x 1.687740 0.000000 0.000000 
#    y 0.000000 1.656160 0.000000 
#    z 0.000000 0.000000 1.645000 
# 
# From -- ./inp_files/13114.got.cif
#   From: 2010.03.12/outbox.cif.g09.slc.cpg/sg39_7_cif.got.tgz:13114.got - 2010.04.14 02:53:20.
