data_PCOD8180577
_publ_section_title
;
Structure prediction by ZEFSAII (Michael W. Deem and Ramdas Pophale) SiO2 
 PCOD8180577
Probable space group: A B M 2
;
_chemical_formula_sum "Si O2"
_cell_formula_units_Z 48
_cell_length_a 30.933168
_cell_length_b 13.748060
_cell_length_c 5.205260
_cell_angle_alpha 90.000000
_cell_angle_beta 90.000000
_cell_angle_gamma 90.000000
_cell_volume 2213.646384
_symmetry_space_group_name_H-M "A B M 2"
_symmetry_group_IT_number 39
_symmetry_cell_setting 'orthorhombic'
loop_
_space_group_symop_operation_xyz
x,y,z
-x,-y,z
-x,1/2+y,z
x,1/2-y,z
x,1/2+y,1/2+z
-x,1/2-y,1/2+z
-x,y,1/2+z
x,-y,1/2+z
loop_
_atom_site_type_symbol
_atom_site_label
_atom_site_fract_x
_atom_site_fract_y
_atom_site_fract_z
Si Si1 0.518552 0.606964 0.200740
Si Si2 0.322840 0.750000 0.715613
Si Si3 0.732825 0.250000 0.215511
Si Si4 0.018434 0.110227 0.773052
Si Si5 0.793073 0.065092 0.267774
Si Si6 0.111915 0.059017 0.701529
Si Si7 0.617443 0.935912 0.227244
O O1 0.500000 0.500000 0.145609
O O2 0.494491 0.661576 0.436088
O O3 0.569464 0.607100 0.244228
O O4 0.304744 0.750000 0.427105
O O5 0.350611 0.653634 0.757322
O O6 0.285285 0.750000 0.927238
O O7 0.760643 0.153763 0.252770
O O8 0.070208 0.124133 0.761176
O O9 0.997692 0.164238 0.528756
O O10 0.000000 0.000000 0.782312
O O11 0.841792 0.109927 0.253032
O O12 0.785178 0.010387 0.536527
O O13 0.109236 0.030716 0.401750
O O14 0.625747 0.010956 0.457738
#
# Coordination Sequence:
#
# PCOD8180577 Si02
#       7
#     8   4   4   8   8   8   8
#     4  10  16  32  61  90 123 172 205 243 300 354
#     4  12  30  44  66 101 124 163 222 254 316 406
#     4  12  26  50  66  89 132 159 206 276 324 370
#     4  10  14  20  36  65 109 149 176 227 289 333
#     4  10  23  40  68  94 118 158 212 259 317 382
#     4  10  16  27  44  77 113 140 195 245 277 363
#     4  12  23  42  68  95 136 171 209 261 316 355
#
# _framework density 21.683679000000001
#
# number of rings (size 3 to 8) (size 9 to 14) (size 15 to 20)
#    0.000    1.333    6.667    2.000    0.000    4.000 
#    0.000    0.833    0.000    0.000    0.000    1.167 
#    0.000    0.000    0.000    0.000    0.000    0.000 
#
# Total GULP energy -297403.788341 kJ/mol
# GULP energy per Si atom -12391.824514 kJ/mol
# Density = 2.163433 g / cm^3
# Si number density = 21.683679 Si / 1000 Ang^3
#
#
#
# Elastic Constant Matrix: (Units=GPa)
#
#
# Indices 1 2 3 4 5 6 
#
# 1 126.6817 42.0838 14.9427 0.0000 0.0000 0.0000
# 2 42.0838 70.7897 6.8020 0.0000 0.0000 0.0000
# 3 14.9427 6.8020 148.9470 0.0000 0.0000 0.0000
# 4 0.0000 0.0000 0.0000 1.6026 0.0000 0.0000
# 5 0.0000 0.0000 0.0000 0.0000 39.0016 0.0000
# 6 0.0000 0.0000 0.0000 0.0000 0.0000 -162.4718
#
#
#
# Elastic Compliance Matrix: (Units=1/GPa)
#
#
# Indices 1 2 3 4 5 6 
#
# 1 0.009915 -0.005824 -0.000729 0.000000 0.000000 0.000000
# 2 -0.005824 0.017610 -0.000220 0.000000 0.000000 0.000000
# 3 -0.000729 -0.000220 0.006797 0.000000 0.000000 0.000000
# 4 0.000000 0.000000 0.000000 0.623980 0.000000 0.000000
# 5 0.000000 0.000000 0.000000 0.000000 0.025640 0.000000
# 6 0.000000 0.000000 0.000000 0.000000 0.000000 -0.006155
#
#
# Mechanical properties :
#
#
# Convention : Reuss Voigt Hill
#
# Bulk Modulus (GPa) = 48.13249 52.67504 50.40376
# Shear Modulus (GPa) = 7.16069 -5.53420 0.81324
#
# Velocity S-wave (km/s) = 1.81921 -1.59931 0.61308
# Velocity P-wave (km/s) = 5.16318 4.57546 4.87818
#
# Compressibility (1/GPa) = 0.02077599
#
# Stress axis : x y z
#
# Youngs Moduli (GPa) = 100.86222 56.78646 147.12500
#
# Poissons Ratio (x) = 0.33073 0.10721
# Poissons Ratio (y) = 0.58743 0.03235
# Poissons Ratio (z) = 0.07350 0.01249
#
# Static dielectric constant tensor:
#      x y z
#    x 4.157030 0.000000 0.000000 
#    y 0.000000 3.415910 0.000000 
#    z 0.000000 0.000000 5.468720 
# 
# 
# High freq. dielectric constant tensor:
#      x y z
#    x 1.862590 0.000000 0.000000 
#    y 0.000000 1.813740 0.000000 
#    z 0.000000 0.000000 1.888290 
# 
# From -- ./inp_files/1394.got.cif
#   From: 2010.03.12/outbox.cif.g09.slc.cpg/sg39_1_cif.got.tgz:1394.got - 2010.04.14 02:53:20.
