data_PCOD8180675
_publ_section_title
;
Structure prediction by ZEFSAII (Michael W. Deem and Ramdas Pophale) SiO2 
 PCOD8180675
Probable space group: A B M 2
;
_chemical_formula_sum "Si O2"
_cell_formula_units_Z 64
_cell_length_a 20.955053
_cell_length_b 8.657003
_cell_length_c 18.682572
_cell_angle_alpha 90.000000
_cell_angle_beta 90.000000
_cell_angle_gamma 90.000000
_cell_volume 3389.167212
_symmetry_space_group_name_H-M "A B M 2"
_symmetry_group_IT_number 39
_symmetry_cell_setting 'orthorhombic'
loop_
_space_group_symop_operation_xyz
x,y,z
-x,-y,z
-x,1/2+y,z
x,1/2-y,z
x,1/2+y,1/2+z
-x,1/2-y,1/2+z
-x,y,1/2+z
x,-y,1/2+z
loop_
_atom_site_type_symbol
_atom_site_label
_atom_site_fract_x
_atom_site_fract_y
_atom_site_fract_z
Si Si1 0.186189 0.067054 0.349990
Si Si2 0.564227 0.568688 0.266997
Si Si3 0.695133 0.066938 0.266816
Si Si4 0.067585 0.567072 0.267104
Si Si5 0.933691 0.431526 0.102823
Si Si6 0.439000 0.569553 0.110691
Si Si7 0.299888 0.930119 0.105169
Si Si8 0.815003 0.065946 0.012792
O O1 0.193354 0.250000 0.344413
O O2 0.184207 0.008109 0.431599
O O3 0.246259 0.987251 0.313930
O O4 0.121428 0.014073 0.313295
O O5 0.500000 0.500000 0.304322
O O6 0.564656 0.750000 0.278593
O O7 0.629293 0.498978 0.300532
O O8 0.563021 0.524492 0.184022
O O9 0.690517 0.250000 0.266669
O O10 0.704986 0.002617 0.185773
O O11 0.069446 0.750000 0.278622
O O12 0.079623 0.520662 0.184699
O O13 0.000000 0.500000 0.293235
O O14 0.938245 0.250000 0.095353
O O15 0.877176 0.498795 0.053731
O O16 0.000000 0.500000 0.074624
O O17 0.500000 0.500000 0.066420
O O18 0.448752 0.750000 0.126897
O O19 0.370934 0.540930 0.071832
O O20 0.285398 0.750000 0.110639
O O21 0.247339 0.004911 0.052774
O O22 0.814081 0.250000 0.015483
#
# Coordination Sequence:
#
# PCOD8180675 Si02
#       8
#     8   8   8   8   8   8   8   8
#     4  11  22  34  51  76 105 136 170 209 253 303
#     4  10  17  27  45  72 104 133 166 209 258 307
#     4  10  19  33  53  75 101 134 173 214 255 301
#     4  10  20  36  58  80 104 133 167 208 252 300
#     4   9  18  34  56  78  99 128 164 204 248 294
#     4   9  15  24  42  69  99 129 162 204 254 303
#     4   8  15  29  50  72  93 126 170 210 249 294
#     4   9  18  33  51  72  99 131 168 206 247 296
#
# _framework density 18.883696
#
# number of rings (size 3 to 8) (size 9 to 14) (size 15 to 20)
#    0.000    2.500    0.000    4.875    0.000    3.000 
#    0.000    2.500    0.000   11.250    0.000    1.750 
#    0.000    0.000    0.000    0.000    0.000    0.000 
#
# Total GULP energy -396632.684020 kJ/mol
# GULP energy per Si atom -12394.771376 kJ/mol
# Density = 1.884072 g / cm^3
# Si number density = 18.883696 Si / 1000 Ang^3
#
#
#
# Elastic Constant Matrix: (Units=GPa)
#
#
# Indices 1 2 3 4 5 6 
#
# 1 192.8600 39.0121 71.2671 0.0000 0.0000 0.0000
# 2 39.0121 67.4778 22.6102 0.0000 0.0000 0.0000
# 3 71.2671 22.6102 79.7439 0.0000 0.0000 0.0000
# 4 0.0000 0.0000 0.0000 14.9242 0.0000 0.0000
# 5 0.0000 0.0000 0.0000 0.0000 -1.6400 0.0000
# 6 0.0000 0.0000 0.0000 0.0000 0.0000 35.6771
#
#
#
# Elastic Compliance Matrix: (Units=1/GPa)
#
#
# Indices 1 2 3 4 5 6 
#
# 1 0.008105 -0.002496 -0.006536 0.000000 0.000000 0.000000
# 2 -0.002496 0.017144 -0.002630 0.000000 0.000000 0.000000
# 3 -0.006536 -0.002630 0.019127 0.000000 0.000000 0.000000
# 4 0.000000 0.000000 0.000000 0.067005 0.000000 0.000000
# 5 0.000000 0.000000 0.000000 0.000000 -0.609744 0.000000
# 6 0.000000 0.000000 0.000000 0.000000 0.000000 0.028029
#
#
# Mechanical properties :
#
#
# Convention : Reuss Voigt Hill
#
# Bulk Modulus (GPa) = 47.50147 67.31783 57.40965
# Shear Modulus (GPa) = -11.36385 23.60507 6.12061
#
# Velocity S-wave (km/s) = -2.45578 3.53940 1.80229
# Velocity P-wave (km/s) = 4.14345 7.24080 5.89904
#
# Compressibility (1/GPa) = 0.02105198
#
# Stress axis : x y z
#
# Youngs Moduli (GPa) = 123.37757 58.32920 52.28188
#
# Poissons Ratio (x) = 0.14559 0.34171
# Poissons Ratio (y) = 0.30795 0.13752
# Poissons Ratio (z) = 0.80639 0.15342
#
# Static dielectric constant tensor:
#      x y z
#    x 4.151660 0.000000 0.000000 
#    y 0.000000 3.311160 0.000000 
#    z 0.000000 0.000000 3.277440 
# 
# 
# High freq. dielectric constant tensor:
#      x y z
#    x 1.763670 0.000000 0.000000 
#    y 0.000000 1.718980 0.000000 
#    z 0.000000 0.000000 1.689300 
# 
# From -- ./inp_files/13142.got.cif
#   From: 2010.03.12/outbox.cif.g09.slc.cpg/sg39_7_cif.got.tgz:13142.got - 2010.04.14 02:53:20.
