data_PCOD8180058
_publ_section_title
;
Structure prediction by ZEFSAII (Michael W. Deem and Ramdas Pophale) SiO2 
 PCOD8180058
Probable space group: A M M 2
;
_chemical_formula_sum "Si O2"
_cell_formula_units_Z 40
_cell_length_a 7.710886
_cell_length_b 28.590746
_cell_length_c 9.291672
_cell_angle_alpha 90.000000
_cell_angle_beta 90.000000
_cell_angle_gamma 90.000000
_cell_volume 2048.441852
_symmetry_space_group_name_H-M "A M M 2"
_symmetry_group_IT_number 38
_symmetry_cell_setting 'orthorhombic'
loop_
_space_group_symop_operation_xyz
x,y,z
-x,-y,z
-x,y,z
x,-y,z
x,1/2+y,1/2+z
-x,1/2-y,1/2+z
-x,1/2+y,1/2+z
x,1/2-y,1/2+z
loop_
_atom_site_type_symbol
_atom_site_label
_atom_site_fract_x
_atom_site_fract_y
_atom_site_fract_z
Si Si1 0.000000 0.055138 0.777880
Si Si2 0.304574 0.790704 0.312161
Si Si3 0.304618 0.395270 0.111767
Si Si4 0.000000 0.944912 0.109991
Si Si5 0.700073 0.394148 0.776216
Si Si6 0.194226 0.208061 0.619457
O O1 0.827077 0.074709 0.705094
O O2 0.000000 0.000000 0.758414
O O3 0.000000 0.070275 0.943952
O O4 0.500000 0.795517 0.371162
O O5 0.253585 0.840157 0.239284
O O6 0.185911 0.780368 0.449917
O O7 0.293999 0.749811 0.196910
O O8 0.500000 0.411600 0.148219
O O9 0.289497 0.340605 0.150766
O O10 0.262511 0.403398 0.944249
O O11 0.825111 0.926176 0.182617
O O12 0.000000 0.000000 0.128497
O O13 0.500000 0.405886 0.737684
O O14 0.000000 0.205055 0.679836
#
# Coordination Sequence:
#
# PCOD8180058 Si02
#       6
#     4   8   8   4   8   8
#     4  11  25  43  60  89 122 153 196 245 304 367
#     4  10  21  37  56  84 120 159 196 239 286 341
#     4  10  21  41  65  89 119 158 201 248 296 349
#     4  11  25  41  62  87 120 155 188 245 308 359
#     4   9  21  40  64  89 116 154 201 245 291 348
#     4  11  21  35  58  88 120 158 197 241 288 342
#
# _framework density 19.527035000000001
#
# number of rings (size 3 to 8) (size 9 to 14) (size 15 to 20)
#    0.000    1.800    1.000    4.200    5.600    4.800 
#    0.000    6.000    0.000    0.000    0.000    0.000 
#    0.000    0.000    0.000    0.000    0.000    0.000 
#
# Total GULP energy -248041.559608 kJ/mol
# GULP energy per Si atom -12402.077980 kJ/mol
# Density = 1.948259 g / cm^3
# Si number density = 19.527035 Si / 1000 Ang^3
#
#
#
# Elastic Constant Matrix: (Units=GPa)
#
#
# Indices 1 2 3 4 5 6 
#
# 1 128.2897 55.7930 63.5391 0.0000 0.0000 0.0000
# 2 55.7930 105.5960 72.4332 0.0000 0.0000 0.0000
# 3 63.5391 72.4332 99.1692 0.0000 0.0000 0.0000
# 4 0.0000 0.0000 0.0000 35.6352 0.0000 0.0000
# 5 0.0000 0.0000 0.0000 0.0000 22.1005 0.0000
# 6 0.0000 0.0000 0.0000 0.0000 0.0000 25.4823
#
#
#
# Elastic Compliance Matrix: (Units=1/GPa)
#
#
# Indices 1 2 3 4 5 6 
#
# 1 0.011640 -0.002073 -0.005944 0.000000 0.000000 0.000000
# 2 -0.002073 0.019348 -0.012803 0.000000 0.000000 0.000000
# 3 -0.005944 -0.012803 0.023244 0.000000 0.000000 0.000000
# 4 0.000000 0.000000 0.000000 0.028062 0.000000 0.000000
# 5 0.000000 0.000000 0.000000 0.000000 0.045248 0.000000
# 6 0.000000 0.000000 0.000000 0.000000 0.000000 0.039243
#
#
# Mechanical properties :
#
#
# Convention : Reuss Voigt Hill
#
# Bulk Modulus (GPa) = 79.42148 79.62061 79.52105
# Shear Modulus (GPa) = 23.51582 26.06290 24.78936
#
# Velocity S-wave (km/s) = 3.47402 3.65733 3.56685
# Velocity P-wave (km/s) = 7.54007 7.66145 7.60100
#
# Compressibility (1/GPa) = 0.01259105
#
# Stress axis : x y z
#
# Youngs Moduli (GPa) = 85.90797 51.68539 43.02237
#
# Poissons Ratio (x) = 0.10715 0.25572
# Poissons Ratio (y) = 0.17810 0.55083
# Poissons Ratio (z) = 0.51063 0.66175
#
# Static dielectric constant tensor:
#      x y z
#    x 3.802160 0.000000 0.000000 
#    y 0.000000 3.504500 0.000000 
#    z 0.000000 0.000000 3.443180 
# 
# 
# High freq. dielectric constant tensor:
#      x y z
#    x 1.778210 0.000000 0.000000 
#    y 0.000000 1.759050 0.000000 
#    z 0.000000 0.000000 1.747990 
# 
# From -- ./inp_files/3533.got.cif
#   From: 2010.03.12/outbox.cif.g09.slc.cpg/sg38_2_cif.got.tgz:3533.got - 2010.04.14 02:38:36.
