data_PCOD8180443
_publ_section_title
;
Structure prediction by ZEFSAII (Michael W. Deem and Ramdas Pophale) SiO2 
 PCOD8180443
Probable space group: A M M 2
;
_chemical_formula_sum "Si O2"
_cell_formula_units_Z 64
_cell_length_a 18.171557
_cell_length_b 9.181482
_cell_length_c 22.680035
_cell_angle_alpha 90.000000
_cell_angle_beta 90.000000
_cell_angle_gamma 90.000000
_cell_volume 3783.978397
_symmetry_space_group_name_H-M "A M M 2"
_symmetry_group_IT_number 38
_symmetry_cell_setting 'orthorhombic'
loop_
_space_group_symop_operation_xyz
x,y,z
-x,-y,z
-x,y,z
x,-y,z
x,1/2+y,1/2+z
-x,1/2-y,1/2+z
-x,1/2+y,1/2+z
x,1/2-y,1/2+z
loop_
_atom_site_type_symbol
_atom_site_label
_atom_site_fract_x
_atom_site_fract_y
_atom_site_fract_z
Si Si1 0.698685 0.341201 0.943090
Si Si2 0.081119 0.672754 0.998703
Si Si3 0.582904 0.828889 0.726577
Si Si4 0.226778 0.826355 0.561335
Si Si5 0.361273 0.658517 0.347696
Si Si6 0.853727 0.338299 0.880265
Si Si7 0.207848 0.661949 0.283119
Si Si8 0.279540 0.174320 0.177999
O O1 0.663629 0.500000 0.951108
O O2 0.636841 0.248794 0.908495
O O3 0.771101 0.351515 0.903718
O O4 0.719459 0.279848 0.007588
O O5 0.086068 0.500000 0.993426
O O6 0.096810 0.732362 0.932492
O O7 0.000000 0.725195 0.019640
O O8 0.143106 0.722280 0.045255
O O9 0.500000 0.803334 0.703813
O O10 0.588819 0.775486 0.794868
O O11 0.637775 0.735298 0.686420
O O12 0.605341 0.000000 0.722987
O O13 0.250630 0.729660 0.615793
O O14 0.231676 0.000000 0.574024
O O15 0.391781 0.500000 0.364596
O O16 0.278986 0.647748 0.323527
O O17 0.881827 0.500000 0.862564
O O18 0.856577 0.235921 0.822348
O O19 0.182647 0.500000 0.262591
O O20 0.224271 0.763240 0.227067
O O21 0.280341 0.000000 0.180808
#
# Coordination Sequence:
#
# PCOD8180443 Si02
#       8
#     8   8   8   8   8   8   8   8
#     4   8  14  24  40  62  87 115 144 177 217 262
#     4   8  14  26  47  73  97 123 156 195 241 292
#     4   9  18  33  51  70  94 124 155 189 236 292
#     4   9  17  30  47  67  93 126 165 201 234 280
#     4   8  14  24  41  65  88 110 138 174 218 266
#     4   8  13  23  41  66  92 114 141 180 225 271
#     4   9  16  27  43  63  88 117 148 182 224 273
#     4  11  21  31  46  69  95 123 161 205 243 279
#
# _framework density 16.913415000000001
#
# number of rings (size 3 to 8) (size 9 to 14) (size 15 to 20)
#    0.000    3.250    0.000    3.750    0.000    3.750 
#    0.000    1.875    0.000    3.000    0.000    3.500 
#    0.000    0.000    0.000    0.000    0.000    0.000 
#
# Total GULP energy -396465.770767 kJ/mol
# GULP energy per Si atom -12389.555336 kJ/mol
# Density = 1.687492 g / cm^3
# Si number density = 16.913415 Si / 1000 Ang^3
#
#
#
# Elastic Constant Matrix: (Units=GPa)
#
#
# Indices 1 2 3 4 5 6 
#
# 1 67.4142 36.0498 48.3851 0.0000 0.0000 0.0000
# 2 36.0498 92.5059 59.7294 0.0000 0.0000 0.0000
# 3 48.3851 59.7294 114.6632 0.0000 0.0000 0.0000
# 4 0.0000 0.0000 0.0000 29.0072 0.0000 0.0000
# 5 0.0000 0.0000 0.0000 0.0000 15.9728 0.0000
# 6 0.0000 0.0000 0.0000 0.0000 0.0000 12.3072
#
#
#
# Elastic Compliance Matrix: (Units=1/GPa)
#
#
# Indices 1 2 3 4 5 6 
#
# 1 0.022182 -0.003919 -0.007319 0.000000 0.000000 0.000000
# 2 -0.003919 0.016981 -0.007192 0.000000 0.000000 0.000000
# 3 -0.007319 -0.007192 0.015556 0.000000 0.000000 0.000000
# 4 0.000000 0.000000 0.000000 0.034474 0.000000 0.000000
# 5 0.000000 0.000000 0.000000 0.000000 0.062607 0.000000
# 6 0.000000 0.000000 0.000000 0.000000 0.000000 0.081253
#
#
# Mechanical properties :
#
#
# Convention : Reuss Voigt Hill
#
# Bulk Modulus (GPa) = 55.99175 62.54579 59.26877
# Shear Modulus (GPa) = 18.12471 20.15203 19.13837
#
# Velocity S-wave (km/s) = 3.27711 3.45553 3.36750
# Velocity P-wave (km/s) = 6.89174 7.27882 7.08792
#
# Compressibility (1/GPa) = 0.01785977
#
# Stress axis : x y z
#
# Youngs Moduli (GPa) = 45.08095 58.88930 64.28355
#
# Poissons Ratio (x) = 0.23077 0.47050
# Poissons Ratio (y) = 0.17666 0.46233
# Poissons Ratio (z) = 0.32995 0.42353
#
# Static dielectric constant tensor:
#      x y z
#    x 3.000940 0.000000 0.000000 
#    y 0.000000 3.295080 0.000000 
#    z 0.000000 0.000000 3.140800 
# 
# 
# High freq. dielectric constant tensor:
#      x y z
#    x 1.613100 0.000000 0.000000 
#    y 0.000000 1.637860 0.000000 
#    z 0.000000 0.000000 1.641790 
# 
# From -- ./inp_files/21540.got.cif
#   From: 2010.03.12/outbox.cif.g09.slc.cpg/sg38_11_cif.got.tgz:21540.got - 2010.04.14 02:38:36.
