data_PCOD8180893
_publ_section_title
;
Structure prediction by ZEFSAII (Michael W. Deem and Ramdas Pophale) SiO2 
 PCOD8180893
Probable space group: A B M 2
;
_chemical_formula_sum "Si O2"
_cell_formula_units_Z 64
_cell_length_a 14.344256
_cell_length_b 8.959394
_cell_length_c 31.068079
_cell_angle_alpha 90.000000
_cell_angle_beta 90.000000
_cell_angle_gamma 90.000000
_cell_volume 3992.740305
_symmetry_space_group_name_H-M "A B M 2"
_symmetry_group_IT_number 39
_symmetry_cell_setting 'orthorhombic'
loop_
_space_group_symop_operation_xyz
x,y,z
-x,-y,z
-x,1/2+y,z
x,1/2-y,z
x,1/2+y,1/2+z
-x,1/2-y,1/2+z
-x,y,1/2+z
x,-y,1/2+z
loop_
_atom_site_type_symbol
_atom_site_label
_atom_site_fract_x
_atom_site_fract_y
_atom_site_fract_z
Si Si1 0.791887 0.425648 0.046050
Si Si2 0.899655 0.425596 0.223707
Si Si3 0.100019 0.425041 0.306401
Si Si4 0.592185 0.075359 0.016411
Si Si5 0.590874 0.922886 0.418541
Si Si6 0.207598 0.423157 0.392732
Si Si7 0.100147 0.426889 0.968885
Si Si8 0.901569 0.076673 0.129264
O O1 0.804318 0.250000 0.036224
O O2 0.683545 0.472423 0.043231
O O3 0.826419 0.470800 0.093602
O O4 0.852225 0.517313 0.012321
O O5 0.905738 0.250000 0.232290
O O6 0.847964 0.504384 0.264135
O O7 0.857038 0.461106 0.176405
O O8 0.000000 0.500000 0.224101
O O9 0.085363 0.250000 0.299596
O O10 0.166341 0.460466 0.346341
O O11 0.000000 0.500000 0.315102
O O12 0.576485 0.250000 0.018787
O O13 0.500000 0.000000 0.036663
O O14 0.607227 0.020285 0.967388
O O15 0.569143 0.750000 0.418577
O O16 0.682473 0.960975 0.390847
O O17 0.500000 0.000000 0.397753
O O18 0.191900 0.250000 0.405767
O O19 0.160630 0.527699 0.427875
O O20 0.089458 0.250000 0.970519
O O21 0.000000 0.500000 0.964018
O O22 0.924251 0.250000 0.126444
O O23 0.000000 0.000000 0.120497
#
# Coordination Sequence:
#
# PCOD8180893 Si02
#       8
#     8   8   8   8   8   8   8   8
#     4  10  19  34  50  67  93 125 158 192 232 274
#     4   9  16  28  45  66  91 118 151 191 230 271
#     4  10  19  30  47  68  92 123 155 189 228 273
#     4   9  17  30  49  67  90 119 150 192 236 274
#     4   9  17  31  49  68  90 118 150 191 236 274
#     4  10  20  35  50  67  93 124 158 192 231 275
#     4  12  24  34  46  65  93 128 162 191 225 269
#     4   9  18  30  47  68  92 123 156 188 227 272
#
# _framework density 16.029091000000001
#
# number of rings (size 3 to 8) (size 9 to 14) (size 15 to 20)
#    0.000    2.250    1.250    3.375    0.000    5.000 
#    0.000    0.000    0.000    0.000    0.000    0.875 
#    0.000    6.000    0.000    0.000    0.000    0.000 
#
# Total GULP energy -396664.018629 kJ/mol
# GULP energy per Si atom -12395.750582 kJ/mol
# Density = 1.599261 g / cm^3
# Si number density = 16.029091 Si / 1000 Ang^3
#
#
#
# Elastic Constant Matrix: (Units=GPa)
#
#
# Indices 1 2 3 4 5 6 
#
# 1 98.6999 33.6831 52.1488 0.0000 0.0000 0.0000
# 2 33.6831 66.0460 43.9037 0.0000 0.0000 0.0000
# 3 52.1488 43.9037 119.6711 0.0000 0.0000 0.0000
# 4 0.0000 0.0000 0.0000 19.8745 0.0000 0.0000
# 5 0.0000 0.0000 0.0000 0.0000 2.0921 0.0000
# 6 0.0000 0.0000 0.0000 0.0000 0.0000 23.8657
#
#
#
# Elastic Compliance Matrix: (Units=1/GPa)
#
#
# Indices 1 2 3 4 5 6 
#
# 1 0.013940 -0.004062 -0.004584 0.000000 0.000000 0.000000
# 2 -0.004062 0.021208 -0.006011 0.000000 0.000000 0.000000
# 3 -0.004584 -0.006011 0.012559 0.000000 0.000000 0.000000
# 4 0.000000 0.000000 0.000000 0.050316 0.000000 0.000000
# 5 0.000000 0.000000 0.000000 0.000000 0.478000 0.000000
# 6 0.000000 0.000000 0.000000 0.000000 0.000000 0.041901
#
#
# Mechanical properties :
#
#
# Convention : Reuss Voigt Hill
#
# Bulk Modulus (GPa) = 54.36729 60.43203 57.39966
# Shear Modulus (GPa) = 7.65265 19.47855 13.56560
#
# Velocity S-wave (km/s) = 2.18737 3.48975 2.91230
# Velocity P-wave (km/s) = 6.35382 7.34991 6.86994
#
# Compressibility (1/GPa) = 0.01839341
#
# Stress axis : x y z
#
# Youngs Moduli (GPa) = 71.73516 47.15210 79.62356
#
# Poissons Ratio (x) = 0.19153 0.36503
# Poissons Ratio (y) = 0.29138 0.47858
# Poissons Ratio (z) = 0.32887 0.28341
#
# Static dielectric constant tensor:
#      x y z
#    x 3.013250 0.000000 0.000000 
#    y 0.000000 3.103150 0.000000 
#    z 0.000000 0.000000 3.524640 
# 
# 
# High freq. dielectric constant tensor:
#      x y z
#    x 1.595000 0.000000 0.000000 
#    y 0.000000 1.621600 0.000000 
#    z 0.000000 0.000000 1.608860 
# 
# From -- ./inp_files/17962.got.cif
#   From: 2010.03.12/outbox.cif.g09.slc.cpg/sg39_9_cif.got.tgz:17962.got - 2010.04.14 02:53:20.
