data_PCOD8180021
_publ_section_title
;
Structure prediction by ZEFSAII (Michael W. Deem and Ramdas Pophale) SiO2 
 PCOD8180021
Probable space group: A M M 2
;
_chemical_formula_sum "Si O2"
_cell_formula_units_Z 48
_cell_length_a 8.468465
_cell_length_b 16.925595
_cell_length_c 16.753784
_cell_angle_alpha 90.000000
_cell_angle_beta 90.000000
_cell_angle_gamma 90.000000
_cell_volume 2401.383674
_symmetry_space_group_name_H-M "A M M 2"
_symmetry_group_IT_number 38
_symmetry_cell_setting 'orthorhombic'
loop_
_space_group_symop_operation_xyz
x,y,z
-x,-y,z
-x,y,z
x,-y,z
x,1/2+y,1/2+z
-x,1/2-y,1/2+z
-x,1/2+y,1/2+z
x,1/2-y,1/2+z
loop_
_atom_site_type_symbol
_atom_site_label
_atom_site_fract_x
_atom_site_fract_y
_atom_site_fract_z
Si Si1 0.683747 0.592526 0.222840
Si Si2 0.317273 0.141303 0.406052
Si Si3 0.183584 0.321401 0.073953
Si Si4 0.684651 0.317767 0.376193
Si Si5 0.315977 0.000000 0.139086
Si Si6 0.311288 0.155294 0.052453
Si Si7 0.179810 0.500000 0.810752
O O1 0.500000 0.614292 0.210238
O O2 0.708873 0.500000 0.232966
O O3 0.783982 0.622549 0.148534
O O4 0.756083 0.633963 0.302057
O O5 0.500000 0.118987 0.394518
O O6 0.281156 0.143925 0.499801
O O7 0.276484 0.225269 0.365735
O O8 0.210703 0.076792 0.363526
O O9 0.239362 0.232652 0.094739
O O10 0.000000 0.322436 0.052375
O O11 0.500000 0.333048 0.377588
O O12 0.751107 0.348927 0.461003
O O13 0.244289 0.921290 0.098583
O O14 0.500000 0.000000 0.121388
O O15 0.288525 0.000000 0.233078
O O16 0.500000 0.162116 0.056653
O O17 0.000000 0.500000 0.782245
#
# Coordination Sequence:
#
# PCOD8180021 Si02
#       7
#     8   8   8   8   4   8   4
#     4  10  21  36  59  89 119 151 193 245 298 352
#     4  10  21  41  65  87 114 153 202 246 292 352
#     4  11  23  39  59  85 120 159 197 242 302 358
#     4   8  17  35  61  90 114 144 190 246 292 338
#     4  10  22  38  62  91 120 157 202 249 294 351
#     4   9  19  38  63  89 117 153 201 249 296 348
#     4  12  26  40  58  89 126 155 192 245 304 363
#
# _framework density 19.988477
#
# number of rings (size 3 to 8) (size 9 to 14) (size 15 to 20)
#    0.000    2.167    0.000    3.750    4.667    1.000 
#    0.000    3.333    0.000    0.000    0.000    0.000 
#    0.000    0.000    0.000    0.000    0.000    0.000 
#
# Total GULP energy -297651.780666 kJ/mol
# GULP energy per Si atom -12402.157528 kJ/mol
# Density = 1.994298 g / cm^3
# Si number density = 19.988477 Si / 1000 Ang^3
#
#
#
# Elastic Constant Matrix: (Units=GPa)
#
#
# Indices 1 2 3 4 5 6 
#
# 1 43.4926 24.3842 8.3869 0.0000 0.0000 0.0000
# 2 24.3842 114.0951 57.8675 0.0000 0.0000 0.0000
# 3 8.3869 57.8675 98.3690 0.0000 0.0000 0.0000
# 4 0.0000 0.0000 0.0000 35.4572 0.0000 0.0000
# 5 0.0000 0.0000 0.0000 0.0000 10.9208 0.0000
# 6 0.0000 0.0000 0.0000 0.0000 0.0000 11.9282
#
#
#
# Elastic Compliance Matrix: (Units=1/GPa)
#
#
# Indices 1 2 3 4 5 6 
#
# 1 0.026280 -0.006385 0.001516 0.000000 0.000000 0.000000
# 2 -0.006385 0.014043 -0.007717 0.000000 0.000000 0.000000
# 3 0.001516 -0.007717 0.014576 0.000000 0.000000 0.000000
# 4 0.000000 0.000000 0.000000 0.028203 0.000000 0.000000
# 5 0.000000 0.000000 0.000000 0.000000 0.091568 0.000000
# 6 0.000000 0.000000 0.000000 0.000000 0.000000 0.083835
#
#
# Mechanical properties :
#
#
# Convention : Reuss Voigt Hill
#
# Bulk Modulus (GPa) = 33.63998 48.58154 41.11076
# Shear Modulus (GPa) = 17.03072 22.68244 19.85658
#
# Velocity S-wave (km/s) = 2.92212 3.37230 3.15525
# Velocity P-wave (km/s) = 5.31519 6.28655 5.82117
#
# Compressibility (1/GPa) = 0.02972654
#
# Stress axis : x y z
#
# Youngs Moduli (GPa) = 38.05176 71.20961 68.60549
#
# Poissons Ratio (x) = 0.45469 -0.10398
# Poissons Ratio (y) = 0.24297 0.52941
# Poissons Ratio (z) = -0.05767 0.54950
#
# Static dielectric constant tensor:
#      x y z
#    x 3.342340 0.000000 0.000000 
#    y 0.000000 3.765160 0.000000 
#    z 0.000000 0.000000 3.767330 
# 
# 
# High freq. dielectric constant tensor:
#      x y z
#    x 1.752970 0.000000 0.000000 
#    y 0.000000 1.789390 0.000000 
#    z 0.000000 0.000000 1.785450 
# 
# From -- ./inp_files/12089.got.cif
#   From: 2010.03.12/outbox.cif.g09.slc.cpg/sg38_7_cif.got.tgz:12089.got - 2010.04.14 02:38:36.
