data_PCOD8180259
_publ_section_title
;
Structure prediction by ZEFSAII (Michael W. Deem and Ramdas Pophale) SiO2 
 PCOD8180259
Probable space group: A M M 2
;
_chemical_formula_sum "Si O2"
_cell_formula_units_Z 32
_cell_length_a 12.029728
_cell_length_b 7.730738
_cell_length_c 17.876916
_cell_angle_alpha 90.000000
_cell_angle_beta 90.000000
_cell_angle_gamma 90.000000
_cell_volume 1662.529508
_symmetry_space_group_name_H-M "A M M 2"
_symmetry_group_IT_number 38
_symmetry_cell_setting 'orthorhombic'
loop_
_space_group_symop_operation_xyz
x,y,z
-x,-y,z
-x,y,z
x,-y,z
x,1/2+y,1/2+z
-x,1/2-y,1/2+z
-x,1/2+y,1/2+z
x,1/2-y,1/2+z
loop_
_atom_site_type_symbol
_atom_site_label
_atom_site_fract_x
_atom_site_fract_y
_atom_site_fract_z
Si Si1 0.727215 0.793136 0.825470
Si Si2 0.500000 0.310526 0.564712
Si Si3 0.500000 0.795462 0.902453
Si Si4 0.299295 0.311237 0.158353
Si Si5 0.871314 0.000000 0.396348
Si Si6 0.127990 0.000000 0.572471
O O1 0.609578 0.733209 0.859236
O O2 0.728857 0.732112 0.738946
O O3 0.820890 0.678883 0.865402
O O4 0.751729 0.000000 0.835183
O O5 0.500000 0.500000 0.531834
O O6 0.500000 0.205402 0.485928
O O7 0.609937 0.295470 0.613832
O O8 0.500000 0.000000 0.902419
O O9 0.353926 0.500000 0.172217
O O10 0.186715 0.329465 0.108590
O O11 0.853302 0.000000 0.484783
O O12 0.000000 0.000000 0.374670
O O13 0.000000 0.000000 0.595802
#
# Coordination Sequence:
#
# PCOD8180259 Si02
#       6
#     8   4   4   8   4   4
#     4  10  21  40  61  88 120 158 195 246 296 350
#     4  11  20  31  55  86 120 151 186 237 294 355
#     4   9  19  34  56  87 120 153 192 240 295 358
#     4   9  20  36  59  81 113 155 193 234 291 349
#     4  11  24  39  61  91 119 153 206 248 290 354
#     4   9  20  39  61  85 113 153 202 248 288 340
#
# _framework density 19.247779000000001
#
# number of rings (size 3 to 8) (size 9 to 14) (size 15 to 20)
#    0.750    1.500    0.000    2.625    1.750    4.000 
#    2.250    0.000    0.000    1.500    0.000    0.000 
#    0.000    0.000    0.000    0.000    0.000    0.000 
#
# Total GULP energy -198238.031406 kJ/mol
# GULP energy per Si atom -12389.876963 kJ/mol
# Density = 1.920397 g / cm^3
# Si number density = 19.247779 Si / 1000 Ang^3
#
#
#
# Elastic Constant Matrix: (Units=GPa)
#
#
# Indices 1 2 3 4 5 6 
#
# 1 172.9893 44.5383 92.9108 0.0000 0.0000 0.0000
# 2 44.5383 59.5307 33.0039 0.0000 0.0000 0.0000
# 3 92.9108 33.0039 163.5684 0.0000 0.0000 0.0000
# 4 0.0000 0.0000 0.0000 -1.9354 0.0000 0.0000
# 5 0.0000 0.0000 0.0000 0.0000 18.9541 0.0000
# 6 0.0000 0.0000 0.0000 0.0000 0.0000 12.7434
#
#
#
# Elastic Compliance Matrix: (Units=1/GPa)
#
#
# Indices 1 2 3 4 5 6 
#
# 1 0.009291 -0.004532 -0.004363 0.000000 0.000000 0.000000
# 2 -0.004532 0.021125 -0.001688 0.000000 0.000000 0.000000
# 3 -0.004363 -0.001688 0.008933 0.000000 0.000000 0.000000
# 4 0.000000 0.000000 0.000000 -0.516699 0.000000 0.000000
# 5 0.000000 0.000000 0.000000 0.000000 0.052759 0.000000
# 6 0.000000 0.000000 0.000000 0.000000 0.000000 0.078472
#
#
# Mechanical properties :
#
#
# Convention : Reuss Voigt Hill
#
# Bulk Modulus (GPa) = 55.00032 81.88826 68.44429
# Shear Modulus (GPa) = -15.67924 20.99480 2.65778
#
# Velocity S-wave (km/s) = -2.85722 3.30626 1.17636
# Velocity P-wave (km/s) = 4.21331 7.56384 6.12224
#
# Compressibility (1/GPa) = 0.01818171
#
# Stress axis : x y z
#
# Youngs Moduli (GPa) = 107.63256 47.33803 111.95061
#
# Poissons Ratio (x) = 0.21454 0.48844
# Poissons Ratio (y) = 0.48781 0.18898
# Poissons Ratio (z) = 0.46960 0.07991
#
# Static dielectric constant tensor:
#      x y z
#    x 3.507170 0.000000 0.000000 
#    y 0.000000 3.216160 0.000000 
#    z 0.000000 0.000000 3.703520 
# 
# 
# High freq. dielectric constant tensor:
#      x y z
#    x 1.740220 0.000000 0.000000 
#    y 0.000000 1.724190 0.000000 
#    z 0.000000 0.000000 1.772170 
# 
# From -- ./inp_files/17429.got.cif
#   From: 2010.03.12/outbox.cif.g09.slc.cpg/sg38_9_cif.got.tgz:17429.got - 2010.04.14 02:38:36.
