data_PCOD8180800
_publ_section_title
;
Structure prediction by ZEFSAII (Michael W. Deem and Ramdas Pophale) SiO2 
 PCOD8180800
Probable space group: A B M 2
;
_chemical_formula_sum "Si O2"
_cell_formula_units_Z 56
_cell_length_a 17.993081
_cell_length_b 8.818409
_cell_length_c 18.965753
_cell_angle_alpha 90.000000
_cell_angle_beta 90.000000
_cell_angle_gamma 90.000000
_cell_volume 3009.302618
_symmetry_space_group_name_H-M "A B M 2"
_symmetry_group_IT_number 39
_symmetry_cell_setting 'orthorhombic'
loop_
_space_group_symop_operation_xyz
x,y,z
-x,-y,z
-x,1/2+y,z
x,1/2-y,z
x,1/2+y,1/2+z
-x,1/2-y,1/2+z
-x,y,1/2+z
x,-y,1/2+z
loop_
_atom_site_type_symbol
_atom_site_label
_atom_site_fract_x
_atom_site_fract_y
_atom_site_fract_z
Si Si1 0.078581 0.069545 0.051570
Si Si2 0.806084 0.083578 0.811202
Si Si3 0.312131 0.084990 0.432387
Si Si4 0.302973 0.926035 0.214924
Si Si5 0.072354 0.925061 0.392331
Si Si6 0.766496 0.073270 0.069010
Si Si7 0.581204 0.432396 0.816000
O O1 0.075172 0.250000 0.061145
O O2 0.154470 0.007237 0.087879
O O3 0.088444 0.013653 0.970890
O O4 0.000000 0.000000 0.081246
O O5 0.839331 0.250000 0.791860
O O6 0.748185 0.106522 0.872739
O O7 0.770289 0.007477 0.743467
O O8 0.865371 0.963649 0.836851
O O9 0.338292 0.250000 0.460262
O O10 0.275257 0.999221 0.499819
O O11 0.381350 0.007622 0.390080
O O12 0.305088 0.750000 0.236911
O O13 0.294429 0.946345 0.130929
O O14 0.375840 0.007261 0.246539
O O15 0.058856 0.750000 0.397180
O O16 0.000000 0.000000 0.359979
O O17 0.784921 0.250000 0.055550
O O18 0.500000 0.500000 0.812768
O O19 0.581197 0.250000 0.813736
#
# Coordination Sequence:
#
# PCOD8180800 Si02
#       7
#     8   8   8   8   8   8   8
#     4  10  20  32  50  77 108 144 184 230 277 325
#     4  10  18  32  53  74 102 138 176 222 267 318
#     4   8  16  31  54  79 102 133 173 214 262 314
#     4  10  21  35  55  81 111 145 180 219 267 326
#     4  10  19  30  47  74 104 136 178 227 278 325
#     4  10  19  35  56  79 110 146 183 225 272 324
#     4  10  20  37  60  84 110 142 179 221 269 326
#
# _framework density 18.608961000000001
#
# number of rings (size 3 to 8) (size 9 to 14) (size 15 to 20)
#    0.000    2.286    1.429    3.000    0.000    2.286 
#    0.000    2.143    0.000    5.143    0.000    0.000 
#    0.000    0.000    0.000    0.000    0.000    0.000 
#
# Total GULP energy -346878.279478 kJ/mol
# GULP energy per Si atom -12388.509981 kJ/mol
# Density = 1.856661 g / cm^3
# Si number density = 18.608961 Si / 1000 Ang^3
#
#
#
# Elastic Constant Matrix: (Units=GPa)
#
#
# Indices 1 2 3 4 5 6 
#
# 1 111.3657 29.8346 32.6116 0.0000 0.0000 0.0000
# 2 29.8346 75.8041 24.7291 0.0000 0.0000 0.0000
# 3 32.6116 24.7291 72.3917 0.0000 0.0000 0.0000
# 4 0.0000 0.0000 0.0000 22.5367 0.0000 0.0000
# 5 0.0000 0.0000 0.0000 0.0000 21.9098 0.0000
# 6 0.0000 0.0000 0.0000 0.0000 0.0000 29.4257
#
#
#
# Elastic Compliance Matrix: (Units=1/GPa)
#
#
# Indices 1 2 3 4 5 6 
#
# 1 0.010931 -0.003034 -0.003888 0.000000 0.000000 0.000000
# 2 -0.003034 0.015688 -0.003993 0.000000 0.000000 0.000000
# 3 -0.003888 -0.003993 0.016929 0.000000 0.000000 0.000000
# 4 0.000000 0.000000 0.000000 0.044372 0.000000 0.000000
# 5 0.000000 0.000000 0.000000 0.000000 0.045642 0.000000
# 6 0.000000 0.000000 0.000000 0.000000 0.000000 0.033984
#
#
# Mechanical properties :
#
#
# Convention : Reuss Voigt Hill
#
# Bulk Modulus (GPa) = 46.04069 48.21245 47.12657
# Shear Modulus (GPa) = 25.43058 26.26685 25.84872
#
# Velocity S-wave (km/s) = 3.70073 3.76109 3.73103
# Velocity P-wave (km/s) = 6.56166 6.69519 6.62876
#
# Compressibility (1/GPa) = 0.02171992
#
# Stress axis : x y z
#
# Youngs Moduli (GPa) = 91.48614 63.74158 59.07034
#
# Poissons Ratio (x) = 0.19337 0.22965
# Poissons Ratio (y) = 0.27754 0.23584
# Poissons Ratio (z) = 0.35568 0.25449
#
# Static dielectric constant tensor:
#      x y z
#    x 3.542590 0.000000 0.000000 
#    y 0.000000 3.426930 0.000000 
#    z 0.000000 0.000000 3.386630 
# 
# 
# High freq. dielectric constant tensor:
#      x y z
#    x 1.714280 0.000000 0.000000 
#    y 0.000000 1.718630 0.000000 
#    z 0.000000 0.000000 1.704490 
# 
# From -- ./inp_files/13058.got.cif
#   From: 2010.03.12/outbox.cif.g09.slc.cpg/sg39_7_cif.got.tgz:13058.got - 2010.04.14 02:53:20.
