data_PCOD8180094
_publ_section_title
;
Structure prediction by ZEFSAII (Michael W. Deem and Ramdas Pophale) SiO2 
 PCOD8180094
Probable space group: A M M 2
;
_chemical_formula_sum "Si O2"
_cell_formula_units_Z 56
_cell_length_a 8.854341
_cell_length_b 13.758013
_cell_length_c 24.041873
_cell_angle_alpha 90.000000
_cell_angle_beta 90.000000
_cell_angle_gamma 90.000000
_cell_volume 2928.736217
_symmetry_space_group_name_H-M "A M M 2"
_symmetry_group_IT_number 38
_symmetry_cell_setting 'orthorhombic'
loop_
_space_group_symop_operation_xyz
x,y,z
-x,-y,z
-x,y,z
x,-y,z
x,1/2+y,1/2+z
-x,1/2-y,1/2+z
-x,1/2+y,1/2+z
x,1/2-y,1/2+z
loop_
_atom_site_type_symbol
_atom_site_label
_atom_site_fract_x
_atom_site_fract_y
_atom_site_fract_z
Si Si1 0.835341 0.605767 0.065330
Si Si2 0.320964 0.612275 0.896708
Si Si3 0.833222 0.612650 0.784989
Si Si4 0.326262 0.748197 0.996815
Si Si5 0.831105 0.894382 0.695674
Si Si6 0.178785 0.388638 0.574306
Si Si7 0.677172 0.200108 0.183699
O O1 0.810724 0.500000 0.037963
O O2 0.835177 0.594798 0.130372
O O3 0.000000 0.647963 0.046216
O O4 0.697531 0.674058 0.047836
O O5 0.500000 0.617175 0.891794
O O6 0.272260 0.500000 0.910063
O O7 0.250110 0.653374 0.839704
O O8 0.263413 0.689749 0.943087
O O9 0.853803 0.500000 0.794454
O O10 0.732433 0.625361 0.730212
O O11 0.000000 0.660873 0.778214
O O12 0.500000 0.776202 0.989910
O O13 0.235990 0.845893 0.014649
O O14 0.718436 0.806198 0.709369
O O15 0.000000 0.871035 0.718175
O O16 0.776853 0.000000 0.720201
O O17 0.234481 0.500000 0.579378
O O18 0.242274 0.324626 0.625384
O O19 0.000000 0.382447 0.576631
O O20 0.500000 0.191028 0.174353
#
# Coordination Sequence:
#
# PCOD8180094 Si02
#       7
#     8   8   8   8   8   8   8
#     4   9  17  29  47  72 104 142 178 212 254 309
#     4   9  19  36  56  82 116 147 177 220 275 332
#     4  10  21  37  58  83 110 145 189 232 274 324
#     4  11  21  33  53  81 111 143 177 220 276 329
#     4   9  18  33  52  75 107 145 181 219 263 315
#     4  11  24  40  56  76 107 147 190 233 274 325
#     4  12  23  35  56  84 113 147 183 227 282 334
#
# _framework density 19.120875000000002
#
# number of rings (size 3 to 8) (size 9 to 14) (size 15 to 20)
#    0.000    1.857    1.429    4.286    0.000    6.000 
#    0.000    2.857    0.000    0.857    0.000    4.000 
#    0.000    0.000    0.000    0.000    0.000    0.000 
#
# Total GULP energy -346921.983546 kJ/mol
# GULP energy per Si atom -12390.070841 kJ/mol
# Density = 1.907736 g / cm^3
# Si number density = 19.120875 Si / 1000 Ang^3
#
#
#
# Elastic Constant Matrix: (Units=GPa)
#
#
# Indices 1 2 3 4 5 6 
#
# 1 75.0409 22.5401 27.4973 0.0000 0.0000 0.0000
# 2 22.5401 78.4659 22.8885 0.0000 0.0000 0.0000
# 3 27.4973 22.8885 80.1175 0.0000 0.0000 0.0000
# 4 0.0000 0.0000 0.0000 26.6899 0.0000 0.0000
# 5 0.0000 0.0000 0.0000 0.0000 25.6922 0.0000
# 6 0.0000 0.0000 0.0000 0.0000 0.0000 25.0455
#
#
#
# Elastic Compliance Matrix: (Units=1/GPa)
#
#
# Indices 1 2 3 4 5 6 
#
# 1 0.015973 -0.003261 -0.004551 0.000000 0.000000 0.000000
# 2 -0.003261 0.014569 -0.003043 0.000000 0.000000 0.000000
# 3 -0.004551 -0.003043 0.014913 0.000000 0.000000 0.000000
# 4 0.000000 0.000000 0.000000 0.037467 0.000000 0.000000
# 5 0.000000 0.000000 0.000000 0.000000 0.038922 0.000000
# 6 0.000000 0.000000 0.000000 0.000000 0.000000 0.039927
#
#
# Mechanical properties :
#
#
# Convention : Reuss Voigt Hill
#
# Bulk Modulus (GPa) = 42.11282 42.16401 42.13841
# Shear Modulus (GPa) = 26.12387 26.19872 26.16130
#
# Velocity S-wave (km/s) = 3.70029 3.70559 3.70294
# Velocity P-wave (km/s) = 6.35048 6.35670 6.35359
#
# Compressibility (1/GPa) = 0.02374574
#
# Stress axis : x y z
#
# Youngs Moduli (GPa) = 62.60555 68.64002 67.05661
#
# Poissons Ratio (x) = 0.22384 0.30514
# Poissons Ratio (y) = 0.20416 0.20404
# Poissons Ratio (z) = 0.28489 0.20886
#
# Static dielectric constant tensor:
#      x y z
#    x 3.582820 0.000000 0.000000 
#    y 0.000000 3.906570 0.000000 
#    z 0.000000 0.000000 3.327670 
# 
# 
# High freq. dielectric constant tensor:
#      x y z
#    x 1.741870 0.000000 0.000000 
#    y 0.000000 1.740700 0.000000 
#    z 0.000000 0.000000 1.713710 
# 
# From -- ./inp_files/19821.got.cif
#   From: 2010.03.12/outbox.cif.g09.slc.cpg/sg38_10_cif.got.tgz:19821.got - 2010.04.14 02:38:36.
