data_PCOD8180622
_publ_section_title
;
Structure prediction by ZEFSAII (Michael W. Deem and Ramdas Pophale) SiO2 
 PCOD8180622
Probable space group: A B M 2
;
_chemical_formula_sum "Si O2"
_cell_formula_units_Z 40
_cell_length_a 22.970612
_cell_length_b 16.406091
_cell_length_c 5.246184
_cell_angle_alpha 90.000000
_cell_angle_beta 90.000000
_cell_angle_gamma 90.000000
_cell_volume 1977.066152
_symmetry_space_group_name_H-M "A B M 2"
_symmetry_group_IT_number 39
_symmetry_cell_setting 'orthorhombic'
loop_
_space_group_symop_operation_xyz
x,y,z
-x,-y,z
-x,1/2+y,z
x,1/2-y,z
x,1/2+y,1/2+z
-x,1/2-y,1/2+z
-x,y,1/2+z
x,-y,1/2+z
loop_
_atom_site_type_symbol
_atom_site_label
_atom_site_fract_x
_atom_site_fract_y
_atom_site_fract_z
Si Si1 0.156532 0.052083 0.804860
Si Si2 0.975057 0.908799 0.802453
Si Si3 0.730516 0.346747 0.339999
Si Si4 0.664292 0.152926 0.840060
Si Si5 0.532795 0.652760 0.338424
O O1 0.094006 0.094058 0.832140
O O2 0.203860 0.122015 0.841747
O O3 0.163869 0.015034 0.524099
O O4 0.995275 0.863403 0.543327
O O5 0.000000 0.000000 0.771504
O O6 0.732570 0.250000 0.339701
O O7 0.697330 0.380091 0.589957
O O8 0.696670 0.380119 0.091765
O O9 0.663706 0.250000 0.839989
O O10 0.598570 0.119154 0.838605
O O11 0.532661 0.750000 0.338474
O O12 0.499945 0.619263 0.588294
#
# Coordination Sequence:
#
# PCOD8180622 Si02
#       5
#     8   8   8   8   8
#     4  12  21  33  55  81 101 128 175 220 247 296
#     4  10  16  30  49  75  97 124 158 206 255 305
#     4  10  21  35  50  71 106 145 170 198 255 318
#     4   9  17  31  47  66 101 144 170 197 256 317
#     4   9  15  23  40  67  95 125 166 212 249 289
#
# _framework density 20.231999999999999
#
# number of rings (size 3 to 8) (size 9 to 14) (size 15 to 20)
#    0.000    2.000    4.000    2.400    0.000    4.800 
#    0.000    0.000    0.000    1.200    0.000    0.000 
#    0.000   56.000    0.000    0.000    0.000    0.000 
#
# Total GULP energy -247976.761272 kJ/mol
# GULP energy per Si atom -12398.838064 kJ/mol
# Density = 2.018595 g / cm^3
# Si number density = 20.232000 Si / 1000 Ang^3
#
#
#
# Elastic Constant Matrix: (Units=GPa)
#
#
# Indices 1 2 3 4 5 6 
#
# 1 192.8348 19.0820 70.4152 0.0000 0.0000 0.0000
# 2 19.0820 6.4271 11.5958 0.0000 0.0000 0.0000
# 3 70.4152 11.5958 184.8278 0.0000 0.0000 0.0000
# 4 0.0000 0.0000 0.0000 3.2342 0.0000 0.0000
# 5 0.0000 0.0000 0.0000 0.0000 42.2206 0.0000
# 6 0.0000 0.0000 0.0000 0.0000 0.0000 20.6323
#
#
#
# Elastic Compliance Matrix: (Units=1/GPa)
#
#
# Indices 1 2 3 4 5 6 
#
# 1 0.007795 -0.020057 -0.001712 0.000000 0.000000 0.000000
# 2 -0.020057 0.227052 -0.006604 0.000000 0.000000 0.000000
# 3 -0.001712 -0.006604 0.006477 0.000000 0.000000 0.000000
# 4 0.000000 0.000000 0.000000 0.309200 0.000000 0.000000
# 5 0.000000 0.000000 0.000000 0.000000 0.023685 0.000000
# 6 0.000000 0.000000 0.000000 0.000000 0.000000 0.048468
#
#
# Mechanical properties :
#
#
# Convention : Reuss Voigt Hill
#
# Bulk Modulus (GPa) = 5.41768 65.14175 35.27972
# Shear Modulus (GPa) = 6.74811 32.08387 19.41599
#
# Velocity S-wave (km/s) = 1.82828 3.98653 3.10121
# Velocity P-wave (km/s) = 2.67215 7.31144 5.50443
#
# Compressibility (1/GPa) = 0.18458074
#
# Stress axis : x y z
#
# Youngs Moduli (GPa) = 128.27932 4.40427 154.39656
#
# Poissons Ratio (x) = 0.08833 0.26426
# Poissons Ratio (y) = 2.57284 1.01960
# Poissons Ratio (z) = 0.21956 0.02908
#
# Static dielectric constant tensor:
#      x y z
#    x 3.859940 0.000000 0.000000 
#    y 0.000000 2.827170 0.000000 
#    z 0.000000 0.000000 4.763010 
# 
# 
# High freq. dielectric constant tensor:
#      x y z
#    x 1.807960 0.000000 0.000000 
#    y 0.000000 1.710130 0.000000 
#    z 0.000000 0.000000 1.821890 
# 
# From -- ./inp_files/743.got.cif
#   From: 2010.03.12/outbox.cif.g09.slc.cpg/sg39_1_cif.got.tgz:743.got - 2010.04.14 02:53:20.
