data_PCOD8180296
_publ_section_title
;
Structure prediction by ZEFSAII (Michael W. Deem and Ramdas Pophale) SiO2 
 PCOD8180296
Probable space group: A M M 2
;
_chemical_formula_sum "Si O2"
_cell_formula_units_Z 48
_cell_length_a 9.792168
_cell_length_b 22.764397
_cell_length_c 11.463640
_cell_angle_alpha 90.000000
_cell_angle_beta 90.000000
_cell_angle_gamma 90.000000
_cell_volume 2555.392089
_symmetry_space_group_name_H-M "A M M 2"
_symmetry_group_IT_number 38
_symmetry_cell_setting 'orthorhombic'
loop_
_space_group_symop_operation_xyz
x,y,z
-x,-y,z
-x,y,z
x,-y,z
x,1/2+y,1/2+z
-x,1/2-y,1/2+z
-x,1/2+y,1/2+z
x,1/2-y,1/2+z
loop_
_atom_site_type_symbol
_atom_site_label
_atom_site_fract_x
_atom_site_fract_y
_atom_site_fract_z
Si Si1 0.156525 0.144564 0.159250
Si Si2 0.660352 0.931273 0.316846
Si Si3 0.154959 0.860896 0.890722
Si Si4 0.158780 0.224634 0.684182
Si Si5 0.651114 0.933850 0.760009
Si Si6 0.656917 0.353963 0.040039
O O1 0.254406 0.093209 0.206877
O O2 0.192148 0.207717 0.214922
O O3 0.000000 0.125911 0.184171
O O4 0.181616 0.156417 0.022978
O O5 0.500000 0.925454 0.289867
O O6 0.702672 0.889509 0.424878
O O7 0.697341 0.000000 0.339763
O O8 0.197875 0.808141 0.804185
O O9 0.245526 0.917544 0.862607
O O10 0.000000 0.879148 0.868105
O O11 0.246521 0.201461 0.572500
O O12 0.000000 0.216962 0.649746
O O13 0.500000 0.921919 0.809071
O O14 0.679163 0.899162 0.643177
O O15 0.673729 0.000000 0.722837
O O16 0.500000 0.332503 0.029561
#
# Coordination Sequence:
#
# PCOD8180296 Si02
#       6
#     8   8   8   8   8   8
#     4  10  22  37  56  79 107 145 184 225 273 328
#     4  10  22  39  57  80 113 151 188 227 274 326
#     4   9  19  35  51  75 106 136 173 219 270 320
#     4   9  19  35  57  81 107 139 178 224 276 330
#     4   9  17  31  53  78 103 135 174 215 262 315
#     4   9  18  34  56  82 109 139 177 225 273 319
#
# _framework density 18.783811
#
# number of rings (size 3 to 8) (size 9 to 14) (size 15 to 20)
#    0.000    2.667    0.000    0.500    2.333    5.333 
#    0.000    3.333    0.000    3.000    0.000    0.000 
#    0.000    0.000    0.000    0.000    0.000    0.000 
#
# Total GULP energy -297508.472976 kJ/mol
# GULP energy per Si atom -12396.186374 kJ/mol
# Density = 1.874106 g / cm^3
# Si number density = 18.783811 Si / 1000 Ang^3
#
#
#
# Elastic Constant Matrix: (Units=GPa)
#
#
# Indices 1 2 3 4 5 6 
#
# 1 67.5328 45.8847 38.4602 0.0000 0.0000 0.0000
# 2 45.8847 73.0941 36.0794 0.0000 0.0000 0.0000
# 3 38.4602 36.0794 64.4732 0.0000 0.0000 0.0000
# 4 0.0000 0.0000 0.0000 21.8453 0.0000 0.0000
# 5 0.0000 0.0000 0.0000 0.0000 32.0104 0.0000
# 6 0.0000 0.0000 0.0000 0.0000 0.0000 31.9077
#
#
#
# Elastic Compliance Matrix: (Units=1/GPa)
#
#
# Indices 1 2 3 4 5 6 
#
# 1 0.029966 -0.013799 -0.010153 0.000000 0.000000 0.000000
# 2 -0.013799 0.025257 -0.005902 0.000000 0.000000 0.000000
# 3 -0.010153 -0.005902 0.024870 0.000000 0.000000 0.000000
# 4 0.000000 0.000000 0.000000 0.045776 0.000000 0.000000
# 5 0.000000 0.000000 0.000000 0.000000 0.031240 0.000000
# 6 0.000000 0.000000 0.000000 0.000000 0.000000 0.031340
#
#
# Mechanical properties :
#
#
# Convention : Reuss Voigt Hill
#
# Bulk Modulus (GPa) = 49.06041 49.54985 49.30513
# Shear Modulus (GPa) = 19.61147 22.79775 21.20461
#
# Velocity S-wave (km/s) = 3.23470 3.48759 3.36352
# Velocity P-wave (km/s) = 6.33453 6.53100 6.43351
#
# Compressibility (1/GPa) = 0.02038303
#
# Stress axis : x y z
#
# Youngs Moduli (GPa) = 33.37137 39.59343 40.20919
#
# Poissons Ratio (x) = 0.54636 0.40826
# Poissons Ratio (y) = 0.46050 0.23732
# Poissons Ratio (z) = 0.33883 0.23368
#
# Static dielectric constant tensor:
#      x y z
#    x 3.533750 0.000000 0.000000 
#    y 0.000000 3.554300 0.000000 
#    z 0.000000 0.000000 3.449800 
# 
# 
# High freq. dielectric constant tensor:
#      x y z
#    x 1.726950 0.000000 0.000000 
#    y 0.000000 1.727630 0.000000 
#    z 0.000000 0.000000 1.723830 
# 
# From -- ./inp_files/8123.got.cif
#   From: 2010.03.12/outbox.cif.g09.slc.cpg/sg38_5_cif.got.tgz:8123.got - 2010.04.14 02:38:36.
