data_PCOD8180226
_publ_section_title
;
Structure prediction by ZEFSAII (Michael W. Deem and Ramdas Pophale) SiO2 
 PCOD8180226
Probable space group: A M M 2
;
_chemical_formula_sum "Si O2"
_cell_formula_units_Z 40
_cell_length_a 21.132713
_cell_length_b 10.031049
_cell_length_c 9.990048
_cell_angle_alpha 90.000000
_cell_angle_beta 90.000000
_cell_angle_gamma 90.000000
_cell_volume 2117.723138
_symmetry_space_group_name_H-M "A M M 2"
_symmetry_group_IT_number 38
_symmetry_cell_setting 'orthorhombic'
loop_
_space_group_symop_operation_xyz
x,y,z
-x,-y,z
-x,y,z
x,-y,z
x,1/2+y,1/2+z
-x,1/2-y,1/2+z
-x,1/2+y,1/2+z
x,1/2-y,1/2+z
loop_
_atom_site_type_symbol
_atom_site_label
_atom_site_fract_x
_atom_site_fract_y
_atom_site_fract_z
Si Si1 0.850893 0.747780 0.779630
Si Si2 0.222366 0.654752 0.035441
Si Si3 0.074105 0.000000 0.172055
Si Si4 0.368887 0.153042 0.541603
Si Si5 0.573810 0.653206 0.758173
Si Si6 0.073748 0.500000 0.358852
O O1 0.795499 0.772473 0.672853
O O2 0.895222 0.627227 0.739369
O O3 0.896702 0.872832 0.788142
O O4 0.817516 0.722659 0.919573
O O5 0.205111 0.500000 0.044186
O O6 0.295967 0.677132 0.006402
O O7 0.000000 0.000000 0.203190
O O8 0.088530 0.000000 0.015447
O O9 0.388139 0.249817 0.661228
O O10 0.409454 0.188925 0.410815
O O11 0.380945 0.000000 0.586187
O O12 0.500000 0.677431 0.735932
O O13 0.592745 0.500000 0.727142
O O14 0.000000 0.500000 0.328278
#
# Coordination Sequence:
#
# PCOD8180226 Si02
#       6
#     8   8   4   8   8   4
#     4  12  22  42  62  89 118 162 196 250 301 355
#     4  11  23  39  62  88 124 153 203 246 296 355
#     4  11  24  41  63  91 119 155 202 248 301 360
#     4  10  22  40  60  89 119 162 199 244 293 352
#     4  10  21  39  61  89 123 155 197 246 297 348
#     4  11  24  41  61  91 125 155 198 252 301 356
#
# _framework density 18.888210999999998
#
# number of rings (size 3 to 8) (size 9 to 14) (size 15 to 20)
#    0.000    1.200    4.000    2.400    0.000    2.000 
#    3.600    1.000    0.000    0.000    0.000    0.000 
#    0.000    0.000    0.000    0.000    0.000    0.000 
#
# Total GULP energy -248111.077836 kJ/mol
# GULP energy per Si atom -12405.553892 kJ/mol
# Density = 1.884522 g / cm^3
# Si number density = 18.888211 Si / 1000 Ang^3
#
#
#
# Elastic Constant Matrix: (Units=GPa)
#
#
# Indices 1 2 3 4 5 6 
#
# 1 73.6679 40.7160 24.5692 0.0000 0.0000 0.0000
# 2 40.7160 121.3469 41.2914 0.0000 0.0000 0.0000
# 3 24.5692 41.2914 76.7660 0.0000 0.0000 0.0000
# 4 0.0000 0.0000 0.0000 45.8891 0.0000 0.0000
# 5 0.0000 0.0000 0.0000 0.0000 -799.9337 0.0000
# 6 0.0000 0.0000 0.0000 0.0000 0.0000 24.5929
#
#
#
# Elastic Compliance Matrix: (Units=1/GPa)
#
#
# Indices 1 2 3 4 5 6 
#
# 1 0.017189 -0.004768 -0.002937 0.000000 0.000000 0.000000
# 2 -0.004768 0.011410 -0.004611 0.000000 0.000000 0.000000
# 3 -0.002937 -0.004611 0.016447 0.000000 0.000000 0.000000
# 4 0.000000 0.000000 0.000000 0.021792 0.000000 0.000000
# 5 0.000000 0.000000 0.000000 0.000000 -0.001250 0.000000
# 6 0.000000 0.000000 0.000000 0.000000 0.000000 0.040662
#
#
# Mechanical properties :
#
#
# Convention : Reuss Voigt Hill
#
# Bulk Modulus (GPa) = 48.98673 53.88158 51.43415
# Shear Modulus (GPa) = 36.31445 -134.87674 -49.28114
#
# Velocity S-wave (km/s) = 4.38950 -8.45949 -5.11347
# Velocity P-wave (km/s) = 7.18900 8.17488 2.75200
#
# Compressibility (1/GPa) = 0.02041369
#
# Stress axis : x y z
#
# Youngs Moduli (GPa) = 58.17577 87.64391 60.80241
#
# Poissons Ratio (x) = 0.41791 0.17856
# Poissons Ratio (y) = 0.27740 0.28036
# Poissons Ratio (z) = 0.17084 0.40413
#
# Static dielectric constant tensor:
#      x y z
#    x 4.761750 0.000000 0.000000 
#    y 0.000000 3.458570 0.000000 
#    z 0.000000 0.000000 3.451930 
# 
# 
# High freq. dielectric constant tensor:
#      x y z
#    x 1.747390 0.000000 0.000000 
#    y 0.000000 1.744360 0.000000 
#    z 0.000000 0.000000 1.741020 
# 
# From -- ./inp_files/6652.got.cif
#   From: 2010.03.12/outbox.cif.g09.slc.cpg/sg38_4_cif.got.tgz:6652.got - 2010.04.14 02:38:36.
