data_PCOD8180748
_publ_section_title
;
Structure prediction by ZEFSAII (Michael W. Deem and Ramdas Pophale) SiO2 
 PCOD8180748
Probable space group: A B M 2
;
_chemical_formula_sum "Si O2"
_cell_formula_units_Z 56
_cell_length_a 5.203167
_cell_length_b 15.716097
_cell_length_c 31.530406
_cell_angle_alpha 90.000000
_cell_angle_beta 90.000000
_cell_angle_gamma 90.000000
_cell_volume 2578.350939
_symmetry_space_group_name_H-M "A B M 2"
_symmetry_group_IT_number 39
_symmetry_cell_setting 'orthorhombic'
loop_
_space_group_symop_operation_xyz
x,y,z
-x,-y,z
-x,1/2+y,z
x,1/2-y,z
x,1/2+y,1/2+z
-x,1/2-y,1/2+z
-x,y,1/2+z
x,-y,1/2+z
loop_
_atom_site_type_symbol
_atom_site_label
_atom_site_fract_x
_atom_site_fract_y
_atom_site_fract_z
Si Si1 0.767125 0.905475 0.365190
Si Si2 0.801391 0.148692 0.771582
Si Si3 0.613938 0.346857 0.127414
Si Si4 0.297871 0.850504 0.221005
Si Si5 0.106456 0.594622 0.583256
Si Si6 0.732589 0.596995 0.901657
Si Si7 0.250018 0.054615 0.994593
O O1 0.804107 0.904107 0.314932
O O2 0.506121 0.856675 0.378448
O O3 0.005694 0.856607 0.387418
O O4 0.749002 0.000287 0.384321
O O5 0.810040 0.250000 0.780319
O O6 0.547667 0.120421 0.746659
O O7 0.043134 0.115777 0.744273
O O8 0.519867 0.250000 0.131597
O O9 0.687004 0.386707 0.173155
O O10 0.367671 0.397746 0.110098
O O11 0.870063 0.346820 0.098249
O O12 0.280674 0.750000 0.218242
O O13 0.179985 0.615745 0.534267
O O14 0.000000 0.500000 0.586854
O O15 0.685372 0.606161 0.951985
O O16 0.500000 0.000000 0.007903
O O17 0.000000 0.000000 0.982968
#
# Coordination Sequence:
#
# PCOD8180748 Si02
#       7
#     8   8   8   8   8   8   8
#     4  10  18  30  52  77 106 134 180 240 269 325
#     4  10  19  33  54  81 108 143 190 238 284 337
#     4  11  22  41  65  89 120 162 211 250 296 363
#     4   9  19  35  58  80 104 148 201 235 274 350
#     4  11  23  37  63  94 124 155 202 253 312 354
#     4  10  18  32  52  78 104 138 188 223 274 336
#     4  11  18  34  56  86 107 143 195 241 278 353
#
# _framework density 21.719307000000001
#
# number of rings (size 3 to 8) (size 9 to 14) (size 15 to 20)
#    0.000    1.714    2.857    4.286    0.000    2.286 
#    0.000    0.000   31.429    5.143    0.000    0.000 
#    0.000    0.000    0.000    0.000    0.000    0.000 
#
# Total GULP energy -347041.400886 kJ/mol
# GULP energy per Si atom -12394.335746 kJ/mol
# Density = 2.166987 g / cm^3
# Si number density = 21.719307 Si / 1000 Ang^3
#
#
#
# Elastic Constant Matrix: (Units=GPa)
#
#
# Indices 1 2 3 4 5 6 
#
# 1 213.2142 8.2106 77.2578 0.0000 0.0000 0.0000
# 2 8.2106 21.4033 23.8380 0.0000 0.0000 0.0000
# 3 77.2578 23.8380 196.8471 0.0000 0.0000 0.0000
# 4 0.0000 0.0000 0.0000 15.2170 0.0000 0.0000
# 5 0.0000 0.0000 0.0000 0.0000 46.3799 0.0000
# 6 0.0000 0.0000 0.0000 0.0000 0.0000 15.4889
#
#
#
# Elastic Compliance Matrix: (Units=1/GPa)
#
#
# Indices 1 2 3 4 5 6 
#
# 1 0.005470 0.000338 -0.002188 0.000000 0.000000 0.000000
# 2 0.000338 0.054027 -0.006675 0.000000 0.000000 0.000000
# 3 -0.002188 -0.006675 0.006747 0.000000 0.000000 0.000000
# 4 0.000000 0.000000 0.000000 0.065716 0.000000 0.000000
# 5 0.000000 0.000000 0.000000 0.000000 0.021561 0.000000
# 6 0.000000 0.000000 0.000000 0.000000 0.000000 0.064562
#
#
# Mechanical properties :
#
#
# Convention : Reuss Voigt Hill
#
# Bulk Modulus (GPa) = 20.32772 72.23083 46.27928
# Shear Modulus (GPa) = 19.87832 36.89438 28.38635
#
# Velocity S-wave (km/s) = 3.02857 4.12599 3.61912
# Velocity P-wave (km/s) = 4.64858 7.48512 6.23042
#
# Compressibility (1/GPa) = 0.04919391
#
# Stress axis : x y z
#
# Youngs Moduli (GPa) = 182.82151 18.50941 148.21189
#
# Poissons Ratio (x) = -0.00626 0.32425
# Poissons Ratio (y) = -0.06185 0.98936
# Poissons Ratio (z) = 0.39997 0.12356
#
# Static dielectric constant tensor:
#      x y z
#    x 26.259480 0.000000 0.000000 
#    y 0.000000 3.241170 0.000000 
#    z 0.000000 0.000000 4.127630 
# 
# 
# High freq. dielectric constant tensor:
#      x y z
#    x 1.890070 0.000000 0.000000 
#    y 0.000000 1.785920 0.000000 
#    z 0.000000 0.000000 1.868530 
# 
# From -- ./inp_files/17265.got.cif
#   From: 2010.03.12/outbox.cif.g09.slc.cpg/sg39_9_cif.got.tgz:17265.got - 2010.04.14 02:53:20.
