data_PCOD8180031
_publ_section_title
;
Structure prediction by ZEFSAII (Michael W. Deem and Ramdas Pophale) SiO2 
 PCOD8180031
Probable space group: A M M 2
;
_chemical_formula_sum "Si O2"
_cell_formula_units_Z 64
_cell_length_a 8.835567
_cell_length_b 14.469735
_cell_length_c 28.267954
_cell_angle_alpha 90.000000
_cell_angle_beta 90.000000
_cell_angle_gamma 90.000000
_cell_volume 3614.010233
_symmetry_space_group_name_H-M "A M M 2"
_symmetry_group_IT_number 38
_symmetry_cell_setting 'orthorhombic'
loop_
_space_group_symop_operation_xyz
x,y,z
-x,-y,z
-x,y,z
x,-y,z
x,1/2+y,1/2+z
-x,1/2-y,1/2+z
-x,1/2+y,1/2+z
x,1/2-y,1/2+z
loop_
_atom_site_type_symbol
_atom_site_label
_atom_site_fract_x
_atom_site_fract_y
_atom_site_fract_z
Si Si1 0.320710 0.899076 0.816330
Si Si2 0.178133 0.105006 0.187794
Si Si3 0.179287 0.600925 0.961180
Si Si4 0.321897 0.394970 0.589727
Si Si5 0.828222 0.892331 0.355356
Si Si6 0.177279 0.287388 0.505009
Si Si7 0.328214 0.107666 0.922161
Si Si8 0.322718 0.287377 0.772504
O O1 0.500000 0.904851 0.819883
O O2 0.264081 0.874823 0.869301
O O3 0.271959 0.819785 0.779430
O O4 0.257118 0.000000 0.800124
O O5 0.249817 0.138733 0.138734
O O6 0.231159 0.172963 0.228689
O O7 0.000000 0.111513 0.182963
O O8 0.229686 0.000000 0.199453
O O9 0.242880 0.500000 0.977387
O O10 0.227977 0.680213 0.998090
O O11 0.000000 0.595131 0.957605
O O12 0.235950 0.625187 0.908212
O O13 0.500000 0.388319 0.594689
O O14 0.270611 0.500000 0.578031
O O15 0.268979 0.327066 0.548793
O O16 0.715054 0.841297 0.320249
O O17 0.000000 0.854813 0.349128
O O18 0.825434 0.000000 0.342917
O O19 0.215016 0.341272 0.457249
O O20 0.000000 0.296319 0.515459
O O21 0.500000 0.145168 0.928396
O O22 0.325394 0.000000 0.934608
O O23 0.500000 0.296270 0.762079
#
# Coordination Sequence:
#
# PCOD8180031 Si02
#       8
#     8   8   8   8   8   8   8   8
#     4   8  16  31  48  67  95 132 170 203 236 276
#     4  10  21  37  55  74  98 126 154 189 236 289
#     4   8  16  31  48  67  95 132 170 203 236 276
#     4  10  21  37  55  74  98 126 154 189 236 289
#     4   9  17  30  47  67  96 134 169 199 235 281
#     4  11  20  29  48  75  99 126 161 201 242 284
#     4   9  17  30  47  67  96 134 169 199 235 281
#     4  11  20  29  48  75  99 126 161 201 242 284
#
# _framework density 17.708859
#
# number of rings (size 3 to 8) (size 9 to 14) (size 15 to 20)
#    0.000    2.500    0.000    4.500    0.000    5.000 
#    0.000    1.250    0.000    6.750    0.000    0.000 
#    0.000    0.000    0.000    0.000    0.000    0.000 
#
# Total GULP energy -396722.579337 kJ/mol
# GULP energy per Si atom -12397.580604 kJ/mol
# Density = 1.766855 g / cm^3
# Si number density = 17.708859 Si / 1000 Ang^3
#
#
#
# Elastic Constant Matrix: (Units=GPa)
#
#
# Indices 1 2 3 4 5 6 
#
# 1 43.4698 26.5266 25.4186 0.0000 0.0000 0.0000
# 2 26.5266 103.1883 75.5184 0.0000 0.0000 0.0000
# 3 25.4186 75.5184 104.9332 0.0000 0.0000 0.0000
# 4 0.0000 0.0000 0.0000 18.6430 0.0000 0.0000
# 5 0.0000 0.0000 0.0000 0.0000 30.1328 0.0000
# 6 0.0000 0.0000 0.0000 0.0000 0.0000 19.8639
#
#
#
# Elastic Compliance Matrix: (Units=1/GPa)
#
#
# Indices 1 2 3 4 5 6 
#
# 1 0.027836 -0.004693 -0.003366 0.000000 0.000000 0.000000
# 2 -0.004693 0.021267 -0.014168 0.000000 0.000000 0.000000
# 3 -0.003366 -0.014168 0.020542 0.000000 0.000000 0.000000
# 4 0.000000 0.000000 0.000000 0.053640 0.000000 0.000000
# 5 0.000000 0.000000 0.000000 0.000000 0.033186 0.000000
# 6 0.000000 0.000000 0.000000 0.000000 0.000000 0.050343
#
#
# Mechanical properties :
#
#
# Convention : Reuss Voigt Hill
#
# Bulk Modulus (GPa) = 39.69658 56.27984 47.98821
# Shear Modulus (GPa) = 19.25567 22.00309 20.62938
#
# Velocity S-wave (km/s) = 3.30107 3.52872 3.41679
# Velocity P-wave (km/s) = 6.08230 6.96076 6.53630
#
# Compressibility (1/GPa) = 0.02519109
#
# Stress axis : x y z
#
# Youngs Moduli (GPa) = 35.92447 47.02229 48.68102
#
# Poissons Ratio (x) = 0.22066 0.16385
# Poissons Ratio (y) = 0.16858 0.68973
# Poissons Ratio (z) = 0.12091 0.66623
#
# Static dielectric constant tensor:
#      x y z
#    x 3.112750 0.000000 0.000000 
#    y 0.000000 3.676600 0.000000 
#    z 0.000000 0.000000 3.219550 
# 
# 
# High freq. dielectric constant tensor:
#      x y z
#    x 1.670240 0.000000 0.000000 
#    y 0.000000 1.685600 0.000000 
#    z 0.000000 0.000000 1.668750 
# 
# From -- ./inp_files/22209.got.cif
#   From: 2010.03.12/outbox.cif.g09.slc.cpg/sg38_12_cif.got.tgz:22209.got - 2010.04.14 02:38:36.
