data_PCOD8180135
_publ_section_title
;
Structure prediction by ZEFSAII (Michael W. Deem and Ramdas Pophale) SiO2 
 PCOD8180135
Probable space group: A M M 2
;
_chemical_formula_sum "Si O2"
_cell_formula_units_Z 40
_cell_length_a 13.320419
_cell_length_b 19.764673
_cell_length_c 7.759965
_cell_angle_alpha 90.000000
_cell_angle_beta 90.000000
_cell_angle_gamma 90.000000
_cell_volume 2042.994897
_symmetry_space_group_name_H-M "A M M 2"
_symmetry_group_IT_number 38
_symmetry_cell_setting 'orthorhombic'
loop_
_space_group_symop_operation_xyz
x,y,z
-x,-y,z
-x,y,z
x,-y,z
x,1/2+y,1/2+z
-x,1/2-y,1/2+z
-x,1/2+y,1/2+z
x,1/2-y,1/2+z
loop_
_atom_site_type_symbol
_atom_site_label
_atom_site_fract_x
_atom_site_fract_y
_atom_site_fract_z
Si Si1 0.710367 0.576424 0.393710
Si Si2 0.612004 0.854254 0.188407
Si Si3 0.113225 0.331322 0.920808
Si Si4 0.808646 0.808165 0.066386
Si Si5 0.292739 0.077937 0.506714
O O1 0.751722 0.500000 0.413154
O O2 0.623315 0.589385 0.536454
O O3 0.800967 0.630133 0.428234
O O4 0.666618 0.587331 0.201412
O O5 0.500000 0.823243 0.184193
O O6 0.696902 0.796576 0.153168
O O7 0.630366 0.886735 0.375896
O O8 0.114424 0.331987 0.713481
O O9 0.000000 0.342054 0.987114
O O10 0.154824 0.258781 0.976430
O O11 0.181151 0.390945 0.996124
O O12 0.283748 0.000000 0.454644
#
# Coordination Sequence:
#
# PCOD8180135 Si02
#       5
#     8   8   8   8   8
#     4   9  19  36  58  83 120 157 192 243 296 350
#     4   9  20  37  59  87 120 156 195 239 291 354
#     4  11  21  37  62  85 116 159 201 249 304 363
#     4   9  21  36  57  86 118 152 200 250 295 353
#     4  10  21  37  60  89 122 155 194 250 299 353
#
# _framework density 19.579097999999998
#
# number of rings (size 3 to 8) (size 9 to 14) (size 15 to 20)
#    1.200    1.200    0.000    2.400    0.000    2.800 
#    0.000    7.000    0.000    4.200    0.000    0.000 
#    0.000    0.000    0.000    0.000    0.000    0.000 
#
# Total GULP energy -247801.520152 kJ/mol
# GULP energy per Si atom -12390.076008 kJ/mol
# Density = 1.953454 g / cm^3
# Si number density = 19.579098 Si / 1000 Ang^3
#
#
#
# Elastic Constant Matrix: (Units=GPa)
#
#
# Indices 1 2 3 4 5 6 
#
# 1 109.6914 11.8015 14.5908 0.0000 0.0000 0.0000
# 2 11.8015 11.0957 -2.2017 0.0000 0.0000 0.0000
# 3 14.5908 -2.2017 111.0843 0.0000 0.0000 0.0000
# 4 0.0000 0.0000 0.0000 28.5578 0.0000 0.0000
# 5 0.0000 0.0000 0.0000 0.0000 13.2098 0.0000
# 6 0.0000 0.0000 0.0000 0.0000 0.0000 14.3643
#
#
#
# Elastic Compliance Matrix: (Units=1/GPa)
#
#
# Indices 1 2 3 4 5 6 
#
# 1 0.010577 -0.011571 -0.001619 0.000000 0.000000 0.000000
# 2 -0.011571 0.103139 0.003564 0.000000 0.000000 0.000000
# 3 -0.001619 0.003564 0.009285 0.000000 0.000000 0.000000
# 4 0.000000 0.000000 0.000000 0.035017 0.000000 0.000000
# 5 0.000000 0.000000 0.000000 0.000000 0.075702 0.000000
# 6 0.000000 0.000000 0.000000 0.000000 0.000000 0.069617
#
#
# Mechanical properties :
#
#
# Convention : Reuss Voigt Hill
#
# Bulk Modulus (GPa) = 9.63850 31.13917 20.38884
# Shear Modulus (GPa) = 13.99893 25.07175 19.53534
#
# Velocity S-wave (km/s) = 2.67684 3.58234 3.16217
# Velocity P-wave (km/s) = 3.80624 5.74889 4.87530
#
# Compressibility (1/GPa) = 0.10375056
#
# Stress axis : x y z
#
# Youngs Moduli (GPa) = 94.54807 9.69568 107.69587
#
# Poissons Ratio (x) = 0.11218 0.17431
# Poissons Ratio (y) = 1.09397 -0.38383
# Poissons Ratio (z) = 0.15303 -0.03456
#
# Static dielectric constant tensor:
#      x y z
#    x 3.253670 0.000000 0.000000 
#    y 0.000000 3.380120 0.000000 
#    z 0.000000 0.000000 3.779350 
# 
# 
# High freq. dielectric constant tensor:
#      x y z
#    x 1.730480 0.000000 0.000000 
#    y 0.000000 1.748870 0.000000 
#    z 0.000000 0.000000 1.781760 
# 
# From -- ./inp_files/5554.got.cif
#   From: 2010.03.12/outbox.cif.g09.slc.cpg/sg38_3_cif.got.tgz:5554.got - 2010.04.14 02:38:36.
