data_PCOD8180406
_publ_section_title
;
Structure prediction by ZEFSAII (Michael W. Deem and Ramdas Pophale) SiO2 
 PCOD8180406
Probable space group: A M M 2
;
_chemical_formula_sum "Si O2"
_cell_formula_units_Z 64
_cell_length_a 13.818775
_cell_length_b 9.440776
_cell_length_c 25.353062
_cell_angle_alpha 90.000000
_cell_angle_beta 90.000000
_cell_angle_gamma 90.000000
_cell_volume 3307.559438
_symmetry_space_group_name_H-M "A M M 2"
_symmetry_group_IT_number 38
_symmetry_cell_setting 'orthorhombic'
loop_
_space_group_symop_operation_xyz
x,y,z
-x,-y,z
-x,y,z
x,-y,z
x,1/2+y,1/2+z
-x,1/2-y,1/2+z
-x,1/2+y,1/2+z
x,1/2-y,1/2+z
loop_
_atom_site_type_symbol
_atom_site_label
_atom_site_fract_x
_atom_site_fract_y
_atom_site_fract_z
Si Si1 0.284329 0.165371 0.539030
Si Si2 0.115015 0.344394 0.685255
Si Si3 0.704772 0.835808 0.838313
Si Si4 0.611547 0.336136 0.930501
Si Si5 0.107857 0.337786 0.281686
Si Si6 0.385481 0.658317 0.746809
Si Si7 0.613850 0.838986 0.128284
Si Si8 0.889333 0.666243 0.567045
O O1 0.352068 0.194521 0.489105
O O2 0.337262 0.227745 0.589733
O O3 0.181080 0.243186 0.529401
O O4 0.265493 0.000000 0.547755
O O5 0.156140 0.500000 0.698274
O O6 0.152971 0.241570 0.730967
O O7 0.147288 0.298822 0.626591
O O8 0.000000 0.346883 0.684902
O O9 0.674544 0.755993 0.890830
O O10 0.820759 0.815654 0.831213
O O11 0.652704 0.774877 0.786927
O O12 0.676527 0.000000 0.843527
O O13 0.500000 0.289867 0.926493
O O14 0.624234 0.500000 0.915271
O O15 0.103122 0.500000 0.264643
O O16 0.000000 0.282407 0.296931
O O17 0.500000 0.669879 0.745086
O O18 0.355526 0.500000 0.765554
O O19 0.344997 0.686329 0.687598
O O20 0.500000 0.812381 0.127319
O O21 0.637792 0.000000 0.110401
O O22 0.879025 0.500000 0.555045
O O23 0.000000 0.714684 0.557807
#
# Coordination Sequence:
#
# PCOD8180406 Si02
#       8
#     8   8   8   8   8   8   8   8
#     4  11  23  37  58  86 115 147 189 240 293 343
#     4   8  15  29  50  76 106 144 189 229 262 308
#     4  11  23  36  56  86 113 141 187 239 286 333
#     4  10  23  44  64  81 107 146 189 233 287 349
#     4   9  19  35  52  75 113 152 183 222 275 332
#     4   9  19  36  56  79 111 150 185 221 276 345
#     4   9  19  36  57  82 113 150 190 230 280 348
#     4   9  19  36  56  81 116 155 195 236 278 332
#
# _framework density 19.349615
#
# number of rings (size 3 to 8) (size 9 to 14) (size 15 to 20)
#    0.000    2.500    0.000    3.000    1.750    6.000 
#    0.000    3.125    0.000    2.250    0.000    0.000 
#    0.000    0.000    0.000    0.000    0.000    0.000 
#
# Total GULP energy -396756.824790 kJ/mol
# GULP energy per Si atom -12398.650775 kJ/mol
# Density = 1.930557 g / cm^3
# Si number density = 19.349615 Si / 1000 Ang^3
#
#
#
# Elastic Constant Matrix: (Units=GPa)
#
#
# Indices 1 2 3 4 5 6 
#
# 1 65.9933 51.1815 39.6620 0.0000 0.0000 0.0000
# 2 51.1815 91.4238 52.4865 0.0000 0.0000 0.0000
# 3 39.6620 52.4865 79.6301 0.0000 0.0000 0.0000
# 4 0.0000 0.0000 0.0000 35.1137 0.0000 0.0000
# 5 0.0000 0.0000 0.0000 0.0000 30.7741 0.0000
# 6 0.0000 0.0000 0.0000 0.0000 0.0000 28.7644
#
#
#
# Elastic Compliance Matrix: (Units=1/GPa)
#
#
# Indices 1 2 3 4 5 6 
#
# 1 0.028404 -0.012515 -0.005898 0.000000 0.000000 0.000000
# 2 -0.012515 0.023111 -0.009000 0.000000 0.000000 0.000000
# 3 -0.005898 -0.009000 0.021428 0.000000 0.000000 0.000000
# 4 0.000000 0.000000 0.000000 0.028479 0.000000 0.000000
# 5 0.000000 0.000000 0.000000 0.000000 0.032495 0.000000
# 6 0.000000 0.000000 0.000000 0.000000 0.000000 0.034765
#
#
# Mechanical properties :
#
#
# Convention : Reuss Voigt Hill
#
# Bulk Modulus (GPa) = 55.19766 58.18970 56.69368
# Shear Modulus (GPa) = 21.78197 25.17826 23.48011
#
# Velocity S-wave (km/s) = 3.35879 3.61117 3.48726
# Velocity P-wave (km/s) = 6.60533 6.89387 6.75114
#
# Compressibility (1/GPa) = 0.01811671
#
# Stress axis : x y z
#
# Youngs Moduli (GPa) = 35.20605 43.26916 46.66812
#
# Poissons Ratio (x) = 0.54152 0.27527
# Poissons Ratio (y) = 0.44061 0.42000
# Poissons Ratio (z) = 0.20766 0.38941
#
# Static dielectric constant tensor:
#      x y z
#    x 3.739590 0.000000 0.000000 
#    y 0.000000 3.574060 0.000000 
#    z 0.000000 0.000000 3.399790 
# 
# 
# High freq. dielectric constant tensor:
#      x y z
#    x 1.770870 0.000000 0.000000 
#    y 0.000000 1.747890 0.000000 
#    z 0.000000 0.000000 1.732640 
# 
# From -- ./inp_files/22952.got.cif
#   From: 2010.03.12/outbox.cif.g09.slc.cpg/sg38_12_cif.got.tgz:22952.got - 2010.04.14 02:38:36.
