data_PCOD8180310
_publ_section_title
;
Structure prediction by ZEFSAII (Michael W. Deem and Ramdas Pophale) SiO2 
 PCOD8180310
Probable space group: A M M 2
;
_chemical_formula_sum "Si O2"
_cell_formula_units_Z 48
_cell_length_a 10.315194
_cell_length_b 8.728985
_cell_length_c 28.172954
_cell_angle_alpha 90.000000
_cell_angle_beta 90.000000
_cell_angle_gamma 90.000000
_cell_volume 2536.725845
_symmetry_space_group_name_H-M "A M M 2"
_symmetry_group_IT_number 38
_symmetry_cell_setting 'orthorhombic'
loop_
_space_group_symop_operation_xyz
x,y,z
-x,-y,z
-x,y,z
x,-y,z
x,1/2+y,1/2+z
-x,1/2-y,1/2+z
-x,1/2+y,1/2+z
x,1/2-y,1/2+z
loop_
_atom_site_type_symbol
_atom_site_label
_atom_site_fract_x
_atom_site_fract_y
_atom_site_fract_z
Si Si1 0.500000 0.819844 0.017780
Si Si2 0.249650 0.818506 0.469242
Si Si3 0.243484 0.822812 0.675970
Si Si4 0.348575 0.321284 0.766650
Si Si5 0.500000 0.322921 0.117561
Si Si6 0.000000 0.319697 0.625097
Si Si7 0.000000 0.818582 0.017768
Si Si8 0.643101 0.818904 0.371493
O O1 0.500000 0.792084 0.073794
O O2 0.500000 0.000000 0.007061
O O3 0.625606 0.740277 0.996622
O O4 0.124616 0.740059 0.490397
O O5 0.260179 0.769578 0.413702
O O6 0.239258 0.000000 0.475461
O O7 0.260495 0.773489 0.730476
O O8 0.374790 0.783952 0.648497
O O9 0.127361 0.732006 0.652307
O O10 0.208103 0.000000 0.673995
O O11 0.500000 0.283993 0.759170
O O12 0.321494 0.500000 0.758654
O O13 0.305696 0.267302 0.819669
O O14 0.500000 0.500000 0.100813
O O15 0.000000 0.500000 0.622770
O O16 0.000000 0.253163 0.571453
O O17 0.000000 0.000000 0.017728
O O18 0.500000 0.748072 0.381279
O O19 0.627819 0.000000 0.370759
#
# Coordination Sequence:
#
# PCOD8180310 Si02
#       8
#     4   8   8   8   4   4   4   8
#     4  12  24  36  55  86 119 149 190 247 299 340
#     4  11  21  38  63  87 115 155 200 239 285 348
#     4  11  22  38  59  86 117 148 189 241 293 345
#     4   9  17  32  58  88 118 153 192 234 282 338
#     4  10  22  38  57  82 113 149 192 239 287 350
#     4  11  25  43  60  79 110 157 200 237 288 351
#     4  11  25  43  60  85 120 153 194 247 300 351
#     4   8  15  31  57  88 117 149 194 238 274 332
#
# _framework density 18.922028999999998
#
# number of rings (size 3 to 8) (size 9 to 14) (size 15 to 20)
#    0.000    1.833    1.667    4.250    0.000    5.333 
#    0.000    2.500    0.000    2.000    0.000    0.000 
#    0.000    0.000    0.000    0.000    0.000    0.000 
#
# Total GULP energy -297597.043830 kJ/mol
# GULP energy per Si atom -12399.876826 kJ/mol
# Density = 1.887896 g / cm^3
# Si number density = 18.922029 Si / 1000 Ang^3
#
#
#
# Elastic Constant Matrix: (Units=GPa)
#
#
# Indices 1 2 3 4 5 6 
#
# 1 128.6112 30.9830 69.2809 0.0000 0.0000 0.0000
# 2 30.9830 53.7926 37.4656 0.0000 0.0000 0.0000
# 3 69.2809 37.4656 167.2260 0.0000 0.0000 0.0000
# 4 0.0000 0.0000 0.0000 29.5051 0.0000 0.0000
# 5 0.0000 0.0000 0.0000 0.0000 27.1459 0.0000
# 6 0.0000 0.0000 0.0000 0.0000 0.0000 29.5222
#
#
#
# Elastic Compliance Matrix: (Units=1/GPa)
#
#
# Indices 1 2 3 4 5 6 
#
# 1 0.010566 -0.003598 -0.003571 0.000000 0.000000 0.000000
# 2 -0.003598 0.023253 -0.003719 0.000000 0.000000 0.000000
# 3 -0.003571 -0.003719 0.008293 0.000000 0.000000 0.000000
# 4 0.000000 0.000000 0.000000 0.033892 0.000000 0.000000
# 5 0.000000 0.000000 0.000000 0.000000 0.036838 0.000000
# 6 0.000000 0.000000 0.000000 0.000000 0.000000 0.033873
#
#
# Mechanical properties :
#
#
# Convention : Reuss Voigt Hill
#
# Bulk Modulus (GPa) = 49.17780 69.45431 59.31606
# Shear Modulus (GPa) = 28.52752 31.36132 29.94442
#
# Velocity S-wave (km/s) = 3.88704 4.07553 3.98240
# Velocity P-wave (km/s) = 6.79644 7.67671 7.24994
#
# Compressibility (1/GPa) = 0.02033438
#
# Stress axis : x y z
#
# Youngs Moduli (GPa) = 94.64292 43.00609 120.58889
#
# Poissons Ratio (x) = 0.15475 0.43065
# Poissons Ratio (y) = 0.34056 0.44844
# Poissons Ratio (z) = 0.33799 0.15993
#
# Static dielectric constant tensor:
#      x y z
#    x 3.185170 0.000000 0.000000 
#    y 0.000000 3.340890 0.000000 
#    z 0.000000 0.000000 3.897700 
# 
# 
# High freq. dielectric constant tensor:
#      x y z
#    x 1.723350 0.000000 0.000000 
#    y 0.000000 1.724720 0.000000 
#    z 0.000000 0.000000 1.755430 
# 
# From -- ./inp_files/24489.got.cif
#   From: 2010.03.12/outbox.cif.g09.slc.cpg/sg38_13_cif.got.tgz:24489.got - 2010.04.14 02:38:36.
