data_PCOD8180968
_publ_section_title
;
Structure prediction by ZEFSAII (Michael W. Deem and Ramdas Pophale) SiO2 
 PCOD8180968
Probable space group: A B M 2
;
_chemical_formula_sum "Si O2"
_cell_formula_units_Z 48
_cell_length_a 9.656700
_cell_length_b 8.744762
_cell_length_c 31.337552
_cell_angle_alpha 90.000000
_cell_angle_beta 90.000000
_cell_angle_gamma 90.000000
_cell_volume 2646.316601
_symmetry_space_group_name_H-M "A B M 2"
_symmetry_group_IT_number 39
_symmetry_cell_setting 'orthorhombic'
loop_
_space_group_symop_operation_xyz
x,y,z
-x,-y,z
-x,1/2+y,z
x,1/2-y,z
x,1/2+y,1/2+z
-x,1/2-y,1/2+z
-x,y,1/2+z
x,-y,1/2+z
loop_
_atom_site_type_symbol
_atom_site_label
_atom_site_fract_x
_atom_site_fract_y
_atom_site_fract_z
Si Si1 0.351232 0.073395 0.102910
Si Si2 0.849611 0.429023 0.851256
Si Si3 0.652542 0.431083 0.019080
Si Si4 0.847242 0.930662 0.766972
Si Si5 0.150035 0.428674 0.444926
Si Si6 0.651628 0.928129 0.197325
O O1 0.364623 0.250000 0.090469
O O2 0.282749 0.052275 0.149594
O O3 0.500000 0.000000 0.107078
O O4 0.275100 0.986965 0.063603
O O5 0.857523 0.250000 0.841372
O O6 0.774168 0.511551 0.811271
O O7 0.783070 0.462114 0.897876
O O8 0.000000 0.500000 0.853600
O O9 0.500000 0.500000 0.014521
O O10 0.643142 0.250000 0.018394
O O11 0.744739 0.494570 0.980086
O O12 0.857944 0.750000 0.767152
O O13 0.754664 0.983944 0.727970
O O14 0.000000 0.000000 0.762150
O O15 0.128944 0.250000 0.451240
O O16 0.000000 0.500000 0.451247
O O17 0.641806 0.750000 0.209560
O O18 0.500000 0.000000 0.201300
#
# Coordination Sequence:
#
# PCOD8180968 Si02
#       6
#     8   8   8   8   8   8
#     4   9  17  30  50  73  97 129 166 201 241 292
#     4   9  16  30  50  71  97 129 166 205 245 294
#     4  10  19  32  50  74 101 130 165 203 244 290
#     4  11  21  34  53  77 103 133 169 208 252 299
#     4   9  19  33  51  74  99 129 165 205 247 293
#     4  10  20  35  54  77 103 132 168 208 251 300
#
# _framework density 18.13842
#
# number of rings (size 3 to 8) (size 9 to 14) (size 15 to 20)
#    0.000    2.333    0.000    5.500    0.000    4.000 
#    0.000    1.667    0.000    4.000    0.000    0.000 
#    0.000    0.000    0.000    0.000    0.000    0.000 
#
# Total GULP energy -297366.617480 kJ/mol
# GULP energy per Si atom -12390.275728 kJ/mol
# Density = 1.809714 g / cm^3
# Si number density = 18.138420 Si / 1000 Ang^3
#
#
#
# Elastic Constant Matrix: (Units=GPa)
#
#
# Indices 1 2 3 4 5 6 
#
# 1 55.8578 33.3483 58.7090 0.0000 0.0000 0.0000
# 2 33.3483 118.4570 68.3212 0.0000 0.0000 0.0000
# 3 58.7090 68.3212 178.7924 0.0000 0.0000 0.0000
# 4 0.0000 0.0000 0.0000 24.2085 0.0000 0.0000
# 5 0.0000 0.0000 0.0000 0.0000 29.7130 0.0000
# 6 0.0000 0.0000 0.0000 0.0000 0.0000 24.1217
#
#
#
# Elastic Compliance Matrix: (Units=1/GPa)
#
#
# Indices 1 2 3 4 5 6 
#
# 1 0.028337 -0.003349 -0.008025 0.000000 0.000000 0.000000
# 2 -0.003349 0.011224 -0.003189 0.000000 0.000000 0.000000
# 3 -0.008025 -0.003189 0.009447 0.000000 0.000000 0.000000
# 4 0.000000 0.000000 0.000000 0.041308 0.000000 0.000000
# 5 0.000000 0.000000 0.000000 0.000000 0.033655 0.000000
# 6 0.000000 0.000000 0.000000 0.000000 0.000000 0.041457
#
#
# Mechanical properties :
#
#
# Convention : Reuss Voigt Hill
#
# Bulk Modulus (GPa) = 50.29890 74.87379 62.58634
# Shear Modulus (GPa) = 24.85323 28.45721 26.65522
#
# Velocity S-wave (km/s) = 3.70563 3.96522 3.83762
# Velocity P-wave (km/s) = 6.78968 7.89511 7.36317
#
# Compressibility (1/GPa) = 0.01988115
#
# Stress axis : x y z
#
# Youngs Moduli (GPa) = 35.29001 89.09330 105.85419
#
# Poissons Ratio (x) = 0.29836 0.84948
# Poissons Ratio (y) = 0.11818 0.33761
# Poissons Ratio (z) = 0.28320 0.28415
#
# Static dielectric constant tensor:
#      x y z
#    x 2.985040 0.000000 0.000000 
#    y 0.000000 3.606690 0.000000 
#    z 0.000000 0.000000 4.601090 
# 
# 
# High freq. dielectric constant tensor:
#      x y z
#    x 1.648080 0.000000 0.000000 
#    y 0.000000 1.719430 0.000000 
#    z 0.000000 0.000000 1.732750 
# 
# From -- ./inp_files/16898.got.cif
#   From: 2010.03.12/outbox.cif.g09.slc.cpg/sg39_9_cif.got.tgz:16898.got - 2010.04.14 02:53:20.
