data_PCOD8180064
_publ_section_title
;
Structure prediction by ZEFSAII (Michael W. Deem and Ramdas Pophale) SiO2 
 PCOD8180064
Probable space group: A M M 2
;
_chemical_formula_sum "Si O2"
_cell_formula_units_Z 48
_cell_length_a 9.168091
_cell_length_b 18.569051
_cell_length_c 15.163896
_cell_angle_alpha 90.000000
_cell_angle_beta 90.000000
_cell_angle_gamma 90.000000
_cell_volume 2581.543346
_symmetry_space_group_name_H-M "A M M 2"
_symmetry_group_IT_number 38
_symmetry_cell_setting 'orthorhombic'
loop_
_space_group_symop_operation_xyz
x,y,z
-x,-y,z
-x,y,z
x,-y,z
x,1/2+y,1/2+z
-x,1/2-y,1/2+z
-x,1/2+y,1/2+z
x,1/2-y,1/2+z
loop_
_atom_site_type_symbol
_atom_site_label
_atom_site_fract_x
_atom_site_fract_y
_atom_site_fract_z
Si Si1 0.329419 0.583615 0.272540
Si Si2 0.829605 0.836340 0.615987
Si Si3 0.666501 0.083643 0.467405
Si Si4 0.669936 0.419015 0.764548
Si Si5 0.169059 0.916640 0.949688
Si Si6 0.169736 0.831213 0.119812
O O1 0.500000 0.599998 0.275287
O O2 0.296819 0.500000 0.253887
O O3 0.257688 0.629568 0.196087
O O4 0.260896 0.607854 0.365130
O O5 0.777994 0.870019 0.524264
O O6 0.794068 0.752341 0.612081
O O7 0.000000 0.851772 0.628961
O O8 0.500000 0.104749 0.490554
O O9 0.701034 0.100433 0.365893
O O10 0.691215 0.000000 0.488630
O O11 0.500000 0.413653 0.743686
O O12 0.725475 0.500000 0.744238
O O13 0.753126 0.361708 0.705865
O O14 0.000000 0.900668 0.929721
O O15 0.195795 0.000000 0.972108
O O16 0.227781 0.870793 0.032135
O O17 0.000000 0.846707 0.131030
#
# Coordination Sequence:
#
# PCOD8180064 Si02
#       6
#     8   8   8   8   8   8
#     4  10  21  37  57  80 105 136 177 223 268 315
#     4  11  23  36  52  78 111 144 178 217 262 314
#     4   9  19  37  58  79 105 137 175 221 269 314
#     4   9  19  36  58  83 109 138 175 220 266 312
#     4   9  18  35  58  80 104 137 176 218 263 310
#     4  10  22  37  53  78 112 146 177 214 262 314
#
# _framework density 18.593529
#
# number of rings (size 3 to 8) (size 9 to 14) (size 15 to 20)
#    0.000    2.333    0.000    3.000    0.000    8.333 
#    0.000    8.333    0.000    0.000    0.000    0.000 
#    0.000    0.000    0.000    0.000    0.000    0.000 
#
# Total GULP energy -297688.772964 kJ/mol
# GULP energy per Si atom -12403.698873 kJ/mol
# Density = 1.855121 g / cm^3
# Si number density = 18.593529 Si / 1000 Ang^3
#
#
#
# Elastic Constant Matrix: (Units=GPa)
#
#
# Indices 1 2 3 4 5 6 
#
# 1 74.8744 54.1938 64.5601 0.0000 0.0000 0.0000
# 2 54.1938 89.8426 75.0826 0.0000 0.0000 0.0000
# 3 64.5601 75.0826 135.7496 0.0000 0.0000 0.0000
# 4 0.0000 0.0000 0.0000 29.0283 0.0000 0.0000
# 5 0.0000 0.0000 0.0000 0.0000 38.5468 0.0000
# 6 0.0000 0.0000 0.0000 0.0000 0.0000 27.3585
#
#
#
# Elastic Compliance Matrix: (Units=1/GPa)
#
#
# Indices 1 2 3 4 5 6 
#
# 1 0.026956 -0.010314 -0.007115 0.000000 0.000000 0.000000
# 2 -0.010314 0.024644 -0.008725 0.000000 0.000000 0.000000
# 3 -0.007115 -0.008725 0.015576 0.000000 0.000000 0.000000
# 4 0.000000 0.000000 0.000000 0.034449 0.000000 0.000000
# 5 0.000000 0.000000 0.000000 0.000000 0.025942 0.000000
# 6 0.000000 0.000000 0.000000 0.000000 0.000000 0.036552
#
#
# Mechanical properties :
#
#
# Convention : Reuss Voigt Hill
#
# Bulk Modulus (GPa) = 67.26148 76.45995 71.86071
# Shear Modulus (GPa) = 22.58523 26.09540 24.34031
#
# Velocity S-wave (km/s) = 3.48901 3.75035 3.62204
# Velocity P-wave (km/s) = 7.24459 7.74368 7.49829
#
# Compressibility (1/GPa) = 0.01486735
#
# Stress axis : x y z
#
# Youngs Moduli (GPa) = 37.09776 40.57819 64.19983
#
# Poissons Ratio (x) = 0.41851 0.45680
# Poissons Ratio (y) = 0.38261 0.56017
# Poissons Ratio (z) = 0.26396 0.35406
#
# Static dielectric constant tensor:
#      x y z
#    x 3.459800 0.000000 0.000000 
#    y 0.000000 3.392080 0.000000 
#    z 0.000000 0.000000 3.487670 
# 
# 
# High freq. dielectric constant tensor:
#      x y z
#    x 1.720850 0.000000 0.000000 
#    y 0.000000 1.718430 0.000000 
#    z 0.000000 0.000000 1.734030 
# 
# From -- ./inp_files/12003.got.cif
#   From: 2010.03.12/outbox.cif.g09.slc.cpg/sg38_7_cif.got.tgz:12003.got - 2010.04.14 02:38:36.
