data_PCOD8180972
_publ_section_title
;
Structure prediction by ZEFSAII (Michael W. Deem and Ramdas Pophale) SiO2 
 PCOD8180972
Probable space group: A B M 2
;
_chemical_formula_sum "Si O2"
_cell_formula_units_Z 64
_cell_length_a 4.985412
_cell_length_b 26.931563
_cell_length_c 26.244981
_cell_angle_alpha 90.000000
_cell_angle_beta 90.000000
_cell_angle_gamma 90.000000
_cell_volume 3523.780730
_symmetry_space_group_name_H-M "A B M 2"
_symmetry_group_IT_number 39
_symmetry_cell_setting 'orthorhombic'
loop_
_space_group_symop_operation_xyz
x,y,z
-x,-y,z
-x,1/2+y,z
x,1/2-y,z
x,1/2+y,1/2+z
-x,1/2-y,1/2+z
-x,y,1/2+z
x,-y,1/2+z
loop_
_atom_site_type_symbol
_atom_site_label
_atom_site_fract_x
_atom_site_fract_y
_atom_site_fract_z
Si Si1 0.026649 0.555119 0.444770
Si Si2 0.630201 0.653934 0.832105
Si Si3 0.866976 0.192171 0.776382
Si Si4 0.526480 0.055524 0.877068
Si Si5 0.632603 0.307122 0.441574
Si Si6 0.127363 0.651496 0.994752
Si Si7 0.686223 0.692782 0.168201
Si Si8 0.201221 0.807718 0.103321
O O1 0.328832 0.562925 0.425251
O O2 0.000000 0.500000 0.468210
O O3 0.829600 0.563075 0.396549
O O4 0.963068 0.594277 0.489213
O O5 0.373036 0.686299 0.816383
O O6 0.544635 0.595913 0.833811
O O7 0.731480 0.673083 0.886937
O O8 0.871785 0.661122 0.792566
O O9 0.949783 0.250000 0.772357
O O10 0.770861 0.168911 0.722177
O O11 0.500000 0.000000 0.853767
O O12 0.549869 0.250000 0.439355
O O13 0.371832 0.338290 0.456735
O O14 0.875542 0.313452 0.481348
O O15 0.225837 0.661117 0.051822
O O16 0.635597 0.750000 0.180625
O O17 0.412585 0.670602 0.144639
O O18 0.908368 0.684649 0.125512
O O19 0.264430 0.750000 0.091299
#
# Coordination Sequence:
#
# PCOD8180972 Si02
#       8
#     8   8   8   8   8   8   8   8
#     4  10  19  35  54  73 101 138 177 220 258 299
#     4  12  21  35  52  77 105 143 178 213 264 319
#     4  11  22  35  53  76 106 140 179 220 263 318
#     4  10  20  36  54  73 101 137 177 220 258 299
#     4  12  23  33  47  73 114 148 173 203 255 322
#     4  12  21  35  51  77 106 143 179 214 261 318
#     4   9  19  35  51  71  98 134 177 222 257 293
#     4  10  19  32  51  72 100 135 175 216 258 306
#
# _framework density 18.162310999999999
#
# number of rings (size 3 to 8) (size 9 to 14) (size 15 to 20)
#    0.000    1.250    2.500    5.250    0.000    3.000 
#    0.000    0.000    0.000    0.000    0.000    3.500 
#    0.000    0.000    0.000    0.000    0.000    0.000 
#
# Total GULP energy -396904.854128 kJ/mol
# GULP energy per Si atom -12403.276692 kJ/mol
# Density = 1.812097 g / cm^3
# Si number density = 18.162311 Si / 1000 Ang^3
#
#
#
# Elastic Constant Matrix: (Units=GPa)
#
#
# Indices 1 2 3 4 5 6 
#
# 1 86.5607 20.6981 12.8621 0.0000 0.0000 0.0000
# 2 20.6981 90.9568 39.1632 0.0000 0.0000 0.0000
# 3 12.8621 39.1632 73.8043 0.0000 0.0000 0.0000
# 4 0.0000 0.0000 0.0000 14.1976 0.0000 0.0000
# 5 0.0000 0.0000 0.0000 0.0000 26.5043 0.0000
# 6 0.0000 0.0000 0.0000 0.0000 0.0000 24.0698
#
#
#
# Elastic Compliance Matrix: (Units=1/GPa)
#
#
# Indices 1 2 3 4 5 6 
#
# 1 0.012258 -0.002423 -0.000850 0.000000 0.000000 0.000000
# 2 -0.002423 0.014729 -0.007393 0.000000 0.000000 0.000000
# 3 -0.000850 -0.007393 0.017621 0.000000 0.000000 0.000000
# 4 0.000000 0.000000 0.000000 0.070434 0.000000 0.000000
# 5 0.000000 0.000000 0.000000 0.000000 0.037730 0.000000
# 6 0.000000 0.000000 0.000000 0.000000 0.000000 0.041546
#
#
# Mechanical properties :
#
#
# Convention : Reuss Voigt Hill
#
# Bulk Modulus (GPa) = 42.96666 44.08540 43.52603
# Shear Modulus (GPa) = 22.38032 24.86090 23.62061
#
# Velocity S-wave (km/s) = 3.51414 3.70377 3.61020
# Velocity P-wave (km/s) = 6.33829 6.52811 6.43390
#
# Compressibility (1/GPa) = 0.02327386
#
# Stress axis : x y z
#
# Youngs Moduli (GPa) = 81.57663 67.89285 56.75119
#
# Poissons Ratio (x) = 0.16453 0.04826
# Poissons Ratio (y) = 0.19769 0.41959
# Poissons Ratio (z) = 0.06937 0.50196
#
# Static dielectric constant tensor:
#      x y z
#    x 3.530340 0.000000 0.000000 
#    y 0.000000 3.341690 0.000000 
#    z 0.000000 0.000000 3.210750 
# 
# 
# High freq. dielectric constant tensor:
#      x y z
#    x 1.728630 0.000000 0.000000 
#    y 0.000000 1.678250 0.000000 
#    z 0.000000 0.000000 1.678430 
# 
# From -- ./inp_files/13661.got.cif
#   From: 2010.03.12/outbox.cif.g09.slc.cpg/sg39_7_cif.got.tgz:13661.got - 2010.04.14 02:53:20.
