data_PCOD8180038
_publ_section_title
;
Structure prediction by ZEFSAII (Michael W. Deem and Ramdas Pophale) SiO2 
 PCOD8180038
Probable space group: A M M 2
;
_chemical_formula_sum "Si O2"
_cell_formula_units_Z 40
_cell_length_a 7.690782
_cell_length_b 21.671365
_cell_length_c 13.339223
_cell_angle_alpha 90.000000
_cell_angle_beta 90.000000
_cell_angle_gamma 90.000000
_cell_volume 2223.244881
_symmetry_space_group_name_H-M "A M M 2"
_symmetry_group_IT_number 38
_symmetry_cell_setting 'orthorhombic'
loop_
_space_group_symop_operation_xyz
x,y,z
-x,-y,z
-x,y,z
x,-y,z
x,1/2+y,1/2+z
-x,1/2-y,1/2+z
-x,1/2+y,1/2+z
x,1/2-y,1/2+z
loop_
_atom_site_type_symbol
_atom_site_label
_atom_site_fract_x
_atom_site_fract_y
_atom_site_fract_z
Si Si1 0.801966 0.652884 0.885750
Si Si2 0.696833 0.721935 0.070493
Si Si3 0.500000 0.072371 0.306535
Si Si4 0.197856 0.847831 0.987467
Si Si5 0.202605 0.780778 0.788001
Si Si6 0.500000 0.072536 0.074070
O O1 0.674183 0.597401 0.858704
O O2 0.741790 0.712550 0.822759
O O3 0.000000 0.633197 0.861063
O O4 0.789611 0.669618 0.003638
O O5 0.500000 0.729380 0.033243
O O6 0.792506 0.787530 0.058093
O O7 0.699470 0.701154 0.186233
O O8 0.500000 0.090753 0.190313
O O9 0.500000 0.000000 0.322688
O O10 0.325929 0.900909 0.024353
O O11 0.000000 0.872797 0.991853
O O12 0.252329 0.829548 0.874286
O O13 0.000000 0.782522 0.766427
O O14 0.500000 0.000000 0.056565
#
# Coordination Sequence:
#
# PCOD8180038 Si02
#       6
#     8   8   4   8   8   4
#     4  10  21  37  55  79 114 145 175 219 268 319
#     4  11  19  30  56  87 114 141 173 216 270 328
#     4  11  24  39  55  79 105 139 189 226 262 313
#     4  10  21  37  55  80 114 145 176 218 267 321
#     4   9  19  32  53  85 113 141 176 211 265 332
#     4  11  24  39  57  79 105 141 185 228 264 309
#
# _framework density 17.991720000000001
#
# number of rings (size 3 to 8) (size 9 to 14) (size 15 to 20)
#    0.000    1.800    2.000    4.200    2.800    3.200 
#    0.000    2.000    0.000    2.400    0.000    2.800 
#    0.000    0.000    0.000    0.000    0.000    0.000 
#
# Total GULP energy -248048.557473 kJ/mol
# GULP energy per Si atom -12402.427874 kJ/mol
# Density = 1.795077 g / cm^3
# Si number density = 17.991720 Si / 1000 Ang^3
#
#
#
# Elastic Constant Matrix: (Units=GPa)
#
#
# Indices 1 2 3 4 5 6 
#
# 1 114.3032 50.3360 40.0537 0.0000 0.0000 0.0000
# 2 50.3360 78.5074 46.6529 0.0000 0.0000 0.0000
# 3 40.0537 46.6529 124.1884 0.0000 0.0000 0.0000
# 4 0.0000 0.0000 0.0000 20.7663 0.0000 0.0000
# 5 0.0000 0.0000 0.0000 0.0000 28.0757 0.0000
# 6 0.0000 0.0000 0.0000 0.0000 0.0000 18.1745
#
#
#
# Elastic Compliance Matrix: (Units=1/GPa)
#
#
# Indices 1 2 3 4 5 6 
#
# 1 0.012351 -0.007148 -0.001299 0.000000 0.000000 0.000000
# 2 -0.007148 0.020535 -0.005409 0.000000 0.000000 0.000000
# 3 -0.001299 -0.005409 0.010503 0.000000 0.000000 0.000000
# 4 0.000000 0.000000 0.000000 0.048155 0.000000 0.000000
# 5 0.000000 0.000000 0.000000 0.000000 0.035618 0.000000
# 6 0.000000 0.000000 0.000000 0.000000 0.000000 0.055022
#
#
# Mechanical properties :
#
#
# Convention : Reuss Voigt Hill
#
# Bulk Modulus (GPa) = 63.77926 65.67602 64.72764
# Shear Modulus (GPa) = 23.24285 25.40040 24.32163
#
# Velocity S-wave (km/s) = 3.59815 3.76145 3.68070
# Velocity P-wave (km/s) = 7.26556 7.44630 7.35649
#
# Compressibility (1/GPa) = 0.01567908
#
# Stress axis : x y z
#
# Youngs Moduli (GPa) = 80.96344 48.69842 95.21111
#
# Poissons Ratio (x) = 0.34807 0.12363
# Poissons Ratio (y) = 0.57869 0.51498
# Poissons Ratio (z) = 0.10513 0.26340
#
# Static dielectric constant tensor:
#      x y z
#    x 3.396330 0.000000 0.000000 
#    y 0.000000 2.920340 0.000000 
#    z 0.000000 0.000000 3.447370 
# 
# 
# High freq. dielectric constant tensor:
#      x y z
#    x 1.715000 0.000000 0.000000 
#    y 0.000000 1.648730 0.000000 
#    z 0.000000 0.000000 1.705930 
# 
# From -- ./inp_files/7961.got.cif
#   From: 2010.03.12/outbox.cif.g09.slc.cpg/sg38_4_cif.got.tgz:7961.got - 2010.04.14 02:38:36.
