data_PCOD8180625
_publ_section_title
;
Structure prediction by ZEFSAII (Michael W. Deem and Ramdas Pophale) SiO2 
 PCOD8180625
Probable space group: A B M 2
;
_chemical_formula_sum "Si O2"
_cell_formula_units_Z 32
_cell_length_a 15.521072
_cell_length_b 23.847393
_cell_length_c 5.276444
_cell_angle_alpha 90.000000
_cell_angle_beta 90.000000
_cell_angle_gamma 90.000000
_cell_volume 1953.007700
_symmetry_space_group_name_H-M "A B M 2"
_symmetry_group_IT_number 39
_symmetry_cell_setting 'orthorhombic'
loop_
_space_group_symop_operation_xyz
x,y,z
-x,-y,z
-x,1/2+y,z
x,1/2-y,z
x,1/2+y,1/2+z
-x,1/2-y,1/2+z
-x,y,1/2+z
x,-y,1/2+z
loop_
_atom_site_type_symbol
_atom_site_label
_atom_site_fract_x
_atom_site_fract_y
_atom_site_fract_z
Si Si1 0.055511 0.651568 0.963270
Si Si2 0.096058 0.523913 0.973000
Si Si3 0.811124 0.750000 0.463945
Si Si4 0.464390 0.687560 0.431785
Si Si5 0.699891 0.750000 0.964464
O O1 0.096908 0.590359 0.944778
O O2 0.989237 0.660923 0.733904
O O3 0.132102 0.694913 0.933588
O O4 0.143898 0.495572 0.731794
O O5 0.000000 0.500000 0.004983
O O6 0.741673 0.750000 0.240919
O O7 0.769055 0.750000 0.741201
O O8 0.508469 0.750000 0.426208
O O9 0.502345 0.655406 0.679161
O O10 0.360330 0.694124 0.440510
#
# Coordination Sequence:
#
# PCOD8180625 Si02
#       5
#     8   8   4   8   4
#     4  12  21  34  46  58  84 109 158 193 214 269
#     4  10  16  30  50  67  69  89 135 210 242 241
#     4  12  24  30  40  62  90 134 138 164 232 260
#     4   8  13  24  45  64  75 106 151 180 193 220
#     4  10  18  32  40  58  94 116 152 168 196 274
#
# _framework density 16.384985
#
# number of rings (size 3 to 8) (size 9 to 14) (size 15 to 20)
#    0.750    1.000    5.000    3.750    0.000    0.000 
#    0.000    0.000    0.000    0.000    0.000    0.000 
#    0.000    0.000    0.000    0.000    0.000  350.000 
#
# Total GULP energy -198245.083047 kJ/mol
# GULP energy per Si atom -12390.317690 kJ/mol
# Density = 1.634769 g / cm^3
# Si number density = 16.384985 Si / 1000 Ang^3
#
#
#
# Elastic Constant Matrix: (Units=GPa)
#
#
# Indices 1 2 3 4 5 6 
#
# 1 45.2502 26.3778 13.4571 0.0000 0.0000 0.0000
# 2 26.3778 69.3487 6.0956 0.0000 0.0000 0.0000
# 3 13.4571 6.0956 126.4618 0.0000 0.0000 0.0000
# 4 0.0000 0.0000 0.0000 8.2412 0.0000 0.0000
# 5 0.0000 0.0000 0.0000 0.0000 20.1715 0.0000
# 6 0.0000 0.0000 0.0000 0.0000 0.0000 -0.3033
#
#
#
# Elastic Compliance Matrix: (Units=1/GPa)
#
#
# Indices 1 2 3 4 5 6 
#
# 1 0.029213 -0.010884 -0.002584 0.000000 0.000000 0.000000
# 2 -0.010884 0.018537 0.000265 0.000000 0.000000 0.000000
# 3 -0.002584 0.000265 0.008170 0.000000 0.000000 0.000000
# 4 0.000000 0.000000 0.000000 0.121341 0.000000 0.000000
# 5 0.000000 0.000000 0.000000 0.000000 0.049575 0.000000
# 6 0.000000 0.000000 0.000000 0.000000 0.000000 -3.296743
#
#
# Mechanical properties :
#
#
# Convention : Reuss Voigt Hill
#
# Bulk Modulus (GPa) = 33.88462 36.99130 35.43796
# Shear Modulus (GPa) = -1.64817 18.63057 8.49120
#
# Velocity S-wave (km/s) = -1.00404 3.37568 2.27894
# Velocity P-wave (km/s) = 4.40239 6.14971 5.34790
#
# Compressibility (1/GPa) = 0.02951191
#
# Stress axis : x y z
#
# Youngs Moduli (GPa) = 34.23182 53.94727 122.40312
#
# Poissons Ratio (x) = 0.58718 0.31628
# Poissons Ratio (y) = 0.37259 -0.03240
# Poissons Ratio (z) = 0.08845 -0.01428
#
# Static dielectric constant tensor:
#      x y z
#    x 2.712160 0.000000 0.000000 
#    y 0.000000 2.751840 0.000000 
#    z 0.000000 0.000000 4.345840 
# 
# 
# High freq. dielectric constant tensor:
#      x y z
#    x 1.584200 0.000000 0.000000 
#    y 0.000000 1.578110 0.000000 
#    z 0.000000 0.000000 1.673900 
# 
# From -- ./inp_files/297.got.cif
#   From: 2010.03.12/outbox.cif.g09.slc.cpg/sg39_1_cif.got.tgz:297.got - 2010.04.14 02:53:20.
