data_PCOD8180980
_publ_section_title
;
Structure prediction by ZEFSAII (Michael W. Deem and Ramdas Pophale) SiO2 
 PCOD8180980
Probable space group: A B M 2
;
_chemical_formula_sum "Si O2"
_cell_formula_units_Z 56
_cell_length_a 14.744369
_cell_length_b 8.964468
_cell_length_c 21.044508
_cell_angle_alpha 90.000000
_cell_angle_beta 90.000000
_cell_angle_gamma 90.000000
_cell_volume 2781.566769
_symmetry_space_group_name_H-M "A B M 2"
_symmetry_group_IT_number 39
_symmetry_cell_setting 'orthorhombic'
loop_
_space_group_symop_operation_xyz
x,y,z
-x,-y,z
-x,1/2+y,z
x,1/2-y,z
x,1/2+y,1/2+z
-x,1/2-y,1/2+z
-x,y,1/2+z
x,-y,1/2+z
loop_
_atom_site_type_symbol
_atom_site_label
_atom_site_fract_x
_atom_site_fract_y
_atom_site_fract_z
Si Si1 0.720940 0.075506 0.636700
Si Si2 0.907984 0.578324 0.319992
Si Si3 0.595663 0.573334 0.025048
Si Si4 0.095560 0.075614 0.080702
Si Si5 0.096246 0.573480 0.960821
Si Si6 0.284928 0.575445 0.775827
Si Si7 0.595499 0.574400 0.881525
O O1 0.704943 0.250000 0.632228
O O2 0.665076 0.005562 0.577539
O O3 0.829111 0.043660 0.634631
O O4 0.682981 0.021632 0.705659
O O5 0.934702 0.750000 0.323146
O O6 0.874417 0.525657 0.390272
O O7 0.823504 0.545392 0.274885
O O8 0.000000 0.500000 0.296487
O O9 0.500000 0.500000 0.040227
O O10 0.585095 0.750000 0.030168
O O11 0.627305 0.530368 0.953092
O O12 0.077704 0.250000 0.070173
O O13 0.000000 0.000000 0.100560
O O14 0.149082 0.006208 0.018548
O O15 0.096086 0.750000 0.970187
O O16 0.000000 0.500000 0.975298
O O17 0.304488 0.750000 0.788224
O O18 0.331294 0.481517 0.830969
O O19 0.500000 0.500000 0.864902
O O20 0.584114 0.750000 0.874104
#
# Coordination Sequence:
#
# PCOD8180980 Si02
#       7
#     8   8   8   8   8   8   8
#     4   9  20  37  56  79 111 151 186 221 273 330
#     4   9  19  33  51  76 108 147 188 231 278 326
#     4   9  19  38  61  85 109 139 179 223 272 328
#     4  10  19  32  51  75 106 145 186 227 273 321
#     4   9  16  28  45  70  99 131 175 225 273 319
#     4  10  21  38  57  81 115 151 188 230 279 331
#     4  10  21  38  62  88 113 142 181 227 279 335
#
# _framework density 20.132536999999999
#
# number of rings (size 3 to 8) (size 9 to 14) (size 15 to 20)
#    0.000    2.571    0.000    2.143    2.000    2.857 
#    0.000    5.000    0.000    0.000    0.000    0.000 
#    0.000    0.000    0.000    0.000    0.000    0.000 
#
# Total GULP energy -346866.669646 kJ/mol
# GULP energy per Si atom -12388.095345 kJ/mol
# Density = 2.008671 g / cm^3
# Si number density = 20.132537 Si / 1000 Ang^3
#
#
#
# Elastic Constant Matrix: (Units=GPa)
#
#
# Indices 1 2 3 4 5 6 
#
# 1 94.0081 32.0369 63.6036 0.0000 0.0000 0.0000
# 2 32.0369 64.9850 34.3393 0.0000 0.0000 0.0000
# 3 63.6036 34.3393 129.9202 0.0000 0.0000 0.0000
# 4 0.0000 0.0000 0.0000 20.5708 0.0000 0.0000
# 5 0.0000 0.0000 0.0000 0.0000 26.3944 0.0000
# 6 0.0000 0.0000 0.0000 0.0000 0.0000 26.8551
#
#
#
# Elastic Compliance Matrix: (Units=1/GPa)
#
#
# Indices 1 2 3 4 5 6 
#
# 1 0.017029 -0.004638 -0.007111 0.000000 0.000000 0.000000
# 2 -0.004638 0.019149 -0.002791 0.000000 0.000000 0.000000
# 3 -0.007111 -0.002791 0.011916 0.000000 0.000000 0.000000
# 4 0.000000 0.000000 0.000000 0.048613 0.000000 0.000000
# 5 0.000000 0.000000 0.000000 0.000000 0.037887 0.000000
# 6 0.000000 0.000000 0.000000 0.000000 0.000000 0.037237
#
#
# Mechanical properties :
#
#
# Convention : Reuss Voigt Hill
#
# Bulk Modulus (GPa) = 52.58956 60.98588 56.78772
# Shear Modulus (GPa) = 24.12575 25.35963 24.74269
#
# Velocity S-wave (km/s) = 3.46547 3.55298 3.50950
# Velocity P-wave (km/s) = 6.49546 6.86946 6.68508
#
# Compressibility (1/GPa) = 0.01901518
#
# Stress axis : x y z
#
# Youngs Moduli (GPa) = 58.72392 52.22145 83.92133
#
# Poissons Ratio (x) = 0.24218 0.59675
# Poissons Ratio (y) = 0.27233 0.23422
# Poissons Ratio (z) = 0.41758 0.14575
#
# Static dielectric constant tensor:
#      x y z
#    x 3.480890 0.000000 0.000000 
#    y 0.000000 3.491300 0.000000 
#    z 0.000000 0.000000 4.199610 
# 
# 
# High freq. dielectric constant tensor:
#      x y z
#    x 1.772270 0.000000 0.000000 
#    y 0.000000 1.766620 0.000000 
#    z 0.000000 0.000000 1.797450 
# 
# From -- ./inp_files/14776.got.cif
#   From: 2010.03.12/outbox.cif.g09.slc.cpg/sg39_8_cif.got.tgz:14776.got - 2010.04.14 02:53:20.
