data_PCOD8180824
_publ_section_title
;
Structure prediction by ZEFSAII (Michael W. Deem and Ramdas Pophale) SiO2 
 PCOD8180824
Probable space group: A B M 2
;
_chemical_formula_sum "Si O2"
_cell_formula_units_Z 56
_cell_length_a 15.326039
_cell_length_b 8.907040
_cell_length_c 20.411100
_cell_angle_alpha 90.000000
_cell_angle_beta 90.000000
_cell_angle_gamma 90.000000
_cell_volume 2786.311962
_symmetry_space_group_name_H-M "A B M 2"
_symmetry_group_IT_number 39
_symmetry_cell_setting 'orthorhombic'
loop_
_space_group_symop_operation_xyz
x,y,z
-x,-y,z
-x,1/2+y,z
x,1/2-y,z
x,1/2+y,1/2+z
-x,1/2-y,1/2+z
-x,y,1/2+z
x,-y,1/2+z
loop_
_atom_site_type_symbol
_atom_site_label
_atom_site_fract_x
_atom_site_fract_y
_atom_site_fract_z
Si Si1 0.589534 0.070907 0.133160
Si Si2 0.762065 0.925890 0.085359
Si Si3 0.089872 0.928281 0.685195
Si Si4 0.627837 0.924021 0.270842
Si Si5 0.228044 0.922948 0.439544
Si Si6 0.824359 0.420348 0.814726
Si Si7 0.417033 0.427413 0.901669
O O1 0.583905 0.250000 0.131398
O O2 0.500000 0.000000 0.104196
O O3 0.671972 0.016318 0.090595
O O4 0.601327 0.012430 0.206458
O O5 0.740721 0.750000 0.095701
O O6 0.832531 0.984460 0.137735
O O7 0.804058 0.954739 0.013320
O O8 0.083287 0.750000 0.680972
O O9 0.108560 0.982621 0.759866
O O10 0.000000 0.000000 0.660685
O O11 0.599807 0.750000 0.265301
O O12 0.730660 0.939128 0.281698
O O13 0.577815 0.005060 0.329065
O O14 0.226219 0.750000 0.421409
O O15 0.327705 0.981896 0.435406
O O16 0.166532 0.998105 0.384762
O O17 0.846326 0.250000 0.830546
O O18 0.500000 0.500000 0.939994
O O19 0.426147 0.250000 0.900720
#
# Coordination Sequence:
#
# PCOD8180824 Si02
#       7
#     8   8   8   8   8   8   8
#     4  12  24  36  54  82 116 157 202 247 294 347
#     4  10  21  42  62  83 120 159 198 243 296 350
#     4  10  21  39  64  92 119 152 192 241 297 354
#     4  10  18  33  54  77 109 149 190 240 296 342
#     4   9  20  36  58  82 111 153 193 238 290 345
#     4   9  18  35  59  85 114 148 185 235 291 344
#     4  10  19  31  47  75 108 145 194 241 289 341
#
# _framework density 20.098251000000001
#
# number of rings (size 3 to 8) (size 9 to 14) (size 15 to 20)
#    0.000    2.000    1.429    2.571    0.000    3.429 
#    0.000    2.143    0.000    3.429    0.000    0.000 
#    0.000    0.000    0.000    0.000    0.000    0.000 
#
# Total GULP energy -347129.855791 kJ/mol
# GULP energy per Si atom -12397.494850 kJ/mol
# Density = 2.005251 g / cm^3
# Si number density = 20.098251 Si / 1000 Ang^3
#
#
#
# Elastic Constant Matrix: (Units=GPa)
#
#
# Indices 1 2 3 4 5 6 
#
# 1 78.9673 26.4187 35.2797 0.0000 0.0000 0.0000
# 2 26.4187 72.9283 32.8414 0.0000 0.0000 0.0000
# 3 35.2797 32.8414 108.8618 0.0000 0.0000 0.0000
# 4 0.0000 0.0000 0.0000 27.0106 0.0000 0.0000
# 5 0.0000 0.0000 0.0000 0.0000 10.6403 0.0000
# 6 0.0000 0.0000 0.0000 0.0000 0.0000 29.9400
#
#
#
# Elastic Compliance Matrix: (Units=1/GPa)
#
#
# Indices 1 2 3 4 5 6 
#
# 1 0.015727 -0.003937 -0.003909 0.000000 0.000000 0.000000
# 2 -0.003937 0.016853 -0.003808 0.000000 0.000000 0.000000
# 3 -0.003909 -0.003808 0.011602 0.000000 0.000000 0.000000
# 4 0.000000 0.000000 0.000000 0.037022 0.000000 0.000000
# 5 0.000000 0.000000 0.000000 0.000000 0.093983 0.000000
# 6 0.000000 0.000000 0.000000 0.000000 0.000000 0.033400
#
#
# Mechanical properties :
#
#
# Convention : Reuss Voigt Hill
#
# Bulk Modulus (GPa) = 47.90824 49.98190 48.94507
# Shear Modulus (GPa) = 20.93331 24.59934 22.76632
#
# Velocity S-wave (km/s) = 3.23080 3.50230 3.36929
# Velocity P-wave (km/s) = 6.14868 6.42476 6.28824
#
# Compressibility (1/GPa) = 0.02087323
#
# Stress axis : x y z
#
# Youngs Moduli (GPa) = 63.58492 59.33563 86.19389
#
# Poissons Ratio (x) = 0.23359 0.33694
# Poissons Ratio (y) = 0.25032 0.32827
# Poissons Ratio (z) = 0.24856 0.22598
#
# Static dielectric constant tensor:
#      x y z
#    x 3.664180 0.000000 0.000000 
#    y 0.000000 3.555870 0.000000 
#    z 0.000000 0.000000 3.681460 
# 
# 
# High freq. dielectric constant tensor:
#      x y z
#    x 1.771250 0.000000 0.000000 
#    y 0.000000 1.776860 0.000000 
#    z 0.000000 0.000000 1.783970 
# 
# From -- ./inp_files/14730.got.cif
#   From: 2010.03.12/outbox.cif.g09.slc.cpg/sg39_8_cif.got.tgz:14730.got - 2010.04.14 02:53:20.
