data_PCOD8180470
_publ_section_title
;
Structure prediction by ZEFSAII (Michael W. Deem and Ramdas Pophale) SiO2 
 PCOD8180470
Probable space group: A M M 2
;
_chemical_formula_sum "Si O2"
_cell_formula_units_Z 32
_cell_length_a 9.070268
_cell_length_b 7.796624
_cell_length_c 23.288471
_cell_angle_alpha 90.000000
_cell_angle_beta 90.000000
_cell_angle_gamma 90.000000
_cell_volume 1646.901730
_symmetry_space_group_name_H-M "A M M 2"
_symmetry_group_IT_number 38
_symmetry_cell_setting 'orthorhombic'
loop_
_space_group_symop_operation_xyz
x,y,z
-x,-y,z
-x,y,z
x,-y,z
x,1/2+y,1/2+z
-x,1/2-y,1/2+z
-x,1/2+y,1/2+z
x,1/2-y,1/2+z
loop_
_atom_site_type_symbol
_atom_site_label
_atom_site_fract_x
_atom_site_fract_y
_atom_site_fract_z
Si Si1 0.335595 0.804982 0.458020
Si Si2 0.838724 0.809142 0.856992
Si Si3 0.674670 0.000000 0.630372
Si Si4 0.829702 0.000000 0.748681
Si Si5 0.829303 0.694228 0.564666
O O1 0.500000 0.727321 0.460905
O O2 0.280594 0.800236 0.391965
O O3 0.227782 0.699247 0.499236
O O4 0.337055 0.000000 0.479658
O O5 0.000000 0.722392 0.863651
O O6 0.842593 0.000000 0.884399
O O7 0.801258 0.830458 0.788754
O O8 0.738148 0.826347 0.603196
O O9 0.500000 0.000000 0.622408
O O10 0.715424 0.000000 0.697217
O O11 0.000000 0.000000 0.726887
O O12 0.808182 0.500000 0.588034
O O13 0.000000 0.747997 0.565844
#
# Coordination Sequence:
#
# PCOD8180470 Si02
#       5
#     8   8   4   4   8
#     4  11  22  34  52  85 126 161 197 248 309 366
#     4   8  17  34  56  81 107 146 197 241 289 349
#     4  12  24  40  64  94 126 160 203 254 315 372
#     4   8  18  38  62  84 114 158 207 252 295 356
#     4  11  24  41  63  89 119 162 210 254 303 364
#
# _framework density 19.430425
#
# number of rings (size 3 to 8) (size 9 to 14) (size 15 to 20)
#    0.750    1.250    1.250    3.375    0.000    8.000 
#    0.000    1.250    0.000    1.500    0.000    0.000 
#    0.000    0.000    0.000    0.000    0.000    0.000 
#
# Total GULP energy -198273.244853 kJ/mol
# GULP energy per Si atom -12392.077803 kJ/mol
# Density = 1.938620 g / cm^3
# Si number density = 19.430425 Si / 1000 Ang^3
#
#
#
# Elastic Constant Matrix: (Units=GPa)
#
#
# Indices 1 2 3 4 5 6 
#
# 1 162.1025 52.3087 66.8966 0.0000 0.0000 0.0000
# 2 52.3087 77.0557 34.7403 0.0000 0.0000 0.0000
# 3 66.8966 34.7403 106.2027 0.0000 0.0000 0.0000
# 4 0.0000 0.0000 0.0000 24.6531 0.0000 0.0000
# 5 0.0000 0.0000 0.0000 0.0000 32.4023 0.0000
# 6 0.0000 0.0000 0.0000 0.0000 0.0000 16.3942
#
#
#
# Elastic Compliance Matrix: (Units=1/GPa)
#
#
# Indices 1 2 3 4 5 6 
#
# 1 0.009445 -0.004375 -0.004519 0.000000 0.000000 0.000000
# 2 -0.004375 0.017249 -0.002887 0.000000 0.000000 0.000000
# 3 -0.004519 -0.002887 0.013206 0.000000 0.000000 0.000000
# 4 0.000000 0.000000 0.000000 0.040563 0.000000 0.000000
# 5 0.000000 0.000000 0.000000 0.000000 0.030862 0.000000
# 6 0.000000 0.000000 0.000000 0.000000 0.000000 0.060997
#
#
# Mechanical properties :
#
#
# Convention : Reuss Voigt Hill
#
# Bulk Modulus (GPa) = 61.19698 72.58355 66.89027
# Shear Modulus (GPa) = 24.83492 27.45094 26.14293
#
# Velocity S-wave (km/s) = 3.57900 3.76278 3.67204
# Velocity P-wave (km/s) = 6.97444 7.50431 7.24422
#
# Compressibility (1/GPa) = 0.01634068
#
# Stress axis : x y z
#
# Youngs Moduli (GPa) = 105.87242 57.97497 75.72058
#
# Poissons Ratio (x) = 0.25362 0.34215
# Poissons Ratio (y) = 0.46316 0.21858
# Poissons Ratio (z) = 0.47839 0.16736
#
# Static dielectric constant tensor:
#      x y z
#    x 3.540190 0.000000 0.000000 
#    y 0.000000 3.294600 0.000000 
#    z 0.000000 0.000000 3.379760 
# 
# 
# High freq. dielectric constant tensor:
#      x y z
#    x 1.760760 0.000000 0.000000 
#    y 0.000000 1.737780 0.000000 
#    z 0.000000 0.000000 1.745550 
# 
# From -- ./inp_files/21624.got.cif
#   From: 2010.03.12/outbox.cif.g09.slc.cpg/sg38_11_cif.got.tgz:21624.got - 2010.04.14 02:38:36.
