data_PCOD8180118
_publ_section_title
;
Structure prediction by ZEFSAII (Michael W. Deem and Ramdas Pophale) SiO2 
 PCOD8180118
Probable space group: A M M 2
;
_chemical_formula_sum "Si O2"
_cell_formula_units_Z 64
_cell_length_a 19.898642
_cell_length_b 17.906503
_cell_length_c 9.344692
_cell_angle_alpha 90.000000
_cell_angle_beta 90.000000
_cell_angle_gamma 90.000000
_cell_volume 3329.654796
_symmetry_space_group_name_H-M "A M M 2"
_symmetry_group_IT_number 38
_symmetry_cell_setting 'orthorhombic'
loop_
_space_group_symop_operation_xyz
x,y,z
-x,-y,z
-x,y,z
x,-y,z
x,1/2+y,1/2+z
-x,1/2-y,1/2+z
-x,1/2+y,1/2+z
x,1/2-y,1/2+z
loop_
_atom_site_type_symbol
_atom_site_label
_atom_site_fract_x
_atom_site_fract_y
_atom_site_fract_z
Si Si1 0.184187 0.915060 0.945920
Si Si2 0.690963 0.827424 0.550134
Si Si3 0.325087 0.414187 0.796579
Si Si4 0.922989 0.585920 0.210894
Si Si5 0.808697 0.831669 0.207014
Si Si6 0.575489 0.585696 0.547359
Si Si7 0.318744 0.174606 0.877135
Si Si8 0.164796 0.683879 0.024424
O O1 0.119990 0.894671 0.850642
O O2 0.248439 0.867333 0.898783
O O3 0.205989 0.000000 0.927969
O O4 0.162331 0.899841 0.111356
O O5 0.652036 0.890962 0.458092
O O6 0.664991 0.813485 0.709351
O O7 0.687357 0.751716 0.459459
O O8 0.766872 0.861798 0.553143
O O9 0.298822 0.500000 0.790946
O O10 0.268670 0.355020 0.740080
O O11 0.391156 0.404352 0.702030
O O12 0.913504 0.500000 0.163010
O O13 0.899457 0.640201 0.083895
O O14 0.000000 0.603683 0.247024
O O15 0.818569 0.762325 0.099703
O O16 0.847928 0.811293 0.352645
O O17 0.500000 0.618180 0.554575
O O18 0.574646 0.500000 0.500184
O O19 0.617547 0.628929 0.429256
#
# Coordination Sequence:
#
# PCOD8180118 Si02
#       8
#     8   8   8   8   8   8   8   8
#     4  11  21  36  62  89 119 159 201 251 308 361
#     4  11  22  35  62  89 121 155 199 256 312 352
#     4  10  21  37  58  90 125 156 199 254 308 365
#     4  10  23  42  61  87 125 163 201 250 312 378
#     4  11  21  35  60  90 121 150 200 259 300 356
#     4  10  21  39  62  87 123 167 204 247 310 376
#     4  12  21  38  59  91 124 158 205 261 302 360
#     4  11  20  36  60  85 118 158 195 247 306 360
#
# _framework density 19.221211
#
# number of rings (size 3 to 8) (size 9 to 14) (size 15 to 20)
#    0.000    1.250    3.750    3.750    0.000    3.500 
#    0.000    6.250    0.000    3.000    0.000    0.000 
#    0.000    0.000    0.000    0.000    0.000    0.000 
#
# Total GULP energy -396508.328615 kJ/mol
# GULP energy per Si atom -12390.885269 kJ/mol
# Density = 1.917746 g / cm^3
# Si number density = 19.221211 Si / 1000 Ang^3
#
#
#
# Elastic Constant Matrix: (Units=GPa)
#
#
# Indices 1 2 3 4 5 6 
#
# 1 119.0984 54.9911 56.5237 0.0000 0.0000 0.0000
# 2 54.9911 82.7172 60.4333 0.0000 0.0000 0.0000
# 3 56.5237 60.4333 172.6018 0.0000 0.0000 0.0000
# 4 0.0000 0.0000 0.0000 36.6015 0.0000 0.0000
# 5 0.0000 0.0000 0.0000 0.0000 23.3638 0.0000
# 6 0.0000 0.0000 0.0000 0.0000 0.0000 21.1408
#
#
#
# Elastic Compliance Matrix: (Units=1/GPa)
#
#
# Indices 1 2 3 4 5 6 
#
# 1 0.012429 -0.007107 -0.001582 0.000000 0.000000 0.000000
# 2 -0.007107 0.020309 -0.004783 0.000000 0.000000 0.000000
# 3 -0.001582 -0.004783 0.007986 0.000000 0.000000 0.000000
# 4 0.000000 0.000000 0.000000 0.027321 0.000000 0.000000
# 5 0.000000 0.000000 0.000000 0.000000 0.042801 0.000000
# 6 0.000000 0.000000 0.000000 0.000000 0.000000 0.047302
#
#
# Mechanical properties :
#
#
# Convention : Reuss Voigt Hill
#
# Bulk Modulus (GPa) = 72.57026 79.81261 76.19143
# Shear Modulus (GPa) = 26.35933 29.71916 28.03925
#
# Velocity S-wave (km/s) = 3.70721 3.93640 3.82352
# Velocity P-wave (km/s) = 7.49412 7.89136 7.69531
#
# Compressibility (1/GPa) = 0.01377975
#
# Stress axis : x y z
#
# Youngs Moduli (GPa) = 80.45940 49.23937 125.21162
#
# Poissons Ratio (x) = 0.34995 0.19805
# Poissons Ratio (y) = 0.57183 0.59893
# Poissons Ratio (z) = 0.12727 0.23553
#
# Static dielectric constant tensor:
#      x y z
#    x 3.357180 0.000000 0.000000 
#    y 0.000000 3.699690 0.000000 
#    z 0.000000 0.000000 3.945170 
# 
# 
# High freq. dielectric constant tensor:
#      x y z
#    x 1.709770 0.000000 0.000000 
#    y 0.000000 1.755430 0.000000 
#    z 0.000000 0.000000 1.764020 
# 
# From -- ./inp_files/6836.got.cif
#   From: 2010.03.12/outbox.cif.g09.slc.cpg/sg38_4_cif.got.tgz:6836.got - 2010.04.14 02:38:36.
