data_PCOD8180947
_publ_section_title
;
Structure prediction by ZEFSAII (Michael W. Deem and Ramdas Pophale) SiO2 
 PCOD8180947
Probable space group: A B M 2
;
_chemical_formula_sum "Si O2"
_cell_formula_units_Z 56
_cell_length_a 19.742417
_cell_length_b 9.043475
_cell_length_c 15.559393
_cell_angle_alpha 90.000000
_cell_angle_beta 90.000000
_cell_angle_gamma 90.000000
_cell_volume 2777.974875
_symmetry_space_group_name_H-M "A B M 2"
_symmetry_group_IT_number 39
_symmetry_cell_setting 'orthorhombic'
loop_
_space_group_symop_operation_xyz
x,y,z
-x,-y,z
-x,1/2+y,z
x,1/2-y,z
x,1/2+y,1/2+z
-x,1/2-y,1/2+z
-x,y,1/2+z
x,-y,1/2+z
loop_
_atom_site_type_symbol
_atom_site_label
_atom_site_fract_x
_atom_site_fract_y
_atom_site_fract_z
Si Si1 0.661873 0.075667 0.909150
Si Si2 0.428218 0.924456 0.748240
Si Si3 0.937549 0.077821 0.334382
Si Si4 0.349076 0.578396 0.579049
Si Si5 0.209941 0.419729 0.161741
Si Si6 0.062343 0.920986 0.651254
Si Si7 0.212233 0.921048 0.340966
O O1 0.666143 0.250000 0.915377
O O2 0.617852 0.023542 0.827821
O O3 0.737386 0.011318 0.901480
O O4 0.627485 0.013191 0.995794
O O5 0.438072 0.750000 0.749650
O O6 0.392392 0.976519 0.660502
O O7 0.500000 0.000000 0.757020
O O8 0.953647 0.250000 0.320980
O O9 0.864123 0.057208 0.378757
O O10 0.934011 0.993483 0.244491
O O11 0.000000 0.000000 0.387097
O O12 0.362430 0.750000 0.561014
O O13 0.269699 0.546336 0.595265
O O14 0.215528 0.250000 0.195078
O O15 0.137873 0.443885 0.111898
O O16 0.217521 0.525476 0.243072
O O17 0.043785 0.750000 0.657652
O O18 0.000000 0.000000 0.599322
O O19 0.233099 0.750000 0.343361
#
# Coordination Sequence:
#
# PCOD8180947 Si02
#       7
#     8   8   8   8   8   8   8
#     4  11  23  40  61  89 121 156 197 240 287 344
#     4  10  23  43  66  90 122 155 189 233 286 345
#     4   9  16  25  40  68 104 142 188 238 288 342
#     4  10  21  40  62  87 119 155 194 239 288 342
#     4   9  17  32  53  76 110 152 192 237 294 346
#     4   9  15  23  40  67 101 143 185 233 286 339
#     4  10  19  31  52  81 112 150 196 244 292 345
#
# _framework density 20.158569
#
# number of rings (size 3 to 8) (size 9 to 14) (size 15 to 20)
#    0.000    2.286    1.429    2.571    0.000    5.143 
#    0.000    2.857    0.000    0.857    0.000    2.000 
#    0.000    0.000    0.000    0.000    0.000    0.000 
#
# Total GULP energy -347021.177495 kJ/mol
# GULP energy per Si atom -12393.613482 kJ/mol
# Density = 2.011269 g / cm^3
# Si number density = 20.158569 Si / 1000 Ang^3
#
#
#
# Elastic Constant Matrix: (Units=GPa)
#
#
# Indices 1 2 3 4 5 6 
#
# 1 136.6007 55.5492 45.9100 0.0000 0.0000 0.0000
# 2 55.5492 94.6293 42.2118 0.0000 0.0000 0.0000
# 3 45.9100 42.2118 100.9353 0.0000 0.0000 0.0000
# 4 0.0000 0.0000 0.0000 24.5857 0.0000 0.0000
# 5 0.0000 0.0000 0.0000 0.0000 5.6829 0.0000
# 6 0.0000 0.0000 0.0000 0.0000 0.0000 35.5270
#
#
#
# Elastic Compliance Matrix: (Units=1/GPa)
#
#
# Indices 1 2 3 4 5 6 
#
# 1 0.010147 -0.004791 -0.002611 0.000000 0.000000 0.000000
# 2 -0.004791 0.015254 -0.004200 0.000000 0.000000 0.000000
# 3 -0.002611 -0.004200 0.012852 0.000000 0.000000 0.000000
# 4 0.000000 0.000000 0.000000 0.040674 0.000000 0.000000
# 5 0.000000 0.000000 0.000000 0.000000 0.175968 0.000000
# 6 0.000000 0.000000 0.000000 0.000000 0.000000 0.028148
#
#
# Mechanical properties :
#
#
# Convention : Reuss Voigt Hill
#
# Bulk Modulus (GPa) = 66.46018 68.83415 67.64717
# Shear Modulus (GPa) = 16.06362 25.72538 20.89450
#
# Velocity S-wave (km/s) = 2.82594 3.57620 3.22298
# Velocity P-wave (km/s) = 6.60970 7.16050 6.89061
#
# Compressibility (1/GPa) = 0.01504660
#
# Stress axis : x y z
#
# Youngs Moduli (GPa) = 98.55404 65.55804 77.81186
#
# Poissons Ratio (x) = 0.31412 0.20320
# Poissons Ratio (y) = 0.47222 0.32680
# Poissons Ratio (z) = 0.25736 0.27533
#
# Static dielectric constant tensor:
#      x y z
#    x 4.358840 0.000000 0.000000 
#    y 0.000000 3.643640 0.000000 
#    z 0.000000 0.000000 3.290230 
# 
# 
# High freq. dielectric constant tensor:
#      x y z
#    x 1.803630 0.000000 0.000000 
#    y 0.000000 1.788960 0.000000 
#    z 0.000000 0.000000 1.747450 
# 
# From -- ./inp_files/10361.got.cif
#   From: 2010.03.12/outbox.cif.g09.slc.cpg/sg39_6_cif.got.tgz:10361.got - 2010.04.14 02:53:20.
