data_PCOD8180142
_publ_section_title
;
Structure prediction by ZEFSAII (Michael W. Deem and Ramdas Pophale) SiO2 
 PCOD8180142
Probable space group: A M M 2
;
_chemical_formula_sum "Si O2"
_cell_formula_units_Z 64
_cell_length_a 17.951610
_cell_length_b 14.247193
_cell_length_c 12.319570
_cell_angle_alpha 90.000000
_cell_angle_beta 90.000000
_cell_angle_gamma 90.000000
_cell_volume 3150.853868
_symmetry_space_group_name_H-M "A M M 2"
_symmetry_group_IT_number 38
_symmetry_cell_setting 'orthorhombic'
loop_
_space_group_symop_operation_xyz
x,y,z
-x,-y,z
-x,y,z
x,-y,z
x,1/2+y,1/2+z
-x,1/2-y,1/2+z
-x,1/2+y,1/2+z
x,1/2-y,1/2+z
loop_
_atom_site_type_symbol
_atom_site_label
_atom_site_fract_x
_atom_site_fract_y
_atom_site_fract_z
Si Si1 0.800507 0.604029 0.356030
Si Si2 0.413477 0.106018 0.624644
Si Si3 0.917472 0.848875 0.254037
Si Si4 0.160499 0.105930 0.464080
Si Si5 0.305403 0.749528 0.236357
Si Si6 0.082068 0.140101 0.689093
Si Si7 0.788732 0.896140 0.104136
Si Si8 0.673033 0.605708 0.912096
O O1 0.763244 0.500000 0.347237
O O2 0.753248 0.683568 0.296550
O O3 0.880338 0.598307 0.297024
O O4 0.811903 0.631633 0.481825
O O5 0.500000 0.127659 0.638515
O O6 0.369544 0.183949 0.690704
O O7 0.392357 0.114985 0.498945
O O8 0.394362 0.000000 0.665351
O O9 0.883986 0.832708 0.375252
O O10 0.925012 0.750488 0.195619
O O11 0.861268 0.908345 0.180111
O O12 0.000000 0.895752 0.261129
O O13 0.131422 0.116757 0.585014
O O14 0.247738 0.131943 0.466743
O O15 0.148932 0.000000 0.423858
O O16 0.265068 0.813289 0.145662
O O17 0.345371 0.821218 0.317821
O O18 0.000000 0.094821 0.677127
O O19 0.750184 0.000000 0.105595
O O20 0.675836 0.500000 0.864239
#
# Coordination Sequence:
#
# PCOD8180142 Si02
#       8
#     8   8   8   8   8   8   8   8
#     4  11  24  39  58  86 120 159 207 259 314 371
#     4  10  23  42  64  96 133 164 200 250 310 374
#     4  11  24  38  58  86 121 162 211 266 323 373
#     4  11  22  39  61  87 117 156 209 262 317 374
#     4  12  21  39  67  92 122 161 211 250 304 369
#     4  11  24  38  56  82 116 158 209 266 320 378
#     4  11  24  41  61  90 125 162 209 264 315 372
#     4  10  21  37  64  95 124 158 201 258 311 368
#
# _framework density 20.311954
#
# number of rings (size 3 to 8) (size 9 to 14) (size 15 to 20)
#    0.000    1.125    2.500    3.375    3.500    4.500 
#    0.000    1.250    0.000    1.125    0.000    0.000 
#    0.000    0.000    0.000    0.000    0.000    0.000 
#
# Total GULP energy -396734.047991 kJ/mol
# GULP energy per Si atom -12397.939000 kJ/mol
# Density = 2.026572 g / cm^3
# Si number density = 20.311954 Si / 1000 Ang^3
#
#
#
# Elastic Constant Matrix: (Units=GPa)
#
#
# Indices 1 2 3 4 5 6 
#
# 1 107.1738 50.9081 56.7674 0.0000 0.0000 0.0000
# 2 50.9081 116.3427 54.3073 0.0000 0.0000 0.0000
# 3 56.7674 54.3073 140.9117 0.0000 0.0000 0.0000
# 4 0.0000 0.0000 0.0000 28.6881 0.0000 0.0000
# 5 0.0000 0.0000 0.0000 0.0000 26.0728 0.0000
# 6 0.0000 0.0000 0.0000 0.0000 0.0000 17.6321
#
#
#
# Elastic Compliance Matrix: (Units=1/GPa)
#
#
# Indices 1 2 3 4 5 6 
#
# 1 0.013250 -0.004031 -0.003784 0.000000 0.000000 0.000000
# 2 -0.004031 0.011707 -0.002888 0.000000 0.000000 0.000000
# 3 -0.003784 -0.002888 0.009734 0.000000 0.000000 0.000000
# 4 0.000000 0.000000 0.000000 0.034858 0.000000 0.000000
# 5 0.000000 0.000000 0.000000 0.000000 0.038354 0.000000
# 6 0.000000 0.000000 0.000000 0.000000 0.000000 0.056715
#
#
# Mechanical properties :
#
#
# Convention : Reuss Voigt Hill
#
# Bulk Modulus (GPa) = 75.27577 76.48819 75.88198
# Shear Modulus (GPa) = 26.25321 27.97498 27.11409
#
# Velocity S-wave (km/s) = 3.59904 3.71518 3.65757
# Velocity P-wave (km/s) = 7.37638 7.49279 7.43482
#
# Compressibility (1/GPa) = 0.01328449
#
# Stress axis : x y z
#
# Youngs Moduli (GPa) = 75.47204 85.41636 102.73141
#
# Poissons Ratio (x) = 0.34435 0.38875
# Poissons Ratio (y) = 0.30426 0.29668
# Poissons Ratio (z) = 0.28560 0.24668
#
# Static dielectric constant tensor:
#      x y z
#    x 3.629970 0.000000 0.000000 
#    y 0.000000 3.999770 0.000000 
#    z 0.000000 0.000000 3.681980 
# 
# 
# High freq. dielectric constant tensor:
#      x y z
#    x 1.766790 0.000000 0.000000 
#    y 0.000000 1.816760 0.000000 
#    z 0.000000 0.000000 1.796490 
# 
# From -- ./inp_files/10597.got.cif
#   From: 2010.03.12/outbox.cif.g09.slc.cpg/sg38_6_cif.got.tgz:10597.got - 2010.04.14 02:38:36.
