data_PCOD8180552
_publ_section_title
;
Structure prediction by ZEFSAII (Michael W. Deem and Ramdas Pophale) SiO2 
 PCOD8180552
Probable space group: A M M 2
;
_chemical_formula_sum "Si O2"
_cell_formula_units_Z 48
_cell_length_a 9.932816
_cell_length_b 7.732917
_cell_length_c 34.567572
_cell_angle_alpha 90.000000
_cell_angle_beta 90.000000
_cell_angle_gamma 90.000000
_cell_volume 2655.122820
_symmetry_space_group_name_H-M "A M M 2"
_symmetry_group_IT_number 38
_symmetry_cell_setting 'orthorhombic'
loop_
_space_group_symop_operation_xyz
x,y,z
-x,-y,z
-x,y,z
x,-y,z
x,1/2+y,1/2+z
-x,1/2-y,1/2+z
-x,1/2+y,1/2+z
x,1/2-y,1/2+z
loop_
_atom_site_type_symbol
_atom_site_label
_atom_site_fract_x
_atom_site_fract_y
_atom_site_fract_z
Si Si1 0.149590 0.204797 0.177180
Si Si2 0.660238 0.693442 0.941574
Si Si3 0.658633 0.500000 0.302069
Si Si4 0.657234 0.700296 0.745214
Si Si5 0.151001 0.296174 0.591385
Si Si6 0.353952 0.300684 0.025609
Si Si7 0.338883 0.000000 0.888450
O O1 0.260146 0.266751 0.207930
O O2 0.189330 0.272943 0.134328
O O3 0.000000 0.273585 0.188485
O O4 0.145722 0.000000 0.175884
O O5 0.500000 0.686900 0.939790
O O6 0.718542 0.500000 0.933227
O O7 0.716326 0.827762 0.909767
O O8 0.702533 0.767373 0.984226
O O9 0.500000 0.500000 0.305693
O O10 0.703566 0.324151 0.280240
O O11 0.721350 0.500000 0.344998
O O12 0.500000 0.723741 0.735534
O O13 0.689530 0.500000 0.755852
O O14 0.161203 0.500000 0.590204
O O15 0.251729 0.221137 0.560327
O O16 0.000000 0.235154 0.581073
O O17 0.500000 0.214819 0.035747
O O18 0.378937 0.500000 0.018161
O O19 0.500000 0.000000 0.888337
#
# Coordination Sequence:
#
# PCOD8180552 Si02
#       7
#     8   8   4   8   8   8   4
#     4   8  15  30  49  67  90 121 159 198 233 277
#     4   8  15  27  42  64  94 124 157 196 232 279
#     4   9  18  30  43  69 101 123 155 199 237 289
#     4   9  17  30  48  68  94 127 156 190 240 288
#     4   9  18  31  47  69  95 123 159 202 242 285
#     4   9  18  31  45  66  96 126 160 200 240 283
#     4   9  16  26  44  67  93 127 157 187 241 291
#
# _framework density 18.07826
#
# number of rings (size 3 to 8) (size 9 to 14) (size 15 to 20)
#    0.000    3.333    0.000    2.000    1.167    2.000 
#    1.500    5.417    0.000    0.000    0.000    2.333 
#    0.000    2.667    0.000    0.000    0.000    0.000 
#
# Total GULP energy -297349.921810 kJ/mol
# GULP energy per Si atom -12389.580075 kJ/mol
# Density = 1.803711 g / cm^3
# Si number density = 18.078260 Si / 1000 Ang^3
#
#
#
# Elastic Constant Matrix: (Units=GPa)
#
#
# Indices 1 2 3 4 5 6 
#
# 1 50.9607 24.1181 55.6543 0.0000 0.0000 0.0000
# 2 24.1181 74.4536 58.9714 0.0000 0.0000 0.0000
# 3 55.6543 58.9714 165.1063 0.0000 0.0000 0.0000
# 4 0.0000 0.0000 0.0000 21.2546 0.0000 0.0000
# 5 0.0000 0.0000 0.0000 0.0000 -1.1751 0.0000
# 6 0.0000 0.0000 0.0000 0.0000 0.0000 10.6727
#
#
#
# Elastic Compliance Matrix: (Units=1/GPa)
#
#
# Indices 1 2 3 4 5 6 
#
# 1 0.031383 -0.002492 -0.009689 0.000000 0.000000 0.000000
# 2 -0.002492 0.018928 -0.005920 0.000000 0.000000 0.000000
# 3 -0.009689 -0.005920 0.011437 0.000000 0.000000 0.000000
# 4 0.000000 0.000000 0.000000 0.047049 0.000000 0.000000
# 5 0.000000 0.000000 0.000000 0.000000 -0.850979 0.000000
# 6 0.000000 0.000000 0.000000 0.000000 0.000000 0.093697
#
#
# Mechanical properties :
#
#
# Convention : Reuss Voigt Hill
#
# Bulk Modulus (GPa) = 39.14527 63.11201 51.12864
# Shear Modulus (GPa) = -8.28134 16.26889 3.99377
#
# Velocity S-wave (km/s) = -2.14261 3.00311 1.48794
# Velocity P-wave (km/s) = 3.94705 6.85647 5.59421
#
# Compressibility (1/GPa) = 0.02554587
#
# Stress axis : x y z
#
# Youngs Moduli (GPa) = 31.86399 52.83235 87.43437
#
# Poissons Ratio (x) = 0.13167 0.84712
# Poissons Ratio (y) = 0.07941 0.51765
# Poissons Ratio (z) = 0.30872 0.31279
#
# Static dielectric constant tensor:
#      x y z
#    x 3.192290 0.000000 0.000000 
#    y 0.000000 3.408590 0.000000 
#    z 0.000000 0.000000 4.097420 
# 
# 
# High freq. dielectric constant tensor:
#      x y z
#    x 1.653420 0.000000 0.000000 
#    y 0.000000 1.697190 0.000000 
#    z 0.000000 0.000000 1.701390 
# 
# From -- ./inp_files/24396.got.cif
#   From: 2010.03.12/outbox.cif.g09.slc.cpg/sg38_13_cif.got.tgz:24396.got - 2010.04.14 02:38:36.
