data_PCOD8180679
_publ_section_title
;
Structure prediction by ZEFSAII (Michael W. Deem and Ramdas Pophale) SiO2 
 PCOD8180679
Probable space group: A B M 2
;
_chemical_formula_sum "Si O2"
_cell_formula_units_Z 64
_cell_length_a 8.746186
_cell_length_b 17.816800
_cell_length_c 20.973677
_cell_angle_alpha 90.000000
_cell_angle_beta 90.000000
_cell_angle_gamma 90.000000
_cell_volume 3268.308093
_symmetry_space_group_name_H-M "A B M 2"
_symmetry_group_IT_number 39
_symmetry_cell_setting 'orthorhombic'
loop_
_space_group_symop_operation_xyz
x,y,z
-x,-y,z
-x,1/2+y,z
x,1/2-y,z
x,1/2+y,1/2+z
-x,1/2-y,1/2+z
-x,y,1/2+z
x,-y,1/2+z
loop_
_atom_site_type_symbol
_atom_site_label
_atom_site_fract_x
_atom_site_fract_y
_atom_site_fract_z
Si Si1 0.441720 0.838619 0.642300
Si Si2 0.072567 0.578948 0.024018
Si Si3 0.568664 0.918889 0.524090
Si Si4 0.549532 0.413178 0.771349
Si Si5 0.132692 0.662808 0.770545
Si Si6 0.917874 0.832679 0.404651
Si Si7 0.552346 0.164746 0.899315
Si Si8 0.093100 0.335468 0.132385
O O1 0.450158 0.750000 0.652174
O O2 0.541338 0.862863 0.582353
O O3 0.513284 0.876998 0.705699
O O4 0.267443 0.865490 0.628992
O O5 0.251826 0.572709 0.017521
O O6 0.000000 0.500000 0.033710
O O7 0.024458 0.624862 0.085858
O O8 0.009288 0.613415 0.957669
O O9 0.494501 0.883220 0.460246
O O10 0.500000 0.000000 0.538206
O O11 0.500000 0.500000 0.773780
O O12 0.731713 0.398439 0.770660
O O13 0.483771 0.372600 0.834955
O O14 0.197377 0.750000 0.773223
O O15 0.024690 0.647921 0.832503
O O16 0.035363 0.653190 0.705605
O O17 0.971032 0.750000 0.425072
O O18 0.735095 0.836563 0.399590
O O19 0.491061 0.250000 0.904826
O O20 0.090276 0.250000 0.111174
#
# Coordination Sequence:
#
# PCOD8180679 Si02
#       8
#     8   8   8   8   8   8   8   8
#     4  10  20  35  55  79 107 143 181 219 262 315
#     4  11  22  34  51  77 108 139 172 216 267 316
#     4  11  22  36  54  77 107 142 180 223 270 319
#     4  10  17  27  48  78 109 140 173 214 260 310
#     4   8  15  31  54  77 100 132 174 216 258 313
#     4   8  15  30  53  76  98 129 172 215 256 307
#     4   9  17  31  51  76 103 136 179 221 259 308
#     4   9  18  34  57  80 104 135 174 216 260 310
#
# _framework density 19.581996
#
# number of rings (size 3 to 8) (size 9 to 14) (size 15 to 20)
#    0.000    2.500    0.000    4.875    0.000    2.500 
#    0.000    0.625    0.000    6.000    0.000    3.500 
#    0.000    0.000    0.000    0.000    0.000    0.000 
#
# Total GULP energy -396544.028161 kJ/mol
# GULP energy per Si atom -12392.000880 kJ/mol
# Density = 1.953743 g / cm^3
# Si number density = 19.581996 Si / 1000 Ang^3
#
#
#
# Elastic Constant Matrix: (Units=GPa)
#
#
# Indices 1 2 3 4 5 6 
#
# 1 29.8162 23.3141 24.8601 0.0000 0.0000 0.0000
# 2 23.3141 96.1221 49.5298 0.0000 0.0000 0.0000
# 3 24.8601 49.5298 170.1851 0.0000 0.0000 0.0000
# 4 0.0000 0.0000 0.0000 35.8352 0.0000 0.0000
# 5 0.0000 0.0000 0.0000 0.0000 25.5156 0.0000
# 6 0.0000 0.0000 0.0000 0.0000 0.0000 -38.3996
#
#
#
# Elastic Compliance Matrix: (Units=1/GPa)
#
#
# Indices 1 2 3 4 5 6 
#
# 1 0.043439 -0.008548 -0.003858 0.000000 0.000000 0.000000
# 2 -0.008548 0.013921 -0.002803 0.000000 0.000000 0.000000
# 3 -0.003858 -0.002803 0.007255 0.000000 0.000000 0.000000
# 4 0.000000 0.000000 0.000000 0.027906 0.000000 0.000000
# 5 0.000000 0.000000 0.000000 0.000000 0.039192 0.000000
# 6 0.000000 0.000000 0.000000 0.000000 0.000000 -0.026042
#
#
# Mechanical properties :
#
#
# Convention : Reuss Voigt Hill
#
# Bulk Modulus (GPa) = 29.24137 54.61461 41.92799
# Shear Modulus (GPa) = 33.90111 17.81819 25.85965
#
# Velocity S-wave (km/s) = 4.16533 3.01977 3.63792
# Velocity P-wave (km/s) = 6.17240 6.33320 6.25332
#
# Compressibility (1/GPa) = 0.03419813
#
# Stress axis : x y z
#
# Youngs Moduli (GPa) = 23.02057 71.83385 137.83258
#
# Poissons Ratio (x) = 0.61406 0.53171
# Poissons Ratio (y) = 0.19679 0.38632
# Poissons Ratio (z) = 0.08881 0.20134
#
# Static dielectric constant tensor:
#      x y z
#    x 1.398460 0.000000 0.000000 
#    y 0.000000 3.556990 0.000000 
#    z 0.000000 0.000000 4.162380 
# 
# 
# High freq. dielectric constant tensor:
#      x y z
#    x 1.702110 0.000000 0.000000 
#    y 0.000000 1.762690 0.000000 
#    z 0.000000 0.000000 1.795150 
# 
# From -- ./inp_files/14251.got.cif
#   From: 2010.03.12/outbox.cif.g09.slc.cpg/sg39_8_cif.got.tgz:14251.got - 2010.04.14 02:53:20.
