data_PCOD8180733
_publ_section_title
;
Structure prediction by ZEFSAII (Michael W. Deem and Ramdas Pophale) SiO2 
 PCOD8180733
Probable space group: A B M 2
;
_chemical_formula_sum "Si O2"
_cell_formula_units_Z 56
_cell_length_a 19.294348
_cell_length_b 8.908413
_cell_length_c 20.352121
_cell_angle_alpha 90.000000
_cell_angle_beta 90.000000
_cell_angle_gamma 90.000000
_cell_volume 3498.163680
_symmetry_space_group_name_H-M "A B M 2"
_symmetry_group_IT_number 39
_symmetry_cell_setting 'orthorhombic'
loop_
_space_group_symop_operation_xyz
x,y,z
-x,-y,z
-x,1/2+y,z
x,1/2-y,z
x,1/2+y,1/2+z
-x,1/2-y,1/2+z
-x,y,1/2+z
x,-y,1/2+z
loop_
_atom_site_type_symbol
_atom_site_label
_atom_site_fract_x
_atom_site_fract_y
_atom_site_fract_z
Si Si1 0.190305 0.927282 0.095660
Si Si2 0.793310 0.419164 0.468581
Si Si3 0.071005 0.079887 0.032076
Si Si4 0.291560 0.427578 0.843935
Si Si5 0.567149 0.417963 0.852092
Si Si6 0.434317 0.585685 0.696534
Si Si7 0.282425 0.070233 0.205222
O O1 0.190019 0.750000 0.104027
O O2 0.111265 0.990856 0.090669
O O3 0.224593 0.002733 0.158588
O O4 0.232332 0.975787 0.029346
O O5 0.766666 0.250000 0.482739
O O6 0.877943 0.422484 0.468155
O O7 0.764453 0.474786 0.399091
O O8 0.056096 0.250000 0.054988
O O9 0.000000 0.000000 0.012924
O O10 0.294321 0.250000 0.831444
O O11 0.365764 0.483991 0.869885
O O12 0.267719 0.510807 0.778204
O O13 0.500000 0.500000 0.883010
O O14 0.574121 0.250000 0.881676
O O15 0.557950 0.406388 0.774433
O O16 0.500000 0.500000 0.665218
O O17 0.437391 0.750000 0.665096
O O18 0.358833 0.513679 0.680943
O O19 0.279810 0.250000 0.206459
#
# Coordination Sequence:
#
# PCOD8180733 Si02
#       7
#     8   8   8   8   8   8   8
#     4  10  19  31  50  74  96 126 162 198 236 283
#     4   8  18  33  49  70  99 128 155 195 239 282
#     4   9  17  32  52  76  99 124 156 194 233 276
#     4  10  18  30  48  71  97 128 162 200 245 289
#     4   9  16  26  40  62  90 123 160 201 242 283
#     4   8  15  25  39  59  86 119 155 194 236 277
#     4  10  19  31  46  69 100 130 160 201 246 287
#
# _framework density 16.008399000000001
#
# number of rings (size 3 to 8) (size 9 to 14) (size 15 to 20)
#    0.857    2.000    0.000    3.429    0.000    5.143 
#    0.000    0.000    0.000    1.714    0.000    8.000 
#    0.000    0.000    0.000    0.000    0.000    0.000 
#
# Total GULP energy -346884.896119 kJ/mol
# GULP energy per Si atom -12388.746290 kJ/mol
# Density = 1.597196 g / cm^3
# Si number density = 16.008399 Si / 1000 Ang^3
#
#
#
# Elastic Constant Matrix: (Units=GPa)
#
#
# Indices 1 2 3 4 5 6 
#
# 1 105.2244 46.1036 48.3780 0.0000 0.0000 0.0000
# 2 46.1036 104.8715 39.6165 0.0000 0.0000 0.0000
# 3 48.3780 39.6165 65.3293 0.0000 0.0000 0.0000
# 4 0.0000 0.0000 0.0000 20.3093 0.0000 0.0000
# 5 0.0000 0.0000 0.0000 0.0000 17.2222 0.0000
# 6 0.0000 0.0000 0.0000 0.0000 0.0000 30.5227
#
#
#
# Elastic Compliance Matrix: (Units=1/GPa)
#
#
# Indices 1 2 3 4 5 6 
#
# 1 0.015169 -0.003146 -0.009326 0.000000 0.000000 0.000000
# 2 -0.003146 0.013021 -0.005567 0.000000 0.000000 0.000000
# 3 -0.009326 -0.005567 0.025589 0.000000 0.000000 0.000000
# 4 0.000000 0.000000 0.000000 0.049238 0.000000 0.000000
# 5 0.000000 0.000000 0.000000 0.000000 0.058065 0.000000
# 6 0.000000 0.000000 0.000000 0.000000 0.000000 0.032763
#
#
# Mechanical properties :
#
#
# Convention : Reuss Voigt Hill
#
# Bulk Modulus (GPa) = 56.48767 60.40237 58.44502
# Shear Modulus (GPa) = 21.20239 23.03264 22.11752
#
# Velocity S-wave (km/s) = 3.64325 3.79725 3.72105
# Velocity P-wave (km/s) = 7.28427 7.55242 7.41956
#
# Compressibility (1/GPa) = 0.01770298
#
# Stress axis : x y z
#
# Youngs Moduli (GPa) = 65.92211 76.79681 39.07990
#
# Poissons Ratio (x) = 0.24160 0.36444
# Poissons Ratio (y) = 0.20739 0.21755
# Poissons Ratio (z) = 0.61476 0.42750
#
# Static dielectric constant tensor:
#      x y z
#    x 3.057200 0.000000 0.000000 
#    y 0.000000 3.182620 0.000000 
#    z 0.000000 0.000000 2.643330 
# 
# 
# High freq. dielectric constant tensor:
#      x y z
#    x 1.609180 0.000000 0.000000 
#    y 0.000000 1.630270 0.000000 
#    z 0.000000 0.000000 1.566270 
# 
# From -- ./inp_files/16300.got.cif
#   From: 2010.03.12/outbox.cif.g09.slc.cpg/sg39_9_cif.got.tgz:16300.got - 2010.04.14 02:53:20.
