data_PCOD8180569
_publ_section_title
;
Structure prediction by ZEFSAII (Michael W. Deem and Ramdas Pophale) SiO2 
 PCOD8180569
Probable space group: A M M 2
;
_chemical_formula_sum "Si O2"
_cell_formula_units_Z 24
_cell_length_a 15.000000
_cell_length_b 9.000000
_cell_length_c 18.000000
_cell_angle_alpha 90.000000
_cell_angle_beta 90.000000
_cell_angle_gamma 90.000000
_cell_volume 2430.000000
_symmetry_space_group_name_H-M "A M M 2"
_symmetry_group_IT_number 38
_symmetry_cell_setting 'orthorhombic'
loop_
_space_group_symop_operation_xyz
x,y,z
-x,-y,z
-x,y,z
x,-y,z
x,1/2+y,1/2+z
-x,1/2-y,1/2+z
-x,1/2+y,1/2+z
x,1/2-y,1/2+z
loop_
_atom_site_type_symbol
_atom_site_label
_atom_site_fract_x
_atom_site_fract_y
_atom_site_fract_z
Si Si1 0.342655 0.671037 0.551000
Si Si2 0.644368 0.666703 0.379228
Si Si3 0.154309 0.669254 0.390841
Si Si4 0.500000 0.824098 0.636436
Si Si5 0.500000 0.672837 0.790871
Si Si6 0.000000 0.168705 0.776406
Si Si7 0.156458 0.676289 0.040512
Si Si8 0.000000 0.674879 0.627564
O O1 0.332773 0.500000 0.576321
O O2 0.374470 0.680338 0.466431
O O3 0.412820 0.754086 0.601316
O O4 0.250705 0.755775 0.562709
O O5 0.618435 0.500000 0.352578
O O6 0.746975 0.700964 0.360495
O O7 0.587446 0.791837 0.338706
O O8 0.148798 0.500000 0.421810
O O9 0.087618 0.696343 0.324317
O O10 0.129213 0.780661 0.456868
O O11 0.500000 0.782697 0.722065
O O12 0.500000 0.000000 0.625165
O O13 0.500000 0.500000 0.767944
O O14 0.000000 0.294927 0.714895
O O15 0.000000 0.000000 0.744400
O O16 0.157893 0.500000 0.049283
O O17 0.086703 0.747051 0.095937
O O18 0.000000 0.500000 0.610602
#
# Coordination Sequence:
#
# PCOD8180569 Si02
#       8
#     8   8   8   4   4   4   8   4
#     4  10  21  40  64  89 118 152 192 238 292 348
#     4   9  19  37  60  85 114 149 188 233 286 343
#     4   9  19  37  62  88 116 151 188 232 289 346
#     4  12  25  40  59  85 119 157 197 240 289 344
#     4  12  25  38  55  81 115 155 197 240 287 340
#     4  10  21  38  59  85 117 151 191 238 291 348
#     4  11  22  38  62  90 118 150 195 244 288 341
#     4  12  25  40  57  81 119 161 199 240 291 348
#
# _framework density 9.8765429999999999
#
# number of rings (size 3 to 8) (size 9 to 14) (size 15 to 20)
#    0.000    1.667    0.000    6.250    0.000    8.000 
#    0.000    5.000    0.000    0.000    0.000    0.000 
#    0.000    0.000    0.000    0.000    0.000    0.000 
#
# Total GULP energy -297671.698142 kJ/mol
# GULP energy per Si atom -12402.987423 kJ/mol
# Density = 0.985406 g / cm^3
# Si number density = 9.876543 Si / 1000 Ang^3
#
#
#
# Elastic Constant Matrix: (Units=GPa)
#
#
# Indices 1 2 3 4 5 6 
#
# 1 102.0212 57.7254 68.2407 0.0000 0.0000 0.0000
# 2 57.7254 168.4161 54.8384 0.0000 0.0000 0.0000
# 3 68.2407 54.8384 79.7871 0.0000 0.0000 0.0000
# 4 0.0000 0.0000 0.0000 36.6363 0.0000 0.0000
# 5 0.0000 0.0000 0.0000 0.0000 36.6871 0.0000
# 6 0.0000 0.0000 0.0000 0.0000 0.0000 35.9320
#
#
#
# Elastic Compliance Matrix: (Units=1/GPa)
#
#
# Indices 1 2 3 4 5 6 
#
# 1 0.023386 -0.001936 -0.018671 0.000000 0.000000 0.000000
# 2 -0.001936 0.007810 -0.003712 0.000000 0.000000 0.000000
# 3 -0.018671 -0.003712 0.031054 0.000000 0.000000 0.000000
# 4 0.000000 0.000000 0.000000 0.027295 0.000000 0.000000
# 5 0.000000 0.000000 0.000000 0.000000 0.027258 0.000000
# 6 0.000000 0.000000 0.000000 0.000000 0.000000 0.027830
#
#
# Mechanical properties :
#
#
# Convention : Reuss Voigt Hill
#
# Bulk Modulus (GPa) = 73.46722 79.09260 76.27991
# Shear Modulus (GPa) = 25.27690 33.14574 29.21132
#
# Velocity S-wave (km/s) = 3.58109 4.10079 3.84972
# Velocity P-wave (km/s) = 7.37377 7.90882 7.64598
#
# Compressibility (1/GPa) = 0.01361151
#
# Stress axis : x y z
#
# Youngs Moduli (GPa) = 42.75988 128.04198 32.20222
#
# Poissons Ratio (x) = 0.24792 0.60126
# Poissons Ratio (y) = 0.08279 0.11953
# Poissons Ratio (z) = 0.79838 0.47527
#
# Static dielectric constant tensor:
#      x y z
#    x 3.698750 0.000000 0.000000 
#    y 0.000000 3.717970 0.000000 
#    z 0.000000 0.000000 3.421810 
# 
# 
# High freq. dielectric constant tensor:
#      x y z
#    x 1.784120 0.000000 0.000000 
#    y 0.000000 1.777770 0.000000 
#    z 0.000000 0.000000 1.756560 
# 
# From -- ./inp_files/18266.got.cif
#   From: 2010.03.12/outbox.ucp.g09.slc.cvg/sg38_10_cif.got.tgz:18266.got - 2010.05.04 21:14:20.
