data_PCOD8180257
_publ_section_title
;
Structure prediction by ZEFSAII (Michael W. Deem and Ramdas Pophale) SiO2 
 PCOD8180257
Probable space group: A M M 2
;
_chemical_formula_sum "Si O2"
_cell_formula_units_Z 56
_cell_length_a 13.934286
_cell_length_b 15.497207
_cell_length_c 11.966398
_cell_angle_alpha 90.000000
_cell_angle_beta 90.000000
_cell_angle_gamma 90.000000
_cell_volume 2584.054074
_symmetry_space_group_name_H-M "A M M 2"
_symmetry_group_IT_number 38
_symmetry_cell_setting 'orthorhombic'
loop_
_space_group_symop_operation_xyz
x,y,z
-x,-y,z
-x,y,z
x,-y,z
x,1/2+y,1/2+z
-x,1/2-y,1/2+z
-x,1/2+y,1/2+z
x,1/2-y,1/2+z
loop_
_atom_site_type_symbol
_atom_site_label
_atom_site_fract_x
_atom_site_fract_y
_atom_site_fract_z
Si Si1 0.609005 0.598610 0.501900
Si Si2 0.740419 0.814301 0.183433
Si Si3 0.782883 0.100886 0.401407
Si Si4 0.697678 0.639026 0.265276
Si Si5 0.890561 0.750897 0.014975
Si Si6 0.893345 0.096985 0.842427
Si Si7 0.604160 0.902589 0.538563
O O1 0.500000 0.632493 0.496154
O O2 0.612369 0.500000 0.541124
O O3 0.665192 0.653912 0.592680
O O4 0.657494 0.606083 0.381898
O O5 0.775604 0.889704 0.266905
O O6 0.688986 0.742406 0.259961
O O7 0.829527 0.765724 0.126245
O O8 0.866069 0.162276 0.449636
O O9 0.685191 0.137947 0.458664
O O10 0.803248 0.000000 0.429848
O O11 0.809196 0.608260 0.250891
O O12 0.636028 0.597677 0.167011
O O13 0.000000 0.744675 0.052754
O O14 0.871598 0.834667 0.939249
O O15 0.000000 0.113265 0.790088
O O16 0.888942 0.000000 0.893096
O O17 0.500000 0.855694 0.524547
O O18 0.591462 0.000000 0.499094
#
# Coordination Sequence:
#
# PCOD8180257 Si02
#       7
#     8   8   8   8   8   8   8
#     4  11  25  44  67  97 133 178 230 282 337 399
#     4  12  24  43  65 101 136 179 219 282 341 405
#     4  11  24  45  70  99 138 183 227 277 342 408
#     4  12  22  40  68  97 136 172 225 285 337 400
#     4  11  24  45  69  97 136 177 225 278 338 405
#     4  10  21  39  68 101 132 171 220 276 338 400
#     4  10  22  41  65  95 132 179 232 281 337 406
#
# _framework density 21.671372999999999
#
# number of rings (size 3 to 8) (size 9 to 14) (size 15 to 20)
#    0.000    1.000    4.286    2.143    0.000    4.857 
#    0.000    1.429    0.000    0.000    0.000    0.000 
#    0.000    0.000    0.000    0.000    0.000    0.000 
#
# Total GULP energy -347157.003419 kJ/mol
# GULP energy per Si atom -12398.464408 kJ/mol
# Density = 2.162205 g / cm^3
# Si number density = 21.671373 Si / 1000 Ang^3
#
#
#
# Elastic Constant Matrix: (Units=GPa)
#
#
# Indices 1 2 3 4 5 6 
#
# 1 141.8105 36.4205 40.3304 0.0000 0.0000 0.0000
# 2 36.4205 112.3659 26.7344 0.0000 0.0000 0.0000
# 3 40.3304 26.7344 87.8596 0.0000 0.0000 0.0000
# 4 0.0000 0.0000 0.0000 35.5817 0.0000 0.0000
# 5 0.0000 0.0000 0.0000 0.0000 15.3295 0.0000
# 6 0.0000 0.0000 0.0000 0.0000 0.0000 31.0062
#
#
#
# Elastic Compliance Matrix: (Units=1/GPa)
#
#
# Indices 1 2 3 4 5 6 
#
# 1 0.008496 -0.001968 -0.003301 0.000000 0.000000 0.000000
# 2 -0.001968 0.010050 -0.002155 0.000000 0.000000 0.000000
# 3 -0.003301 -0.002155 0.013553 0.000000 0.000000 0.000000
# 4 0.000000 0.000000 0.000000 0.028104 0.000000 0.000000
# 5 0.000000 0.000000 0.000000 0.000000 0.065234 0.000000
# 6 0.000000 0.000000 0.000000 0.000000 0.000000 0.032252
#
#
# Mechanical properties :
#
#
# Convention : Reuss Voigt Hill
#
# Bulk Modulus (GPa) = 57.96795 61.00076 59.48435
# Shear Modulus (GPa) = 28.04472 32.28685 30.16579
#
# Velocity S-wave (km/s) = 3.60125 3.86403 3.73495
# Velocity P-wave (km/s) = 6.64068 6.93663 6.79027
#
# Compressibility (1/GPa) = 0.01725091
#
# Stress axis : x y z
#
# Youngs Moduli (GPa) = 117.70269 99.50136 73.78627
#
# Poissons Ratio (x) = 0.19586 0.24357
# Poissons Ratio (y) = 0.23168 0.15898
# Poissons Ratio (z) = 0.38853 0.21438
#
# Static dielectric constant tensor:
#      x y z
#    x 4.316650 0.000000 0.000000 
#    y 0.000000 3.973340 0.000000 
#    z 0.000000 0.000000 3.698090 
# 
# 
# High freq. dielectric constant tensor:
#      x y z
#    x 1.860360 0.000000 0.000000 
#    y 0.000000 1.860580 0.000000 
#    z 0.000000 0.000000 1.837900 
# 
# From -- ./inp_files/10100.got.cif
#   From: 2010.03.12/outbox.cif.g09.slc.cpg/sg38_6_cif.got.tgz:10100.got - 2010.04.14 02:38:36.
