data_PCOD8180218
_publ_section_title
;
Structure prediction by ZEFSAII (Michael W. Deem and Ramdas Pophale) SiO2 
 PCOD8180218
Probable space group: A M M 2
;
_chemical_formula_sum "Si O2"
_cell_formula_units_Z 40
_cell_length_a 9.476664
_cell_length_b 7.635782
_cell_length_c 29.268482
_cell_angle_alpha 90.000000
_cell_angle_beta 90.000000
_cell_angle_gamma 90.000000
_cell_volume 2117.918296
_symmetry_space_group_name_H-M "A M M 2"
_symmetry_group_IT_number 38
_symmetry_cell_setting 'orthorhombic'
loop_
_space_group_symop_operation_xyz
x,y,z
-x,-y,z
-x,y,z
x,-y,z
x,1/2+y,1/2+z
-x,1/2-y,1/2+z
-x,1/2+y,1/2+z
x,1/2-y,1/2+z
loop_
_atom_site_type_symbol
_atom_site_label
_atom_site_fract_x
_atom_site_fract_y
_atom_site_fract_z
Si Si1 0.167425 0.000000 0.902441
Si Si2 0.338662 0.203199 0.649102
Si Si3 0.831140 0.000000 0.797811
Si Si4 0.843674 0.708210 0.066296
Si Si5 0.168493 0.305406 0.965917
Si Si6 0.662678 0.302429 0.749293
O O1 0.217007 0.000000 0.850393
O O2 0.227675 0.827300 0.927733
O O3 0.000000 0.000000 0.905733
O O4 0.500000 0.232805 0.635990
O O5 0.251389 0.285202 0.607039
O O6 0.298983 0.301711 0.695708
O O7 0.303358 0.000000 0.656905
O O8 0.767676 0.174650 0.775771
O O9 0.000000 0.000000 0.791823
O O10 0.847761 0.500000 0.069031
O O11 0.000000 0.786579 0.072732
O O12 0.782307 0.759879 0.016328
O O13 0.227733 0.500000 0.954966
O O14 0.000000 0.311188 0.965998
O O15 0.500000 0.241058 0.756065
O O16 0.684516 0.500000 0.767713
#
# Coordination Sequence:
#
# PCOD8180218 Si02
#       6
#     4   8   4   8   8   8
#     4   9  18  31  49  75 103 137 175 211 266 329
#     4   9  16  29  50  74 101 137 177 217 262 316
#     4  11  23  37  57  85 115 141 177 241 296 325
#     4   8  14  25  44  71 101 135 170 207 255 308
#     4   8  14  27  46  67  97 136 173 207 247 310
#     4  10  21  39  60  78 104 148 194 227 268 338
#
# _framework density 18.886471
#
# number of rings (size 3 to 8) (size 9 to 14) (size 15 to 20)
#    0.000    3.000    1.000    1.500    0.000    2.000 
#    1.800    2.000    0.000    2.400    0.000    2.800 
#    0.000    0.000    0.000    0.000    0.000    0.000 
#
# Total GULP energy -247896.101473 kJ/mol
# GULP energy per Si atom -12394.805074 kJ/mol
# Density = 1.884348 g / cm^3
# Si number density = 18.886471 Si / 1000 Ang^3
#
#
#
# Elastic Constant Matrix: (Units=GPa)
#
#
# Indices 1 2 3 4 5 6 
#
# 1 62.0566 36.1920 56.9008 0.0000 0.0000 0.0000
# 2 36.1920 96.4914 61.0424 0.0000 0.0000 0.0000
# 3 56.9008 61.0424 138.7833 0.0000 0.0000 0.0000
# 4 0.0000 0.0000 0.0000 6.0050 0.0000 0.0000
# 5 0.0000 0.0000 0.0000 0.0000 5.3687 0.0000
# 6 0.0000 0.0000 0.0000 0.0000 0.0000 13.1324
#
#
#
# Elastic Compliance Matrix: (Units=1/GPa)
#
#
# Indices 1 2 3 4 5 6 
#
# 1 0.027073 -0.004340 -0.009191 0.000000 0.000000 0.000000
# 2 -0.004340 0.015055 -0.004842 0.000000 0.000000 0.000000
# 3 -0.009191 -0.004842 0.013103 0.000000 0.000000 0.000000
# 4 0.000000 0.000000 0.000000 0.166528 0.000000 0.000000
# 5 0.000000 0.000000 0.000000 0.000000 0.186265 0.000000
# 6 0.000000 0.000000 0.000000 0.000000 0.000000 0.076148
#
#
# Mechanical properties :
#
#
# Convention : Reuss Voigt Hill
#
# Bulk Modulus (GPa) = 54.09890 67.28907 60.69399
# Shear Modulus (GPa) = 9.48624 14.44761 11.96693
#
# Velocity S-wave (km/s) = 2.24358 2.76881 2.51992
# Velocity P-wave (km/s) = 5.95130 6.77697 6.37751
#
# Compressibility (1/GPa) = 0.01848466
#
# Stress axis : x y z
#
# Youngs Moduli (GPa) = 36.93750 66.42374 76.31553
#
# Poissons Ratio (x) = 0.28829 0.70140
# Poissons Ratio (y) = 0.16032 0.36954
# Poissons Ratio (z) = 0.33948 0.32164
#
# Static dielectric constant tensor:
#      x y z
#    x 3.217720 0.000000 0.000000 
#    y 0.000000 3.457630 0.000000 
#    z 0.000000 0.000000 3.672070 
# 
# 
# High freq. dielectric constant tensor:
#      x y z
#    x 1.689880 0.000000 0.000000 
#    y 0.000000 1.730440 0.000000 
#    z 0.000000 0.000000 1.735830 
# 
# From -- ./inp_files/23270.got.cif
#   From: 2010.03.12/outbox.cif.g09.slc.cpg/sg38_12_cif.got.tgz:23270.got - 2010.04.14 02:38:36.
