data_PCOD8180661
_publ_section_title
;
Structure prediction by ZEFSAII (Michael W. Deem and Ramdas Pophale) SiO2 
 PCOD8180661
Probable space group: A B M 2
;
_chemical_formula_sum "Si O2"
_cell_formula_units_Z 56
_cell_length_a 19.741526
_cell_length_b 8.452716
_cell_length_c 15.396580
_cell_angle_alpha 90.000000
_cell_angle_beta 90.000000
_cell_angle_gamma 90.000000
_cell_volume 2569.219802
_symmetry_space_group_name_H-M "A B M 2"
_symmetry_group_IT_number 39
_symmetry_cell_setting 'orthorhombic'
loop_
_space_group_symop_operation_xyz
x,y,z
-x,-y,z
-x,1/2+y,z
x,1/2-y,z
x,1/2+y,1/2+z
-x,1/2-y,1/2+z
-x,y,1/2+z
x,-y,1/2+z
loop_
_atom_site_type_symbol
_atom_site_label
_atom_site_fract_x
_atom_site_fract_y
_atom_site_fract_z
Si Si1 0.208934 0.433915 0.023120
Si Si2 0.349316 0.069509 0.778667
Si Si3 0.067779 0.437645 0.219234
Si Si4 0.930846 0.064677 0.025392
Si Si5 0.344473 0.932791 0.958940
Si Si6 0.203508 0.933335 0.213263
Si Si7 0.574648 0.433659 0.619729
O O1 0.222131 0.250000 0.006519
O O2 0.135531 0.482255 0.984403
O O3 0.214403 0.469369 0.125132
O O4 0.265607 0.531514 0.972703
O O5 0.368765 0.250000 0.757358
O O6 0.268405 0.042923 0.774062
O O7 0.372955 0.027131 0.875707
O O8 0.386765 0.958437 0.710173
O O9 0.066371 0.250000 0.208921
O O10 0.067825 0.524414 0.126723
O O11 0.137662 0.495792 0.264515
O O12 0.000000 0.500000 0.269323
O O13 0.926160 0.250000 0.009140
O O14 0.000000 0.000000 0.981034
O O15 0.354050 0.750000 0.938946
O O16 0.386868 0.976946 0.043363
O O17 0.192076 0.750000 0.189564
O O18 0.500000 0.500000 0.629137
O O19 0.572910 0.250000 0.596950
#
# Coordination Sequence:
#
# PCOD8180661 Si02
#       7
#     8   8   8   8   8   8   8
#     4  11  20  33  56  85 120 163 213 263 321 381
#     4  11  24  43  68  99 134 172 216 264 319 381
#     4  10  17  26  43  71 110 153 205 259 316 375
#     4  10  17  27  44  72 111 154 205 261 320 378
#     4  12  25  43  67  98 134 173 218 266 319 379
#     4  10  19  33  56  84 120 161 208 261 319 378
#     4  12  26  47  74 103 136 172 212 259 315 379
#
# _framework density 21.796500000000002
#
# number of rings (size 3 to 8) (size 9 to 14) (size 15 to 20)
#    0.000    1.143    1.429    9.857    0.000    2.286 
#    0.000    2.857    0.000    0.857    0.000    2.000 
#    0.000    0.000    0.000    0.000    0.000    0.000 
#
# Total GULP energy -347222.275782 kJ/mol
# GULP energy per Si atom -12400.795564 kJ/mol
# Density = 2.174689 g / cm^3
# Si number density = 21.796500 Si / 1000 Ang^3
#
#
#
# Elastic Constant Matrix: (Units=GPa)
#
#
# Indices 1 2 3 4 5 6 
#
# 1 129.4919 31.7814 28.2661 0.0000 0.0000 0.0000
# 2 31.7814 106.2393 0.5599 0.0000 0.0000 0.0000
# 3 28.2661 0.5599 73.5366 0.0000 0.0000 0.0000
# 4 0.0000 0.0000 0.0000 22.9154 0.0000 0.0000
# 5 0.0000 0.0000 0.0000 0.0000 -4.5218 0.0000
# 6 0.0000 0.0000 0.0000 0.0000 0.0000 38.0564
#
#
#
# Elastic Compliance Matrix: (Units=1/GPa)
#
#
# Indices 1 2 3 4 5 6 
#
# 1 0.009154 -0.002720 -0.003498 0.000000 0.000000 0.000000
# 2 -0.002720 0.010221 0.000968 0.000000 0.000000 0.000000
# 3 -0.003498 0.000968 0.014936 0.000000 0.000000 0.000000
# 4 0.000000 0.000000 0.000000 0.043639 0.000000 0.000000
# 5 0.000000 0.000000 0.000000 0.000000 -0.221153 0.000000
# 6 0.000000 0.000000 0.000000 0.000000 0.000000 0.026277
#
#
# Mechanical properties :
#
#
# Convention : Reuss Voigt Hill
#
# Bulk Modulus (GPa) = 41.99797 47.83139 44.91468
# Shear Modulus (GPa) = -50.76660 27.86737 -11.44961
#
# Velocity S-wave (km/s) = -4.83133 3.57953 -2.29442
# Velocity P-wave (km/s) = 3.43690 6.25109 3.69215
#
# Compressibility (1/GPa) = 0.02381067
#
# Stress axis : x y z
#
# Youngs Moduli (GPa) = 109.24754 97.83540 66.95336
#
# Poissons Ratio (x) = 0.26610 0.23418
# Poissons Ratio (y) = 0.29714 -0.06479
# Poissons Ratio (z) = 0.38212 -0.09467
#
# Static dielectric constant tensor:
#      x y z
#    x 4.745540 0.000000 0.000000 
#    y 0.000000 3.957520 0.000000 
#    z 0.000000 0.000000 3.492170 
# 
# 
# High freq. dielectric constant tensor:
#      x y z
#    x 1.873620 0.000000 0.000000 
#    y 0.000000 1.871370 0.000000 
#    z 0.000000 0.000000 1.819450 
# 
# From -- ./inp_files/10353.got.cif
#   From: 2010.03.12/outbox.cif.g09.slc.cpg/sg39_6_cif.got.tgz:10353.got - 2010.04.14 02:53:20.
