data_PCOD8180585
_publ_section_title
;
Structure prediction by ZEFSAII (Michael W. Deem and Ramdas Pophale) SiO2 
 PCOD8180585
Probable space group: A B M 2
;
_chemical_formula_sum "Si O2"
_cell_formula_units_Z 56
_cell_length_a 31.648776
_cell_length_b 14.497500
_cell_length_c 5.301235
_cell_angle_alpha 90.000000
_cell_angle_beta 90.000000
_cell_angle_gamma 90.000000
_cell_volume 2432.355742
_symmetry_space_group_name_H-M "A B M 2"
_symmetry_group_IT_number 39
_symmetry_cell_setting 'orthorhombic'
loop_
_space_group_symop_operation_xyz
x,y,z
-x,-y,z
-x,1/2+y,z
x,1/2-y,z
x,1/2+y,1/2+z
-x,1/2-y,1/2+z
-x,y,1/2+z
x,-y,1/2+z
loop_
_atom_site_type_symbol
_atom_site_label
_atom_site_fract_x
_atom_site_fract_y
_atom_site_fract_z
Si Si1 0.476520 0.639943 0.649160
Si Si2 0.797394 0.107027 0.649826
Si Si3 0.332809 0.859821 0.149376
Si Si4 0.982341 0.604471 0.144242
Si Si5 0.111177 0.557778 0.617871
Si Si6 0.762161 0.099504 0.149825
Si Si7 0.381360 0.359389 0.149370
O O1 0.476674 0.750000 0.649159
O O2 0.499982 0.602477 0.399104
O O3 0.428852 0.601201 0.649293
O O4 0.847856 0.122333 0.652020
O O5 0.777297 0.154201 0.400523
O O6 0.784965 0.999311 0.647473
O O7 0.777450 0.154216 0.899266
O O8 0.325951 0.750000 0.149371
O O9 0.288093 0.911204 0.149233
O O10 0.357789 0.893922 0.397270
O O11 0.357809 0.893915 0.901545
O O12 0.931858 0.614244 0.151553
O O13 0.000000 0.500000 0.138194
O O14 0.000476 0.654959 0.392933
O O15 0.112415 0.519425 0.334179
O O16 0.382895 0.250000 0.149354
#
# Coordination Sequence:
#
# PCOD8180585 Si02
#       7
#     8   8   8   8   8   8   8
#     4   9  15  23  37  56  78 107 137 162 188 225
#     4  10  19  30  43  62  78 108 140 175 216 237
#     4  10  19  30  44  61  83 115 142 167 204 244
#     4  10  16  22  31  49  73 103 134 159 183 230
#     4  12  16  25  38  53  77 102 140 166 196 245
#     4  10  18  30  44  59  81 104 141 178 206 246
#     4   9  17  28  40  58  84 111 141 165 193 243
#
# _framework density 23.022946999999998
#
# number of rings (size 3 to 8) (size 9 to 14) (size 15 to 20)
#    0.000    2.000    5.714    1.714    0.000    3.429 
#    0.000    0.000    0.000    0.000    0.000    0.000 
#    0.000    0.000    0.000  180.000    0.000  132.857 
#
# Total GULP energy -347045.512653 kJ/mol
# GULP energy per Si atom -12394.482595 kJ/mol
# Density = 2.297055 g / cm^3
# Si number density = 23.022947 Si / 1000 Ang^3
#
#
#
# Elastic Constant Matrix: (Units=GPa)
#
#
# Indices 1 2 3 4 5 6 
#
# 1 253.3363 0.8641 107.3993 0.0000 0.0000 0.0000
# 2 0.8641 20.9371 -7.1437 0.0000 0.0000 0.0000
# 3 107.3993 -7.1437 263.8842 0.0000 0.0000 0.0000
# 4 0.0000 0.0000 0.0000 -11.2991 0.0000 0.0000
# 5 0.0000 0.0000 0.0000 0.0000 52.2320 0.0000
# 6 0.0000 0.0000 0.0000 0.0000 0.0000 22.5562
#
#
#
# Elastic Compliance Matrix: (Units=1/GPa)
#
#
# Indices 1 2 3 4 5 6 
#
# 1 0.004786 -0.000870 -0.001971 0.000000 0.000000 0.000000
# 2 -0.000870 0.048366 0.001663 0.000000 0.000000 0.000000
# 3 -0.001971 0.001663 0.004637 0.000000 0.000000 0.000000
# 4 0.000000 0.000000 0.000000 -0.088503 0.000000 0.000000
# 5 0.000000 0.000000 0.000000 0.000000 0.019145 0.000000
# 6 0.000000 0.000000 0.000000 0.000000 0.000000 0.044334
#
#
# Mechanical properties :
#
#
# Convention : Reuss Voigt Hill
#
# Bulk Modulus (GPa) = 18.04004 82.26636 50.15320
# Shear Modulus (GPa) = 93.28628 41.83369 67.55998
#
# Velocity S-wave (km/s) = 6.37235 4.26730 5.42295
# Velocity P-wave (km/s) = 7.87369 7.75176 7.81296
#
# Compressibility (1/GPa) = 0.05543226
#
# Stress axis : x y z
#
# Youngs Moduli (GPa) = 208.93967 20.67586 215.65916
#
# Poissons Ratio (x) = 0.01799 0.42516
# Poissons Ratio (y) = 0.18182 -0.35875
# Poissons Ratio (z) = 0.41192 -0.03439
#
# Static dielectric constant tensor:
#      x y z
#    x 4.345090 0.000000 0.000000 
#    y 0.000000 3.168400 0.000000 
#    z 0.000000 0.000000 6.520150 
# 
# 
# High freq. dielectric constant tensor:
#      x y z
#    x 1.923250 0.000000 0.000000 
#    y 0.000000 1.833860 0.000000 
#    z 0.000000 0.000000 1.946100 
# 
# From -- ./inp_files/1440.got.cif
#   From: 2010.03.12/outbox.cif.g09.slc.cpg/sg39_1_cif.got.tgz:1440.got - 2010.04.14 02:53:20.
