data_PCOD8180624
_publ_section_title
;
Structure prediction by ZEFSAII (Michael W. Deem and Ramdas Pophale) SiO2 
 PCOD8180624
Probable space group: A B M 2
;
_chemical_formula_sum "Si O2"
_cell_formula_units_Z 56
_cell_length_a 21.440744
_cell_length_b 28.077219
_cell_length_c 5.283615
_cell_angle_alpha 90.000000
_cell_angle_beta 90.000000
_cell_angle_gamma 90.000000
_cell_volume 3180.717551
_symmetry_space_group_name_H-M "A B M 2"
_symmetry_group_IT_number 39
_symmetry_cell_setting 'orthorhombic'
loop_
_space_group_symop_operation_xyz
x,y,z
-x,-y,z
-x,1/2+y,z
x,1/2-y,z
x,1/2+y,1/2+z
-x,1/2-y,1/2+z
-x,y,1/2+z
x,-y,1/2+z
loop_
_atom_site_type_symbol
_atom_site_label
_atom_site_fract_x
_atom_site_fract_y
_atom_site_fract_z
Si Si1 0.022479 0.106277 0.910280
Si Si2 0.656951 0.194399 0.905039
Si Si3 0.569800 0.479739 0.879776
Si Si4 0.539957 0.128196 0.883250
Si Si5 0.869973 0.668667 0.910356
Si Si6 0.267163 0.805879 0.405918
Si Si7 0.066032 0.198046 0.410455
O O1 0.096546 0.116110 0.909991
O O2 0.999939 0.077690 0.660375
O O3 0.987899 0.158262 0.910737
O O4 0.641713 0.250000 0.903881
O O5 0.591538 0.168126 0.915504
O O6 0.693288 0.179392 0.651509
O O7 0.696007 0.180163 0.152772
O O8 0.500000 0.500000 0.854364
O O9 0.604392 0.503104 0.122567
O O10 0.571839 0.423228 0.903731
O O11 0.509196 0.134510 0.608925
O O12 0.795707 0.662941 0.910038
O O13 0.889909 0.695502 0.655611
O O14 0.889774 0.695317 0.165785
O O15 0.249987 0.750000 0.410567
O O16 0.033212 0.250000 0.409836
#
# Coordination Sequence:
#
# PCOD8180624 Si02
#       7
#     8   8   8   8   8   8   8
#     4   8  16  24  31  48  72  89 112 160 218 272
#     4  10  23  37  46  63  88 114 152 194 217 242
#     4  10  16  30  49  77 104 114 128 158 198 265
#     4  12  21  33  55  74  92 120 140 166 223 272
#     4  10  18  26  39  52  64  96 134 165 220 272
#     4  10  19  33  46  55  76 109 149 194 224 247
#     4  10  17  23  32  51  73  88 115 165 221 275
#
# _framework density 17.606089000000001
#
# number of rings (size 3 to 8) (size 9 to 14) (size 15 to 20)
#    0.000    2.000    2.857    3.000    0.000    7.429 
#    0.000    0.000    0.000    0.000    0.000    0.000 
#    0.000    0.000    0.000    0.000    0.000    0.000 
#
# Total GULP energy -347022.138593 kJ/mol
# GULP energy per Si atom -12393.647807 kJ/mol
# Density = 1.756602 g / cm^3
# Si number density = 17.606089 Si / 1000 Ang^3
#
#
#
# Elastic Constant Matrix: (Units=GPa)
#
#
# Indices 1 2 3 4 5 6 
#
# 1 73.3072 26.2405 29.0629 0.0000 0.0000 0.0000
# 2 26.2405 31.5614 12.5768 0.0000 0.0000 0.0000
# 3 29.0629 12.5768 161.7505 0.0000 0.0000 0.0000
# 4 0.0000 0.0000 0.0000 12.1255 0.0000 0.0000
# 5 0.0000 0.0000 0.0000 0.0000 11.8756 0.0000
# 6 0.0000 0.0000 0.0000 0.0000 0.0000 -0.2102
#
#
#
# Elastic Compliance Matrix: (Units=1/GPa)
#
#
# Indices 1 2 3 4 5 6 
#
# 1 0.020291 -0.015911 -0.002409 0.000000 0.000000 0.000000
# 2 -0.015911 0.045173 -0.000654 0.000000 0.000000 0.000000
# 3 -0.002409 -0.000654 0.006666 0.000000 0.000000 0.000000
# 4 0.000000 0.000000 0.000000 0.082471 0.000000 0.000000
# 5 0.000000 0.000000 0.000000 0.000000 0.084206 0.000000
# 6 0.000000 0.000000 0.000000 0.000000 0.000000 -4.758350
#
#
# Mechanical properties :
#
#
# Convention : Reuss Voigt Hill
#
# Bulk Modulus (GPa) = 29.25319 44.70884 36.98102
# Shear Modulus (GPa) = -1.11852 18.00744 8.44446
#
# Velocity S-wave (km/s) = -0.79792 3.20159 2.19243
# Velocity P-wave (km/s) = 3.97524 6.25428 5.24016
#
# Compressibility (1/GPa) = 0.03418431
#
# Stress axis : x y z
#
# Youngs Moduli (GPa) = 49.28177 22.13710 150.01531
#
# Poissons Ratio (x) = 0.35222 0.36136
# Poissons Ratio (y) = 0.78411 0.09805
# Poissons Ratio (z) = 0.11871 0.01447
#
# Static dielectric constant tensor:
#      x y z
#    x 2.995660 0.000000 0.000000 
#    y 0.000000 2.714100 0.000000 
#    z 0.000000 0.000000 5.050500 
# 
# 
# High freq. dielectric constant tensor:
#      x y z
#    x 1.650290 0.000000 0.000000 
#    y 0.000000 1.614420 0.000000 
#    z 0.000000 0.000000 1.727530 
# 
# From -- ./inp_files/1086.got.cif
#   From: 2010.03.12/outbox.cif.g09.slc.cpg/sg39_1_cif.got.tgz:1086.got - 2010.04.14 02:53:20.
