data_PCOD8180772
_publ_section_title
;
Structure prediction by ZEFSAII (Michael W. Deem and Ramdas Pophale) SiO2 
 PCOD8180772
Probable space group: A B M 2
;
_chemical_formula_sum "Si O2"
_cell_formula_units_Z 64
_cell_length_a 19.881140
_cell_length_b 9.066492
_cell_length_c 20.226372
_cell_angle_alpha 90.000000
_cell_angle_beta 90.000000
_cell_angle_gamma 90.000000
_cell_volume 3645.847986
_symmetry_space_group_name_H-M "A B M 2"
_symmetry_group_IT_number 39
_symmetry_cell_setting 'orthorhombic'
loop_
_space_group_symop_operation_xyz
x,y,z
-x,-y,z
-x,1/2+y,z
x,1/2-y,z
x,1/2+y,1/2+z
-x,1/2-y,1/2+z
-x,y,1/2+z
x,-y,1/2+z
loop_
_atom_site_type_symbol
_atom_site_label
_atom_site_fract_x
_atom_site_fract_y
_atom_site_fract_z
Si Si1 0.823011 0.925121 0.283360
Si Si2 0.194294 0.424950 0.427444
Si Si3 0.678666 0.424338 0.736604
Si Si4 0.154685 0.921631 0.068552
Si Si5 0.691749 0.578946 0.604337
Si Si6 0.660462 0.424960 0.961439
Si Si7 0.429695 0.924395 0.844503
Si Si8 0.929092 0.925384 0.176065
O O1 0.820798 0.750000 0.280931
O O2 0.838249 0.980624 0.358414
O O3 0.750786 0.987449 0.260194
O O4 0.881006 0.983388 0.234978
O O5 0.200582 0.250000 0.427149
O O6 0.150174 0.470651 0.491313
O O7 0.269614 0.491048 0.433315
O O8 0.681101 0.250000 0.731506
O O9 0.661040 0.487851 0.664717
O O10 0.621900 0.475755 0.787851
O O11 0.135997 0.750000 0.077589
O O12 0.229226 0.953803 0.095518
O O13 0.101145 0.021776 0.106492
O O14 0.679511 0.750000 0.618444
O O15 0.651744 0.527773 0.538070
O O16 0.665751 0.250000 0.957258
O O17 0.598957 0.479570 0.915647
O O18 0.439649 0.750000 0.843682
O O19 0.500000 0.000000 0.830193
O O20 0.936652 0.750000 0.175144
O O21 0.000000 0.000000 0.188995
#
# Coordination Sequence:
#
# PCOD8180772 Si02
#       8
#     8   8   8   8   8   8   8   8
#     4   9  16  29  51  77 100 129 169 210 252 299
#     4   8  13  26  51  78  99 122 163 208 247 294
#     4  10  18  31  52  77 102 133 172 212 254 302
#     4   9  17  30  51  78 103 128 162 207 254 302
#     4   9  17  29  50  78 104 128 162 210 256 298
#     4   8  14  28  49  73  98 129 165 203 247 299
#     4  10  20  34  53  74 102 137 174 213 255 308
#     4  11  22  35  52  73 103 139 172 208 253 308
#
# _framework density 17.554214999999999
#
# number of rings (size 3 to 8) (size 9 to 14) (size 15 to 20)
#    0.000    2.750    2.500    1.875    0.000    0.500 
#    0.000    1.875    0.000    7.500    0.000    0.000 
#    0.000    0.000    0.000    0.000    0.000    0.000 
#
# Total GULP energy -396632.297436 kJ/mol
# GULP energy per Si atom -12394.759295 kJ/mol
# Density = 1.751426 g / cm^3
# Si number density = 17.554215 Si / 1000 Ang^3
#
#
#
# Elastic Constant Matrix: (Units=GPa)
#
#
# Indices 1 2 3 4 5 6 
#
# 1 119.6544 34.0643 77.4211 0.0000 0.0000 0.0000
# 2 34.0643 29.8805 33.0599 0.0000 0.0000 0.0000
# 3 77.4211 33.0599 169.4561 0.0000 0.0000 0.0000
# 4 0.0000 0.0000 0.0000 24.5510 0.0000 0.0000
# 5 0.0000 0.0000 0.0000 0.0000 25.1399 0.0000
# 6 0.0000 0.0000 0.0000 0.0000 0.0000 21.5790
#
#
#
# Elastic Compliance Matrix: (Units=1/GPa)
#
#
# Indices 1 2 3 4 5 6 
#
# 1 0.014505 -0.011738 -0.004337 0.000000 0.000000 0.000000
# 2 -0.011738 0.052177 -0.004817 0.000000 0.000000 0.000000
# 3 -0.004337 -0.004817 0.008823 0.000000 0.000000 0.000000
# 4 0.000000 0.000000 0.000000 0.040731 0.000000 0.000000
# 5 0.000000 0.000000 0.000000 0.000000 0.039777 0.000000
# 6 0.000000 0.000000 0.000000 0.000000 0.000000 0.046341
#
#
# Mechanical properties :
#
#
# Convention : Reuss Voigt Hill
#
# Bulk Modulus (GPa) = 29.65449 67.56462 48.60956
# Shear Modulus (GPa) = 19.57875 25.88370 22.73122
#
# Velocity S-wave (km/s) = 3.34328 3.84409 3.60240
# Velocity P-wave (km/s) = 5.64208 7.63383 6.71225
#
# Compressibility (1/GPa) = 0.03372170
#
# Stress axis : x y z
#
# Youngs Moduli (GPa) = 68.94007 19.16553 113.34566
#
# Poissons Ratio (x) = 0.22496 0.49161
# Poissons Ratio (y) = 0.80919 0.54596
# Poissons Ratio (z) = 0.29901 0.09232
#
# Static dielectric constant tensor:
#      x y z
#    x 3.117010 0.000000 0.000000 
#    y 0.000000 2.831480 0.000000 
#    z 0.000000 0.000000 3.668660 
# 
# 
# High freq. dielectric constant tensor:
#      x y z
#    x 1.654200 0.000000 0.000000 
#    y 0.000000 1.637480 0.000000 
#    z 0.000000 0.000000 1.697890 
# 
# From -- ./inp_files/15037.got.cif
#   From: 2010.03.12/outbox.cif.g09.slc.cpg/sg39_8_cif.got.tgz:15037.got - 2010.04.14 02:53:20.
