data_PCOD8180314
_publ_section_title
;
Structure prediction by ZEFSAII (Michael W. Deem and Ramdas Pophale) SiO2 
 PCOD8180314
Probable space group: A M M 2
;
_chemical_formula_sum "Si O2"
_cell_formula_units_Z 48
_cell_length_a 8.559262
_cell_length_b 18.159646
_cell_length_c 14.901551
_cell_angle_alpha 90.000000
_cell_angle_beta 90.000000
_cell_angle_gamma 90.000000
_cell_volume 2316.195279
_symmetry_space_group_name_H-M "A M M 2"
_symmetry_group_IT_number 38
_symmetry_cell_setting 'orthorhombic'
loop_
_space_group_symop_operation_xyz
x,y,z
-x,-y,z
-x,y,z
x,-y,z
x,1/2+y,1/2+z
-x,1/2-y,1/2+z
-x,1/2+y,1/2+z
x,1/2-y,1/2+z
loop_
_atom_site_type_symbol
_atom_site_label
_atom_site_fract_x
_atom_site_fract_y
_atom_site_fract_z
Si Si1 0.821712 0.120685 0.644390
Si Si2 0.177049 0.000000 0.498799
Si Si3 0.680107 0.735691 0.590938
Si Si4 0.319077 0.500000 0.813167
Si Si5 0.816802 0.275397 0.398726
Si Si6 0.815148 0.345533 0.752646
Si Si7 0.679107 0.080209 0.821922
O O1 0.794247 0.072406 0.556702
O O2 0.704311 0.189176 0.645518
O O3 0.782863 0.074633 0.732558
O O4 0.000000 0.148914 0.649402
O O5 0.302271 0.000000 0.420245
O O6 0.000000 0.000000 0.460250
O O7 0.500000 0.721477 0.567911
O O8 0.778103 0.746612 0.500108
O O9 0.742556 0.671026 0.655015
O O10 0.500000 0.500000 0.786655
O O11 0.237095 0.572477 0.775591
O O12 0.756206 0.212760 0.328872
O O13 0.735681 0.354120 0.385074
O O14 0.000000 0.285075 0.386291
O O15 0.000000 0.342334 0.745901
O O16 0.500000 0.094026 0.795792
O O17 0.698107 0.000000 0.870274
#
# Coordination Sequence:
#
# PCOD8180314 Si02
#       7
#     8   4   8   4   8   8   8
#     4  11  21  37  61  91 127 168 213 257 314 384
#     4  10  22  38  60  91 128 169 214 262 314 382
#     4  12  25  41  65  96 130 167 214 270 326 382
#     4  12  26  42  64  95 130 167 212 268 330 382
#     4  11  24  43  69  96 127 171 221 266 318 386
#     4  11  24  45  70  94 128 172 219 267 319 386
#     4  11  23  39  62  94 132 168 208 263 324 377
#
# _framework density 20.72364
#
# number of rings (size 3 to 8) (size 9 to 14) (size 15 to 20)
#    0.000    0.833    2.500    5.250    0.000    8.333 
#    1.500    0.000    0.000    0.000    0.000    0.000 
#    0.000    0.000    0.000    0.000    0.000    0.000 
#
# Total GULP energy -297650.621763 kJ/mol
# GULP energy per Si atom -12402.109240 kJ/mol
# Density = 2.067647 g / cm^3
# Si number density = 20.723640 Si / 1000 Ang^3
#
#
#
# Elastic Constant Matrix: (Units=GPa)
#
#
# Indices 1 2 3 4 5 6 
#
# 1 78.4952 37.5687 22.6865 0.0000 0.0000 0.0000
# 2 37.5687 138.5504 28.8791 0.0000 0.0000 0.0000
# 3 22.6865 28.8791 82.3564 0.0000 0.0000 0.0000
# 4 0.0000 0.0000 0.0000 31.8482 0.0000 0.0000
# 5 0.0000 0.0000 0.0000 0.0000 33.9964 0.0000
# 6 0.0000 0.0000 0.0000 0.0000 0.0000 30.4992
#
#
#
# Elastic Compliance Matrix: (Units=1/GPa)
#
#
# Indices 1 2 3 4 5 6 
#
# 1 0.015287 -0.003525 -0.002975 0.000000 0.000000 0.000000
# 2 -0.003525 0.008600 -0.002045 0.000000 0.000000 0.000000
# 3 -0.002975 -0.002045 0.013679 0.000000 0.000000 0.000000
# 4 0.000000 0.000000 0.000000 0.031399 0.000000 0.000000
# 5 0.000000 0.000000 0.000000 0.000000 0.029415 0.000000
# 6 0.000000 0.000000 0.000000 0.000000 0.000000 0.032788
#
#
# Mechanical properties :
#
#
# Convention : Reuss Voigt Hill
#
# Bulk Modulus (GPa) = 48.83730 53.07451 50.95591
# Shear Modulus (GPa) = 32.24133 33.28660 32.76397
#
# Velocity S-wave (km/s) = 3.94861 4.01211 3.98049
# Velocity P-wave (km/s) = 6.66377 6.86505 6.76516
#
# Compressibility (1/GPa) = 0.02047615
#
# Stress axis : x y z
#
# Youngs Moduli (GPa) = 65.41713 116.28507 73.10601
#
# Poissons Ratio (x) = 0.40990 0.21748
# Poissons Ratio (y) = 0.23059 0.14947
# Poissons Ratio (z) = 0.19461 0.23775
#
# Static dielectric constant tensor:
#      x y z
#    x 3.731370 0.000000 0.000000 
#    y 0.000000 3.765990 0.000000 
#    z 0.000000 0.000000 3.665500 
# 
# 
# High freq. dielectric constant tensor:
#      x y z
#    x 1.816810 0.000000 0.000000 
#    y 0.000000 1.823060 0.000000 
#    z 0.000000 0.000000 1.803940 
# 
# From -- ./inp_files/12146.got.cif
#   From: 2010.03.12/outbox.cif.g09.slc.cpg/sg38_7_cif.got.tgz:12146.got - 2010.04.14 02:38:36.
