data_PCOD8180426
_publ_section_title
;
Structure prediction by ZEFSAII (Michael W. Deem and Ramdas Pophale) SiO2 
 PCOD8180426
Probable space group: A M M 2
;
_chemical_formula_sum "Si O2"
_cell_formula_units_Z 64
_cell_length_a 19.772817
_cell_length_b 8.889702
_cell_length_c 20.047180
_cell_angle_alpha 90.000000
_cell_angle_beta 90.000000
_cell_angle_gamma 90.000000
_cell_volume 3523.782055
_symmetry_space_group_name_H-M "A M M 2"
_symmetry_group_IT_number 38
_symmetry_cell_setting 'orthorhombic'
loop_
_space_group_symop_operation_xyz
x,y,z
-x,-y,z
-x,y,z
x,-y,z
x,1/2+y,1/2+z
-x,1/2-y,1/2+z
-x,1/2+y,1/2+z
x,1/2-y,1/2+z
loop_
_atom_site_type_symbol
_atom_site_label
_atom_site_fract_x
_atom_site_fract_y
_atom_site_fract_z
Si Si1 0.685346 0.323176 0.441200
Si Si2 0.421167 0.827515 0.702326
Si Si3 0.813934 0.677487 0.260296
Si Si4 0.647696 0.671520 0.587227
Si Si5 0.325082 0.677399 0.806662
Si Si6 0.197257 0.826674 0.124505
Si Si7 0.924802 0.178812 0.864577
Si Si8 0.832055 0.321413 0.480739
O O1 0.683734 0.500000 0.425745
O O2 0.644411 0.286509 0.508914
O O3 0.651921 0.235070 0.379575
O O4 0.762045 0.262836 0.449076
O O5 0.500000 0.803491 0.714419
O O6 0.402907 0.779661 0.626887
O O7 0.381787 0.724006 0.754162
O O8 0.399795 0.000000 0.712888
O O9 0.804168 0.500000 0.265869
O O10 0.746680 0.753929 0.287181
O O11 0.829240 0.724305 0.184559
O O12 0.877585 0.733387 0.304078
O O13 0.624531 0.500000 0.597615
O O14 0.722815 0.693408 0.615681
O O15 0.318390 0.500000 0.806170
O O16 0.179568 0.000000 0.139703
O O17 0.159613 0.767588 0.057360
O O18 0.893921 0.236016 0.935183
O O19 0.000000 0.247429 0.856272
O O20 0.928174 0.000000 0.865391
O O21 0.826455 0.500000 0.482308
#
# Coordination Sequence:
#
# PCOD8180426 Si02
#       8
#     8   8   8   8   8   8   8   8
#     4   9  17  33  56  82 110 140 177 222 273 322
#     4  11  24  40  58  81 111 146 183 225 274 329
#     4  11  20  32  53  79 108 143 182 230 277 324
#     4   9  18  33  56  83 110 141 175 217 270 327
#     4  12  23  35  55  83 112 145 185 231 277 325
#     4   9  17  30  51  79 108 135 171 221 270 319
#     4   9  17  30  51  78 105 140 187 229 269 323
#     4   8  14  28  50  75 104 136 173 220 267 315
#
# _framework density 18.162303999999999
#
# number of rings (size 3 to 8) (size 9 to 14) (size 15 to 20)
#    0.000    2.250    2.500    3.375    0.000    1.500 
#    0.000    3.125    0.000    3.000    0.000    0.000 
#    0.000    0.000    0.000    0.000    0.000    0.000 
#
# Total GULP energy -396754.230486 kJ/mol
# GULP energy per Si atom -12398.569703 kJ/mol
# Density = 1.812097 g / cm^3
# Si number density = 18.162304 Si / 1000 Ang^3
#
#
#
# Elastic Constant Matrix: (Units=GPa)
#
#
# Indices 1 2 3 4 5 6 
#
# 1 78.1067 37.1380 49.8632 0.0000 0.0000 0.0000
# 2 37.1380 72.5850 49.3210 0.0000 0.0000 0.0000
# 3 49.8632 49.3210 149.6237 0.0000 0.0000 0.0000
# 4 0.0000 0.0000 0.0000 32.9079 0.0000 0.0000
# 5 0.0000 0.0000 0.0000 0.0000 25.0695 0.0000
# 6 0.0000 0.0000 0.0000 0.0000 0.0000 12.8874
#
#
#
# Elastic Compliance Matrix: (Units=1/GPa)
#
#
# Indices 1 2 3 4 5 6 
#
# 1 0.018559 -0.006821 -0.003937 0.000000 0.000000 0.000000
# 2 -0.006821 0.020260 -0.004405 0.000000 0.000000 0.000000
# 3 -0.003937 -0.004405 0.009447 0.000000 0.000000 0.000000
# 4 0.000000 0.000000 0.000000 0.030388 0.000000 0.000000
# 5 0.000000 0.000000 0.000000 0.000000 0.039889 0.000000
# 6 0.000000 0.000000 0.000000 0.000000 0.000000 0.077595
#
#
# Mechanical properties :
#
#
# Convention : Reuss Voigt Hill
#
# Bulk Modulus (GPa) = 55.73738 63.66221 59.69980
# Shear Modulus (GPa) = 21.51040 25.10582 23.30811
#
# Velocity S-wave (km/s) = 3.44516 3.72197 3.58624
# Velocity P-wave (km/s) = 6.82500 7.32111 7.07740
#
# Compressibility (1/GPa) = 0.01794128
#
# Stress axis : x y z
#
# Youngs Moduli (GPa) = 53.88120 49.35767 105.84823
#
# Poissons Ratio (x) = 0.33667 0.41669
# Poissons Ratio (y) = 0.36752 0.46630
# Poissons Ratio (z) = 0.21211 0.21744
#
# Static dielectric constant tensor:
#      x y z
#    x 3.268080 0.000000 0.000000 
#    y 0.000000 3.110470 0.000000 
#    z 0.000000 0.000000 3.714470 
# 
# 
# High freq. dielectric constant tensor:
#      x y z
#    x 1.675020 0.000000 0.000000 
#    y 0.000000 1.678660 0.000000 
#    z 0.000000 0.000000 1.723190 
# 
# From -- ./inp_files/21433.got.cif
#   From: 2010.03.12/outbox.cif.g09.slc.cpg/sg38_11_cif.got.tgz:21433.got - 2010.04.14 02:38:36.
