data_PCOD8180350
_publ_section_title
;
Structure prediction by ZEFSAII (Michael W. Deem and Ramdas Pophale) SiO2 
 PCOD8180350
Probable space group: A M M 2
;
_chemical_formula_sum "Si O2"
_cell_formula_units_Z 64
_cell_length_a 23.856067
_cell_length_b 8.608743
_cell_length_c 15.329787
_cell_angle_alpha 90.000000
_cell_angle_beta 90.000000
_cell_angle_gamma 90.000000
_cell_volume 3148.289850
_symmetry_space_group_name_H-M "A M M 2"
_symmetry_group_IT_number 38
_symmetry_cell_setting 'orthorhombic'
loop_
_space_group_symop_operation_xyz
x,y,z
-x,-y,z
-x,y,z
x,-y,z
x,1/2+y,1/2+z
-x,1/2-y,1/2+z
-x,1/2+y,1/2+z
x,1/2-y,1/2+z
loop_
_atom_site_type_symbol
_atom_site_label
_atom_site_fract_x
_atom_site_fract_y
_atom_site_fract_z
Si Si1 0.862976 0.321897 0.807490
Si Si2 0.437722 0.817436 0.155633
Si Si3 0.369953 0.822492 0.503292
Si Si4 0.064077 0.817652 0.660574
Si Si5 0.642032 0.319218 0.808314
Si Si6 0.751407 0.819880 0.743944
Si Si7 0.857110 0.178377 0.503375
Si Si8 0.743774 0.679661 0.556751
O O1 0.846850 0.500000 0.788227
O O2 0.913362 0.271116 0.745135
O O3 0.808836 0.215153 0.793596
O O4 0.883563 0.301144 0.907278
O O5 0.500000 0.743364 0.160346
O O6 0.409960 0.780932 0.062923
O O7 0.399939 0.751787 0.234756
O O8 0.442241 0.000000 0.166066
O O9 0.386661 0.795078 0.402467
O O10 0.305053 0.780947 0.514392
O O11 0.378913 0.000000 0.530966
O O12 0.097891 0.764733 0.574583
O O13 0.000000 0.768996 0.645933
O O14 0.070492 0.000000 0.676939
O O15 0.656002 0.500000 0.792012
O O16 0.699454 0.221974 0.806055
O O17 0.748265 0.714929 0.658568
O O18 0.749825 0.000000 0.717950
O O19 0.801699 0.281759 0.509324
O O20 0.840320 0.000000 0.521421
O O21 0.729186 0.500000 0.543412
#
# Coordination Sequence:
#
# PCOD8180350 Si02
#       8
#     8   8   8   8   8   8   8   8
#     4  11  23  39  62  92 123 158 201 247 298 358
#     4  10  22  41  63  86 117 161 207 251 299 350
#     4  11  23  39  62  92 123 158 201 247 298 358
#     4  10  22  41  63  86 117 161 207 251 299 350
#     4  10  22  40  62  89 123 160 200 244 298 361
#     4  12  23  37  61  91 124 159 197 243 302 362
#     4  10  22  40  62  89 123 160 200 244 298 361
#     4  12  23  37  61  91 124 159 197 243 302 362
#
# _framework density 20.328496999999999
#
# number of rings (size 3 to 8) (size 9 to 14) (size 15 to 20)
#    0.000    1.250    2.500    3.750    0.000    6.500 
#    0.000    2.500    0.000    0.000    0.000    0.000 
#    0.000    0.000    0.000    0.000    0.000    0.000 
#
# Total GULP energy -396968.292844 kJ/mol
# GULP energy per Si atom -12405.259151 kJ/mol
# Density = 2.028223 g / cm^3
# Si number density = 20.328497 Si / 1000 Ang^3
#
#
#
# Elastic Constant Matrix: (Units=GPa)
#
#
# Indices 1 2 3 4 5 6 
#
# 1 122.4609 14.8755 41.9421 0.0000 0.0000 0.0000
# 2 14.8755 40.6354 18.6151 0.0000 0.0000 0.0000
# 3 41.9421 18.6151 123.7403 0.0000 0.0000 0.0000
# 4 0.0000 0.0000 0.0000 29.6256 0.0000 0.0000
# 5 0.0000 0.0000 0.0000 0.0000 14.4518 0.0000
# 6 0.0000 0.0000 0.0000 0.0000 0.0000 25.2544
#
#
#
# Elastic Compliance Matrix: (Units=1/GPa)
#
#
# Indices 1 2 3 4 5 6 
#
# 1 0.009407 -0.002130 -0.002868 0.000000 0.000000 0.000000
# 2 -0.002130 0.026913 -0.003327 0.000000 0.000000 0.000000
# 3 -0.002868 -0.003327 0.009554 0.000000 0.000000 0.000000
# 4 0.000000 0.000000 0.000000 0.033755 0.000000 0.000000
# 5 0.000000 0.000000 0.000000 0.000000 0.069196 0.000000
# 6 0.000000 0.000000 0.000000 0.000000 0.000000 0.039597
#
#
# Mechanical properties :
#
#
# Convention : Reuss Voigt Hill
#
# Bulk Modulus (GPa) = 34.21793 48.63354 41.42574
# Shear Modulus (GPa) = 23.27621 27.95995 25.61808
#
# Velocity S-wave (km/s) = 3.38746 3.71267 3.55379
# Velocity P-wave (km/s) = 5.67176 6.50802 6.10423
#
# Compressibility (1/GPa) = 0.02922444
#
# Stress axis : x y z
#
# Youngs Moduli (GPa) = 106.30520 37.15718 104.66755
#
# Poissons Ratio (x) = 0.07913 0.30020
# Poissons Ratio (y) = 0.22640 0.34821
# Poissons Ratio (z) = 0.30489 0.12361
#
# Static dielectric constant tensor:
#      x y z
#    x 3.732400 0.000000 0.000000 
#    y 0.000000 3.608240 0.000000 
#    z 0.000000 0.000000 3.808260 
# 
# 
# High freq. dielectric constant tensor:
#      x y z
#    x 1.786740 0.000000 0.000000 
#    y 0.000000 1.787920 0.000000 
#    z 0.000000 0.000000 1.807240 
# 
# From -- ./inp_files/15776.got.cif
#   From: 2010.03.12/outbox.cif.g09.slc.cpg/sg38_8_cif.got.tgz:15776.got - 2010.04.14 02:38:36.
