data_PCOD8180535
_publ_section_title
;
Structure prediction by ZEFSAII (Michael W. Deem and Ramdas Pophale) SiO2 
 PCOD8180535
Probable space group: A M M 2
;
_chemical_formula_sum "Si O2"
_cell_formula_units_Z 56
_cell_length_a 9.706170
_cell_length_b 13.560668
_cell_length_c 28.908228
_cell_angle_alpha 90.000000
_cell_angle_beta 90.000000
_cell_angle_gamma 90.000000
_cell_volume 3804.963091
_symmetry_space_group_name_H-M "A M M 2"
_symmetry_group_IT_number 38
_symmetry_cell_setting 'orthorhombic'
loop_
_space_group_symop_operation_xyz
x,y,z
-x,-y,z
-x,y,z
x,-y,z
x,1/2+y,1/2+z
-x,1/2-y,1/2+z
-x,1/2+y,1/2+z
x,1/2-y,1/2+z
loop_
_atom_site_type_symbol
_atom_site_label
_atom_site_fract_x
_atom_site_fract_y
_atom_site_fract_z
Si Si1 0.159182 0.228785 0.022690
Si Si2 0.339634 0.729392 0.886170
Si Si3 0.160115 0.614088 0.614269
Si Si4 0.841366 0.886412 0.930358
Si Si5 0.658998 0.386396 0.978777
Si Si6 0.336456 0.109484 0.298920
Si Si7 0.653427 0.882603 0.197429
O O1 0.205383 0.176897 0.069976
O O2 0.000000 0.260571 0.024162
O O3 0.187278 0.150625 0.982168
O O4 0.249752 0.326539 0.015580
O O5 0.500000 0.757595 0.882716
O O6 0.253661 0.828642 0.894142
O O7 0.312691 0.651379 0.927002
O O8 0.281957 0.681706 0.838895
O O9 0.196217 0.500000 0.604538
O O10 0.243335 0.656479 0.658184
O O11 0.000000 0.627092 0.625385
O O12 0.000000 0.869795 0.916622
O O13 0.799294 0.000000 0.928073
O O14 0.500000 0.371818 0.992297
O O15 0.703179 0.500000 0.981118
O O16 0.500000 0.101263 0.302283
O O17 0.295401 0.152642 0.248326
O O18 0.273110 0.000000 0.306278
O O19 0.500000 0.841871 0.186849
O O20 0.650440 0.000000 0.198279
#
# Coordination Sequence:
#
# PCOD8180535 Si02
#       7
#     8   8   8   8   8   8   8
#     4   9  17  28  42  59  78 105 139 165 190 231
#     4   9  16  26  42  62  81 104 135 165 192 227
#     4   9  16  26  40  58  81 107 133 162 196 233
#     4   9  17  29  42  56  79 109 136 163 196 233
#     4   9  17  28  41  59  83 107 131 162 198 232
#     4   8  13  23  40  60  82 108 134 158 189 233
#     4   8  14  24  38  57  80 105 132 160 192 233
#
# _framework density 14.71762
#
# number of rings (size 3 to 8) (size 9 to 14) (size 15 to 20)
#    0.000    3.286    0.000    1.714    0.000    4.571 
#    0.000    0.714    0.000    4.714    0.000    1.000 
#    0.000    1.143    0.000    0.000    0.000    0.000 
#
# Total GULP energy -347119.970099 kJ/mol
# GULP energy per Si atom -12397.141789 kJ/mol
# Density = 1.468412 g / cm^3
# Si number density = 14.717620 Si / 1000 Ang^3
#
#
#
# Elastic Constant Matrix: (Units=GPa)
#
#
# Indices 1 2 3 4 5 6 
#
# 1 54.2479 47.1799 52.1134 0.0000 0.0000 0.0000
# 2 47.1799 95.9558 55.2996 0.0000 0.0000 0.0000
# 3 52.1134 55.2996 121.5106 0.0000 0.0000 0.0000
# 4 0.0000 0.0000 0.0000 23.0942 0.0000 0.0000
# 5 0.0000 0.0000 0.0000 0.0000 22.1196 0.0000
# 6 0.0000 0.0000 0.0000 0.0000 0.0000 22.7552
#
#
#
# Elastic Compliance Matrix: (Units=1/GPa)
#
#
# Indices 1 2 3 4 5 6 
#
# 1 0.041458 -0.013741 -0.011527 0.000000 0.000000 0.000000
# 2 -0.013741 0.018681 -0.002608 0.000000 0.000000 0.000000
# 3 -0.011527 -0.002608 0.014360 0.000000 0.000000 0.000000
# 4 0.000000 0.000000 0.000000 0.043301 0.000000 0.000000
# 5 0.000000 0.000000 0.000000 0.000000 0.045209 0.000000
# 6 0.000000 0.000000 0.000000 0.000000 0.000000 0.043946
#
#
# Mechanical properties :
#
#
# Convention : Reuss Voigt Hill
#
# Bulk Modulus (GPa) = 53.34330 64.54445 58.94388
# Shear Modulus (GPa) = 18.59032 21.40190 19.99611
#
# Velocity S-wave (km/s) = 3.55791 3.81749 3.68999
# Velocity P-wave (km/s) = 7.29394 7.96125 7.63489
#
# Compressibility (1/GPa) = 0.01874650
#
# Stress axis : x y z
#
# Youngs Moduli (GPa) = 24.12077 53.53011 69.63572
#
# Poissons Ratio (x) = 0.73557 0.80268
# Poissons Ratio (y) = 0.33145 0.18164
# Poissons Ratio (z) = 0.27804 0.13963
#
# Static dielectric constant tensor:
#      x y z
#    x 2.797930 0.000000 0.000000 
#    y 0.000000 2.696250 0.000000 
#    z 0.000000 0.000000 3.011160 
# 
# 
# High freq. dielectric constant tensor:
#      x y z
#    x 1.552150 0.000000 0.000000 
#    y 0.000000 1.534940 0.000000 
#    z 0.000000 0.000000 1.559980 
# 
# From -- ./inp_files/20691.got.cif
#   From: 2010.03.12/outbox.cif.g09.slc.cpg/sg38_11_cif.got.tgz:20691.got - 2010.04.14 02:38:36.
