data_PCOD8180975
_publ_section_title
;
Structure prediction by ZEFSAII (Michael W. Deem and Ramdas Pophale) SiO2 
 PCOD8180975
Probable space group: A B M 2
;
_chemical_formula_sum "Si O2"
_cell_formula_units_Z 64
_cell_length_a 20.842884
_cell_length_b 8.953977
_cell_length_c 19.403307
_cell_angle_alpha 90.000000
_cell_angle_beta 90.000000
_cell_angle_gamma 90.000000
_cell_volume 3621.175231
_symmetry_space_group_name_H-M "A B M 2"
_symmetry_group_IT_number 39
_symmetry_cell_setting 'orthorhombic'
loop_
_space_group_symop_operation_xyz
x,y,z
-x,-y,z
-x,1/2+y,z
x,1/2-y,z
x,1/2+y,1/2+z
-x,1/2-y,1/2+z
-x,y,1/2+z
x,-y,1/2+z
loop_
_atom_site_type_symbol
_atom_site_label
_atom_site_fract_x
_atom_site_fract_y
_atom_site_fract_z
Si Si1 0.186784 0.920448 0.040400
Si Si2 0.336115 0.921398 0.391275
Si Si3 0.327391 0.577188 0.035875
Si Si4 0.195093 0.078440 0.899687
Si Si5 0.566379 0.073288 0.147890
Si Si6 0.937283 0.081031 0.544490
Si Si7 0.060291 0.915460 0.380268
Si Si8 0.432920 0.927785 0.791672
O O1 0.165560 0.750000 0.047265
O O2 0.257684 0.949840 0.072416
O O3 0.129256 0.014632 0.075336
O O4 0.195840 0.960213 0.960691
O O5 0.359938 0.750000 0.385602
O O6 0.263256 0.934952 0.360753
O O7 0.337882 0.969420 0.470961
O O8 0.380294 0.031707 0.348224
O O9 0.332957 0.750000 0.012159
O O10 0.380616 0.535425 0.091501
O O11 0.186391 0.250000 0.927729
O O12 0.132018 0.040647 0.852189
O O13 0.557396 0.250000 0.159091
O O14 0.500000 0.000000 0.122530
O O15 0.588550 0.997605 0.219023
O O16 0.941799 0.250000 0.568506
O O17 0.935964 0.060731 0.462335
O O18 0.000000 0.000000 0.575311
O O19 0.043533 0.750000 0.359129
O O20 0.000000 0.000000 0.346850
O O21 0.439832 0.750000 0.785752
O O22 0.500000 0.000000 0.815287
#
# Coordination Sequence:
#
# PCOD8180975 Si02
#       8
#     8   8   8   8   8   8   8   8
#     4   9  15  24  38  57  83 116 151 188 231 275
#     4  10  19  32  51  73  98 129 163 199 240 285
#     4   9  19  33  49  71 100 131 162 198 239 286
#     4   8  15  26  38  55  83 118 153 188 227 273
#     4  10  20  36  55  74  97 125 158 195 237 284
#     4   9  15  22  32  49  75 110 150 189 228 273
#     4   8  13  20  30  47  73 107 146 183 219 261
#     4  11  22  37  55  74  97 124 157 196 239 287
#
# _framework density 17.673819999999999
#
# number of rings (size 3 to 8) (size 9 to 14) (size 15 to 20)
#    0.000    2.750    0.000    4.125    0.000    5.500 
#    0.000    1.250    0.000    0.000    0.000    0.000 
#    0.000    1.000    0.000    6.000    0.000   13.250 
#
# Total GULP energy -396463.024226 kJ/mol
# GULP energy per Si atom -12389.469507 kJ/mol
# Density = 1.763359 g / cm^3
# Si number density = 17.673820 Si / 1000 Ang^3
#
#
#
# Elastic Constant Matrix: (Units=GPa)
#
#
# Indices 1 2 3 4 5 6 
#
# 1 155.4472 65.6477 46.7477 0.0000 0.0000 0.0000
# 2 65.6477 111.0678 26.4413 0.0000 0.0000 0.0000
# 3 46.7477 26.4413 33.5046 0.0000 0.0000 0.0000
# 4 0.0000 0.0000 0.0000 17.0421 0.0000 0.0000
# 5 0.0000 0.0000 0.0000 0.0000 -1.7186 0.0000
# 6 0.0000 0.0000 0.0000 0.0000 0.0000 32.6725
#
#
#
# Elastic Compliance Matrix: (Units=1/GPa)
#
#
# Indices 1 2 3 4 5 6 
#
# 1 0.012337 -0.003933 -0.014110 0.000000 0.000000 0.000000
# 2 -0.003933 0.012340 -0.004251 0.000000 0.000000 0.000000
# 3 -0.014110 -0.004251 0.052889 0.000000 0.000000 0.000000
# 4 0.000000 0.000000 0.000000 0.058678 0.000000 0.000000
# 5 0.000000 0.000000 0.000000 0.000000 -0.581873 0.000000
# 6 0.000000 0.000000 0.000000 0.000000 0.000000 0.030607
#
#
# Mechanical properties :
#
#
# Convention : Reuss Voigt Hill
#
# Bulk Modulus (GPa) = 30.32318 64.18810 47.25564
# Shear Modulus (GPa) = -13.91048 20.34473 3.21712
#
# Velocity S-wave (km/s) = -2.80851 3.39650 1.35064
# Velocity P-wave (km/s) = 2.58406 7.19574 5.40629
#
# Compressibility (1/GPa) = 0.03297808
#
# Stress axis : x y z
#
# Youngs Moduli (GPa) = 81.05488 81.03599 18.90766
#
# Poissons Ratio (x) = 0.31872 0.26679
# Poissons Ratio (y) = 0.31879 0.08038
# Poissons Ratio (z) = 1.14368 0.34449
#
# Static dielectric constant tensor:
#      x y z
#    x 3.836700 0.000000 0.000000 
#    y 0.000000 3.372320 0.000000 
#    z 0.000000 0.000000 2.608420 
# 
# 
# High freq. dielectric constant tensor:
#      x y z
#    x 1.713320 0.000000 0.000000 
#    y 0.000000 1.696340 0.000000 
#    z 0.000000 0.000000 1.600990 
# 
# From -- ./inp_files/15078.got.cif
#   From: 2010.03.12/outbox.cif.g09.slc.cpg/sg39_8_cif.got.tgz:15078.got - 2010.04.14 02:53:20.
