data_PCOD8180186
_publ_section_title
;
Structure prediction by ZEFSAII (Michael W. Deem and Ramdas Pophale) SiO2 
 PCOD8180186
Probable space group: A M M 2
;
_chemical_formula_sum "Si O2"
_cell_formula_units_Z 48
_cell_length_a 8.888913
_cell_length_b 16.763372
_cell_length_c 16.826963
_cell_angle_alpha 90.000000
_cell_angle_beta 90.000000
_cell_angle_gamma 90.000000
_cell_volume 2507.354716
_symmetry_space_group_name_H-M "A M M 2"
_symmetry_group_IT_number 38
_symmetry_cell_setting 'orthorhombic'
loop_
_space_group_symop_operation_xyz
x,y,z
-x,-y,z
-x,y,z
x,-y,z
x,1/2+y,1/2+z
-x,1/2-y,1/2+z
-x,1/2+y,1/2+z
x,1/2-y,1/2+z
loop_
_atom_site_type_symbol
_atom_site_label
_atom_site_fract_x
_atom_site_fract_y
_atom_site_fract_z
Si Si1 0.822453 0.589188 0.242350
Si Si2 0.324932 0.141884 0.423923
Si Si3 0.178026 0.319256 0.086839
Si Si4 0.671261 0.321983 0.383645
Si Si5 0.325432 0.000000 0.161432
Si Si6 0.325781 0.156301 0.062443
Si Si7 0.177489 0.500000 0.829405
O O1 0.753755 0.500000 0.244924
O O2 0.762926 0.633812 0.164015
O O3 0.778170 0.637408 0.320347
O O4 0.000000 0.585021 0.239536
O O5 0.500000 0.120654 0.430004
O O6 0.256150 0.139614 0.511702
O O7 0.299105 0.227527 0.383709
O O8 0.242761 0.078583 0.369311
O O9 0.225366 0.227380 0.097258
O O10 0.000000 0.324931 0.076078
O O11 0.500000 0.340943 0.360417
O O12 0.710671 0.358209 0.469857
O O13 0.285387 0.923173 0.109419
O O14 0.220366 0.000000 0.237457
O O15 0.500000 0.000000 0.187220
O O16 0.500000 0.181215 0.071720
O O17 0.000000 0.500000 0.838990
#
# Coordination Sequence:
#
# PCOD8180186 Si02
#       7
#     8   8   8   8   4   8   4
#     4  10  23  39  56  84 122 157 191 237 294 351
#     4  10  22  42  64  88 117 154 200 245 296 355
#     4  10  21  38  61  87 118 156 197 243 300 356
#     4   9  20  38  62  88 114 149 196 246 290 343
#     4  10  22  40  62  87 120 159 200 249 296 351
#     4   9  20  39  62  86 116 155 199 246 298 349
#     4  12  26  40  60  91 124 155 194 245 302 359
#
# _framework density 19.143681000000001
#
# number of rings (size 3 to 8) (size 9 to 14) (size 15 to 20)
#    0.000    2.167    0.000    2.750    4.667    5.667 
#    0.000    0.000    0.000    0.000    0.000    0.000 
#    0.000    0.000    0.000    0.000    0.000    0.000 
#
# Total GULP energy -297685.847752 kJ/mol
# GULP energy per Si atom -12403.576990 kJ/mol
# Density = 1.910011 g / cm^3
# Si number density = 19.143681 Si / 1000 Ang^3
#
#
#
# Elastic Constant Matrix: (Units=GPa)
#
#
# Indices 1 2 3 4 5 6 
#
# 1 81.1881 50.1931 54.7139 0.0000 0.0000 0.0000
# 2 50.1931 117.3661 87.0745 0.0000 0.0000 0.0000
# 3 54.7139 87.0745 141.6163 0.0000 0.0000 0.0000
# 4 0.0000 0.0000 0.0000 30.3804 0.0000 0.0000
# 5 0.0000 0.0000 0.0000 0.0000 36.4990 0.0000
# 6 0.0000 0.0000 0.0000 0.0000 0.0000 29.0257
#
#
#
# Elastic Compliance Matrix: (Units=1/GPa)
#
#
# Indices 1 2 3 4 5 6 
#
# 1 0.017935 -0.004651 -0.004070 0.000000 0.000000 0.000000
# 2 -0.004651 0.016873 -0.008578 0.000000 0.000000 0.000000
# 3 -0.004070 -0.008578 0.013908 0.000000 0.000000 0.000000
# 4 0.000000 0.000000 0.000000 0.032916 0.000000 0.000000
# 5 0.000000 0.000000 0.000000 0.000000 0.027398 0.000000
# 6 0.000000 0.000000 0.000000 0.000000 0.000000 0.034452
#
#
# Mechanical properties :
#
#
# Convention : Reuss Voigt Hill
#
# Bulk Modulus (GPa) = 70.82431 80.45927 75.64179
# Shear Modulus (GPa) = 27.35447 29.06029 28.20738
#
# Velocity S-wave (km/s) = 3.78418 3.90039 3.84273
# Velocity P-wave (km/s) = 7.49466 7.89965 7.69982
#
# Compressibility (1/GPa) = 0.01411945
#
# Stress axis : x y z
#
# Youngs Moduli (GPa) = 55.75710 59.26515 71.90181
#
# Poissons Ratio (x) = 0.27563 0.29261
# Poissons Ratio (y) = 0.25932 0.61677
# Poissons Ratio (z) = 0.22691 0.50837
#
# Static dielectric constant tensor:
#      x y z
#    x 3.442640 0.000000 0.000000 
#    y 0.000000 3.740570 0.000000 
#    z 0.000000 0.000000 3.557510 
# 
# 
# High freq. dielectric constant tensor:
#      x y z
#    x 1.741570 0.000000 0.000000 
#    y 0.000000 1.754150 0.000000 
#    z 0.000000 0.000000 1.753510 
# 
# From -- ./inp_files/12054.got.cif
#   From: 2010.03.12/outbox.cif.g09.slc.cpg/sg38_7_cif.got.tgz:12054.got - 2010.04.14 02:38:36.
