data_PCOD8180594
_publ_section_title
;
Structure prediction by ZEFSAII (Michael W. Deem and Ramdas Pophale) SiO2 
 PCOD8180594
Probable space group: A B M 2
;
_chemical_formula_sum "Si O2"
_cell_formula_units_Z 48
_cell_length_a 16.770542
_cell_length_b 35.589232
_cell_length_c 5.303482
_cell_angle_alpha 90.000000
_cell_angle_beta 90.000000
_cell_angle_gamma 90.000000
_cell_volume 3165.386997
_symmetry_space_group_name_H-M "A B M 2"
_symmetry_group_IT_number 39
_symmetry_cell_setting 'orthorhombic'
loop_
_space_group_symop_operation_xyz
x,y,z
-x,-y,z
-x,1/2+y,z
x,1/2-y,z
x,1/2+y,1/2+z
-x,1/2-y,1/2+z
-x,y,1/2+z
x,-y,1/2+z
loop_
_atom_site_type_symbol
_atom_site_label
_atom_site_fract_x
_atom_site_fract_y
_atom_site_fract_z
Si Si1 0.044371 0.294858 0.225750
Si Si2 0.588001 0.484224 0.682058
Si Si3 0.222407 0.706144 0.734580
Si Si4 0.412337 0.395748 0.188182
Si Si5 0.682398 0.793780 0.741875
Si Si6 0.409794 0.864209 0.188288
O O1 0.045150 0.250000 0.229609
O O2 0.134019 0.311652 0.227870
O O3 0.999279 0.309906 0.474655
O O4 0.500000 0.500000 0.638445
O O5 0.632461 0.496399 0.421641
O O6 0.581137 0.440016 0.719100
O O7 0.212525 0.750000 0.696119
O O8 0.274309 0.692082 0.496814
O O9 0.261693 0.697241 0.003528
O O10 0.497974 0.375266 0.166181
O O11 0.366788 0.379115 0.432243
O O12 0.368209 0.385100 0.927293
O O13 0.657088 0.750000 0.751850
O O14 0.602805 0.819202 0.712753
#
# Coordination Sequence:
#
# PCOD8180594 Si02
#       6
#     8   8   8   8   8   8
#     4   9  15  23  37  56  75  93 111 138 187 239
#     4  10  16  25  41  60  78  96 114 141 190 234
#     4   9  17  28  40  55  74  93 120 158 193 233
#     4  10  19  30  42  59  78  96 123 161 205 233
#     4  10  19  30  42  54  70  98 134 167 202 236
#     4  10  18  30  42  54  73  98 125 163 207 239
#
# _framework density 15.164021
#
# number of rings (size 3 to 8) (size 9 to 14) (size 15 to 20)
#    0.000    2.333    0.000    7.000    0.000    4.000 
#    0.000    3.333    0.000    0.000    0.000    0.000 
#    0.000    0.000    0.000    0.000    0.000    0.000 
#
# Total GULP energy -297329.465421 kJ/mol
# GULP energy per Si atom -12388.727726 kJ/mol
# Density = 1.512951 g / cm^3
# Si number density = 15.164021 Si / 1000 Ang^3
#
#
#
# Elastic Constant Matrix: (Units=GPa)
#
#
# Indices 1 2 3 4 5 6 
#
# 1 23.2721 15.6939 -0.9547 0.0000 0.0000 0.0000
# 2 15.6939 62.3358 10.3241 0.0000 0.0000 0.0000
# 3 -0.9547 10.3241 131.8601 0.0000 0.0000 0.0000
# 4 0.0000 0.0000 0.0000 16.7587 0.0000 0.0000
# 5 0.0000 0.0000 0.0000 0.0000 13.8583 0.0000
# 6 0.0000 0.0000 0.0000 0.0000 0.0000 -3.3831
#
#
#
# Elastic Compliance Matrix: (Units=1/GPa)
#
#
# Indices 1 2 3 4 5 6 
#
# 1 0.052019 -0.013332 0.001420 0.000000 0.000000 0.000000
# 2 -0.013332 0.019670 -0.001637 0.000000 0.000000 0.000000
# 3 0.001420 -0.001637 0.007722 0.000000 0.000000 0.000000
# 4 0.000000 0.000000 0.000000 0.059670 0.000000 0.000000
# 5 0.000000 0.000000 0.000000 0.000000 0.072159 0.000000
# 6 0.000000 0.000000 0.000000 0.000000 0.000000 -0.295585
#
#
# Mechanical properties :
#
#
# Convention : Reuss Voigt Hill
#
# Bulk Modulus (GPa) = 19.11504 29.73274 24.42389
# Shear Modulus (GPa) = -125.59166 18.27377 -53.65895
#
# Velocity S-wave (km/s) = -9.11054 3.47518 -5.95504
# Velocity P-wave (km/s) = 9.90133 5.97934 5.58049
#
# Compressibility (1/GPa) = 0.05231482
#
# Stress axis : x y z
#
# Youngs Moduli (GPa) = 19.22390 50.83977 129.49649
#
# Poissons Ratio (x) = 0.67778 -0.18394
# Poissons Ratio (y) = 0.25629 0.21193
# Poissons Ratio (z) = -0.02731 0.08320
#
# Static dielectric constant tensor:
#      x y z
#    x 2.560550 0.000000 0.000000 
#    y 0.000000 2.681680 0.000000 
#    z 0.000000 0.000000 4.306140 
# 
# 
# High freq. dielectric constant tensor:
#      x y z
#    x 1.515830 0.000000 0.000000 
#    y 0.000000 1.545180 0.000000 
#    z 0.000000 0.000000 1.626010 
# 
# From -- ./inp_files/639.got.cif
#   From: 2010.03.12/outbox.cif.g09.slc.cpg/sg39_1_cif.got.tgz:639.got - 2010.04.14 02:53:20.
