data_PCOD8180168
_publ_section_title
;
Structure prediction by ZEFSAII (Michael W. Deem and Ramdas Pophale) SiO2 
 PCOD8180168
Probable space group: A M M 2
;
_chemical_formula_sum "Si O2"
_cell_formula_units_Z 64
_cell_length_a 23.806644
_cell_length_b 8.510231
_cell_length_c 15.353487
_cell_angle_alpha 90.000000
_cell_angle_beta 90.000000
_cell_angle_gamma 90.000000
_cell_volume 3110.617077
_symmetry_space_group_name_H-M "A M M 2"
_symmetry_group_IT_number 38
_symmetry_cell_setting 'orthorhombic'
loop_
_space_group_symop_operation_xyz
x,y,z
-x,-y,z
-x,y,z
x,-y,z
x,1/2+y,1/2+z
-x,1/2-y,1/2+z
-x,1/2+y,1/2+z
x,1/2-y,1/2+z
loop_
_atom_site_type_symbol
_atom_site_label
_atom_site_fract_x
_atom_site_fract_y
_atom_site_fract_z
Si Si1 0.937143 0.686696 0.558710
Si Si2 0.564514 0.818407 0.050587
Si Si3 0.744346 0.818174 0.157416
Si Si4 0.369647 0.180572 0.709092
Si Si5 0.141695 0.184214 0.903568
Si Si6 0.133385 0.814651 0.222691
Si Si7 0.371815 0.181399 0.390417
Si Si8 0.746518 0.682287 0.969901
O O1 0.938923 0.500000 0.558086
O O2 0.901808 0.746543 0.475971
O O3 0.907558 0.746714 0.646684
O O4 0.000000 0.756807 0.553817
O O5 0.500000 0.772899 0.065503
O O6 0.597576 0.784211 0.139069
O O7 0.572273 0.000000 0.026765
O O8 0.587860 0.717125 0.971027
O O9 0.696595 0.714721 0.202676
O O10 0.803283 0.767780 0.198537
O O11 0.731180 0.000000 0.175331
O O12 0.746944 0.790713 0.054536
O O13 0.390918 0.220023 0.806122
O O14 0.381761 0.000000 0.688112
O O15 0.115338 0.223238 0.809746
O O16 0.199563 0.279895 0.911464
O O17 0.153392 0.000000 0.914722
O O18 0.127076 0.000000 0.236659
O O19 0.308027 0.225593 0.413914
O O20 0.377226 0.000000 0.365876
O O21 0.745670 0.500000 0.997595
#
# Coordination Sequence:
#
# PCOD8180168 Si02
#       8
#     8   8   8   8   8   8   8   8
#     4   9  19  38  60  81 113 158 204 247 298 359
#     4  11  25  45  68  93 123 163 210 259 308 359
#     4  11  21  37  62  90 124 160 200 249 305 368
#     4  12  25  41  64  95 128 166 206 249 307 369
#     4  11  22  37  59  89 119 157 199 245 303 358
#     4  10  21  38  59  87 118 156 198 244 302 360
#     4  11  24  42  65  94 126 163 205 253 309 366
#     4  11  22  37  61  92 124 159 198 245 304 368
#
# _framework density 20.574697
#
# number of rings (size 3 to 8) (size 9 to 14) (size 15 to 20)
#    0.000    1.250    2.500    3.750    0.000    7.500 
#    0.000    0.000    0.000    2.625    0.000    0.000 
#    0.000    0.000    0.000    0.000    0.000    0.000 
#
# Total GULP energy -397013.697569 kJ/mol
# GULP energy per Si atom -12406.678049 kJ/mol
# Density = 2.052787 g / cm^3
# Si number density = 20.574697 Si / 1000 Ang^3
#
#
#
# Elastic Constant Matrix: (Units=GPa)
#
#
# Indices 1 2 3 4 5 6 
#
# 1 115.3171 22.0157 41.9515 0.0000 0.0000 0.0000
# 2 22.0157 40.8658 13.7912 0.0000 0.0000 0.0000
# 3 41.9515 13.7912 137.7699 0.0000 0.0000 0.0000
# 4 0.0000 0.0000 0.0000 37.5206 0.0000 0.0000
# 5 0.0000 0.0000 0.0000 0.0000 7.8102 0.0000
# 6 0.0000 0.0000 0.0000 0.0000 0.0000 3.7285
#
#
#
# Elastic Compliance Matrix: (Units=1/GPa)
#
#
# Indices 1 2 3 4 5 6 
#
# 1 0.010582 -0.004775 -0.002744 0.000000 0.000000 0.000000
# 2 -0.004775 0.027480 -0.001297 0.000000 0.000000 0.000000
# 3 -0.002744 -0.001297 0.008224 0.000000 0.000000 0.000000
# 4 0.000000 0.000000 0.000000 0.026652 0.000000 0.000000
# 5 0.000000 0.000000 0.000000 0.000000 0.128037 0.000000
# 6 0.000000 0.000000 0.000000 0.000000 0.000000 0.268207
#
#
# Mechanical properties :
#
#
# Convention : Reuss Voigt Hill
#
# Bulk Modulus (GPa) = 34.89873 49.94105 42.41989
# Shear Modulus (GPa) = 10.07325 24.22481 17.14903
#
# Velocity S-wave (km/s) = 2.21508 3.43506 2.89017
# Velocity P-wave (km/s) = 4.85189 6.32919 5.63913
#
# Compressibility (1/GPa) = 0.02865434
#
# Stress axis : x y z
#
# Youngs Moduli (GPa) = 94.50381 36.38975 121.59633
#
# Poissons Ratio (x) = 0.17374 0.33368
# Poissons Ratio (y) = 0.45121 0.15771
# Poissons Ratio (z) = 0.25934 0.04720
#
# Static dielectric constant tensor:
#      x y z
#    x 3.834380 0.000000 0.000000 
#    y 0.000000 3.599110 0.000000 
#    z 0.000000 0.000000 3.790450 
# 
# 
# High freq. dielectric constant tensor:
#      x y z
#    x 1.801530 0.000000 0.000000 
#    y 0.000000 1.794470 0.000000 
#    z 0.000000 0.000000 1.818790 
# 
# From -- ./inp_files/15814.got.cif
#   From: 2010.03.12/outbox.cif.g09.slc.cpg/sg38_8_cif.got.tgz:15814.got - 2010.04.14 02:38:36.
