data_PCOD8180303
_publ_section_title
;
Structure prediction by ZEFSAII (Michael W. Deem and Ramdas Pophale) SiO2 
 PCOD8180303
Probable space group: A M M 2
;
_chemical_formula_sum "Si O2"
_cell_formula_units_Z 64
_cell_length_a 24.441433
_cell_length_b 9.410428
_cell_length_c 14.996303
_cell_angle_alpha 90.000000
_cell_angle_beta 90.000000
_cell_angle_gamma 90.000000
_cell_volume 3449.214856
_symmetry_space_group_name_H-M "A M M 2"
_symmetry_group_IT_number 38
_symmetry_cell_setting 'orthorhombic'
loop_
_space_group_symop_operation_xyz
x,y,z
-x,-y,z
-x,y,z
x,-y,z
x,1/2+y,1/2+z
-x,1/2-y,1/2+z
-x,1/2+y,1/2+z
x,1/2-y,1/2+z
loop_
_atom_site_type_symbol
_atom_site_label
_atom_site_fract_x
_atom_site_fract_y
_atom_site_fract_z
Si Si1 0.062280 0.833024 0.917750
Si Si2 0.754917 0.340629 0.765945
Si Si3 0.126253 0.339401 0.776758
Si Si4 0.635976 0.836781 0.289518
Si Si5 0.438417 0.830809 0.447438
Si Si6 0.634018 0.835129 0.608617
Si Si7 0.143684 0.834166 0.070678
Si Si8 0.244914 0.336519 0.093783
O O1 0.085170 0.761964 0.828379
O O2 0.000000 0.784743 0.932206
O O3 0.067030 0.000000 0.903307
O O4 0.095342 0.783390 0.005318
O O5 0.755400 0.500000 0.721184
O O6 0.812230 0.324977 0.819391
O O7 0.699457 0.325286 0.824185
O O8 0.753984 0.215286 0.695154
O O9 0.104607 0.500000 0.786546
O O10 0.127530 0.295467 0.672282
O O11 0.596629 0.770017 0.364590
O O12 0.627238 0.754545 0.197867
O O13 0.620436 0.000000 0.271551
O O14 0.500000 0.771157 0.441332
O O15 0.411749 0.779674 0.539952
O O16 0.437138 0.000000 0.444255
O O17 0.692923 0.814015 0.559388
O O18 0.626051 0.000000 0.633778
O O19 0.199447 0.753987 0.040564
O O20 0.155057 0.000000 0.060200
O O21 0.227123 0.500000 0.089488
#
# Coordination Sequence:
#
# PCOD8180303 Si02
#       8
#     8   8   8   8   8   8   8   8
#     4  10  22  38  53  72 100 133 168 203 241 288
#     4   8  15  29  49  73 101 130 159 194 244 302
#     4   9  18  33  54  77  99 126 162 203 244 289
#     4   9  17  31  52  74  97 128 165 204 244 290
#     4   9  18  32  49  70  97 132 173 208 241 290
#     4   9  18  32  50  73 101 131 161 199 250 299
#     4   9  19  36  55  74 100 134 165 195 241 298
#     4   9  16  27  48  77 103 125 157 202 247 292
#
# _framework density 18.554949000000001
#
# number of rings (size 3 to 8) (size 9 to 14) (size 15 to 20)
#    0.000    3.000    0.000    1.125    0.000    5.250 
#    0.000    4.375    0.000    0.750    0.000    0.000 
#    0.000    0.000    0.000    0.000    0.000    0.000 
#
# Total GULP energy -396535.765453 kJ/mol
# GULP energy per Si atom -12391.742670 kJ/mol
# Density = 1.851272 g / cm^3
# Si number density = 18.554949 Si / 1000 Ang^3
#
#
#
# Elastic Constant Matrix: (Units=GPa)
#
#
# Indices 1 2 3 4 5 6 
#
# 1 118.7180 32.1177 40.0467 0.0000 0.0000 0.0000
# 2 32.1177 42.0775 24.2560 0.0000 0.0000 0.0000
# 3 40.0467 24.2560 70.0872 0.0000 0.0000 0.0000
# 4 0.0000 0.0000 0.0000 22.3732 0.0000 0.0000
# 5 0.0000 0.0000 0.0000 0.0000 34.6080 0.0000
# 6 0.0000 0.0000 0.0000 0.0000 0.0000 22.2896
#
#
#
# Elastic Compliance Matrix: (Units=1/GPa)
#
#
# Indices 1 2 3 4 5 6 
#
# 1 0.011636 -0.006308 -0.004466 0.000000 0.000000 0.000000
# 2 -0.006308 0.033108 -0.007854 0.000000 0.000000 0.000000
# 3 -0.004466 -0.007854 0.019538 0.000000 0.000000 0.000000
# 4 0.000000 0.000000 0.000000 0.044696 0.000000 0.000000
# 5 0.000000 0.000000 0.000000 0.000000 0.028895 0.000000
# 6 0.000000 0.000000 0.000000 0.000000 0.000000 0.044864
#
#
# Mechanical properties :
#
#
# Convention : Reuss Voigt Hill
#
# Bulk Modulus (GPa) = 37.00000 47.08038 42.04019
# Shear Modulus (GPa) = 21.83400 24.81831 23.32615
#
# Velocity S-wave (km/s) = 3.43406 3.66123 3.54946
# Velocity P-wave (km/s) = 5.97560 6.58038 6.28527
#
# Compressibility (1/GPa) = 0.02702702
#
# Stress axis : x y z
#
# Youngs Moduli (GPa) = 85.93881 30.20442 51.18296
#
# Poissons Ratio (x) = 0.19052 0.22857
# Poissons Ratio (y) = 0.54206 0.40199
# Poissons Ratio (z) = 0.38378 0.23722
#
# Static dielectric constant tensor:
#      x y z
#    x 3.800870 0.000000 0.000000 
#    y 0.000000 3.243200 0.000000 
#    z 0.000000 0.000000 3.146370 
# 
# 
# High freq. dielectric constant tensor:
#      x y z
#    x 1.730230 0.000000 0.000000 
#    y 0.000000 1.701770 0.000000 
#    z 0.000000 0.000000 1.696090 
# 
# From -- ./inp_files/15844.got.cif
#   From: 2010.03.12/outbox.cif.g09.slc.cpg/sg38_8_cif.got.tgz:15844.got - 2010.04.14 02:38:36.
