data_PCOD8180930
_publ_section_title
;
Structure prediction by ZEFSAII (Michael W. Deem and Ramdas Pophale) SiO2 
 PCOD8180930
Probable space group: A B M 2
;
_chemical_formula_sum "Si O2"
_cell_formula_units_Z 56
_cell_length_a 15.052248
_cell_length_b 9.818170
_cell_length_c 20.008582
_cell_angle_alpha 90.000000
_cell_angle_beta 90.000000
_cell_angle_gamma 90.000000
_cell_volume 2956.978890
_symmetry_space_group_name_H-M "A B M 2"
_symmetry_group_IT_number 39
_symmetry_cell_setting 'orthorhombic'
loop_
_space_group_symop_operation_xyz
x,y,z
-x,-y,z
-x,1/2+y,z
x,1/2-y,z
x,1/2+y,1/2+z
-x,1/2-y,1/2+z
-x,y,1/2+z
x,-y,1/2+z
loop_
_atom_site_type_symbol
_atom_site_label
_atom_site_fract_x
_atom_site_fract_y
_atom_site_fract_z
Si Si1 0.867564 0.905908 0.491650
Si Si2 0.317471 0.410651 0.534981
Si Si3 0.078176 0.909156 0.850058
Si Si4 0.273389 0.405716 0.298684
Si Si5 0.275180 0.908879 0.177818
Si Si6 0.580513 0.907100 0.408137
Si Si7 0.924762 0.902930 0.637158
O O1 0.848339 0.750000 0.472019
O O2 0.772969 0.978669 0.506595
O O3 0.913307 0.967878 0.425921
O O4 0.929148 0.917517 0.556784
O O5 0.300100 0.250000 0.536818
O O6 0.332531 0.454978 0.612271
O O7 0.398191 0.447567 0.485432
O O8 0.052174 0.750000 0.845967
O O9 0.170796 0.938560 0.813025
O O10 0.000000 0.000000 0.816355
O O11 0.285141 0.250000 0.275755
O O12 0.309134 0.502135 0.239667
O O13 0.332085 0.435103 0.364226
O O14 0.289183 0.750000 0.194409
O O15 0.172027 0.942282 0.164003
O O16 0.551214 0.750000 0.403011
O O17 0.500000 0.000000 0.382478
O O18 0.949077 0.750000 0.658662
O O19 0.000000 0.000000 0.668825
#
# Coordination Sequence:
#
# PCOD8180930 Si02
#       7
#     8   8   8   8   8   8   8
#     4   8  13  26  48  71  97 131 173 217 261 311
#     4   8  14  31  57  79 100 133 174 213 261 320
#     4  10  19  31  49  74 104 142 183 222 264 310
#     4  10  21  37  55  77 110 149 181 216 266 323
#     4   9  19  34  54  76 102 141 182 220 263 313
#     4  10  20  37  62  87 108 136 176 220 270 325
#     4   9  17  28  45  70  99 134 178 224 266 310
#
# _framework density 18.938248999999999
#
# number of rings (size 3 to 8) (size 9 to 14) (size 15 to 20)
#    0.000    2.857    1.429    2.143    0.000    2.286 
#    0.000    4.286    0.000    5.143    0.000    0.000 
#    0.000    0.000    0.000    0.000    0.000    0.000 
#
# Total GULP energy -347002.535033 kJ/mol
# GULP energy per Si atom -12392.947680 kJ/mol
# Density = 1.889514 g / cm^3
# Si number density = 18.938249 Si / 1000 Ang^3
#
#
#
# Elastic Constant Matrix: (Units=GPa)
#
#
# Indices 1 2 3 4 5 6 
#
# 1 72.9120 40.8434 22.9736 0.0000 0.0000 0.0000
# 2 40.8434 64.2941 44.5266 0.0000 0.0000 0.0000
# 3 22.9736 44.5266 99.8211 0.0000 0.0000 0.0000
# 4 0.0000 0.0000 0.0000 26.3037 0.0000 0.0000
# 5 0.0000 0.0000 0.0000 0.0000 8.7311 0.0000
# 6 0.0000 0.0000 0.0000 0.0000 0.0000 27.1212
#
#
#
# Elastic Compliance Matrix: (Units=1/GPa)
#
#
# Indices 1 2 3 4 5 6 
#
# 1 0.021479 -0.014790 0.001654 0.000000 0.000000 0.000000
# 2 -0.014790 0.032691 -0.011178 0.000000 0.000000 0.000000
# 3 0.001654 -0.011178 0.014623 0.000000 0.000000 0.000000
# 4 0.000000 0.000000 0.000000 0.038017 0.000000 0.000000
# 5 0.000000 0.000000 0.000000 0.000000 0.114533 0.000000
# 6 0.000000 0.000000 0.000000 0.000000 0.000000 0.036872
#
#
# Mechanical properties :
#
#
# Convention : Reuss Voigt Hill
#
# Bulk Modulus (GPa) = 49.59252 50.41270 50.00261
# Shear Modulus (GPa) = 15.94563 21.01010 18.47786
#
# Velocity S-wave (km/s) = 2.90484 3.33438 3.12699
# Velocity P-wave (km/s) = 6.12324 6.44216 6.28472
#
# Compressibility (1/GPa) = 0.02016433
#
# Stress axis : x y z
#
# Youngs Moduli (GPa) = 46.55676 30.58985 68.38356
#
# Poissons Ratio (x) = 0.45243 -0.11311
# Poissons Ratio (y) = 0.68859 0.76440
# Poissons Ratio (z) = -0.07701 0.34194
#
# Static dielectric constant tensor:
#      x y z
#    x 3.184150 0.000000 0.000000 
#    y 0.000000 3.112480 0.000000 
#    z 0.000000 0.000000 3.552670 
# 
# 
# High freq. dielectric constant tensor:
#      x y z
#    x 1.713250 0.000000 0.000000 
#    y 0.000000 1.699940 0.000000 
#    z 0.000000 0.000000 1.742360 
# 
# From -- ./inp_files/14458.got.cif
#   From: 2010.03.12/outbox.cif.g09.slc.cpg/sg39_8_cif.got.tgz:14458.got - 2010.04.14 02:53:20.
