data_PCOD8180337
_publ_section_title
;
Structure prediction by ZEFSAII (Michael W. Deem and Ramdas Pophale) SiO2 
 PCOD8180337
Probable space group: A M M 2
;
_chemical_formula_sum "Si O2"
_cell_formula_units_Z 48
_cell_length_a 8.915595
_cell_length_b 27.517485
_cell_length_c 9.861785
_cell_angle_alpha 90.000000
_cell_angle_beta 90.000000
_cell_angle_gamma 90.000000
_cell_volume 2419.438574
_symmetry_space_group_name_H-M "A M M 2"
_symmetry_group_IT_number 38
_symmetry_cell_setting 'orthorhombic'
loop_
_space_group_symop_operation_xyz
x,y,z
-x,-y,z
-x,y,z
x,-y,z
x,1/2+y,1/2+z
-x,1/2-y,1/2+z
-x,1/2+y,1/2+z
x,1/2-y,1/2+z
loop_
_atom_site_type_symbol
_atom_site_label
_atom_site_fract_x
_atom_site_fract_y
_atom_site_fract_z
Si Si1 0.671853 0.945177 0.024910
Si Si2 0.177605 0.054754 0.548784
Si Si3 0.325698 0.212440 0.875618
Si Si4 0.176906 0.901913 0.265246
Si Si5 0.675161 0.301854 0.686568
Si Si6 0.177218 0.615898 0.300559
O O1 0.500000 0.927717 0.021135
O O2 0.736386 0.941813 0.176057
O O3 0.687728 0.000000 0.971259
O O4 0.771245 0.908875 0.938397
O O5 0.225053 0.085576 0.417873
O O6 0.243605 0.084430 0.676312
O O7 0.000000 0.051004 0.559935
O O8 0.245281 0.000000 0.546049
O O9 0.500000 0.200912 0.859149
O O10 0.282162 0.261687 0.798129
O O11 0.237521 0.170410 0.796927
O O12 0.281955 0.216285 0.034775
O O13 0.226958 0.848204 0.224599
O O14 0.000000 0.907347 0.243372
O O15 0.500000 0.315355 0.693694
O O16 0.000000 0.617621 0.294838
#
# Coordination Sequence:
#
# PCOD8180337 Si02
#       6
#     8   8   8   8   8   8
#     4  11  23  39  60  87 120 157 198 247 300 359
#     4   9  20  38  58  85 122 159 196 239 290 351
#     4  10  22  40  61  86 119 159 199 243 297 357
#     4  11  22  38  62  90 120 157 199 247 301 354
#     4  10  22  40  61  86 119 159 199 243 297 357
#     4  11  22  38  62  90 120 157 199 247 301 354
#
# _framework density 19.839313000000001
#
# number of rings (size 3 to 8) (size 9 to 14) (size 15 to 20)
#    0.000    1.667    1.667    2.500    2.333    3.333 
#    0.000    2.500    0.000    6.000    0.000    0.000 
#    0.000    0.000    0.000    0.000    0.000    0.000 
#
# Total GULP energy -297656.266685 kJ/mol
# GULP energy per Si atom -12402.344445 kJ/mol
# Density = 1.979416 g / cm^3
# Si number density = 19.839313 Si / 1000 Ang^3
#
#
#
# Elastic Constant Matrix: (Units=GPa)
#
#
# Indices 1 2 3 4 5 6 
#
# 1 46.2470 33.8483 22.7908 0.0000 0.0000 0.0000
# 2 33.8483 101.4814 43.1704 0.0000 0.0000 0.0000
# 3 22.7908 43.1704 114.1373 0.0000 0.0000 0.0000
# 4 0.0000 0.0000 0.0000 42.9484 0.0000 0.0000
# 5 0.0000 0.0000 0.0000 0.0000 22.8591 0.0000
# 6 0.0000 0.0000 0.0000 0.0000 0.0000 28.2910
#
#
#
# Elastic Compliance Matrix: (Units=1/GPa)
#
#
# Indices 1 2 3 4 5 6 
#
# 1 0.029221 -0.008657 -0.002560 0.000000 0.000000 0.000000
# 2 -0.008657 0.014308 -0.003683 0.000000 0.000000 0.000000
# 3 -0.002560 -0.003683 0.010666 0.000000 0.000000 0.000000
# 4 0.000000 0.000000 0.000000 0.023284 0.000000 0.000000
# 5 0.000000 0.000000 0.000000 0.000000 0.043746 0.000000
# 6 0.000000 0.000000 0.000000 0.000000 0.000000 0.035347
#
#
# Mechanical properties :
#
#
# Convention : Reuss Voigt Hill
#
# Bulk Modulus (GPa) = 40.99451 51.27606 46.13529
# Shear Modulus (GPa) = 25.70627 29.62346 27.66487
#
# Velocity S-wave (km/s) = 3.60352 3.86835 3.73828
# Velocity P-wave (km/s) = 6.16619 6.77155 6.47595
#
# Compressibility (1/GPa) = 0.02439351
#
# Stress axis : x y z
#
# Youngs Moduli (GPa) = 34.22189 69.88887 93.75809
#
# Poissons Ratio (x) = 0.60505 0.24006
# Poissons Ratio (y) = 0.29627 0.34533
# Poissons Ratio (z) = 0.08762 0.25742
#
# Static dielectric constant tensor:
#      x y z
#    x 3.438800 0.000000 0.000000 
#    y 0.000000 3.696190 0.000000 
#    z 0.000000 0.000000 3.867090 
# 
# 
# High freq. dielectric constant tensor:
#      x y z
#    x 1.757930 0.000000 0.000000 
#    y 0.000000 1.784180 0.000000 
#    z 0.000000 0.000000 1.785810 
# 
# From -- ./inp_files/3751.got.cif
#   From: 2010.03.12/outbox.cif.g09.slc.cpg/sg38_2_cif.got.tgz:3751.got - 2010.04.14 02:38:36.
