data_PCOD8180747
_publ_section_title
;
Structure prediction by ZEFSAII (Michael W. Deem and Ramdas Pophale) SiO2 
 PCOD8180747
Probable space group: A B M 2
;
_chemical_formula_sum "Si O2"
_cell_formula_units_Z 64
_cell_length_a 10.074352
_cell_length_b 18.879593
_cell_length_c 18.743078
_cell_angle_alpha 90.000000
_cell_angle_beta 90.000000
_cell_angle_gamma 90.000000
_cell_volume 3564.927166
_symmetry_space_group_name_H-M "A B M 2"
_symmetry_group_IT_number 39
_symmetry_cell_setting 'orthorhombic'
loop_
_space_group_symop_operation_xyz
x,y,z
-x,-y,z
-x,1/2+y,z
x,1/2-y,z
x,1/2+y,1/2+z
-x,1/2-y,1/2+z
-x,y,1/2+z
x,-y,1/2+z
loop_
_atom_site_type_symbol
_atom_site_label
_atom_site_fract_x
_atom_site_fract_y
_atom_site_fract_z
Si Si1 0.852244 0.477417 0.311330
Si Si2 0.397200 0.669999 0.833322
Si Si3 0.143192 0.671831 0.358489
Si Si4 0.143193 0.328169 0.426090
Si Si5 0.624416 0.550378 0.060191
Si Si6 0.624415 0.949622 0.224388
Si Si7 0.852244 0.977417 0.473249
Si Si8 0.602801 0.169999 0.451257
O O1 0.834794 0.392022 0.302649
O O2 0.753686 0.514200 0.257070
O O3 0.818099 0.500000 0.392290
O O4 0.000000 0.500000 0.290018
O O5 0.437590 0.750000 0.812871
O O6 0.248060 0.665991 0.862279
O O7 0.408764 0.624185 0.762263
O O8 0.500001 0.640256 0.892289
O O9 0.154379 0.750000 0.321684
O O10 0.248059 0.665991 0.422301
O O11 0.999999 0.660331 0.392289
O O12 0.154379 0.250000 0.462895
O O13 0.165205 0.392022 0.481930
O O14 0.500000 0.500000 0.049404
O O15 0.653391 0.566813 0.142289
O O16 0.753686 0.514199 0.027509
O O17 0.591237 0.624185 0.022316
O O18 0.500000 0.000000 0.235175
O O19 0.000000 0.000000 0.494561
O O20 0.562411 0.250000 0.471708
#
# Coordination Sequence:
#
# PCOD8180747 Si02
#       8
#     8   8   8   8   8   8   8   8
#     4  11  19  34  57  83 107 141 185 226 268 321
#     4  10  20  34  55  81 105 140 183 223 270 320
#     4  10  18  30  51  81 110 134 174 227 269 310
#     4  10  18  30  51  81 110 134 174 227 269 310
#     4  11  24  37  53  80 111 145 181 222 277 333
#     4  11  24  37  53  80 111 145 181 222 277 333
#     4  11  19  34  57  83 107 141 185 226 268 321
#     4  10  20  34  55  81 105 140 183 223 270 320
#
# _framework density 17.952681999999999
#
# number of rings (size 3 to 8) (size 9 to 14) (size 15 to 20)
#    0.000    1.500    5.000    1.500    0.000    1.000 
#    0.000    0.000    0.000    2.250    0.000    0.000 
#    0.000    0.000    0.000    0.000    0.000    0.000 
#
# Total GULP energy -396802.241024 kJ/mol
# GULP energy per Si atom -12400.070032 kJ/mol
# Density = 1.791182 g / cm^3
# Si number density = 17.952682 Si / 1000 Ang^3
#
#
#
# Elastic Constant Matrix: (Units=GPa)
#
#
# Indices 1 2 3 4 5 6 
#
# 1 107.0862 30.5026 67.0723 0.0000 0.0000 0.0000
# 2 30.5026 146.5240 68.3340 0.0000 0.0000 0.0000
# 3 67.0723 68.3340 113.2540 0.0000 0.0000 0.0000
# 4 0.0000 0.0000 0.0000 22.5705 0.0000 0.0000
# 5 0.0000 0.0000 0.0000 0.0000 21.3875 0.0000
# 6 0.0000 0.0000 0.0000 0.0000 0.0000 18.8214
#
#
#
# Elastic Compliance Matrix: (Units=1/GPa)
#
#
# Indices 1 2 3 4 5 6 
#
# 1 0.015056 0.001425 -0.009776 0.000000 0.000000 0.000000
# 2 0.001425 0.009632 -0.006656 0.000000 0.000000 0.000000
# 3 -0.009776 -0.006656 0.018635 0.000000 0.000000 0.000000
# 4 0.000000 0.000000 0.000000 0.044306 0.000000 0.000000
# 5 0.000000 0.000000 0.000000 0.000000 0.046756 0.000000
# 6 0.000000 0.000000 0.000000 0.000000 0.000000 0.053131
#
#
# Mechanical properties :
#
#
# Convention : Reuss Voigt Hill
#
# Bulk Modulus (GPa) = 75.13494 77.63132 76.38313
# Shear Modulus (GPa) = 22.52595 25.95289 24.23942
#
# Velocity S-wave (km/s) = 3.54607 3.80627 3.67847
# Velocity P-wave (km/s) = 7.66216 7.91536 7.78979
#
# Compressibility (1/GPa) = 0.01330939
#
# Stress axis : x y z
#
# Youngs Moduli (GPa) = 66.42061 103.81865 53.66146
#
# Poissons Ratio (x) = -0.14795 0.52461
# Poissons Ratio (y) = -0.09466 0.35716
# Poissons Ratio (z) = 0.64934 0.69099
#
# Static dielectric constant tensor:
#      x y z
#    x 3.391890 0.000000 0.000000 
#    y 0.000000 3.819280 0.000000 
#    z 0.000000 0.000000 2.986150 
# 
# 
# High freq. dielectric constant tensor:
#      x y z
#    x 1.717460 0.000000 0.000000 
#    y 0.000000 1.718680 0.000000 
#    z 0.000000 0.000000 1.641940 
# 
# From -- ./inp_files/11935.got.cif
#   From: 2010.03.12/outbox.cif.g09.slc.cpg/sg39_6_cif.got.tgz:11935.got - 2010.04.14 02:53:20.
