data_PCOD8180883
_publ_section_title
;
Structure prediction by ZEFSAII (Michael W. Deem and Ramdas Pophale) SiO2 
 PCOD8180883
Probable space group: A B M 2
;
_chemical_formula_sum "Si O2"
_cell_formula_units_Z 64
_cell_length_a 17.657804
_cell_length_b 9.164089
_cell_length_c 23.087076
_cell_angle_alpha 90.000000
_cell_angle_beta 90.000000
_cell_angle_gamma 90.000000
_cell_volume 3735.897247
_symmetry_space_group_name_H-M "A B M 2"
_symmetry_group_IT_number 39
_symmetry_cell_setting 'orthorhombic'
loop_
_space_group_symop_operation_xyz
x,y,z
-x,-y,z
-x,1/2+y,z
x,1/2-y,z
x,1/2+y,1/2+z
-x,1/2-y,1/2+z
-x,y,1/2+z
x,-y,1/2+z
loop_
_atom_site_type_symbol
_atom_site_label
_atom_site_fract_x
_atom_site_fract_y
_atom_site_fract_z
Si Si1 0.199941 0.086225 0.889160
Si Si2 0.217534 0.917585 0.661670
Si Si3 0.851564 0.082179 0.991104
Si Si4 0.367399 0.910766 0.440642
Si Si5 0.717776 0.584151 0.044738
Si Si6 0.426566 0.420710 0.339638
Si Si7 0.924185 0.920667 0.608280
Si Si8 0.732790 0.921651 0.287746
O O1 0.172727 0.250000 0.875975
O O2 0.280658 0.081782 0.920271
O O3 0.205909 0.999955 0.828725
O O4 0.138075 0.011407 0.932059
O O5 0.190729 0.750000 0.666279
O O6 0.285973 0.933112 0.614449
O O7 0.251078 0.972344 0.722437
O O8 0.145638 0.013045 0.643871
O O9 0.846985 0.250000 0.972581
O O10 0.916891 0.053867 0.038748
O O11 0.774470 0.038580 0.022700
O O12 0.401604 0.750000 0.427574
O O13 0.362623 0.940055 0.510625
O O14 0.417071 0.029655 0.406898
O O15 0.746735 0.750000 0.030052
O O16 0.500000 0.500000 0.312613
O O17 0.440127 0.250000 0.337671
O O18 0.353009 0.469696 0.303284
O O19 0.928733 0.750000 0.622843
O O20 0.000000 0.000000 0.629611
O O21 0.741815 0.750000 0.296951
#
# Coordination Sequence:
#
# PCOD8180883 Si02
#       8
#     8   8   8   8   8   8   8   8
#     4   9  16  26  43  66  91 118 147 183 227 272
#     4   9  17  31  50  71  96 127 163 201 238 281
#     4   9  16  26  42  65  91 116 145 183 227 274
#     4   8  14  25  41  63  88 113 142 177 221 272
#     4   8  14  25  43  66  90 116 145 179 223 273
#     4  10  19  30  45  66  91 120 155 195 241 290
#     4  10  20  32  48  71  97 126 158 196 242 289
#     4   9  18  31  48  70  95 126 163 200 238 281
#
# _framework density 17.131091000000001
#
# number of rings (size 3 to 8) (size 9 to 14) (size 15 to 20)
#    0.000    3.000    0.000    2.250    0.000    5.500 
#    0.000    0.000    0.000    1.500    0.000    5.250 
#    0.000    0.000    0.000    0.000    0.000    0.000 
#
# Total GULP energy -396485.086382 kJ/mol
# GULP energy per Si atom -12390.158949 kJ/mol
# Density = 1.709210 g / cm^3
# Si number density = 17.131091 Si / 1000 Ang^3
#
#
#
# Elastic Constant Matrix: (Units=GPa)
#
#
# Indices 1 2 3 4 5 6 
#
# 1 56.1979 35.7104 39.0269 0.0000 0.0000 0.0000
# 2 35.7104 82.2620 45.4614 0.0000 0.0000 0.0000
# 3 39.0269 45.4614 129.3249 0.0000 0.0000 0.0000
# 4 0.0000 0.0000 0.0000 24.3240 0.0000 0.0000
# 5 0.0000 0.0000 0.0000 0.0000 16.2812 0.0000
# 6 0.0000 0.0000 0.0000 0.0000 0.0000 20.5911
#
#
#
# Elastic Compliance Matrix: (Units=1/GPa)
#
#
# Indices 1 2 3 4 5 6 
#
# 1 0.026937 -0.008937 -0.004987 0.000000 0.000000 0.000000
# 2 -0.008937 0.018053 -0.003649 0.000000 0.000000 0.000000
# 3 -0.004987 -0.003649 0.010520 0.000000 0.000000 0.000000
# 4 0.000000 0.000000 0.000000 0.041112 0.000000 0.000000
# 5 0.000000 0.000000 0.000000 0.000000 0.061420 0.000000
# 6 0.000000 0.000000 0.000000 0.000000 0.000000 0.048565
#
#
# Mechanical properties :
#
#
# Convention : Reuss Voigt Hill
#
# Bulk Modulus (GPa) = 49.10928 56.46468 52.78698
# Shear Modulus (GPa) = 20.11745 22.07833 21.09789
#
# Velocity S-wave (km/s) = 3.43056 3.59386 3.51316
# Velocity P-wave (km/s) = 6.66488 7.08894 6.88018
#
# Compressibility (1/GPa) = 0.02036275
#
# Stress axis : x y z
#
# Youngs Moduli (GPa) = 37.12415 55.39379 95.05573
#
# Poissons Ratio (x) = 0.49507 0.47405
# Poissons Ratio (y) = 0.33179 0.34685
# Poissons Ratio (z) = 0.18514 0.20213
#
# Static dielectric constant tensor:
#      x y z
#    x 2.889040 0.000000 0.000000 
#    y 0.000000 3.264730 0.000000 
#    z 0.000000 0.000000 3.412330 
# 
# 
# High freq. dielectric constant tensor:
#      x y z
#    x 1.612860 0.000000 0.000000 
#    y 0.000000 1.669850 0.000000 
#    z 0.000000 0.000000 1.654730 
# 
# From -- ./inp_files/16338.got.cif
#   From: 2010.03.12/outbox.cif.g09.slc.cpg/sg39_9_cif.got.tgz:16338.got - 2010.04.14 02:53:20.
