data_PCOD8180517
_publ_section_title
;
Structure prediction by ZEFSAII (Michael W. Deem and Ramdas Pophale) SiO2 
 PCOD8180517
Probable space group: A M M 2
;
_chemical_formula_sum "Si O2"
_cell_formula_units_Z 64
_cell_length_a 20.345775
_cell_length_b 9.924881
_cell_length_c 19.898212
_cell_angle_alpha 90.000000
_cell_angle_beta 90.000000
_cell_angle_gamma 90.000000
_cell_volume 4018.033925
_symmetry_space_group_name_H-M "A M M 2"
_symmetry_group_IT_number 38
_symmetry_cell_setting 'orthorhombic'
loop_
_space_group_symop_operation_xyz
x,y,z
-x,-y,z
-x,y,z
x,-y,z
x,1/2+y,1/2+z
-x,1/2-y,1/2+z
-x,1/2+y,1/2+z
x,1/2-y,1/2+z
loop_
_atom_site_type_symbol
_atom_site_label
_atom_site_fract_x
_atom_site_fract_y
_atom_site_fract_z
Si Si1 0.316845 0.350996 0.469120
Si Si2 0.831849 0.840844 0.974164
Si Si3 0.319158 0.649818 0.628804
Si Si4 0.825079 0.160349 0.126231
Si Si5 0.922851 0.654999 0.884863
Si Si6 0.573297 0.348896 0.968024
Si Si7 0.927524 0.659418 0.732742
Si Si8 0.572960 0.349816 0.127911
O O1 0.331016 0.500000 0.439787
O O2 0.242553 0.306532 0.450606
O O3 0.323825 0.356219 0.548847
O O4 0.370623 0.249010 0.437495
O O5 0.882685 0.755951 0.931048
O O6 0.845948 0.000000 0.966015
O O7 0.842634 0.792930 0.051005
O O8 0.330095 0.500000 0.658545
O O9 0.247628 0.709073 0.648297
O O10 0.374611 0.747074 0.659953
O O11 0.877016 0.222884 0.178909
O O12 0.824548 0.000000 0.127605
O O13 0.902956 0.500000 0.899539
O O14 0.905395 0.694361 0.808231
O O15 0.000000 0.675179 0.898379
O O16 0.500000 0.301412 0.945644
O O17 0.586700 0.500000 0.941376
O O18 0.577432 0.347737 0.047959
O O19 0.930152 0.500000 0.724010
O O20 0.000000 0.719499 0.718198
O O21 0.500000 0.305667 0.150920
O O22 0.588664 0.500000 0.154203
#
# Coordination Sequence:
#
# PCOD8180517 Si02
#       8
#     8   8   8   8   8   8   8   8
#     4   8  14  23  33  49  75 103 130 161 198 239
#     4   9  17  28  43  64  87 110 138 172 208 247
#     4   8  13  21  33  50  73  98 125 162 202 234
#     4   8  14  25  41  62  85 107 136 173 207 240
#     4   9  18  31  45  62  84 109 137 169 206 249
#     4   8  13  20  30  46  69  99 135 168 195 229
#     4   8  14  26  44  63  82 106 137 171 204 241
#     4   8  13  20  29  43  67 100 134 162 188 227
#
# _framework density 15.928186999999999
#
# number of rings (size 3 to 8) (size 9 to 14) (size 15 to 20)
#    0.000    3.750    0.000    3.000    0.000    1.750 
#    0.000    5.625    0.000    1.500    0.000    0.000 
#    0.000    1.000    0.000    5.000    0.000    6.750 
#
# Total GULP energy -396493.453857 kJ/mol
# GULP energy per Si atom -12390.420433 kJ/mol
# Density = 1.589193 g / cm^3
# Si number density = 15.928187 Si / 1000 Ang^3
#
#
#
# Elastic Constant Matrix: (Units=GPa)
#
#
# Indices 1 2 3 4 5 6 
#
# 1 135.3757 69.7055 53.8786 0.0000 0.0000 0.0000
# 2 69.7055 70.7371 31.8355 0.0000 0.0000 0.0000
# 3 53.8786 31.8355 47.5882 0.0000 0.0000 0.0000
# 4 0.0000 0.0000 0.0000 11.1341 0.0000 0.0000
# 5 0.0000 0.0000 0.0000 0.0000 0.9399 0.0000
# 6 0.0000 0.0000 0.0000 0.0000 0.0000 30.2805
#
#
#
# Elastic Compliance Matrix: (Units=1/GPa)
#
#
# Indices 1 2 3 4 5 6 
#
# 1 0.019434 -0.013232 -0.013151 0.000000 0.000000 0.000000
# 2 -0.013232 0.029236 -0.004577 0.000000 0.000000 0.000000
# 3 -0.013151 -0.004577 0.038965 0.000000 0.000000 0.000000
# 4 0.000000 0.000000 0.000000 0.089814 0.000000 0.000000
# 5 0.000000 0.000000 0.000000 0.000000 1.063998 0.000000
# 6 0.000000 0.000000 0.000000 0.000000 0.000000 0.033025
#
#
# Mechanical properties :
#
#
# Convention : Reuss Voigt Hill
#
# Bulk Modulus (GPa) = 38.88836 62.72669 50.80752
# Shear Modulus (GPa) = 3.71757 15.02300 9.37029
#
# Velocity S-wave (km/s) = 1.52939 3.07444 2.42809
# Velocity P-wave (km/s) = 5.25229 7.21591 6.31094
#
# Compressibility (1/GPa) = 0.02571464
#
# Stress axis : x y z
#
# Youngs Moduli (GPa) = 51.45601 34.20469 25.66409
#
# Poissons Ratio (x) = 0.45260 0.33751
# Poissons Ratio (y) = 0.68086 0.11747
# Poissons Ratio (z) = 0.67670 0.15656
#
# Static dielectric constant tensor:
#      x y z
#    x 3.431090 0.000000 0.000000 
#    y 0.000000 3.016840 0.000000 
#    z 0.000000 0.000000 2.618040 
# 
# 
# High freq. dielectric constant tensor:
#      x y z
#    x 1.624790 0.000000 0.000000 
#    y 0.000000 1.590140 0.000000 
#    z 0.000000 0.000000 1.553320 
# 
# From -- ./inp_files/21464.got.cif
#   From: 2010.03.12/outbox.cif.g09.slc.cpg/sg38_11_cif.got.tgz:21464.got - 2010.04.14 02:38:36.
