data_PCOD8180316
_publ_section_title
;
Structure prediction by ZEFSAII (Michael W. Deem and Ramdas Pophale) SiO2 
 PCOD8180316
Probable space group: A M M 2
;
_chemical_formula_sum "Si O2"
_cell_formula_units_Z 56
_cell_length_a 8.903205
_cell_length_b 23.905838
_cell_length_c 13.679709
_cell_angle_alpha 90.000000
_cell_angle_beta 90.000000
_cell_angle_gamma 90.000000
_cell_volume 2911.569789
_symmetry_space_group_name_H-M "A M M 2"
_symmetry_group_IT_number 38
_symmetry_cell_setting 'orthorhombic'
loop_
_space_group_symop_operation_xyz
x,y,z
-x,-y,z
-x,y,z
x,-y,z
x,1/2+y,1/2+z
-x,1/2-y,1/2+z
-x,1/2+y,1/2+z
x,1/2-y,1/2+z
loop_
_atom_site_type_symbol
_atom_site_label
_atom_site_fract_x
_atom_site_fract_y
_atom_site_fract_z
Si Si1 0.676310 0.164404 0.710010
Si Si2 0.821527 0.438038 0.734909
Si Si3 0.178344 0.938140 0.017584
Si Si4 0.173571 0.563778 0.110283
Si Si5 0.323941 0.770243 0.516736
Si Si6 0.821942 0.671168 0.412629
Si Si7 0.825507 0.630030 0.916610
O O1 0.500000 0.162005 0.726573
O O2 0.732681 0.102235 0.684187
O O3 0.720474 0.207797 0.624428
O O4 0.754140 0.186901 0.807849
O O5 0.761471 0.500000 0.760520
O O6 0.765098 0.421505 0.626445
O O7 0.761246 0.394337 0.814902
O O8 0.000000 0.438230 0.740216
O O9 0.000000 0.940165 0.019317
O O10 0.239756 0.000000 0.987771
O O11 0.233605 0.891350 0.941414
O O12 0.229541 0.500000 0.120498
O O13 0.000000 0.569107 0.140455
O O14 0.198589 0.582968 0.999075
O O15 0.500000 0.760147 0.506477
O O16 0.237485 0.712812 0.496136
O O17 0.272837 0.815534 0.437081
O O18 0.000000 0.675476 0.408010
O O19 0.000000 0.647567 0.910344
#
# Coordination Sequence:
#
# PCOD8180316 Si02
#       7
#     8   8   8   8   8   8   8
#     4  10  22  39  56  76 106 143 181 221 267 323
#     4   8  13  24  46  77 110 139 168 208 259 311
#     4   8  16  31  50  76 108 135 163 206 259 311
#     4   9  17  30  50  78 111 144 180 225 273 318
#     4  10  22  39  55  74 105 142 177 217 266 319
#     4  11  22  36  58  83 105 135 175 219 267 319
#     4   9  16  28  50  80 109 139 178 221 263 311
#
# _framework density 19.233612000000001
#
# number of rings (size 3 to 8) (size 9 to 14) (size 15 to 20)
#    0.000    2.714    0.000    2.571    0.000    5.429 
#    0.000    2.857    0.000    3.429    0.000    4.000 
#    0.000    0.000    0.000    0.000    0.000    0.000 
#
# Total GULP energy -347155.147993 kJ/mol
# GULP energy per Si atom -12398.398143 kJ/mol
# Density = 1.918984 g / cm^3
# Si number density = 19.233612 Si / 1000 Ang^3
#
#
#
# Elastic Constant Matrix: (Units=GPa)
#
#
# Indices 1 2 3 4 5 6 
#
# 1 56.1874 42.1902 36.8720 0.0000 0.0000 0.0000
# 2 42.1902 126.8241 60.5895 0.0000 0.0000 0.0000
# 3 36.8720 60.5895 107.1825 0.0000 0.0000 0.0000
# 4 0.0000 0.0000 0.0000 27.2430 0.0000 0.0000
# 5 0.0000 0.0000 0.0000 0.0000 21.6016 0.0000
# 6 0.0000 0.0000 0.0000 0.0000 0.0000 17.5138
#
#
#
# Elastic Compliance Matrix: (Units=1/GPa)
#
#
# Indices 1 2 3 4 5 6 
#
# 1 0.025920 -0.005977 -0.005538 0.000000 0.000000 0.000000
# 2 -0.005977 0.012180 -0.004829 0.000000 0.000000 0.000000
# 3 -0.005538 -0.004829 0.013965 0.000000 0.000000 0.000000
# 4 0.000000 0.000000 0.000000 0.036707 0.000000 0.000000
# 5 0.000000 0.000000 0.000000 0.000000 0.046293 0.000000
# 6 0.000000 0.000000 0.000000 0.000000 0.000000 0.057098
#
#
# Mechanical properties :
#
#
# Convention : Reuss Voigt Hill
#
# Bulk Modulus (GPa) = 51.60848 63.27750 57.44299
# Shear Modulus (GPa) = 21.61599 23.30783 22.46191
#
# Velocity S-wave (km/s) = 3.35605 3.48491 3.42108
# Velocity P-wave (km/s) = 6.47365 7.01168 6.74803
#
# Compressibility (1/GPa) = 0.01937666
#
# Stress axis : x y z
#
# Youngs Moduli (GPa) = 38.58064 82.09858 71.60735
#
# Poissons Ratio (x) = 0.49070 0.39656
# Poissons Ratio (y) = 0.23059 0.34582
# Poissons Ratio (z) = 0.21366 0.39649
#
# Static dielectric constant tensor:
#      x y z
#    x 3.171680 0.000000 0.000000 
#    y 0.000000 3.666400 0.000000 
#    z 0.000000 0.000000 3.608530 
# 
# 
# High freq. dielectric constant tensor:
#      x y z
#    x 1.715140 0.000000 0.000000 
#    y 0.000000 1.750350 0.000000 
#    z 0.000000 0.000000 1.749600 
# 
# From -- ./inp_files/12443.got.cif
#   From: 2010.03.12/outbox.cif.g09.slc.cpg/sg38_7_cif.got.tgz:12443.got - 2010.04.14 02:38:36.
