data_PCOD8180522
_publ_section_title
;
Structure prediction by ZEFSAII (Michael W. Deem and Ramdas Pophale) SiO2 
 PCOD8180522
Probable space group: A M M 2
;
_chemical_formula_sum "Si O2"
_cell_formula_units_Z 40
_cell_length_a 9.959331
_cell_length_b 9.649646
_cell_length_c 25.772114
_cell_angle_alpha 90.000000
_cell_angle_beta 90.000000
_cell_angle_gamma 90.000000
_cell_volume 2476.803722
_symmetry_space_group_name_H-M "A M M 2"
_symmetry_group_IT_number 38
_symmetry_cell_setting 'orthorhombic'
loop_
_space_group_symop_operation_xyz
x,y,z
-x,-y,z
-x,y,z
x,-y,z
x,1/2+y,1/2+z
-x,1/2-y,1/2+z
-x,1/2+y,1/2+z
x,1/2-y,1/2+z
loop_
_atom_site_type_symbol
_atom_site_label
_atom_site_fract_x
_atom_site_fract_y
_atom_site_fract_z
Si Si1 0.849658 0.164918 0.220380
Si Si2 0.344281 0.337715 0.925426
Si Si3 0.649739 0.334911 0.634405
Si Si4 0.150185 0.164572 0.335808
Si Si5 0.659483 0.153905 0.020283
O O1 0.747307 0.228948 0.178287
O O2 0.809871 0.217172 0.278148
O O3 0.000000 0.215269 0.206760
O O4 0.843383 0.000000 0.218633
O O5 0.500000 0.304494 0.914139
O O6 0.321017 0.500000 0.934515
O O7 0.258389 0.279310 0.877060
O O8 0.290017 0.260082 0.976587
O O9 0.500000 0.275005 0.643758
O O10 0.645152 0.500000 0.637749
O O11 0.705603 0.293056 0.577298
O O12 0.000000 0.216901 0.350213
O O13 0.152060 0.000000 0.336067
O O14 0.500000 0.146667 0.020830
O O15 0.717516 0.000000 0.008649
#
# Coordination Sequence:
#
# PCOD8180522 Si02
#       5
#     8   8   8   8   8
#     4   8  13  21  33  50  73  98 120 146 185 226
#     4   9  16  25  39  59  78  97 127 162 186 211
#     4   8  13  21  34  51  70  94 123 151 180 218
#     4   8  14  24  36  51  75 104 126 148 188 234
#     4   8  14  25  39  55  78 105 126 148 187 231
#
# _framework density 16.149847000000001
#
# number of rings (size 3 to 8) (size 9 to 14) (size 15 to 20)
#    0.000    3.800    0.000    2.400    0.000    0.800 
#    0.000    5.000    0.000    1.800    0.000    1.400 
#    0.000    8.000    0.000    0.000    0.000    0.000 
#
# Total GULP energy -247805.176030 kJ/mol
# GULP energy per Si atom -12390.258802 kJ/mol
# Density = 1.611309 g / cm^3
# Si number density = 16.149847 Si / 1000 Ang^3
#
#
#
# Elastic Constant Matrix: (Units=GPa)
#
#
# Indices 1 2 3 4 5 6 
#
# 1 82.0500 18.5860 86.3796 0.0000 0.0000 0.0000
# 2 18.5860 19.7968 31.6664 0.0000 0.0000 0.0000
# 3 86.3796 31.6664 172.8475 0.0000 0.0000 0.0000
# 4 0.0000 0.0000 0.0000 19.0724 0.0000 0.0000
# 5 0.0000 0.0000 0.0000 0.0000 19.3900 0.0000
# 6 0.0000 0.0000 0.0000 0.0000 0.0000 6.4659
#
#
#
# Elastic Compliance Matrix: (Units=1/GPa)
#
#
# Indices 1 2 3 4 5 6 
#
# 1 0.026084 -0.005146 -0.012093 0.000000 0.000000 0.000000
# 2 -0.005146 0.072467 -0.010705 0.000000 0.000000 0.000000
# 3 -0.012093 -0.010705 0.013790 0.000000 0.000000 0.000000
# 4 0.000000 0.000000 0.000000 0.052432 0.000000 0.000000
# 5 0.000000 0.000000 0.000000 0.000000 0.051573 0.000000
# 6 0.000000 0.000000 0.000000 0.000000 0.000000 0.154657
#
#
# Mechanical properties :
#
#
# Convention : Reuss Voigt Hill
#
# Bulk Modulus (GPa) = 17.71324 60.88425 39.29874
# Shear Modulus (GPa) = 11.21813 18.18983 14.70398
#
# Velocity S-wave (km/s) = 2.63844 3.35970 3.02068
# Velocity P-wave (km/s) = 4.50263 7.26853 6.04588
#
# Compressibility (1/GPa) = 0.05645494
#
# Stress axis : x y z
#
# Youngs Moduli (GPa) = 38.33758 13.79935 72.51703
#
# Poissons Ratio (x) = 0.07101 0.87693
# Poissons Ratio (y) = 0.19727 0.77628
# Poissons Ratio (z) = 0.46360 0.14772
#
# Static dielectric constant tensor:
#      x y z
#    x 3.120600 0.000000 0.000000 
#    y 0.000000 2.554170 0.000000 
#    z 0.000000 0.000000 3.548030 
# 
# 
# High freq. dielectric constant tensor:
#      x y z
#    x 1.603820 0.000000 0.000000 
#    y 0.000000 1.551640 0.000000 
#    z 0.000000 0.000000 1.635310 
# 
# From -- ./inp_files/13493.got.cif
#   From: 2010.03.12/outbox.cif.g09.slc.cpg/sg38_7_cif.got.tgz:13493.got - 2010.04.14 02:38:36.
