data_PCOD8180149
_publ_section_title
;
Structure prediction by ZEFSAII (Michael W. Deem and Ramdas Pophale) SiO2 
 PCOD8180149
Probable space group: A M M 2
;
_chemical_formula_sum "Si O2"
_cell_formula_units_Z 64
_cell_length_a 8.830393
_cell_length_b 32.630456
_cell_length_c 11.624334
_cell_angle_alpha 90.000000
_cell_angle_beta 90.000000
_cell_angle_gamma 90.000000
_cell_volume 3349.432696
_symmetry_space_group_name_H-M "A M M 2"
_symmetry_group_IT_number 38
_symmetry_cell_setting 'orthorhombic'
loop_
_space_group_symop_operation_xyz
x,y,z
-x,-y,z
-x,y,z
x,-y,z
x,1/2+y,1/2+z
-x,1/2-y,1/2+z
-x,1/2+y,1/2+z
x,1/2-y,1/2+z
loop_
_atom_site_type_symbol
_atom_site_label
_atom_site_fract_x
_atom_site_fract_y
_atom_site_fract_z
Si Si1 0.331926 0.548083 0.532360
Si Si2 0.670787 0.726865 0.287867
Si Si3 0.177904 0.878375 0.416894
Si Si4 0.175395 0.895342 0.868225
Si Si5 0.321957 0.355597 0.157902
Si Si6 0.175688 0.808483 0.235891
Si Si7 0.329710 0.326443 0.502218
Si Si8 0.679502 0.453190 0.789900
O O1 0.500000 0.566834 0.513964
O O2 0.341148 0.500000 0.524236
O O3 0.220867 0.562651 0.431232
O O4 0.271869 0.559995 0.660199
O O5 0.500000 0.741271 0.256265
O O6 0.720905 0.689854 0.203098
O O7 0.790656 0.763431 0.284271
O O8 0.676425 0.712603 0.419544
O O9 0.242585 0.864260 0.538248
O O10 0.222433 0.843197 0.326649
O O11 0.244410 0.922260 0.379755
O O12 0.000000 0.883364 0.428609
O O13 0.267770 0.889168 0.750681
O O14 0.212490 0.860427 0.960599
O O15 0.000000 0.895533 0.836992
O O16 0.500000 0.360293 0.142920
O O17 0.000000 0.811839 0.202377
O O18 0.283303 0.812771 0.127590
O O19 0.500000 0.344622 0.503253
O O20 0.500000 0.450232 0.802332
O O21 0.732377 0.500000 0.816206
#
# Coordination Sequence:
#
# PCOD8180149 Si02
#       8
#     8   8   8   8   8   8   8   8
#     4   9  18  34  58  87 118 152 191 235 283 341
#     4   9  21  39  58  81 107 144 192 239 286 339
#     4  11  24  39  56  86 120 154 194 239 295 355
#     4  11  21  35  57  84 115 147 182 232 290 343
#     4  10  22  41  62  81 108 153 200 242 287 342
#     4  11  24  37  55  85 118 149 184 235 293 345
#     4  10  21  38  58  80 107 145 192 232 272 332
#     4   9  19  37  61  88 117 153 196 241 290 343
#
# _framework density 19.107711999999999
#
# number of rings (size 3 to 8) (size 9 to 14) (size 15 to 20)
#    0.000    2.000    0.000    4.875    1.750    8.000 
#    0.000    1.875    0.000    3.750    0.000    0.000 
#    0.000    0.000    0.000    0.000    0.000    0.000 
#
# Total GULP energy -396813.967093 kJ/mol
# GULP energy per Si atom -12400.436472 kJ/mol
# Density = 1.906422 g / cm^3
# Si number density = 19.107712 Si / 1000 Ang^3
#
#
#
# Elastic Constant Matrix: (Units=GPa)
#
#
# Indices 1 2 3 4 5 6 
#
# 1 54.1330 36.4024 41.8932 0.0000 0.0000 0.0000
# 2 36.4024 85.3475 60.1873 0.0000 0.0000 0.0000
# 3 41.8932 60.1873 128.7279 0.0000 0.0000 0.0000
# 4 0.0000 0.0000 0.0000 15.8703 0.0000 0.0000
# 5 0.0000 0.0000 0.0000 0.0000 32.5294 0.0000
# 6 0.0000 0.0000 0.0000 0.0000 0.0000 27.4572
#
#
#
# Elastic Compliance Matrix: (Units=1/GPa)
#
#
# Indices 1 2 3 4 5 6 
#
# 1 0.028124 -0.008267 -0.005288 0.000000 0.000000 0.000000
# 2 -0.008267 0.019910 -0.006619 0.000000 0.000000 0.000000
# 3 -0.005288 -0.006619 0.012584 0.000000 0.000000 0.000000
# 4 0.000000 0.000000 0.000000 0.063011 0.000000 0.000000
# 5 0.000000 0.000000 0.000000 0.000000 0.030741 0.000000
# 6 0.000000 0.000000 0.000000 0.000000 0.000000 0.036420
#
#
# Mechanical properties :
#
#
# Convention : Reuss Voigt Hill
#
# Bulk Modulus (GPa) = 49.32913 60.57491 54.95202
# Shear Modulus (GPa) = 21.01775 23.81976 22.41875
#
# Velocity S-wave (km/s) = 3.32016 3.53456 3.42904
# Velocity P-wave (km/s) = 6.36949 6.95903 6.67078
#
# Compressibility (1/GPa) = 0.02027200
#
# Stress axis : x y z
#
# Youngs Moduli (GPa) = 35.55668 50.22514 79.46726
#
# Poissons Ratio (x) = 0.41519 0.42019
# Poissons Ratio (y) = 0.29394 0.52598
# Poissons Ratio (z) = 0.18801 0.33243
#
# Static dielectric constant tensor:
#      x y z
#    x 3.493380 0.000000 0.000000 
#    y 0.000000 3.480680 0.000000 
#    z 0.000000 0.000000 3.558410 
# 
# 
# High freq. dielectric constant tensor:
#      x y z
#    x 1.744600 0.000000 0.000000 
#    y 0.000000 1.741360 0.000000 
#    z 0.000000 0.000000 1.744270 
# 
# From -- ./inp_files/8580.got.cif
#   From: 2010.03.12/outbox.cif.g09.slc.cpg/sg38_5_cif.got.tgz:8580.got - 2010.04.14 02:38:36.
