data_PCOD8180565
_publ_section_title
;
Structure prediction by ZEFSAII (Michael W. Deem and Ramdas Pophale) SiO2 
 PCOD8180565
Probable space group: A M M 2
;
_chemical_formula_sum "Si O2"
_cell_formula_units_Z 28
_cell_length_a 9.000000
_cell_length_b 15.000000
_cell_length_c 21.000000
_cell_angle_alpha 90.000000
_cell_angle_beta 90.000000
_cell_angle_gamma 90.000000
_cell_volume 2835.000000
_symmetry_space_group_name_H-M "A M M 2"
_symmetry_group_IT_number 38
_symmetry_cell_setting 'orthorhombic'
loop_
_space_group_symop_operation_xyz
x,y,z
-x,-y,z
-x,y,z
x,-y,z
x,1/2+y,1/2+z
-x,1/2-y,1/2+z
-x,1/2+y,1/2+z
x,1/2-y,1/2+z
loop_
_atom_site_type_symbol
_atom_site_label
_atom_site_fract_x
_atom_site_fract_y
_atom_site_fract_z
Si Si1 0.172220 0.600612 0.741810
Si Si2 0.326767 0.399702 0.306619
Si Si3 0.828112 0.774972 0.903498
Si Si4 0.674776 0.903641 0.659745
Si Si5 0.324674 0.899934 0.377145
Si Si6 0.170761 0.396263 0.524330
Si Si7 0.676160 0.789958 0.133255
O O1 0.189464 0.500000 0.714265
O O2 0.259051 0.609616 0.807224
O O3 0.242819 0.671490 0.694648
O O4 0.000000 0.623631 0.753091
O O5 0.500000 0.379932 0.317375
O O6 0.288062 0.500000 0.331256
O O7 0.234123 0.322668 0.340835
O O8 0.282045 0.392307 0.233158
O O9 0.746740 0.680294 0.918807
O O10 0.000000 0.753206 0.893621
O O11 0.800670 0.845549 0.959006
O O12 0.500000 0.910536 0.652569
O O13 0.728808 0.813887 0.622942
O O14 0.741181 0.000000 0.634494
O O15 0.500000 0.885760 0.374923
O O16 0.287507 0.000000 0.404226
O O17 0.213650 0.500000 0.516136
O O18 0.279318 0.349987 0.573984
O O19 0.000000 0.386757 0.547062
O O20 0.500000 0.794922 0.143805
#
# Coordination Sequence:
#
# PCOD8180565 Si02
#       7
#     8   8   8   8   8   8   8
#     4  10  20  34  54  81 114 149 180 215 267 328
#     4   9  17  31  54  82 111 143 177 217 270 330
#     4  11  22  36  56  79 106 143 184 227 277 330
#     4   8  16  32  52  76 107 139 169 207 261 320
#     4  10  21  37  57  82 112 143 178 223 272 325
#     4  10  23  42  58  74 104 145 183 221 269 325
#     4  11  21  33  55  83 108 140 184 231 274 317
#
# _framework density 9.8765429999999999
#
# number of rings (size 3 to 8) (size 9 to 14) (size 15 to 20)
#    0.000    2.143    0.000    4.286    0.000    6.857 
#    0.000    1.429    0.000    6.000    0.000    0.000 
#    0.000    0.000    0.000    0.000    0.000    0.000 
#
# Total GULP energy -347052.109196 kJ/mol
# GULP energy per Si atom -12394.718186 kJ/mol
# Density = 0.985406 g / cm^3
# Si number density = 9.876543 Si / 1000 Ang^3
#
#
#
# Elastic Constant Matrix: (Units=GPa)
#
#
# Indices 1 2 3 4 5 6 
#
# 1 82.8557 58.5314 21.4803 0.0000 0.0000 0.0000
# 2 58.5314 199.8988 44.7911 0.0000 0.0000 0.0000
# 3 21.4803 44.7911 37.2490 0.0000 0.0000 0.0000
# 4 0.0000 0.0000 0.0000 34.1966 0.0000 0.0000
# 5 0.0000 0.0000 0.0000 0.0000 27.9943 0.0000
# 6 0.0000 0.0000 0.0000 0.0000 0.0000 34.3204
#
#
#
# Elastic Compliance Matrix: (Units=1/GPa)
#
#
# Indices 1 2 3 4 5 6 
#
# 1 0.015836 -0.003546 -0.004868 0.000000 0.000000 0.000000
# 2 -0.003546 0.007642 -0.007144 0.000000 0.000000 0.000000
# 3 -0.004868 -0.007144 0.038244 0.000000 0.000000 0.000000
# 4 0.000000 0.000000 0.000000 0.029243 0.000000 0.000000
# 5 0.000000 0.000000 0.000000 0.000000 0.035722 0.000000
# 6 0.000000 0.000000 0.000000 0.000000 0.000000 0.029137
#
#
# Mechanical properties :
#
#
# Convention : Reuss Voigt Hill
#
# Bulk Modulus (GPa) = 32.67373 63.28989 47.98181
# Shear Modulus (GPa) = 25.36247 32.31561 28.83904
#
# Velocity S-wave (km/s) = 3.58715 4.04911 3.82511
# Velocity P-wave (km/s) = 5.80808 7.34646 6.62209
#
# Compressibility (1/GPa) = 0.03060563
#
# Stress axis : x y z
#
# Youngs Moduli (GPa) = 63.14591 130.86282 26.14787
#
# Poissons Ratio (x) = 0.46406 0.12729
# Poissons Ratio (y) = 0.22393 0.18680
# Poissons Ratio (z) = 0.30740 0.93487
#
# Static dielectric constant tensor:
#      x y z
#    x 3.525440 0.000000 0.000000 
#    y 0.000000 4.327600 0.000000 
#    z 0.000000 0.000000 3.359760 
# 
# 
# High freq. dielectric constant tensor:
#      x y z
#    x 1.761830 0.000000 0.000000 
#    y 0.000000 1.809590 0.000000 
#    z 0.000000 0.000000 1.737670 
# 
# From -- ./inp_files/19754.got.cif
#   From: 2010.03.12/outbox.ucp.g09.slc.cvg/sg38_10_cif.got.tgz:19754.got - 2010.05.04 21:14:20.
