data_PCOD8180134
_publ_section_title
;
Structure prediction by ZEFSAII (Michael W. Deem and Ramdas Pophale) SiO2 
 PCOD8180134
Probable space group: A M M 2
;
_chemical_formula_sum "Si O2"
_cell_formula_units_Z 48
_cell_length_a 8.770826
_cell_length_b 23.240141
_cell_length_c 11.793652
_cell_angle_alpha 90.000000
_cell_angle_beta 90.000000
_cell_angle_gamma 90.000000
_cell_volume 2403.961802
_symmetry_space_group_name_H-M "A M M 2"
_symmetry_group_IT_number 38
_symmetry_cell_setting 'orthorhombic'
loop_
_space_group_symop_operation_xyz
x,y,z
-x,-y,z
-x,y,z
x,-y,z
x,1/2+y,1/2+z
-x,1/2-y,1/2+z
-x,1/2+y,1/2+z
x,1/2-y,1/2+z
loop_
_atom_site_type_symbol
_atom_site_label
_atom_site_fract_x
_atom_site_fract_y
_atom_site_fract_z
Si Si1 0.169970 0.063987 0.134290
Si Si2 0.322703 0.368401 0.820036
Si Si3 0.826566 0.662380 0.468608
Si Si4 0.179964 0.350091 0.213146
Si Si5 0.318475 0.566570 0.040701
Si Si6 0.679716 0.732150 0.661211
O O1 0.292033 0.083042 0.227104
O O2 0.000000 0.070200 0.187248
O O3 0.209555 0.000000 0.098044
O O4 0.181308 0.098737 0.018567
O O5 0.500000 0.360231 0.836999
O O6 0.258914 0.307560 0.767762
O O7 0.253566 0.392118 0.938760
O O8 0.763269 0.656426 0.341975
O O9 0.715641 0.702847 0.540973
O O10 0.000000 0.686580 0.471253
O O11 0.255957 0.406328 0.156961
O O12 0.233057 0.292026 0.152442
O O13 0.000000 0.357419 0.204729
O O14 0.500000 0.567601 0.041366
O O15 0.262204 0.500000 0.027581
O O16 0.500000 0.742464 0.671119
#
# Coordination Sequence:
#
# PCOD8180134 Si02
#       6
#     8   8   8   8   8   8
#     4   9  17  31  54  82 111 145 184 229 281 334
#     4   9  19  36  58  85 114 148 187 236 290 340
#     4   9  20  38  56  80 113 148 188 235 287 343
#     4  11  24  39  58  84 116 154 195 241 292 353
#     4  10  22  40  60  85 120 160 201 242 290 350
#     4  10  21  37  60  87 115 147 191 242 296 355
#
# _framework density 19.967040999999998
#
# number of rings (size 3 to 8) (size 9 to 14) (size 15 to 20)
#    0.000    2.333    0.000    1.500    2.333    4.667 
#    0.000    1.667    0.000    0.000    0.000    0.000 
#    0.000    0.000    0.000    0.000    0.000    0.000 
#
# Total GULP energy -297475.202645 kJ/mol
# GULP energy per Si atom -12394.800110 kJ/mol
# Density = 1.992159 g / cm^3
# Si number density = 19.967041 Si / 1000 Ang^3
#
#
#
# Elastic Constant Matrix: (Units=GPa)
#
#
# Indices 1 2 3 4 5 6 
#
# 1 17.7254 18.1124 16.5805 0.0000 0.0000 0.0000
# 2 18.1124 106.0487 34.9906 0.0000 0.0000 0.0000
# 3 16.5805 34.9906 108.2269 0.0000 0.0000 0.0000
# 4 0.0000 0.0000 0.0000 23.6129 0.0000 0.0000
# 5 0.0000 0.0000 0.0000 0.0000 29.9263 0.0000
# 6 0.0000 0.0000 0.0000 0.0000 0.0000 27.8401
#
#
#
# Elastic Compliance Matrix: (Units=1/GPa)
#
#
# Indices 1 2 3 4 5 6 
#
# 1 0.074246 -0.009994 -0.008144 0.000000 0.000000 0.000000
# 2 -0.009994 0.011901 -0.002317 0.000000 0.000000 0.000000
# 3 -0.008144 -0.002317 0.011236 0.000000 0.000000 0.000000
# 4 0.000000 0.000000 0.000000 0.042350 0.000000 0.000000
# 5 0.000000 0.000000 0.000000 0.000000 0.033415 0.000000
# 6 0.000000 0.000000 0.000000 0.000000 0.000000 0.035919
#
#
# Mechanical properties :
#
#
# Convention : Reuss Voigt Hill
#
# Bulk Modulus (GPa) = 17.70683 41.26311 29.48497
# Shear Modulus (GPa) = 18.60117 27.09703 22.84910
#
# Velocity S-wave (km/s) = 3.05551 3.68786 3.38648
# Velocity P-wave (km/s) = 4.61904 6.23252 5.48542
#
# Compressibility (1/GPa) = 0.05647539
#
# Stress axis : x y z
#
# Youngs Moduli (GPa) = 13.46878 84.02770 88.99632
#
# Poissons Ratio (x) = 0.83975 0.72474
# Poissons Ratio (y) = 0.13460 0.20617
# Poissons Ratio (z) = 0.10968 0.19466
#
# Static dielectric constant tensor:
#      x y z
#    x 3.474610 0.000000 0.000000 
#    y 0.000000 3.771130 0.000000 
#    z 0.000000 0.000000 3.725200 
# 
# 
# High freq. dielectric constant tensor:
#      x y z
#    x 1.763950 0.000000 0.000000 
#    y 0.000000 1.784450 0.000000 
#    z 0.000000 0.000000 1.777390 
# 
# From -- ./inp_files/8130.got.cif
#   From: 2010.03.12/outbox.cif.g09.slc.cpg/sg38_5_cif.got.tgz:8130.got - 2010.04.14 02:38:36.
