data_PCOD8180503
_publ_section_title
;
Structure prediction by ZEFSAII (Michael W. Deem and Ramdas Pophale) SiO2 
 PCOD8180503
Probable space group: A M M 2
;
_chemical_formula_sum "Si O2"
_cell_formula_units_Z 48
_cell_length_a 18.910771
_cell_length_b 7.900791
_cell_length_c 15.083379
_cell_angle_alpha 90.000000
_cell_angle_beta 90.000000
_cell_angle_gamma 90.000000
_cell_volume 2253.608400
_symmetry_space_group_name_H-M "A M M 2"
_symmetry_group_IT_number 38
_symmetry_cell_setting 'orthorhombic'
loop_
_space_group_symop_operation_xyz
x,y,z
-x,-y,z
-x,y,z
x,-y,z
x,1/2+y,1/2+z
-x,1/2-y,1/2+z
-x,1/2+y,1/2+z
x,1/2-y,1/2+z
loop_
_atom_site_type_symbol
_atom_site_label
_atom_site_fract_x
_atom_site_fract_y
_atom_site_fract_z
Si Si1 0.579823 0.000000 0.289181
Si Si2 0.673711 0.190791 0.788379
Si Si3 0.831073 0.809045 0.829641
Si Si4 0.420293 0.000000 0.077522
Si Si5 0.920523 0.307696 0.672839
Si Si6 0.673641 0.191182 0.578034
Si Si7 0.827236 0.808404 0.516425
O O1 0.617855 0.828965 0.324867
O O2 0.581080 0.000000 0.183347
O O3 0.500000 0.000000 0.325613
O O4 0.749963 0.251729 0.823119
O O5 0.674733 0.190920 0.683215
O O6 0.654788 0.000000 0.822553
O O7 0.881642 0.699333 0.767446
O O8 0.837373 0.000000 0.795135
O O9 0.855257 0.796715 0.932015
O O10 0.382506 0.171235 0.041746
O O11 0.500000 0.000000 0.040984
O O12 0.921480 0.500000 0.640515
O O13 0.880643 0.201594 0.598194
O O14 0.000000 0.236456 0.683474
O O15 0.749990 0.255338 0.545690
O O16 0.655173 0.000000 0.544254
O O17 0.822260 0.000000 0.484521
#
# Coordination Sequence:
#
# PCOD8180503 Si02
#       7
#     4   8   8   4   8   8   8
#     4   9  18  30  52  86 118 159 200 249 319 372
#     4   9  18  33  55  84 117 156 204 258 307 367
#     4  11  23  39  63  94 122 162 213 258 308 368
#     4   9  18  30  52  86 118 159 200 249 319 372
#     4  11  25  43  65  93 127 164 201 252 318 374
#     4   9  18  33  55  84 117 156 204 258 307 367
#     4  11  23  39  63  94 122 162 213 258 308 368
#
# _framework density 21.299177
#
# number of rings (size 3 to 8) (size 9 to 14) (size 15 to 20)
#    0.000    2.000    1.667    1.500    4.667    2.667 
#    0.000    3.333    0.000    1.000    0.000    0.000 
#    0.000    0.000    0.000    0.000    0.000    0.000 
#
# Total GULP energy -297606.749540 kJ/mol
# GULP energy per Si atom -12400.281231 kJ/mol
# Density = 2.125070 g / cm^3
# Si number density = 21.299177 Si / 1000 Ang^3
#
#
#
# Elastic Constant Matrix: (Units=GPa)
#
#
# Indices 1 2 3 4 5 6 
#
# 1 162.3217 65.0552 45.2720 0.0000 0.0000 0.0000
# 2 65.0552 106.8140 26.8828 0.0000 0.0000 0.0000
# 3 45.2720 26.8828 60.1246 0.0000 0.0000 0.0000
# 4 0.0000 0.0000 0.0000 22.3626 0.0000 0.0000
# 5 0.0000 0.0000 0.0000 0.0000 1.0619 0.0000
# 6 0.0000 0.0000 0.0000 0.0000 0.0000 23.7211
#
#
#
# Elastic Compliance Matrix: (Units=1/GPa)
#
#
# Indices 1 2 3 4 5 6 
#
# 1 0.009342 -0.004416 -0.005059 0.000000 0.000000 0.000000
# 2 -0.004416 0.012637 -0.002325 0.000000 0.000000 0.000000
# 3 -0.005059 -0.002325 0.021481 0.000000 0.000000 0.000000
# 4 0.000000 0.000000 0.000000 0.044717 0.000000 0.000000
# 5 0.000000 0.000000 0.000000 0.000000 0.941714 0.000000
# 6 0.000000 0.000000 0.000000 0.000000 0.000000 0.042157
#
#
# Mechanical properties :
#
#
# Convention : Reuss Voigt Hill
#
# Bulk Modulus (GPa) = 50.35576 67.07559 58.71567
# Shear Modulus (GPa) = 4.53610 22.23247 13.38429
#
# Velocity S-wave (km/s) = 1.46093 3.23432 2.50950
# Velocity P-wave (km/s) = 5.15162 6.74598 6.00198
#
# Compressibility (1/GPa) = 0.01985870
#
# Stress axis : x y z
#
# Youngs Moduli (GPa) = 107.04818 79.13346 46.55228
#
# Poissons Ratio (x) = 0.34947 0.23553
# Poissons Ratio (y) = 0.47274 0.10823
# Poissons Ratio (z) = 0.54160 0.18398
#
# Static dielectric constant tensor:
#      x y z
#    x 3.860410 0.000000 0.000000 
#    y 0.000000 4.029650 0.000000 
#    z 0.000000 0.000000 3.499810 
# 
# 
# High freq. dielectric constant tensor:
#      x y z
#    x 1.822370 0.000000 0.000000 
#    y 0.000000 1.844860 0.000000 
#    z 0.000000 0.000000 1.819460 
# 
# From -- ./inp_files/15021.got.cif
#   From: 2010.03.12/outbox.cif.g09.slc.cpg/sg38_8_cif.got.tgz:15021.got - 2010.04.14 02:38:36.
