data_PCOD8180820
_publ_section_title
;
Structure prediction by ZEFSAII (Michael W. Deem and Ramdas Pophale) SiO2 
 PCOD8180820
Probable space group: A B M 2
;
_chemical_formula_sum "Si O2"
_cell_formula_units_Z 52
_cell_length_a 20.793384
_cell_length_b 9.174896
_cell_length_c 13.959617
_cell_angle_alpha 90.000000
_cell_angle_beta 90.000000
_cell_angle_gamma 90.000000
_cell_volume 2663.175747
_symmetry_space_group_name_H-M "A B M 2"
_symmetry_group_IT_number 39
_symmetry_cell_setting 'orthorhombic'
loop_
_space_group_symop_operation_xyz
x,y,z
-x,-y,z
-x,1/2+y,z
x,1/2-y,z
x,1/2+y,1/2+z
-x,1/2-y,1/2+z
-x,y,1/2+z
x,-y,1/2+z
loop_
_atom_site_type_symbol
_atom_site_label
_atom_site_fract_x
_atom_site_fract_y
_atom_site_fract_z
Si Si1 0.500000 0.000000 0.604110
Si Si2 0.607665 0.585185 0.462156
Si Si3 0.938501 0.921004 0.450493
Si Si4 0.699216 0.576467 0.096700
Si Si5 0.602531 0.911869 0.249218
Si Si6 0.830554 0.584811 0.601135
Si Si7 0.061501 0.078986 0.751768
O O1 0.546279 0.910900 0.533053
O O2 0.458739 0.903120 0.678097
O O3 0.633081 0.750000 0.455833
O O4 0.664975 0.485309 0.501808
O O5 0.589844 0.519811 0.355444
O O6 0.953866 0.750000 0.438283
O O7 0.873957 0.945249 0.509220
O O8 0.925700 0.999986 0.351126
O O9 0.000000 0.000000 0.500185
O O10 0.695370 0.750000 0.091437
O O11 0.661640 0.513752 0.190923
O O12 0.772368 0.527271 0.101491
O O13 0.624270 0.750000 0.272312
O O14 0.804033 0.750000 0.601033
O O15 0.873982 0.554683 0.692984
O O16 0.046154 0.250000 0.763968
O O17 0.000000 0.000000 0.702079
#
# Coordination Sequence:
#
# PCOD8180820 Si02
#       7
#     4   8   8   8   8   8   8
#     4  10  18  32  56  88 112 138 178 220 260 312
#     4  10  20  36  58  80 110 147 178 218 268 317
#     4  10  20  35  55  80 109 141 177 222 273 327
#     4  10  22  38  55  77 107 141 183 228 266 318
#     4   9  19  35  53  78 110 142 176 215 264 316
#     4  10  22  38  56  78 107 143 182 223 272 325
#     4  10  20  35  55  81 111 142 179 224 271 325
#
# _framework density 19.525559000000001
#
# number of rings (size 3 to 8) (size 9 to 14) (size 15 to 20)
#    0.000    2.154    0.000    3.692    0.000    4.308 
#    0.000    9.231    0.000    0.000    0.000    0.000 
#    0.000    0.000    0.000    0.000    0.000    0.000 
#
# Total GULP energy -322142.147410 kJ/mol
# GULP energy per Si atom -12390.082593 kJ/mol
# Density = 1.948112 g / cm^3
# Si number density = 19.525559 Si / 1000 Ang^3
#
#
#
# Elastic Constant Matrix: (Units=GPa)
#
#
# Indices 1 2 3 4 5 6 
#
# 1 131.8488 53.2686 62.4944 0.0000 0.0000 0.0000
# 2 53.2686 106.2424 48.5234 0.0000 0.0000 0.0000
# 3 62.4944 48.5234 142.8356 0.0000 0.0000 0.0000
# 4 0.0000 0.0000 0.0000 20.0786 0.0000 0.0000
# 5 0.0000 0.0000 0.0000 0.0000 145.2276 0.0000
# 6 0.0000 0.0000 0.0000 0.0000 0.0000 33.2548
#
#
#
# Elastic Compliance Matrix: (Units=1/GPa)
#
#
# Indices 1 2 3 4 5 6 
#
# 1 0.010745 -0.003835 -0.003398 0.000000 0.000000 0.000000
# 2 -0.003835 0.012510 -0.002572 0.000000 0.000000 0.000000
# 3 -0.003398 -0.002572 0.009362 0.000000 0.000000 0.000000
# 4 0.000000 0.000000 0.000000 0.049804 0.000000 0.000000
# 5 0.000000 0.000000 0.000000 0.000000 0.006886 0.000000
# 6 0.000000 0.000000 0.000000 0.000000 0.000000 0.030071
#
#
# Mechanical properties :
#
#
# Convention : Reuss Voigt Hill
#
# Bulk Modulus (GPa) = 76.88924 78.83330 77.86127
# Shear Modulus (GPa) = 34.88633 54.15489 44.52061
#
# Velocity S-wave (km/s) = 4.23152 5.27215 4.78024
# Velocity P-wave (km/s) = 7.95856 8.80471 8.39230
#
# Compressibility (1/GPa) = 0.01300572
#
# Stress axis : x y z
#
# Youngs Moduli (GPa) = 93.07007 79.93635 106.82003
#
# Poissons Ratio (x) = 0.30657 0.36299
# Poissons Ratio (y) = 0.35694 0.27472
# Poissons Ratio (z) = 0.31627 0.20558
#
# Static dielectric constant tensor:
#      x y z
#    x 3.540890 0.000000 0.000000 
#    y 0.000000 3.451350 0.000000 
#    z 0.000000 0.000000 4.625720 
# 
# 
# High freq. dielectric constant tensor:
#      x y z
#    x 1.757180 0.000000 0.000000 
#    y 0.000000 1.752040 0.000000 
#    z 0.000000 0.000000 1.774230 
# 
# From -- ./inp_files/10304.got.cif
#   From: 2010.03.12/outbox.cif.g09.slc.cpg/sg39_6_cif.got.tgz:10304.got - 2010.04.14 02:53:20.
