data_PCOD8180657
_publ_section_title
;
Structure prediction by ZEFSAII (Michael W. Deem and Ramdas Pophale) SiO2 
 PCOD8180657
Probable space group: A B M 2
;
_chemical_formula_sum "Si O2"
_cell_formula_units_Z 48
_cell_length_a 9.860216
_cell_length_b 8.706076
_cell_length_c 31.174350
_cell_angle_alpha 90.000000
_cell_angle_beta 90.000000
_cell_angle_gamma 90.000000
_cell_volume 2676.124351
_symmetry_space_group_name_H-M "A B M 2"
_symmetry_group_IT_number 39
_symmetry_cell_setting 'orthorhombic'
loop_
_space_group_symop_operation_xyz
x,y,z
-x,-y,z
-x,1/2+y,z
x,1/2-y,z
x,1/2+y,1/2+z
-x,1/2-y,1/2+z
-x,y,1/2+z
x,-y,1/2+z
loop_
_atom_site_type_symbol
_atom_site_label
_atom_site_fract_x
_atom_site_fract_y
_atom_site_fract_z
Si Si1 0.352088 0.070533 0.995920
Si Si2 0.145246 0.067193 0.161026
Si Si3 0.647058 0.070632 0.590108
Si Si4 0.647714 0.930778 0.825733
Si Si5 0.349441 0.931727 0.912184
Si Si6 0.856126 0.068826 0.251567
O O1 0.360654 0.250000 0.986073
O O2 0.500000 0.000000 0.998393
O O3 0.273047 0.989563 0.955854
O O4 0.287703 0.036441 0.042801
O O5 0.137174 0.250000 0.162104
O O6 0.250707 0.005124 0.125652
O O7 0.193167 0.005302 0.207082
O O8 0.000000 0.000000 0.148453
O O9 0.627276 0.250000 0.596199
O O10 0.500000 0.000000 0.596881
O O11 0.632906 0.750000 0.831902
O O12 0.744591 0.974888 0.786620
O O13 0.500000 0.000000 0.816411
O O14 0.717040 0.002210 0.868660
O O15 0.350277 0.750000 0.910565
O O16 0.500000 0.000000 0.913537
O O17 0.872203 0.250000 0.245541
O O18 0.000000 0.000000 0.266158
#
# Coordination Sequence:
#
# PCOD8180657 Si02
#       6
#     8   8   8   8   8   8
#     4   9  15  26  43  65  95 127 159 195 237 284
#     4  10  20  35  53  73  97 128 165 201 241 290
#     4   9  19  32  49  74 101 129 162 201 243 286
#     4  10  20  33  50  74 101 129 162 200 243 287
#     4  10  17  26  43  68  97 128 161 196 238 285
#     4  10  21  36  54  74  96 127 165 201 242 292
#
# _framework density 17.936385999999999
#
# number of rings (size 3 to 8) (size 9 to 14) (size 15 to 20)
#    0.000    2.333    0.000    6.500    0.000    5.333 
#    0.000    3.333    0.000    1.000    0.000    2.333 
#    0.000    0.000    0.000    0.000    0.000    0.000 
#
# Total GULP energy -297440.808877 kJ/mol
# GULP energy per Si atom -12393.367037 kJ/mol
# Density = 1.789556 g / cm^3
# Si number density = 17.936386 Si / 1000 Ang^3
#
#
#
# Elastic Constant Matrix: (Units=GPa)
#
#
# Indices 1 2 3 4 5 6 
#
# 1 67.6316 37.6906 82.4143 0.0000 0.0000 0.0000
# 2 37.6906 106.1180 73.1944 0.0000 0.0000 0.0000
# 3 82.4143 73.1944 187.9304 0.0000 0.0000 0.0000
# 4 0.0000 0.0000 0.0000 25.6234 0.0000 0.0000
# 5 0.0000 0.0000 0.0000 0.0000 4.5599 0.0000
# 6 0.0000 0.0000 0.0000 0.0000 0.0000 20.3134
#
#
#
# Elastic Compliance Matrix: (Units=1/GPa)
#
#
# Indices 1 2 3 4 5 6 
#
# 1 0.032168 -0.002318 -0.013204 0.000000 0.000000 0.000000
# 2 -0.002318 0.013052 -0.004067 0.000000 0.000000 0.000000
# 3 -0.013204 -0.004067 0.012696 0.000000 0.000000 0.000000
# 4 0.000000 0.000000 0.000000 0.039027 0.000000 0.000000
# 5 0.000000 0.000000 0.000000 0.000000 0.219302 0.000000
# 6 0.000000 0.000000 0.000000 0.000000 0.000000 0.049228
#
#
# Mechanical properties :
#
#
# Convention : Reuss Voigt Hill
#
# Bulk Modulus (GPa) = 53.36854 83.14206 68.25530
# Shear Modulus (GPa) = 12.16852 21.32473 16.74663
#
# Velocity S-wave (km/s) = 2.60749 3.45180 3.05891
# Velocity P-wave (km/s) = 6.23572 7.89563 7.11426
#
# Compressibility (1/GPa) = 0.01873763
#
# Stress axis : x y z
#
# Youngs Moduli (GPa) = 31.08701 76.61735 78.76798
#
# Poissons Ratio (x) = 0.17759 1.04005
# Poissons Ratio (y) = 0.07206 0.32034
# Poissons Ratio (z) = 0.41047 0.31160
#
# Static dielectric constant tensor:
#      x y z
#    x 2.954050 0.000000 0.000000 
#    y 0.000000 3.438120 0.000000 
#    z 0.000000 0.000000 4.495780 
# 
# 
# High freq. dielectric constant tensor:
#      x y z
#    x 1.640300 0.000000 0.000000 
#    y 0.000000 1.710730 0.000000 
#    z 0.000000 0.000000 1.722020 
# 
# From -- ./inp_files/16910.got.cif
#   From: 2010.03.12/outbox.cif.g09.slc.cpg/sg39_9_cif.got.tgz:16910.got - 2010.04.14 02:53:20.
