data_PCOD8180859
_publ_section_title
;
Structure prediction by ZEFSAII (Michael W. Deem and Ramdas Pophale) SiO2 
 PCOD8180859
Probable space group: A B M 2
;
_chemical_formula_sum "Si O2"
_cell_formula_units_Z 64
_cell_length_a 11.613907
_cell_length_b 19.289421
_cell_length_c 14.660784
_cell_angle_alpha 90.000000
_cell_angle_beta 90.000000
_cell_angle_gamma 90.000000
_cell_volume 3284.390076
_symmetry_space_group_name_H-M "A B M 2"
_symmetry_group_IT_number 39
_symmetry_cell_setting 'orthorhombic'
loop_
_space_group_symop_operation_xyz
x,y,z
-x,-y,z
-x,1/2+y,z
x,1/2-y,z
x,1/2+y,1/2+z
-x,1/2-y,1/2+z
-x,y,1/2+z
x,-y,1/2+z
loop_
_atom_site_type_symbol
_atom_site_label
_atom_site_fract_x
_atom_site_fract_y
_atom_site_fract_z
Si Si1 0.996791 0.582656 0.005790
Si Si2 0.324787 0.465120 0.092960
Si Si3 0.084625 0.062647 0.189052
Si Si4 0.185220 0.411851 0.369341
Si Si5 0.553106 0.609146 0.609018
Si Si6 0.408283 0.329228 0.415402
Si Si7 0.627603 0.329313 0.294065
Si Si8 0.224486 0.431653 0.904219
O O1 0.977295 0.609857 0.109903
O O2 0.000000 0.500000 0.016540
O O3 0.892552 0.604036 0.939960
O O4 0.115213 0.609215 0.961077
O O5 0.206541 0.462984 0.148291
O O6 0.364882 0.543983 0.093760
O O7 0.423125 0.415017 0.134445
O O8 0.311234 0.442086 0.988175
O O9 0.112468 0.109078 0.278514
O O10 0.000000 0.000000 0.217980
O O11 0.306237 0.374897 0.374430
O O12 0.201003 0.494307 0.358017
O O13 0.556056 0.654522 0.518196
O O14 0.601046 0.657109 0.688830
O O15 0.369236 0.250000 0.408210
O O16 0.515719 0.346133 0.352433
O O17 0.667663 0.250000 0.306788
O O18 0.727464 0.380412 0.327707
#
# Coordination Sequence:
#
# PCOD8180859 Si02
#       8
#     8   8   8   8   8   8   8   8
#     4   8  18  33  54  87 119 146 189 246 306 364
#     4  10  20  35  57  93 118 153 199 253 299 354
#     4  10  19  32  56  89 123 153 191 245 312 363
#     4  11  20  36  60  86 117 156 199 253 304 362
#     4  11  21  38  59  85 123 157 201 255 304 361
#     4  11  24  40  59  84 120 164 205 254 312 373
#     4  11  24  39  58  86 121 165 205 246 309 374
#     4  10  18  36  59  85 117 148 197 248 302 355
#
# _framework density 19.486113
#
# number of rings (size 3 to 8) (size 9 to 14) (size 15 to 20)
#    0.000    1.750    2.500    3.750    0.000    1.500 
#    0.000    0.625    0.000    0.750    0.000    0.000 
#    0.000    0.000    0.000    0.000    0.000    0.000 
#
# Total GULP energy -396741.110857 kJ/mol
# GULP energy per Si atom -12398.159714 kJ/mol
# Density = 1.944176 g / cm^3
# Si number density = 19.486113 Si / 1000 Ang^3
#
#
#
# Elastic Constant Matrix: (Units=GPa)
#
#
# Indices 1 2 3 4 5 6 
#
# 1 77.8467 30.8229 20.4543 0.0000 0.0000 0.0000
# 2 30.8229 49.3418 27.0125 0.0000 0.0000 0.0000
# 3 20.4543 27.0125 100.0906 0.0000 0.0000 0.0000
# 4 0.0000 0.0000 0.0000 17.9831 0.0000 0.0000
# 5 0.0000 0.0000 0.0000 0.0000 32.4642 0.0000
# 6 0.0000 0.0000 0.0000 0.0000 0.0000 9.8681
#
#
#
# Elastic Compliance Matrix: (Units=1/GPa)
#
#
# Indices 1 2 3 4 5 6 
#
# 1 0.017111 -0.010296 -0.000718 0.000000 0.000000 0.000000
# 2 -0.010296 0.029975 -0.005986 0.000000 0.000000 0.000000
# 3 -0.000718 -0.005986 0.011753 0.000000 0.000000 0.000000
# 4 0.000000 0.000000 0.000000 0.055608 0.000000 0.000000
# 5 0.000000 0.000000 0.000000 0.000000 0.030803 0.000000
# 6 0.000000 0.000000 0.000000 0.000000 0.000000 0.101336
#
#
# Mechanical properties :
#
#
# Convention : Reuss Voigt Hill
#
# Bulk Modulus (GPa) = 40.25740 42.65095 41.45418
# Shear Modulus (GPa) = 17.30907 21.99570 19.65239
#
# Velocity S-wave (km/s) = 2.98363 3.36339 3.17919
# Velocity P-wave (km/s) = 5.70735 6.08429 5.89883
#
# Compressibility (1/GPa) = 0.02484015
#
# Stress axis : x y z
#
# Youngs Moduli (GPa) = 58.44193 33.36077 85.08358
#
# Poissons Ratio (x) = 0.34347 0.06110
# Poissons Ratio (y) = 0.60170 0.50929
# Poissons Ratio (z) = 0.04197 0.19969
#
# Static dielectric constant tensor:
#      x y z
#    x 3.711570 0.000000 0.000000 
#    y 0.000000 3.130320 0.000000 
#    z 0.000000 0.000000 3.845680 
# 
# 
# High freq. dielectric constant tensor:
#      x y z
#    x 1.771930 0.000000 0.000000 
#    y 0.000000 1.706800 0.000000 
#    z 0.000000 0.000000 1.778690 
# 
# From -- ./inp_files/9488.got.cif
#   From: 2010.03.12/outbox.cif.g09.slc.cpg/sg39_5_cif.got.tgz:9488.got - 2010.04.14 02:53:20.
