data_PCOD8180965
_publ_section_title
;
Structure prediction by ZEFSAII (Michael W. Deem and Ramdas Pophale) SiO2 
 PCOD8180965
Probable space group: A B M 2
;
_chemical_formula_sum "Si O2"
_cell_formula_units_Z 56
_cell_length_a 20.121208
_cell_length_b 8.458633
_cell_length_c 15.699891
_cell_angle_alpha 90.000000
_cell_angle_beta 90.000000
_cell_angle_gamma 90.000000
_cell_volume 2672.088698
_symmetry_space_group_name_H-M "A B M 2"
_symmetry_group_IT_number 39
_symmetry_cell_setting 'orthorhombic'
loop_
_space_group_symop_operation_xyz
x,y,z
-x,-y,z
-x,1/2+y,z
x,1/2-y,z
x,1/2+y,1/2+z
-x,1/2-y,1/2+z
-x,y,1/2+z
x,-y,1/2+z
loop_
_atom_site_type_symbol
_atom_site_label
_atom_site_fract_x
_atom_site_fract_y
_atom_site_fract_z
Si Si1 0.706095 0.922746 0.905880
Si Si2 0.434545 0.938114 0.341802
Si Si3 0.566788 0.066944 0.656783
Si Si4 0.156611 0.433659 0.402925
Si Si5 0.295513 0.577931 0.603994
Si Si6 0.927228 0.564450 0.748370
Si Si7 0.152980 0.938566 0.591571
O O1 0.715823 0.750000 0.861632
O O2 0.634016 0.994358 0.884198
O O3 0.765755 0.038831 0.879592
O O4 0.707698 0.896387 0.004791
O O5 0.436572 0.750000 0.328242
O O6 0.500000 0.000000 0.394365
O O7 0.439081 0.036950 0.255783
O O8 0.569644 0.250000 0.632243
O O9 0.636663 0.983334 0.627665
O O10 0.500000 0.000000 0.610874
O O11 0.140186 0.250000 0.395742
O O12 0.115058 0.525578 0.332052
O O13 0.136894 0.491465 0.497973
O O14 0.298761 0.750000 0.649739
O O15 0.224842 0.495506 0.627251
O O16 0.928320 0.750000 0.733766
O O17 0.901217 0.486222 0.660951
O O18 0.000000 0.500000 0.766010
O O19 0.156192 0.750000 0.581843
#
# Coordination Sequence:
#
# PCOD8180965 Si02
#       7
#     8   8   8   8   8   8   8
#     4   9  19  37  57  80 111 151 196 246 303 362
#     4  10  20  33  50  74 106 146 191 243 300 357
#     4  10  19  32  49  73 105 146 189 239 293 353
#     4  11  23  41  65  96 130 168 210 258 313 370
#     4   8  17  34  56  79 108 146 189 236 295 353
#     4  12  26  45  68  99 131 166 209 253 304 371
#     4  10  21  42  67  95 129 167 208 259 314 369
#
# _framework density 20.957387000000001
#
# number of rings (size 3 to 8) (size 9 to 14) (size 15 to 20)
#    0.000    2.000    0.000    5.571    2.000    2.286 
#    0.000    9.286    0.000    0.000    0.000    0.000 
#    0.000    0.000    0.000    0.000    0.000    0.000 
#
# Total GULP energy -346865.384227 kJ/mol
# GULP energy per Si atom -12388.049437 kJ/mol
# Density = 2.090969 g / cm^3
# Si number density = 20.957387 Si / 1000 Ang^3
#
#
#
# Elastic Constant Matrix: (Units=GPa)
#
#
# Indices 1 2 3 4 5 6 
#
# 1 144.8590 16.3641 42.6566 0.0000 0.0000 0.0000
# 2 16.3641 64.0254 11.8686 0.0000 0.0000 0.0000
# 3 42.6566 11.8686 56.2334 0.0000 0.0000 0.0000
# 4 0.0000 0.0000 0.0000 25.7828 0.0000 0.0000
# 5 0.0000 0.0000 0.0000 0.0000 38.2154 0.0000
# 6 0.0000 0.0000 0.0000 0.0000 0.0000 34.3123
#
#
#
# Elastic Compliance Matrix: (Units=1/GPa)
#
#
# Indices 1 2 3 4 5 6 
#
# 1 0.008959 -0.001072 -0.006570 0.000000 0.000000 0.000000
# 2 -0.001072 0.016383 -0.002645 0.000000 0.000000 0.000000
# 3 -0.006570 -0.002645 0.023325 0.000000 0.000000 0.000000
# 4 0.000000 0.000000 0.000000 0.038786 0.000000 0.000000
# 5 0.000000 0.000000 0.000000 0.000000 0.026167 0.000000
# 6 0.000000 0.000000 0.000000 0.000000 0.000000 0.029144
#
#
# Mechanical properties :
#
#
# Convention : Reuss Voigt Hill
#
# Bulk Modulus (GPa) = 35.59464 45.21072 40.40268
# Shear Modulus (GPa) = 28.95175 32.61064 30.78120
#
# Velocity S-wave (km/s) = 3.72083 3.94895 3.83659
# Velocity P-wave (km/s) = 5.95656 6.51244 6.24069
#
# Compressibility (1/GPa) = 0.02809412
#
# Stress axis : x y z
#
# Youngs Moduli (GPa) = 111.62050 61.03878 42.87297
#
# Poissons Ratio (x) = 0.06543 0.28166
# Poissons Ratio (y) = 0.11965 0.11338
# Poissons Ratio (z) = 0.73331 0.16143
#
# Static dielectric constant tensor:
#      x y z
#    x 5.000000 0.000000 0.000000 
#    y 0.000000 3.386550 0.000000 
#    z 0.000000 0.000000 3.561840 
# 
# 
# High freq. dielectric constant tensor:
#      x y z
#    x 1.845110 0.000000 0.000000 
#    y 0.000000 1.805740 0.000000 
#    z 0.000000 0.000000 1.803000 
# 
# From -- ./inp_files/10342.got.cif
#   From: 2010.03.12/outbox.cif.g09.slc.cpg/sg39_6_cif.got.tgz:10342.got - 2010.04.14 02:53:20.
