data_PCOD8180450
_publ_section_title
;
Structure prediction by ZEFSAII (Michael W. Deem and Ramdas Pophale) SiO2 
 PCOD8180450
Probable space group: A M M 2
;
_chemical_formula_sum "Si O2"
_cell_formula_units_Z 40
_cell_length_a 8.699657
_cell_length_b 18.697819
_cell_length_c 13.615819
_cell_angle_alpha 90.000000
_cell_angle_beta 90.000000
_cell_angle_gamma 90.000000
_cell_volume 2214.811914
_symmetry_space_group_name_H-M "A M M 2"
_symmetry_group_IT_number 38
_symmetry_cell_setting 'orthorhombic'
loop_
_space_group_symop_operation_xyz
x,y,z
-x,-y,z
-x,y,z
x,-y,z
x,1/2+y,1/2+z
-x,1/2-y,1/2+z
-x,1/2+y,1/2+z
x,1/2-y,1/2+z
loop_
_atom_site_type_symbol
_atom_site_label
_atom_site_fract_x
_atom_site_fract_y
_atom_site_fract_z
Si Si1 0.681851 0.000000 0.014251
Si Si2 0.680652 0.289982 0.786429
Si Si3 0.319652 0.778429 0.506895
Si Si4 0.319602 0.857018 0.696455
Si Si5 0.683995 0.000000 0.790780
Si Si6 0.180548 0.141714 0.103286
O O1 0.740760 0.930594 0.069555
O O2 0.500000 0.000000 0.016179
O O3 0.742981 0.000000 0.902454
O O4 0.500000 0.298766 0.765697
O O5 0.724063 0.306741 0.898986
O O6 0.734742 0.209001 0.763901
O O7 0.770330 0.344145 0.715912
O O8 0.500000 0.760318 0.514415
O O9 0.272878 0.840925 0.583439
O O10 0.231140 0.705834 0.531910
O O11 0.500000 0.865779 0.705866
O O12 0.245078 0.930557 0.735419
O O13 0.500000 0.000000 0.787363
O O14 0.000000 0.132259 0.097569
#
# Coordination Sequence:
#
# PCOD8180450 Si02
#       6
#     4   8   8   8   4   8
#     4  11  21  35  54  73  98 136 177 213 256 311
#     4   9  17  32  52  72  97 135 180 217 251 300
#     4   9  17  32  54  77 102 135 174 213 252 303
#     4   8  14  25  44  72 101 126 161 208 251 290
#     4   9  16  27  48  77 104 128 157 203 256 299
#     4  11  22  34  50  76 107 135 168 214 268 318
#
# _framework density 18.060224999999999
#
# number of rings (size 3 to 8) (size 9 to 14) (size 15 to 20)
#    0.000    2.600    0.000    4.500    0.000    4.000 
#    0.000    1.000    0.000    4.800    0.000    0.000 
#    0.000    0.000    0.000    0.000    0.000    0.000 
#
# Total GULP energy -247950.812126 kJ/mol
# GULP energy per Si atom -12397.540606 kJ/mol
# Density = 1.801912 g / cm^3
# Si number density = 18.060225 Si / 1000 Ang^3
#
#
#
# Elastic Constant Matrix: (Units=GPa)
#
#
# Indices 1 2 3 4 5 6 
#
# 1 55.3132 29.8597 32.1575 0.0000 0.0000 0.0000
# 2 29.8597 143.5836 79.8895 0.0000 0.0000 0.0000
# 3 32.1575 79.8895 156.0023 0.0000 0.0000 0.0000
# 4 0.0000 0.0000 0.0000 21.2647 0.0000 0.0000
# 5 0.0000 0.0000 0.0000 0.0000 11.7796 0.0000
# 6 0.0000 0.0000 0.0000 0.0000 0.0000 7.6477
#
#
#
# Elastic Compliance Matrix: (Units=1/GPa)
#
#
# Indices 1 2 3 4 5 6 
#
# 1 0.021305 -0.002779 -0.002969 0.000000 0.000000 0.000000
# 2 -0.002779 0.010102 -0.004601 0.000000 0.000000 0.000000
# 3 -0.002969 -0.004601 0.009378 0.000000 0.000000 0.000000
# 4 0.000000 0.000000 0.000000 0.047026 0.000000 0.000000
# 5 0.000000 0.000000 0.000000 0.000000 0.084893 0.000000
# 6 0.000000 0.000000 0.000000 0.000000 0.000000 0.130759
#
#
# Mechanical properties :
#
#
# Convention : Reuss Voigt Hill
#
# Bulk Modulus (GPa) = 49.77828 70.96805 60.37317
# Shear Modulus (GPa) = 15.11234 22.33788 18.72511
#
# Velocity S-wave (km/s) = 2.89584 3.52071 3.22345
# Velocity P-wave (km/s) = 6.22924 7.47715 6.88154
#
# Compressibility (1/GPa) = 0.02008908
#
# Stress axis : x y z
#
# Youngs Moduli (GPa) = 46.93767 98.98816 106.63165
#
# Poissons Ratio (x) = 0.27507 0.31655
# Poissons Ratio (y) = 0.13043 0.49057
# Poissons Ratio (z) = 0.13934 0.45540
#
# Static dielectric constant tensor:
#      x y z
#    x 2.994120 0.000000 0.000000 
#    y 0.000000 3.196280 0.000000 
#    z 0.000000 0.000000 3.628950 
# 
# 
# High freq. dielectric constant tensor:
#      x y z
#    x 1.665280 0.000000 0.000000 
#    y 0.000000 1.690430 0.000000 
#    z 0.000000 0.000000 1.711480 
# 
# From -- ./inp_files/11703.got.cif
#   From: 2010.03.12/outbox.cif.g09.slc.cpg/sg38_6_cif.got.tgz:11703.got - 2010.04.14 02:38:36.
