data_PCOD8180267
_publ_section_title
;
Structure prediction by ZEFSAII (Michael W. Deem and Ramdas Pophale) SiO2 
 PCOD8180267
Probable space group: A M M 2
;
_chemical_formula_sum "Si O2"
_cell_formula_units_Z 64
_cell_length_a 14.003763
_cell_length_b 16.740914
_cell_length_c 12.672374
_cell_angle_alpha 90.000000
_cell_angle_beta 90.000000
_cell_angle_gamma 90.000000
_cell_volume 2970.858036
_symmetry_space_group_name_H-M "A M M 2"
_symmetry_group_IT_number 38
_symmetry_cell_setting 'orthorhombic'
loop_
_space_group_symop_operation_xyz
x,y,z
-x,-y,z
-x,y,z
x,-y,z
x,1/2+y,1/2+z
-x,1/2-y,1/2+z
-x,1/2+y,1/2+z
x,1/2-y,1/2+z
loop_
_atom_site_type_symbol
_atom_site_label
_atom_site_fract_x
_atom_site_fract_y
_atom_site_fract_z
Si Si1 0.892725 0.334278 0.424190
Si Si2 0.301158 0.150806 0.833251
Si Si3 0.396859 0.089607 0.644709
Si Si4 0.106346 0.150663 0.370108
Si Si5 0.111944 0.909905 0.144362
Si Si6 0.386972 0.907888 0.046895
Si Si7 0.297398 0.091898 0.444480
Si Si8 0.612945 0.815443 0.257606
O O1 0.813506 0.362916 0.340145
O O2 0.894543 0.239419 0.415023
O O3 0.855116 0.362805 0.539285
O O4 0.000000 0.367877 0.399356
O O5 0.342432 0.084407 0.755859
O O6 0.328007 0.234431 0.776963
O O7 0.347101 0.141576 0.948030
O O8 0.500000 0.133983 0.655171
O O9 0.333386 0.131954 0.554203
O O10 0.415878 0.000000 0.609073
O O11 0.139718 0.142406 0.247489
O O12 0.183618 0.103815 0.438426
O O13 0.000000 0.113196 0.383808
O O14 0.000000 0.918739 0.138647
O O15 0.156821 0.000000 0.149312
O O16 0.500000 0.908173 0.040019
O O17 0.352333 0.860272 0.150970
O O18 0.349319 0.000000 0.048924
O O19 0.361274 0.127331 0.352732
O O20 0.319747 0.000000 0.442529
O O21 0.500000 0.798275 0.255471
#
# Coordination Sequence:
#
# PCOD8180267 Si02
#       8
#     8   8   8   8   8   8   8   8
#     4  10  23  41  60  89 130 171 212 264 326 383
#     4  12  24  40  66  95 126 168 223 268 317 386
#     4  10  23  43  65  89 124 172 218 260 316 391
#     4  10  21  40  64  93 129 169 213 267 321 381
#     4   9  19  37  63  93 125 165 212 264 322 383
#     4  10  23  43  67  97 132 168 211 270 334 389
#     4  11  23  40  64  93 125 167 213 259 316 386
#     4  11  24  40  62  95 131 165 205 267 332 386
#
# _framework density 21.542597000000001
#
# number of rings (size 3 to 8) (size 9 to 14) (size 15 to 20)
#    0.000    1.625    1.250    2.625    3.500    5.000 
#    0.000    1.875    0.000    0.750    0.000    0.000 
#    0.000    0.000    0.000    0.000    0.000    0.000 
#
# Total GULP energy -396569.106485 kJ/mol
# GULP energy per Si atom -12392.784578 kJ/mol
# Density = 2.149357 g / cm^3
# Si number density = 21.542597 Si / 1000 Ang^3
#
#
#
# Elastic Constant Matrix: (Units=GPa)
#
#
# Indices 1 2 3 4 5 6 
#
# 1 92.6649 15.1613 62.1176 0.0000 0.0000 0.0000
# 2 15.1613 92.9138 45.0224 0.0000 0.0000 0.0000
# 3 62.1176 45.0224 148.5577 0.0000 0.0000 0.0000
# 4 0.0000 0.0000 0.0000 44.9177 0.0000 0.0000
# 5 0.0000 0.0000 0.0000 0.0000 33.0578 0.0000
# 6 0.0000 0.0000 0.0000 0.0000 0.0000 8.1708
#
#
#
# Elastic Compliance Matrix: (Units=1/GPa)
#
#
# Indices 1 2 3 4 5 6 
#
# 1 0.015033 0.000695 -0.006496 0.000000 0.000000 0.000000
# 2 0.000695 0.012647 -0.004124 0.000000 0.000000 0.000000
# 3 -0.006496 -0.004124 0.010697 0.000000 0.000000 0.000000
# 4 0.000000 0.000000 0.000000 0.022263 0.000000 0.000000
# 5 0.000000 0.000000 0.000000 0.000000 0.030250 0.000000
# 6 0.000000 0.000000 0.000000 0.000000 0.000000 0.122387
#
#
# Mechanical properties :
#
#
# Convention : Reuss Voigt Hill
#
# Bulk Modulus (GPa) = 53.97361 64.30434 59.13898
# Shear Modulus (GPa) = 20.89400 31.35160 26.12280
#
# Velocity S-wave (km/s) = 3.11769 3.81902 3.48603
# Velocity P-wave (km/s) = 6.16999 7.02575 6.61173
#
# Compressibility (1/GPa) = 0.01852757
#
# Stress axis : x y z
#
# Youngs Moduli (GPa) = 66.52186 79.06787 93.48046
#
# Poissons Ratio (x) = -0.05494 0.60728
# Poissons Ratio (y) = -0.04622 0.38547
# Poissons Ratio (z) = 0.43215 0.32604
#
# Static dielectric constant tensor:
#      x y z
#    x 4.323290 0.000000 0.000000 
#    y 0.000000 4.030200 0.000000 
#    z 0.000000 0.000000 4.335870 
# 
# 
# High freq. dielectric constant tensor:
#      x y z
#    x 1.862130 0.000000 0.000000 
#    y 0.000000 1.836930 0.000000 
#    z 0.000000 0.000000 1.845850 
# 
# From -- ./inp_files/10269.got.cif
#   From: 2010.03.12/outbox.cif.g09.slc.cpg/sg38_6_cif.got.tgz:10269.got - 2010.04.14 02:38:36.
