data_PCOD8180356
_publ_section_title
;
Structure prediction by ZEFSAII (Michael W. Deem and Ramdas Pophale) SiO2 
 PCOD8180356
Probable space group: A M M 2
;
_chemical_formula_sum "Si O2"
_cell_formula_units_Z 56
_cell_length_a 8.793664
_cell_length_b 16.580454
_cell_length_c 19.458569
_cell_angle_alpha 90.000000
_cell_angle_beta 90.000000
_cell_angle_gamma 90.000000
_cell_volume 2837.116596
_symmetry_space_group_name_H-M "A M M 2"
_symmetry_group_IT_number 38
_symmetry_cell_setting 'orthorhombic'
loop_
_space_group_symop_operation_xyz
x,y,z
-x,-y,z
-x,y,z
x,-y,z
x,1/2+y,1/2+z
-x,1/2-y,1/2+z
-x,1/2+y,1/2+z
x,1/2-y,1/2+z
loop_
_atom_site_type_symbol
_atom_site_label
_atom_site_fract_x
_atom_site_fract_y
_atom_site_fract_z
Si Si1 0.319785 0.000000 0.005280
Si Si2 0.170152 0.089866 0.767390
Si Si3 0.675100 0.345317 0.721021
Si Si4 0.676469 0.269591 0.340753
Si Si5 0.171943 0.588926 0.105147
Si Si6 0.822902 0.662304 0.469223
Si Si7 0.821226 0.000000 0.157375
Si Si8 0.327480 0.251994 0.087073
O O1 0.259884 0.000000 0.083636
O O2 0.500000 0.000000 0.009464
O O3 0.263370 0.077243 0.962411
O O4 0.294550 0.148382 0.799286
O O5 0.184403 0.089982 0.686330
O O6 0.000000 0.117752 0.789382
O O7 0.201430 0.000000 0.795466
O O8 0.500000 0.373558 0.723158
O O9 0.726156 0.307742 0.794548
O O10 0.777316 0.421747 0.702015
O O11 0.695796 0.273344 0.666004
O O12 0.500000 0.263514 0.358526
O O13 0.769336 0.273270 0.411823
O O14 0.217600 0.500000 0.077449
O O15 0.287077 0.654498 0.074751
O O16 0.000000 0.609883 0.082202
O O17 0.786577 0.697389 0.543783
O O18 0.000000 0.645860 0.462078
O O19 0.000000 0.000000 0.144065
O O20 0.500000 0.237156 0.062527
#
# Coordination Sequence:
#
# PCOD8180356 Si02
#       8
#     4   8   8   8   8   8   4   8
#     4  12  24  42  64  92 130 169 210 259 314 380
#     4   9  18  32  51  79 116 153 189 230 276 333
#     4  10  22  40  63  90 124 162 204 256 311 369
#     4  11  23  40  60  86 119 162 204 247 302 365
#     4   9  18  33  55  84 117 153 193 243 295 344
#     4  12  26  42  61  88 123 164 205 253 312 379
#     4  12  24  38  66 100 126 159 206 263 320 374
#     4  11  21  37  61  89 119 157 199 251 307 368
#
# _framework density 19.738348999999999
#
# number of rings (size 3 to 8) (size 9 to 14) (size 15 to 20)
#    0.000    1.429    2.857    4.286    1.000    2.286 
#    0.000    1.429    1.571    0.000    0.000    0.000 
#    0.000    0.000    0.000    0.000    0.000    0.000 
#
# Total GULP energy -347210.976580 kJ/mol
# GULP energy per Si atom -12400.392021 kJ/mol
# Density = 1.969342 g / cm^3
# Si number density = 19.738349 Si / 1000 Ang^3
#
#
#
# Elastic Constant Matrix: (Units=GPa)
#
#
# Indices 1 2 3 4 5 6 
#
# 1 114.7112 42.2311 37.8745 0.0000 0.0000 0.0000
# 2 42.2311 97.5269 21.1577 0.0000 0.0000 0.0000
# 3 37.8745 21.1577 67.8543 0.0000 0.0000 0.0000
# 4 0.0000 0.0000 0.0000 29.5749 0.0000 0.0000
# 5 0.0000 0.0000 0.0000 0.0000 28.5838 0.0000
# 6 0.0000 0.0000 0.0000 0.0000 0.0000 36.4442
#
#
#
# Elastic Compliance Matrix: (Units=1/GPa)
#
#
# Indices 1 2 3 4 5 6 
#
# 1 0.011991 -0.004012 -0.005442 0.000000 0.000000 0.000000
# 2 -0.004012 0.012340 -0.001608 0.000000 0.000000 0.000000
# 3 -0.005442 -0.001608 0.018277 0.000000 0.000000 0.000000
# 4 0.000000 0.000000 0.000000 0.033812 0.000000 0.000000
# 5 0.000000 0.000000 0.000000 0.000000 0.034985 0.000000
# 6 0.000000 0.000000 0.000000 0.000000 0.000000 0.027439
#
#
# Mechanical properties :
#
#
# Convention : Reuss Voigt Hill
#
# Bulk Modulus (GPa) = 48.82154 53.62436 51.22295
# Shear Modulus (GPa) = 29.79789 30.84252 30.32021
#
# Velocity S-wave (km/s) = 3.88963 3.95722 3.92357
# Velocity P-wave (km/s) = 6.70525 6.93585 6.82152
#
# Compressibility (1/GPa) = 0.02048276
#
# Stress axis : x y z
#
# Youngs Moduli (GPa) = 83.39285 81.03920 54.71426
#
# Poissons Ratio (x) = 0.32512 0.29778
# Poissons Ratio (y) = 0.33456 0.08800
# Poissons Ratio (z) = 0.45386 0.13034
#
# Static dielectric constant tensor:
#      x y z
#    x 3.595680 0.000000 0.000000 
#    y 0.000000 3.897570 0.000000 
#    z 0.000000 0.000000 3.452520 
# 
# 
# High freq. dielectric constant tensor:
#      x y z
#    x 1.770200 0.000000 0.000000 
#    y 0.000000 1.769130 0.000000 
#    z 0.000000 0.000000 1.750950 
# 
# From -- ./inp_files/19866.got.cif
#   From: 2010.03.12/outbox.cif.g09.slc.cpg/sg38_10_cif.got.tgz:19866.got - 2010.04.14 02:38:36.
