data_PCOD8180398
_publ_section_title
;
Structure prediction by ZEFSAII (Michael W. Deem and Ramdas Pophale) SiO2 
 PCOD8180398
Probable space group: A M M 2
;
_chemical_formula_sum "Si O2"
_cell_formula_units_Z 48
_cell_length_a 15.357240
_cell_length_b 8.289020
_cell_length_c 17.616365
_cell_angle_alpha 90.000000
_cell_angle_beta 90.000000
_cell_angle_gamma 90.000000
_cell_volume 2242.501070
_symmetry_space_group_name_H-M "A M M 2"
_symmetry_group_IT_number 38
_symmetry_cell_setting 'orthorhombic'
loop_
_space_group_symop_operation_xyz
x,y,z
-x,-y,z
-x,y,z
x,-y,z
x,1/2+y,1/2+z
-x,1/2-y,1/2+z
-x,1/2+y,1/2+z
x,1/2-y,1/2+z
loop_
_atom_site_type_symbol
_atom_site_label
_atom_site_fract_x
_atom_site_fract_y
_atom_site_fract_z
Si Si1 0.334269 0.184617 0.368120
Si Si2 0.674498 0.815302 0.031894
Si Si3 0.158368 0.814688 0.607351
Si Si4 0.500000 0.313286 0.283416
Si Si5 0.827099 0.811931 0.780577
Si Si6 0.000000 0.317284 0.517180
Si Si7 0.000000 0.686804 0.854793
Si Si8 0.500000 0.311415 0.618247
O O1 0.333018 0.296397 0.441843
O O2 0.415218 0.228135 0.315871
O O3 0.247221 0.207900 0.319973
O O4 0.340692 0.000000 0.394235
O O5 0.750104 0.703338 0.064824
O O6 0.583729 0.763074 0.069124
O O7 0.697002 0.000000 0.050750
O O8 0.167117 0.755304 0.693636
O O9 0.085388 0.708172 0.567439
O O10 0.128657 0.000000 0.604385
O O11 0.500000 0.500000 0.306134
O O12 0.500000 0.295666 0.193195
O O13 0.917066 0.777960 0.822088
O O14 0.803220 0.000000 0.786619
O O15 0.000000 0.197728 0.445789
O O16 0.000000 0.500000 0.486968
O O17 0.000000 0.500000 0.830738
O O18 0.500000 0.500000 0.639629
#
# Coordination Sequence:
#
# PCOD8180398 Si02
#       8
#     8   8   8   4   8   4   4   4
#     4  12  25  42  65  93 127 165 209 258 309 368
#     4  11  23  41  65  93 127 165 208 256 308 367
#     4  11  24  42  64  92 126 163 205 255 310 369
#     4  12  25  42  65  93 127 165 207 256 311 370
#     4  11  24  43  66  93 127 165 207 256 311 370
#     4  12  25  42  65  91 123 163 207 256 311 370
#     4  12  25  42  65  93 127 165 209 258 309 368
#     4  10  23  42  65  93 125 163 207 256 307 364
#
# _framework density 21.404672999999999
#
# number of rings (size 3 to 8) (size 9 to 14) (size 15 to 20)
#    0.000    0.667    0.000    8.250    0.000    9.333 
#    0.000    0.000    0.000    0.000    0.000    0.000 
#    0.000    0.000    0.000    0.000    0.000    0.000 
#
# Total GULP energy -297847.905980 kJ/mol
# GULP energy per Si atom -12410.329416 kJ/mol
# Density = 2.135595 g / cm^3
# Si number density = 21.404673 Si / 1000 Ang^3
#
#
#
# Elastic Constant Matrix: (Units=GPa)
#
#
# Indices 1 2 3 4 5 6 
#
# 1 158.9517 13.8064 51.5788 0.0000 0.0000 0.0000
# 2 13.8064 68.7471 8.0240 0.0000 0.0000 0.0000
# 3 51.5788 8.0240 141.1198 0.0000 0.0000 0.0000
# 4 0.0000 0.0000 0.0000 33.9138 0.0000 0.0000
# 5 0.0000 0.0000 0.0000 0.0000 35.8341 0.0000
# 6 0.0000 0.0000 0.0000 0.0000 0.0000 -4.1943
#
#
#
# Elastic Compliance Matrix: (Units=1/GPa)
#
#
# Indices 1 2 3 4 5 6 
#
# 1 0.007227 -0.001151 -0.002576 0.000000 0.000000 0.000000
# 2 -0.001151 0.014826 -0.000422 0.000000 0.000000 0.000000
# 3 -0.002576 -0.000422 0.008052 0.000000 0.000000 0.000000
# 4 0.000000 0.000000 0.000000 0.029487 0.000000 0.000000
# 5 0.000000 0.000000 0.000000 0.000000 0.027906 0.000000
# 6 0.000000 0.000000 0.000000 0.000000 0.000000 -0.238420
#
#
# Mechanical properties :
#
#
# Convention : Reuss Voigt Hill
#
# Bulk Modulus (GPa) = 45.85714 57.29301 51.57507
# Shear Modulus (GPa) = -36.93999 32.80467 -2.06766
#
# Velocity S-wave (km/s) = -4.15877 3.91908 -0.98391
# Velocity P-wave (km/s) = 1.26099 6.87776 4.78088
#
# Compressibility (1/GPa) = 0.02180686
#
# Stress axis : x y z
#
# Youngs Moduli (GPa) = 138.36847 67.44693 124.19682
#
# Poissons Ratio (x) = 0.07761 0.31994
# Poissons Ratio (y) = 0.15923 0.05247
# Poissons Ratio (z) = 0.35644 0.02849
#
# Static dielectric constant tensor:
#      x y z
#    x 3.932290 0.000000 0.000000 
#    y 0.000000 3.763850 0.000000 
#    z 0.000000 0.000000 3.941080 
# 
# 
# High freq. dielectric constant tensor:
#      x y z
#    x 1.856670 0.000000 0.000000 
#    y 0.000000 1.846180 0.000000 
#    z 0.000000 0.000000 1.854100 
# 
# From -- ./inp_files/18261.got.cif
#   From: 2010.03.12/outbox.cif.g09.slc.cpg/sg38_10_cif.got.tgz:18261.got - 2010.04.14 02:38:36.
