data_PCOD8180214
_publ_section_title
;
Structure prediction by ZEFSAII (Michael W. Deem and Ramdas Pophale) SiO2 
 PCOD8180214
Probable space group: A M M 2
;
_chemical_formula_sum "Si O2"
_cell_formula_units_Z 48
_cell_length_a 14.402693
_cell_length_b 17.675058
_cell_length_c 8.837072
_cell_angle_alpha 90.000000
_cell_angle_beta 90.000000
_cell_angle_gamma 90.000000
_cell_volume 2249.639581
_symmetry_space_group_name_H-M "A M M 2"
_symmetry_group_IT_number 38
_symmetry_cell_setting 'orthorhombic'
loop_
_space_group_symop_operation_xyz
x,y,z
-x,-y,z
-x,y,z
x,-y,z
x,1/2+y,1/2+z
-x,1/2-y,1/2+z
-x,1/2+y,1/2+z
x,1/2-y,1/2+z
loop_
_atom_site_type_symbol
_atom_site_label
_atom_site_fract_x
_atom_site_fract_y
_atom_site_fract_z
Si Si1 0.000000 0.229544 0.737980
Si Si2 0.672290 0.412020 0.994207
Si Si3 0.678554 0.661822 0.681645
Si Si4 0.500000 0.802624 0.996221
Si Si5 0.194284 0.916433 0.970702
Si Si6 0.000000 0.641515 0.536064
Si Si7 0.500000 0.352785 0.148291
Si Si8 0.204314 0.183614 0.688818
O O1 0.000000 0.319546 0.702337
O O2 0.905339 0.197099 0.662826
O O3 0.000000 0.211957 0.916235
O O4 0.688445 0.500000 0.958235
O O5 0.591153 0.403353 0.119595
O O6 0.766596 0.375084 0.058425
O O7 0.644244 0.364877 0.845446
O O8 0.591090 0.661966 0.570780
O O9 0.748441 0.597788 0.622857
O O10 0.732133 0.741840 0.684192
O O11 0.500000 0.713554 0.024648
O O12 0.500000 0.818548 0.816847
O O13 0.086602 0.912481 0.012463
O O14 0.215287 0.000000 0.906484
O O15 0.223755 0.853129 0.851246
#
# Coordination Sequence:
#
# PCOD8180214 Si02
#       8
#     4   8   8   4   8   4   4   8
#     4  10  22  38  64 100 126 166 228 276 314 388
#     4  12  26  44  67 100 139 175 217 272 335 392
#     4  12  24  43  69 100 130 176 218 276 322 393
#     4  12  26  43  72 102 128 168 228 278 319 395
#     4  11  23  41  64  97 134 174 221 271 331 387
#     4  10  21  38  64  94 131 172 218 274 325 378
#     4  12  25  45  70  98 133 174 218 274 334 385
#     4  11  23  41  68  95 131 179 223 273 324 392
#
# _framework density 21.336752000000001
#
# number of rings (size 3 to 8) (size 9 to 14) (size 15 to 20)
#    0.000    0.667    3.333    5.000    2.333    0.000 
#    0.000    5.000    0.000    0.000    0.000    0.000 
#    0.000    0.000    0.000    0.000    0.000    0.000 
#
# Total GULP energy -297624.610888 kJ/mol
# GULP energy per Si atom -12401.025454 kJ/mol
# Density = 2.128819 g / cm^3
# Si number density = 21.336752 Si / 1000 Ang^3
#
#
#
# Elastic Constant Matrix: (Units=GPa)
#
#
# Indices 1 2 3 4 5 6 
#
# 1 131.8419 46.7517 48.5191 0.0000 0.0000 0.0000
# 2 46.7517 125.1232 37.5037 0.0000 0.0000 0.0000
# 3 48.5191 37.5037 96.7761 0.0000 0.0000 0.0000
# 4 0.0000 0.0000 0.0000 28.6315 0.0000 0.0000
# 5 0.0000 0.0000 0.0000 0.0000 31.6540 0.0000
# 6 0.0000 0.0000 0.0000 0.0000 0.0000 23.8644
#
#
#
# Elastic Compliance Matrix: (Units=1/GPa)
#
#
# Indices 1 2 3 4 5 6 
#
# 1 0.009955 -0.002516 -0.004016 0.000000 0.000000 0.000000
# 2 -0.002516 0.009678 -0.002489 0.000000 0.000000 0.000000
# 3 -0.004016 -0.002489 0.013311 0.000000 0.000000 0.000000
# 4 0.000000 0.000000 0.000000 0.034927 0.000000 0.000000
# 5 0.000000 0.000000 0.000000 0.000000 0.031592 0.000000
# 6 0.000000 0.000000 0.000000 0.000000 0.000000 0.041903
#
#
# Mechanical properties :
#
#
# Convention : Reuss Voigt Hill
#
# Bulk Modulus (GPa) = 67.10431 68.81003 67.95717
# Shear Modulus (GPa) = 30.41815 31.56110 30.98962
#
# Velocity S-wave (km/s) = 3.77984 3.85020 3.81518
# Velocity P-wave (km/s) = 7.11111 7.21699 7.16425
#
# Compressibility (1/GPa) = 0.01490217
#
# Stress axis : x y z
#
# Youngs Moduli (GPa) = 100.45309 103.32395 75.12462
#
# Poissons Ratio (x) = 0.25995 0.30170
# Poissons Ratio (y) = 0.25273 0.18701
# Poissons Ratio (z) = 0.40341 0.25720
#
# Static dielectric constant tensor:
#      x y z
#    x 4.091440 0.000000 0.000000 
#    y 0.000000 3.672850 0.000000 
#    z 0.000000 0.000000 3.830190 
# 
# 
# High freq. dielectric constant tensor:
#      x y z
#    x 1.854950 0.000000 0.000000 
#    y 0.000000 1.829160 0.000000 
#    z 0.000000 0.000000 1.835890 
# 
# From -- ./inp_files/5536.got.cif
#   From: 2010.03.12/outbox.cif.g09.slc.cpg/sg38_3_cif.got.tgz:5536.got - 2010.04.14 02:38:36.
