data_PCOD8180676
_publ_section_title
;
Structure prediction by ZEFSAII (Michael W. Deem and Ramdas Pophale) SiO2 
 PCOD8180676
Probable space group: A B M 2
;
_chemical_formula_sum "Si O2"
_cell_formula_units_Z 40
_cell_length_a 9.334001
_cell_length_b 8.619779
_cell_length_c 26.310286
_cell_angle_alpha 90.000000
_cell_angle_beta 90.000000
_cell_angle_gamma 90.000000
_cell_volume 2116.847360
_symmetry_space_group_name_H-M "A B M 2"
_symmetry_group_IT_number 39
_symmetry_cell_setting 'orthorhombic'
loop_
_space_group_symop_operation_xyz
x,y,z
-x,-y,z
-x,1/2+y,z
x,1/2-y,z
x,1/2+y,1/2+z
-x,1/2-y,1/2+z
-x,y,1/2+z
x,-y,1/2+z
loop_
_atom_site_type_symbol
_atom_site_label
_atom_site_fract_x
_atom_site_fract_y
_atom_site_fract_z
Si Si1 0.840718 0.566669 0.464440
Si Si2 0.342042 0.065563 0.659473
Si Si3 0.159075 0.566094 0.568196
Si Si4 0.156352 0.431109 0.753170
Si Si5 0.157153 0.931606 0.364435
O O1 0.840553 0.750000 0.470226
O O2 0.771202 0.491212 0.514746
O O3 0.760298 0.514760 0.411903
O O4 0.000000 0.500000 0.459993
O O5 0.344646 0.250000 0.655618
O O6 0.264544 0.005286 0.710668
O O7 0.500000 0.000000 0.659992
O O8 0.259655 0.996421 0.611894
O O9 0.152115 0.750000 0.569390
O O10 0.000000 0.500000 0.575441
O O11 0.135038 0.250000 0.746664
O O12 0.225752 0.467835 0.808983
O O13 0.000000 0.500000 0.744658
O O14 0.150901 0.750000 0.376070
O O15 0.000000 0.000000 0.360255
#
# Coordination Sequence:
#
# PCOD8180676 Si02
#       5
#     8   8   8   8   8
#     4  10  17  27  45  73 105 136 168 209 256 308
#     4  11  23  39  55  76 104 139 178 219 265 316
#     4  11  21  35  55  80 107 139 175 218 263 311
#     4   9  19  33  53  78 106 136 172 213 257 307
#     4   9  15  26  44  71 103 134 165 205 254 306
#
# _framework density 18.896025000000002
#
# number of rings (size 3 to 8) (size 9 to 14) (size 15 to 20)
#    0.000    2.000    0.000    7.800    0.000    4.000 
#    0.000    0.000    0.000    1.200    0.000    5.600 
#    0.000    0.000    0.000    0.000    0.000    0.000 
#
# Total GULP energy -247846.899212 kJ/mol
# GULP energy per Si atom -12392.344961 kJ/mol
# Density = 1.885302 g / cm^3
# Si number density = 18.896025 Si / 1000 Ang^3
#
#
#
# Elastic Constant Matrix: (Units=GPa)
#
#
# Indices 1 2 3 4 5 6 
#
# 1 74.0083 35.2817 70.6514 0.0000 0.0000 0.0000
# 2 35.2817 115.5843 67.8900 0.0000 0.0000 0.0000
# 3 70.6514 67.8900 217.2877 0.0000 0.0000 0.0000
# 4 0.0000 0.0000 0.0000 24.2001 0.0000 0.0000
# 5 0.0000 0.0000 0.0000 0.0000 -4.1569 0.0000
# 6 0.0000 0.0000 0.0000 0.0000 0.0000 21.5036
#
#
#
# Elastic Compliance Matrix: (Units=1/GPa)
#
#
# Indices 1 2 3 4 5 6 
#
# 1 0.020330 -0.002845 -0.005721 0.000000 0.000000 0.000000
# 2 -0.002845 0.010994 -0.002510 0.000000 0.000000 0.000000
# 3 -0.005721 -0.002510 0.007247 0.000000 0.000000 0.000000
# 4 0.000000 0.000000 0.000000 0.041322 0.000000 0.000000
# 5 0.000000 0.000000 0.000000 0.000000 -0.240564 0.000000
# 6 0.000000 0.000000 0.000000 0.000000 0.000000 0.046504
#
#
# Mechanical properties :
#
#
# Convention : Reuss Voigt Hill
#
# Bulk Modulus (GPa) = 60.90797 83.83628 72.37213
# Shear Modulus (GPa) = -57.77658 23.84650 -16.96504
#
# Velocity S-wave (km/s) = -5.53556 3.55630 -2.99960
# Velocity P-wave (km/s) = 2.92462 7.83112 5.13678
#
# Compressibility (1/GPa) = 0.01641821
#
# Stress axis : x y z
#
# Youngs Moduli (GPa) = 49.18759 90.95476 137.99229
#
# Poissons Ratio (x) = 0.25878 0.78952
# Poissons Ratio (y) = 0.13995 0.34637
# Poissons Ratio (z) = 0.28143 0.22830
#
# Static dielectric constant tensor:
#      x y z
#    x 3.006700 0.000000 0.000000 
#    y 0.000000 3.673850 0.000000 
#    z 0.000000 0.000000 5.045310 
# 
# 
# High freq. dielectric constant tensor:
#      x y z
#    x 1.666480 0.000000 0.000000 
#    y 0.000000 1.750010 0.000000 
#    z 0.000000 0.000000 1.773300 
# 
# From -- ./inp_files/16737.got.cif
#   From: 2010.03.12/outbox.cif.g09.slc.cpg/sg39_9_cif.got.tgz:16737.got - 2010.04.14 02:53:20.
