data_PCOD8180925
_publ_section_title
;
Structure prediction by ZEFSAII (Michael W. Deem and Ramdas Pophale) SiO2 
 PCOD8180925
Probable space group: A B M 2
;
_chemical_formula_sum "Si O2"
_cell_formula_units_Z 64
_cell_length_a 14.274727
_cell_length_b 8.627984
_cell_length_c 31.401778
_cell_angle_alpha 90.000000
_cell_angle_beta 90.000000
_cell_angle_gamma 90.000000
_cell_volume 3867.509430
_symmetry_space_group_name_H-M "A B M 2"
_symmetry_group_IT_number 39
_symmetry_cell_setting 'orthorhombic'
loop_
_space_group_symop_operation_xyz
x,y,z
-x,-y,z
-x,1/2+y,z
x,1/2-y,z
x,1/2+y,1/2+z
-x,1/2-y,1/2+z
-x,y,1/2+z
x,-y,1/2+z
loop_
_atom_site_type_symbol
_atom_site_label
_atom_site_fract_x
_atom_site_fract_y
_atom_site_fract_z
Si Si1 0.396864 0.433156 0.725080
Si Si2 0.904726 0.429916 0.022158
Si Si3 0.396743 0.932556 0.566804
Si Si4 0.604511 0.566144 0.909209
Si Si5 0.293844 0.429722 0.487670
Si Si6 0.398953 0.569325 0.316696
Si Si7 0.281975 0.433722 0.644932
Si Si8 0.902051 0.432891 0.614225
O O1 0.500000 0.500000 0.718760
O O2 0.405175 0.250000 0.720972
O O3 0.351666 0.481968 0.771553
O O4 0.330424 0.497385 0.687903
O O5 0.921009 0.250000 0.032132
O O6 0.818041 0.456913 0.990392
O O7 0.881036 0.513979 0.066242
O O8 0.000000 0.500000 0.001743
O O9 0.400037 0.750000 0.574264
O O10 0.500000 0.000000 0.566373
O O11 0.347910 0.968065 0.522082
O O12 0.339397 0.011128 0.604309
O O13 0.500000 0.500000 0.915195
O O14 0.601808 0.750000 0.917316
O O15 0.647932 0.524218 0.862074
O O16 0.675022 0.483466 0.941228
O O17 0.318791 0.250000 0.495262
O O18 0.500000 0.500000 0.317098
O O19 0.412671 0.750000 0.315731
O O20 0.275308 0.250000 0.643792
O O21 0.178423 0.504189 0.645045
O O22 0.904547 0.250000 0.615917
O O23 0.000000 0.500000 0.631020
#
# Coordination Sequence:
#
# PCOD8180925 Si02
#       8
#     8   8   8   8   8   8   8   8
#     4   9  18  31  49  71  99 131 164 201 241 287
#     4  10  20  34  53  72  95 123 158 203 247 290
#     4  12  24  36  49  66  95 134 170 202 238 284
#     4  10  19  31  49  71  99 130 165 203 241 289
#     4  11  22  35  50  70  98 129 163 201 242 290
#     4   8  15  29  47  69  94 125 161 200 243 284
#     4  11  21  34  50  72 100 130 165 203 243 291
#     4  11  21  34  53  73  96 126 162 205 248 293
#
# _framework density 16.548117999999999
#
# number of rings (size 3 to 8) (size 9 to 14) (size 15 to 20)
#    0.000    1.750    1.250    5.250    0.000    4.000 
#    0.000    0.000    0.000    0.000    0.000    0.875 
#    0.000    2.000    0.000    0.000    0.000    0.000 
#
# Total GULP energy -396618.078235 kJ/mol
# GULP energy per Si atom -12394.314945 kJ/mol
# Density = 1.651045 g / cm^3
# Si number density = 16.548118 Si / 1000 Ang^3
#
#
#
# Elastic Constant Matrix: (Units=GPa)
#
#
# Indices 1 2 3 4 5 6 
#
# 1 111.8918 38.3035 60.4489 0.0000 0.0000 0.0000
# 2 38.3035 77.4557 27.7997 0.0000 0.0000 0.0000
# 3 60.4489 27.7997 121.1003 0.0000 0.0000 0.0000
# 4 0.0000 0.0000 0.0000 23.7351 0.0000 0.0000
# 5 0.0000 0.0000 0.0000 0.0000 8.1915 0.0000
# 6 0.0000 0.0000 0.0000 0.0000 0.0000 27.0391
#
#
#
# Elastic Compliance Matrix: (Units=1/GPa)
#
#
# Indices 1 2 3 4 5 6 
#
# 1 0.013638 -0.004687 -0.005732 0.000000 0.000000 0.000000
# 2 -0.004687 0.015681 -0.001260 0.000000 0.000000 0.000000
# 3 -0.005732 -0.001260 0.011408 0.000000 0.000000 0.000000
# 4 0.000000 0.000000 0.000000 0.042132 0.000000 0.000000
# 5 0.000000 0.000000 0.000000 0.000000 0.122078 0.000000
# 6 0.000000 0.000000 0.000000 0.000000 0.000000 0.036983
#
#
# Mechanical properties :
#
#
# Convention : Reuss Voigt Hill
#
# Bulk Modulus (GPa) = 57.57354 62.61689 60.09522
# Shear Modulus (GPa) = 18.44560 24.05286 21.24923
#
# Velocity S-wave (km/s) = 3.34228 3.81663 3.58730
# Velocity P-wave (km/s) = 7.05419 7.57256 7.31797
#
# Compressibility (1/GPa) = 0.01736909
#
# Stress axis : x y z
#
# Youngs Moduli (GPa) = 73.32277 63.77237 87.65827
#
# Poissons Ratio (x) = 0.29892 0.50244
# Poissons Ratio (y) = 0.34368 0.11045
# Poissons Ratio (z) = 0.42027 0.08035
#
# Static dielectric constant tensor:
#      x y z
#    x 3.091070 0.000000 0.000000 
#    y 0.000000 3.093220 0.000000 
#    z 0.000000 0.000000 3.599430 
# 
# 
# High freq. dielectric constant tensor:
#      x y z
#    x 1.617360 0.000000 0.000000 
#    y 0.000000 1.654160 0.000000 
#    z 0.000000 0.000000 1.631940 
# 
# From -- ./inp_files/18000.got.cif
#   From: 2010.03.12/outbox.cif.g09.slc.cpg/sg39_9_cif.got.tgz:18000.got - 2010.04.14 02:53:20.
