data_PCOD8180950
_publ_section_title
;
Structure prediction by ZEFSAII (Michael W. Deem and Ramdas Pophale) SiO2 
 PCOD8180950
Probable space group: A B M 2
;
_chemical_formula_sum "Si O2"
_cell_formula_units_Z 56
_cell_length_a 15.469227
_cell_length_b 9.096932
_cell_length_c 20.077130
_cell_angle_alpha 90.000000
_cell_angle_beta 90.000000
_cell_angle_gamma 90.000000
_cell_volume 2825.304049
_symmetry_space_group_name_H-M "A B M 2"
_symmetry_group_IT_number 39
_symmetry_cell_setting 'orthorhombic'
loop_
_space_group_symop_operation_xyz
x,y,z
-x,-y,z
-x,1/2+y,z
x,1/2-y,z
x,1/2+y,1/2+z
-x,1/2-y,1/2+z
-x,y,1/2+z
x,-y,1/2+z
loop_
_atom_site_type_symbol
_atom_site_label
_atom_site_fract_x
_atom_site_fract_y
_atom_site_fract_z
Si Si1 0.199094 0.917747 0.280480
Si Si2 0.584200 0.923428 0.610099
Si Si3 0.416214 0.082410 0.386476
Si Si4 0.087251 0.418598 0.660764
Si Si5 0.229408 0.922640 0.055198
Si Si6 0.756659 0.079477 0.425132
Si Si7 0.634497 0.583625 0.238825
O O1 0.231911 0.750000 0.268219
O O2 0.111551 0.945311 0.238526
O O3 0.183415 0.943799 0.359398
O O4 0.268920 0.029722 0.252608
O O5 0.570666 0.750000 0.610331
O O6 0.671910 0.968647 0.571888
O O7 0.500000 0.000000 0.576178
O O8 0.588744 0.978499 0.686010
O O9 0.414548 0.250000 0.412924
O O10 0.419520 0.077361 0.306716
O O11 0.500000 0.000000 0.414899
O O12 0.334185 0.999238 0.414978
O O13 0.068930 0.250000 0.646030
O O14 0.166912 0.473442 0.615059
O O15 0.000000 0.500000 0.641704
O O16 0.222742 0.750000 0.042744
O O17 0.197415 0.006282 0.988786
O O18 0.740364 0.250000 0.439043
O O19 0.638628 0.750000 0.211167
#
# Coordination Sequence:
#
# PCOD8180950 Si02
#       7
#     8   8   8   8   8   8   8
#     4   9  18  37  60  84 116 151 187 233 294 348
#     4  11  22  36  54  79 114 158 200 244 294 345
#     4  10  20  33  50  76 111 151 197 245 293 345
#     4  10  21  40  65  92 118 152 192 239 295 351
#     4  10  22  41  60  81 120 163 194 239 297 348
#     4  10  21  36  59  84 112 153 195 239 289 348
#     4  10  19  31  52  82 113 148 192 243 292 343
#
# _framework density 19.820875000000001
#
# number of rings (size 3 to 8) (size 9 to 14) (size 15 to 20)
#    0.000    2.000    1.429    2.143    0.000    6.286 
#    0.000    2.143    0.000    3.429    0.000    0.000 
#    0.000    0.000    0.000    0.000    0.000    0.000 
#
# Total GULP energy -347186.320507 kJ/mol
# GULP energy per Si atom -12399.511447 kJ/mol
# Density = 1.977576 g / cm^3
# Si number density = 19.820875 Si / 1000 Ang^3
#
#
#
# Elastic Constant Matrix: (Units=GPa)
#
#
# Indices 1 2 3 4 5 6 
#
# 1 102.8816 48.3018 44.0203 0.0000 0.0000 0.0000
# 2 48.3018 86.3467 48.7647 0.0000 0.0000 0.0000
# 3 44.0203 48.7647 113.8884 0.0000 0.0000 0.0000
# 4 0.0000 0.0000 0.0000 31.7172 0.0000 0.0000
# 5 0.0000 0.0000 0.0000 0.0000 9.9757 0.0000
# 6 0.0000 0.0000 0.0000 0.0000 0.0000 31.5349
#
#
#
# Elastic Compliance Matrix: (Units=1/GPa)
#
#
# Indices 1 2 3 4 5 6 
#
# 1 0.013771 -0.006196 -0.002670 0.000000 0.000000 0.000000
# 2 -0.006196 0.018062 -0.005339 0.000000 0.000000 0.000000
# 3 -0.002670 -0.005339 0.012099 0.000000 0.000000 0.000000
# 4 0.000000 0.000000 0.000000 0.031529 0.000000 0.000000
# 5 0.000000 0.000000 0.000000 0.000000 0.100244 0.000000
# 6 0.000000 0.000000 0.000000 0.000000 0.000000 0.031711
#
#
# Mechanical properties :
#
#
# Convention : Reuss Voigt Hill
#
# Bulk Modulus (GPa) = 64.42240 65.03223 64.72732
# Shear Modulus (GPa) = 20.74694 25.44755 23.09724
#
# Velocity S-wave (km/s) = 3.23882 3.58701 3.41735
# Velocity P-wave (km/s) = 6.82345 7.07366 6.94968
#
# Compressibility (1/GPa) = 0.01552255
#
# Stress axis : x y z
#
# Youngs Moduli (GPa) = 72.61595 55.36389 82.65367
#
# Poissons Ratio (x) = 0.34301 0.22069
# Poissons Ratio (y) = 0.44990 0.44130
# Poissons Ratio (z) = 0.19388 0.29560
#
# Static dielectric constant tensor:
#      x y z
#    x 3.350190 0.000000 0.000000 
#    y 0.000000 3.656650 0.000000 
#    z 0.000000 0.000000 3.751010 
# 
# 
# High freq. dielectric constant tensor:
#      x y z
#    x 1.744160 0.000000 0.000000 
#    y 0.000000 1.777870 0.000000 
#    z 0.000000 0.000000 1.776150 
# 
# From -- ./inp_files/14749.got.cif
#   From: 2010.03.12/outbox.cif.g09.slc.cpg/sg39_8_cif.got.tgz:14749.got - 2010.04.14 02:53:20.
