data_PCOD8180983
_publ_section_title
;
Structure prediction by ZEFSAII (Michael W. Deem and Ramdas Pophale) SiO2 
 PCOD8180983
Probable space group: A B M 2
;
_chemical_formula_sum "Si O2"
_cell_formula_units_Z 64
_cell_length_a 8.907904
_cell_length_b 15.608498
_cell_length_c 23.617274
_cell_angle_alpha 90.000000
_cell_angle_beta 90.000000
_cell_angle_gamma 90.000000
_cell_volume 3283.722201
_symmetry_space_group_name_H-M "A B M 2"
_symmetry_group_IT_number 39
_symmetry_cell_setting 'orthorhombic'
loop_
_space_group_symop_operation_xyz
x,y,z
-x,-y,z
-x,1/2+y,z
x,1/2-y,z
x,1/2+y,1/2+z
-x,1/2-y,1/2+z
-x,y,1/2+z
x,-y,1/2+z
loop_
_atom_site_type_symbol
_atom_site_label
_atom_site_fract_x
_atom_site_fract_y
_atom_site_fract_z
Si Si1 0.325406 0.485372 0.303040
Si Si2 0.678205 0.496621 0.427499
Si Si3 0.306144 0.576363 0.193228
Si Si4 0.348080 0.651681 0.509948
Si Si5 0.701485 0.152812 0.003730
Si Si6 0.787070 0.410466 0.626440
Si Si7 0.381969 0.655385 0.723145
Si Si8 0.103288 0.154739 0.612976
O O1 0.500000 0.500000 0.310609
O O2 0.249397 0.501434 0.364200
O O3 0.252387 0.548873 0.256260
O O4 0.310322 0.388338 0.279130
O O5 0.500000 0.500000 0.424519
O O6 0.718807 0.407834 0.459439
O O7 0.745590 0.581311 0.457526
O O8 0.275733 0.501832 0.147072
O O9 0.481293 0.599831 0.197172
O O10 0.206300 0.654403 0.169904
O O11 0.297721 0.750000 0.498603
O O12 0.526003 0.645104 0.516875
O O13 0.283061 0.615003 0.567270
O O14 0.738156 0.250000 0.982507
O O15 0.794070 0.129540 0.059662
O O16 0.742478 0.340267 0.673881
O O17 0.966940 0.411706 0.619317
O O18 0.435968 0.750000 0.740112
O O19 0.037954 0.250000 0.605232
#
# Coordination Sequence:
#
# PCOD8180983 Si02
#       8
#     8   8   8   8   8   8   8   8
#     4   8  17  32  50  74 101 129 168 212 255 304
#     4   9  17  32  52  74 102 133 170 216 260 306
#     4  10  20  34  52  75 104 136 169 210 260 312
#     4  10  19  32  51  76 103 136 175 217 263 313
#     4   9  19  32  50  76 104 133 169 211 260 313
#     4  11  21  34  52  75 106 139 172 211 260 314
#     4  10  19  33  54  80 105 134 171 213 259 312
#     4  11  21  33  50  76 105 134 170 214 260 312
#
# _framework density 19.490076999999999
#
# number of rings (size 3 to 8) (size 9 to 14) (size 15 to 20)
#    0.000    2.250    0.000    4.500    0.000    3.500 
#    0.000    6.875    0.000    6.000    0.000    5.250 
#    0.000    0.000    0.000    0.000    0.000    0.000 
#
# Total GULP energy -396543.101999 kJ/mol
# GULP energy per Si atom -12391.971937 kJ/mol
# Density = 1.944572 g / cm^3
# Si number density = 19.490077 Si / 1000 Ang^3
#
#
#
# Elastic Constant Matrix: (Units=GPa)
#
#
# Indices 1 2 3 4 5 6 
#
# 1 45.5018 25.9164 35.2063 0.0000 0.0000 0.0000
# 2 25.9164 116.2698 77.8930 0.0000 0.0000 0.0000
# 3 35.2063 77.8930 174.6322 0.0000 0.0000 0.0000
# 4 0.0000 0.0000 0.0000 -11.9231 0.0000 0.0000
# 5 0.0000 0.0000 0.0000 0.0000 0.6928 0.0000
# 6 0.0000 0.0000 0.0000 0.0000 0.0000 16.4186
#
#
#
# Elastic Compliance Matrix: (Units=1/GPa)
#
#
# Indices 1 2 3 4 5 6 
#
# 1 0.026936 -0.003374 -0.003925 0.000000 0.000000 0.000000
# 2 -0.003374 0.012689 -0.004979 0.000000 0.000000 0.000000
# 3 -0.003925 -0.004979 0.008739 0.000000 0.000000 0.000000
# 4 0.000000 0.000000 0.000000 -0.083871 0.000000 0.000000
# 5 0.000000 0.000000 0.000000 0.000000 1.443395 0.000000
# 6 0.000000 0.000000 0.000000 0.000000 0.000000 0.060907
#
#
# Mechanical properties :
#
#
# Convention : Reuss Voigt Hill
#
# Bulk Modulus (GPa) = 42.00717 68.27060 55.13888
# Shear Modulus (GPa) = 3.33048 14.19686 8.76367
#
# Velocity S-wave (km/s) = 1.30863 2.70184 2.12279
# Velocity P-wave (km/s) = 4.88705 6.69610 5.86178
#
# Compressibility (1/GPa) = 0.02380546
#
# Stress axis : x y z
#
# Youngs Moduli (GPa) = 37.12475 78.81036 114.43372
#
# Poissons Ratio (x) = 0.26593 0.44919
# Poissons Ratio (y) = 0.12527 0.56981
# Poissons Ratio (z) = 0.14573 0.39243
#
# Static dielectric constant tensor:
#      x y z
#    x 3.323700 0.000000 0.000000 
#    y 0.000000 3.760770 0.000000 
#    z 0.000000 0.000000 3.857870 
# 
# 
# High freq. dielectric constant tensor:
#      x y z
#    x 1.724530 0.000000 0.000000 
#    y 0.000000 1.768980 0.000000 
#    z 0.000000 0.000000 1.753190 
# 
# From -- ./inp_files/15703.got.cif
#   From: 2010.03.12/outbox.cif.g09.slc.cpg/sg39_8_cif.got.tgz:15703.got - 2010.04.14 02:53:20.
