data_PCOD8180033
_publ_section_title
;
Structure prediction by ZEFSAII (Michael W. Deem and Ramdas Pophale) SiO2 
 PCOD8180033
Probable space group: A M M 2
;
_chemical_formula_sum "Si O2"
_cell_formula_units_Z 64
_cell_length_a 19.866468
_cell_length_b 9.024402
_cell_length_c 19.901127
_cell_angle_alpha 90.000000
_cell_angle_beta 90.000000
_cell_angle_gamma 90.000000
_cell_volume 3567.933624
_symmetry_space_group_name_H-M "A M M 2"
_symmetry_group_IT_number 38
_symmetry_cell_setting 'orthorhombic'
loop_
_space_group_symop_operation_xyz
x,y,z
-x,-y,z
-x,y,z
x,-y,z
x,1/2+y,1/2+z
-x,1/2-y,1/2+z
-x,1/2+y,1/2+z
x,1/2-y,1/2+z
loop_
_atom_site_type_symbol
_atom_site_label
_atom_site_fract_x
_atom_site_fract_y
_atom_site_fract_z
Si Si1 0.925079 0.324944 0.484830
Si Si2 0.925281 0.176125 0.834559
Si Si3 0.330643 0.673897 0.086194
Si Si4 0.822369 0.831324 0.580332
Si Si5 0.577994 0.169470 0.981047
Si Si6 0.326804 0.675032 0.724732
Si Si7 0.812969 0.327569 0.233813
Si Si8 0.578284 0.830857 0.826169
O O1 0.923965 0.500000 0.486612
O O2 0.906570 0.269978 0.409694
O O3 0.871028 0.268934 0.537195
O O4 0.000000 0.267623 0.503990
O O5 0.870159 0.238799 0.782800
O O6 0.000000 0.234665 0.815099
O O7 0.925418 0.000000 0.831057
O O8 0.336989 0.500000 0.100576
O O9 0.254468 0.715517 0.065912
O O10 0.351429 0.757840 0.154078
O O11 0.378940 0.719899 0.026004
O O12 0.839365 0.805624 0.658319
O O13 0.834887 0.000000 0.559237
O O14 0.500000 0.199670 0.996021
O O15 0.594769 0.203016 0.903718
O O16 0.596374 0.000000 0.998616
O O17 0.322479 0.500000 0.717718
O O18 0.254743 0.737414 0.747115
O O19 0.380471 0.716964 0.781279
O O20 0.797497 0.500000 0.248069
O O21 0.500000 0.804955 0.811665
O O22 0.598235 0.000000 0.808826
#
# Coordination Sequence:
#
# PCOD8180033 Si02
#       8
#     8   8   8   8   8   8   8   8
#     4   9  18  32  50  73 100 130 165 204 247 299
#     4   8  15  30  52  75  97 126 168 211 247 292
#     4  10  21  37  55  76 104 137 174 215 258 307
#     4   9  19  33  49  72 100 129 164 206 250 298
#     4   9  19  36  57  81 107 135 170 211 255 306
#     4  11  22  35  53  77 106 138 173 215 258 304
#     4   9  18  34  54  74  98 130 169 212 255 301
#     4   9  19  37  58  78 104 138 173 210 254 305
#
# _framework density 17.937553999999999
#
# number of rings (size 3 to 8) (size 9 to 14) (size 15 to 20)
#    0.000    2.750    0.000    3.750    0.000    5.750 
#    0.000    6.875    0.000    1.125    0.000    0.000 
#    0.000    0.000    0.000    0.000    0.000    0.000 
#
# Total GULP energy -396789.175853 kJ/mol
# GULP energy per Si atom -12399.661745 kJ/mol
# Density = 1.789673 g / cm^3
# Si number density = 17.937554 Si / 1000 Ang^3
#
#
#
# Elastic Constant Matrix: (Units=GPa)
#
#
# Indices 1 2 3 4 5 6 
#
# 1 99.3751 46.9174 76.8540 0.0000 0.0000 0.0000
# 2 46.9174 73.0944 46.9950 0.0000 0.0000 0.0000
# 3 76.8540 46.9950 104.9124 0.0000 0.0000 0.0000
# 4 0.0000 0.0000 0.0000 31.0714 0.0000 0.0000
# 5 0.0000 0.0000 0.0000 0.0000 39.5660 0.0000
# 6 0.0000 0.0000 0.0000 0.0000 0.0000 29.4027
#
#
#
# Elastic Compliance Matrix: (Units=1/GPa)
#
#
# Indices 1 2 3 4 5 6 
#
# 1 0.024952 -0.005989 -0.015596 0.000000 0.000000 0.000000
# 2 -0.005989 0.020652 -0.004864 0.000000 0.000000 0.000000
# 3 -0.015596 -0.004864 0.023135 0.000000 0.000000 0.000000
# 4 0.000000 0.000000 0.000000 0.032184 0.000000 0.000000
# 5 0.000000 0.000000 0.000000 0.000000 0.025274 0.000000
# 6 0.000000 0.000000 0.000000 0.000000 0.000000 0.034010
#
#
# Mechanical properties :
#
#
# Convention : Reuss Voigt Hill
#
# Bulk Modulus (GPa) = 63.12282 68.76830 65.94556
# Shear Modulus (GPa) = 22.89527 27.11571 25.00549
#
# Velocity S-wave (km/s) = 3.57653 3.89224 3.73772
# Velocity P-wave (km/s) = 7.23341 7.65638 7.44790
#
# Compressibility (1/GPa) = 0.01584213
#
# Stress axis : x y z
#
# Youngs Moduli (GPa) = 40.07741 48.42106 43.22387
#
# Poissons Ratio (x) = 0.28998 0.67411
# Poissons Ratio (y) = 0.24001 0.21024
# Poissons Ratio (z) = 0.62504 0.23552
#
# Static dielectric constant tensor:
#      x y z
#    x 3.370980 0.000000 0.000000 
#    y 0.000000 3.092190 0.000000 
#    z 0.000000 0.000000 3.385190 
# 
# 
# High freq. dielectric constant tensor:
#      x y z
#    x 1.697820 0.000000 0.000000 
#    y 0.000000 1.677040 0.000000 
#    z 0.000000 0.000000 1.698030 
# 
# From -- ./inp_files/18948.got.cif
#   From: 2010.03.12/outbox.cif.g09.slc.cpg/sg38_10_cif.got.tgz:18948.got - 2010.04.14 02:38:36.
