data_PCOD8180862
_publ_section_title
;
Structure prediction by ZEFSAII (Michael W. Deem and Ramdas Pophale) SiO2 
 PCOD8180862
Probable space group: A B M 2
;
_chemical_formula_sum "Si O2"
_cell_formula_units_Z 64
_cell_length_a 15.469892
_cell_length_b 8.822269
_cell_length_c 23.766386
_cell_angle_alpha 90.000000
_cell_angle_beta 90.000000
_cell_angle_gamma 90.000000
_cell_volume 3243.625634
_symmetry_space_group_name_H-M "A B M 2"
_symmetry_group_IT_number 39
_symmetry_cell_setting 'orthorhombic'
loop_
_space_group_symop_operation_xyz
x,y,z
-x,-y,z
-x,1/2+y,z
x,1/2-y,z
x,1/2+y,1/2+z
-x,1/2-y,1/2+z
-x,y,1/2+z
x,-y,1/2+z
loop_
_atom_site_type_symbol
_atom_site_label
_atom_site_fract_x
_atom_site_fract_y
_atom_site_fract_z
Si Si1 0.751385 0.928544 0.945430
Si Si2 0.411712 0.071307 0.257359
Si Si3 0.088069 0.570564 0.256801
Si Si4 0.656477 0.429972 0.639159
Si Si5 0.243700 0.928661 0.824970
Si Si6 0.588922 0.428412 0.521135
Si Si7 0.911749 0.572149 0.021358
Si Si8 0.147144 0.570319 0.643979
O O1 0.755106 0.750000 0.931708
O O2 0.754060 0.026978 0.889644
O O3 0.664175 0.972218 0.978013
O O4 0.832118 0.981305 0.983099
O O5 0.421221 0.250000 0.258343
O O6 0.395106 0.012037 0.193819
O O7 0.333520 0.018449 0.297013
O O8 0.500000 0.000000 0.280728
O O9 0.082523 0.750000 0.259516
O O10 0.166818 0.514766 0.294431
O O11 0.096991 0.516757 0.192652
O O12 0.000000 0.500000 0.281845
O O13 0.658545 0.250000 0.635899
O O14 0.611944 0.495564 0.582896
O O15 0.754434 0.487696 0.643476
O O16 0.229597 0.750000 0.817414
O O17 0.500000 0.500000 0.499123
O O18 0.577528 0.250000 0.524612
O O19 0.920929 0.750000 0.017567
O O20 0.895691 0.521119 0.085350
O O21 0.000000 0.500000 0.998244
O O22 0.141569 0.750000 0.654644
#
# Coordination Sequence:
#
# PCOD8180862 Si02
#       8
#     8   8   8   8   8   8   8   8
#     4  10  22  41  61  83 115 159 203 245 297 355
#     4  10  21  37  60  87 118 154 194 241 297 354
#     4  12  25  41  63  92 123 157 197 244 298 358
#     4   9  16  33  60  86 117 157 193 236 296 356
#     4  11  24  43  64  86 116 158 203 253 304 352
#     4  10  20  36  60  87 118 157 198 242 297 355
#     4  10  21  37  61  88 118 156 193 236 292 351
#     4  10  18  36  63  89 122 159 195 238 294 357
#
# _framework density 19.731006000000001
#
# number of rings (size 3 to 8) (size 9 to 14) (size 15 to 20)
#    0.000    1.750    2.500    2.250    0.000    4.500 
#    0.000    4.375    0.000    0.000    0.000    0.000 
#    0.000    0.000    0.000    0.000    0.000    0.000 
#
# Total GULP energy -396902.718147 kJ/mol
# GULP energy per Si atom -12403.209942 kJ/mol
# Density = 1.968610 g / cm^3
# Si number density = 19.731006 Si / 1000 Ang^3
#
#
#
# Elastic Constant Matrix: (Units=GPa)
#
#
# Indices 1 2 3 4 5 6 
#
# 1 180.9567 52.3367 63.5716 0.0000 0.0000 0.0000
# 2 52.3367 60.4854 44.3326 0.0000 0.0000 0.0000
# 3 63.5716 44.3326 127.1076 0.0000 0.0000 0.0000
# 4 0.0000 0.0000 0.0000 30.0166 0.0000 0.0000
# 5 0.0000 0.0000 0.0000 0.0000 3.2635 0.0000
# 6 0.0000 0.0000 0.0000 0.0000 0.0000 33.2553
#
#
#
# Elastic Compliance Matrix: (Units=1/GPa)
#
#
# Indices 1 2 3 4 5 6 
#
# 1 0.007755 -0.005195 -0.002066 0.000000 0.000000 0.000000
# 2 -0.005195 0.025692 -0.006362 0.000000 0.000000 0.000000
# 3 -0.002066 -0.006362 0.011120 0.000000 0.000000 0.000000
# 4 0.000000 0.000000 0.000000 0.033315 0.000000 0.000000
# 5 0.000000 0.000000 0.000000 0.000000 0.306415 0.000000
# 6 0.000000 0.000000 0.000000 0.000000 0.000000 0.030070
#
#
# Mechanical properties :
#
#
# Convention : Reuss Voigt Hill
#
# Bulk Modulus (GPa) = 57.74334 76.55904 67.15119
# Shear Modulus (GPa) = 11.17599 27.19433 19.18516
#
# Velocity S-wave (km/s) = 2.38254 3.71651 3.12161
# Velocity P-wave (km/s) = 6.07433 7.56982 6.86293
#
# Compressibility (1/GPa) = 0.01731801
#
# Stress axis : x y z
#
# Youngs Moduli (GPa) = 128.95290 38.92318 89.92911
#
# Poissons Ratio (x) = 0.20222 0.18583
# Poissons Ratio (y) = 0.66997 0.57215
# Poissons Ratio (z) = 0.26647 0.24764
#
# Static dielectric constant tensor:
#      x y z
#    x 3.935920 0.000000 0.000000 
#    y 0.000000 3.287860 0.000000 
#    z 0.000000 0.000000 3.672090 
# 
# 
# High freq. dielectric constant tensor:
#      x y z
#    x 1.787870 0.000000 0.000000 
#    y 0.000000 1.746490 0.000000 
#    z 0.000000 0.000000 1.769700 
# 
# From -- ./inp_files/16158.got.cif
#   From: 2010.03.12/outbox.cif.g09.slc.cpg/sg39_9_cif.got.tgz:16158.got - 2010.04.14 02:53:20.
