data_PCOD8180864
_publ_section_title
;
Structure prediction by ZEFSAII (Michael W. Deem and Ramdas Pophale) SiO2 
 PCOD8180864
Probable space group: A B M 2
;
_chemical_formula_sum "Si O2"
_cell_formula_units_Z 64
_cell_length_a 12.097807
_cell_length_b 17.666455
_cell_length_c 14.394758
_cell_angle_alpha 90.000000
_cell_angle_beta 90.000000
_cell_angle_gamma 90.000000
_cell_volume 3076.524878
_symmetry_space_group_name_H-M "A B M 2"
_symmetry_group_IT_number 39
_symmetry_cell_setting 'orthorhombic'
loop_
_space_group_symop_operation_xyz
x,y,z
-x,-y,z
-x,1/2+y,z
x,1/2-y,z
x,1/2+y,1/2+z
-x,1/2-y,1/2+z
-x,y,1/2+z
x,-y,1/2+z
loop_
_atom_site_type_symbol
_atom_site_label
_atom_site_fract_x
_atom_site_fract_y
_atom_site_fract_z
Si Si1 0.433380 0.601595 0.848000
Si Si2 0.369112 0.163790 0.530709
Si Si3 0.667417 0.448383 0.373848
Si Si4 0.145218 0.904790 0.099253
Si Si5 0.221456 0.938065 0.563897
Si Si6 0.956538 0.662509 0.984008
Si Si7 0.452247 0.415420 0.148528
Si Si8 0.843017 0.161301 0.292908
O O1 0.356917 0.528240 0.824176
O O2 0.548302 0.585264 0.901481
O O3 0.463605 0.631930 0.745359
O O4 0.368432 0.657262 0.917813
O O5 0.357289 0.250000 0.559772
O O6 0.269293 0.119402 0.576907
O O7 0.482180 0.129601 0.570120
O O8 0.733620 0.469134 0.466247
O O9 0.733643 0.389505 0.309030
O O10 0.104257 0.865396 0.195065
O O11 0.146640 0.995851 0.110013
O O12 0.066322 0.881975 0.013911
O O13 0.146061 0.864558 0.546891
O O14 0.322546 0.914423 0.627685
O O15 0.975652 0.750000 0.004516
O O16 0.932186 0.647310 0.874883
O O17 0.500000 0.500000 0.158908
O O18 0.809681 0.250000 0.289896
#
# Coordination Sequence:
#
# PCOD8180864 Si02
#       8
#     8   8   8   8   8   8   8   8
#     4  11  21  37  61  91 130 171 203 254 318 371
#     4  12  26  40  63  97 131 170 210 259 322 379
#     4  10  18  37  61  90 127 164 208 252 308 374
#     4  12  22  43  68  94 131 164 215 267 321 382
#     4  11  22  39  68  94 126 169 216 259 317 386
#     4  10  24  45  65  92 127 165 213 271 324 373
#     4  12  21  39  67  93 129 169 207 259 312 379
#     4  10  22  40  67  95 121 167 218 262 319 379
#
# _framework density 20.802693000000001
#
# number of rings (size 3 to 8) (size 9 to 14) (size 15 to 20)
#    0.000    1.000    5.000    3.000    0.000    1.500 
#    2.250    2.500    0.000    0.000    0.000    0.000 
#    0.000    0.000    0.000    0.000    0.000    0.000 
#
# Total GULP energy -396742.441036 kJ/mol
# GULP energy per Si atom -12398.201282 kJ/mol
# Density = 2.075535 g / cm^3
# Si number density = 20.802693 Si / 1000 Ang^3
#
#
#
# Elastic Constant Matrix: (Units=GPa)
#
#
# Indices 1 2 3 4 5 6 
#
# 1 75.3943 16.6931 21.4514 0.0000 0.0000 0.0000
# 2 16.6931 48.7699 21.7929 0.0000 0.0000 0.0000
# 3 21.4514 21.7929 102.8882 0.0000 0.0000 0.0000
# 4 0.0000 0.0000 0.0000 27.1679 0.0000 0.0000
# 5 0.0000 0.0000 0.0000 0.0000 10.6769 0.0000
# 6 0.0000 0.0000 0.0000 0.0000 0.0000 21.7296
#
#
#
# Elastic Compliance Matrix: (Units=1/GPa)
#
#
# Indices 1 2 3 4 5 6 
#
# 1 0.014798 -0.004072 -0.002223 0.000000 0.000000 0.000000
# 2 -0.004072 0.023768 -0.004186 0.000000 0.000000 0.000000
# 3 -0.002223 -0.004186 0.011069 0.000000 0.000000 0.000000
# 4 0.000000 0.000000 0.000000 0.036808 0.000000 0.000000
# 5 0.000000 0.000000 0.000000 0.000000 0.093660 0.000000
# 6 0.000000 0.000000 0.000000 0.000000 0.000000 0.046020
#
#
# Mechanical properties :
#
#
# Convention : Reuss Voigt Hill
#
# Bulk Modulus (GPa) = 34.87319 38.54746 36.71033
# Shear Modulus (GPa) = 19.48241 23.05590 21.26915
#
# Velocity S-wave (km/s) = 3.06360 3.33275 3.20100
# Velocity P-wave (km/s) = 5.41428 5.77753 5.59885
#
# Compressibility (1/GPa) = 0.02867532
#
# Stress axis : x y z
#
# Youngs Moduli (GPa) = 67.57884 42.07263 90.34034
#
# Poissons Ratio (x) = 0.17131 0.20080
# Poissons Ratio (y) = 0.27516 0.37812
# Poissons Ratio (z) = 0.15021 0.17610
#
# Static dielectric constant tensor:
#      x y z
#    x 3.697230 0.000000 0.000000 
#    y 0.000000 3.670240 0.000000 
#    z 0.000000 0.000000 3.872950 
# 
# 
# High freq. dielectric constant tensor:
#      x y z
#    x 1.806550 0.000000 0.000000 
#    y 0.000000 1.800430 0.000000 
#    z 0.000000 0.000000 1.822470 
# 
# From -- ./inp_files/9469.got.cif
#   From: 2010.03.12/outbox.cif.g09.slc.cpg/sg39_5_cif.got.tgz:9469.got - 2010.04.14 02:53:20.
