data_PCOD8180701
_publ_section_title
;
Structure prediction by ZEFSAII (Michael W. Deem and Ramdas Pophale) SiO2 
 PCOD8180701
Probable space group: A B M 2
;
_chemical_formula_sum "Si O2"
_cell_formula_units_Z 36
_cell_length_a 9.210452
_cell_length_b 14.473249
_cell_length_c 14.726301
_cell_angle_alpha 90.000000
_cell_angle_beta 90.000000
_cell_angle_gamma 90.000000
_cell_volume 1963.091988
_symmetry_space_group_name_H-M "A B M 2"
_symmetry_group_IT_number 39
_symmetry_cell_setting 'orthorhombic'
loop_
_space_group_symop_operation_xyz
x,y,z
-x,-y,z
-x,1/2+y,z
x,1/2-y,z
x,1/2+y,1/2+z
-x,1/2-y,1/2+z
-x,y,1/2+z
x,-y,1/2+z
loop_
_atom_site_type_symbol
_atom_site_label
_atom_site_fract_x
_atom_site_fract_y
_atom_site_fract_z
Si Si1 0.221884 0.250000 0.104401
Si Si2 0.356199 0.447026 0.506191
Si Si3 0.630982 0.939940 0.301672
Si Si4 0.459029 0.250000 0.560949
Si Si5 0.437928 0.250000 0.251895
Si Si6 0.850961 0.550274 0.137581
O O1 0.366071 0.250000 0.038538
O O2 0.277352 0.250000 0.207599
O O3 0.130271 0.345951 0.093522
O O4 0.500000 0.500000 0.538325
O O5 0.317823 0.470793 0.401511
O O6 0.378137 0.338250 0.520213
O O7 0.224031 0.484071 0.564888
O O8 0.554642 0.839914 0.314152
O O9 0.761916 0.944162 0.231049
O O10 0.500000 0.000000 0.261849
O O11 0.441281 0.250000 0.671215
O O12 0.000000 0.500000 0.161955
#
# Coordination Sequence:
#
# PCOD8180701 Si02
#       6
#     4   8   8   4   4   8
#     4   8  18  35  58  78 110 153 181 249 290 332
#     4  11  20  34  58  88 109 152 198 244 295 352
#     4  10  20  34  56  84 113 146 196 245 291 344
#     4  10  17  32  63  81 117 140 196 244 290 346
#     4   8  15  31  51  77 111 143 171 235 298 318
#     4  11  22  38  58  80 121 158 192 239 306 361
#
# _framework density 18.338418000000001
#
# number of rings (size 3 to 8) (size 9 to 14) (size 15 to 20)
#    0.667    1.333    2.222    2.667    0.000    1.778 
#    0.000    1.111    0.000    2.667    0.000    0.000 
#    0.000    0.000    0.000    0.000    0.000    0.000 
#
# Total GULP energy -223015.768228 kJ/mol
# GULP energy per Si atom -12389.764902 kJ/mol
# Density = 1.829668 g / cm^3
# Si number density = 18.338418 Si / 1000 Ang^3
#
#
#
# Elastic Constant Matrix: (Units=GPa)
#
#
# Indices 1 2 3 4 5 6 
#
# 1 85.4076 59.3703 35.9037 0.0000 0.0000 0.0000
# 2 59.3703 160.1934 19.1286 0.0000 0.0000 0.0000
# 3 35.9037 19.1286 79.4719 0.0000 0.0000 0.0000
# 4 0.0000 0.0000 0.0000 24.1745 0.0000 0.0000
# 5 0.0000 0.0000 0.0000 0.0000 12.2291 0.0000
# 6 0.0000 0.0000 0.0000 0.0000 0.0000 28.3923
#
#
#
# Elastic Compliance Matrix: (Units=1/GPa)
#
#
# Indices 1 2 3 4 5 6 
#
# 1 0.018994 -0.006193 -0.007091 0.000000 0.000000 0.000000
# 2 -0.006193 0.008446 0.000765 0.000000 0.000000 0.000000
# 3 -0.007091 0.000765 0.015602 0.000000 0.000000 0.000000
# 4 0.000000 0.000000 0.000000 0.041366 0.000000 0.000000
# 5 0.000000 0.000000 0.000000 0.000000 0.081772 0.000000
# 6 0.000000 0.000000 0.000000 0.000000 0.000000 0.035221
#
#
# Mechanical properties :
#
#
# Convention : Reuss Voigt Hill
#
# Bulk Modulus (GPa) = 55.53829 61.54200 58.54015
# Shear Modulus (GPa) = 21.51083 27.00387 24.25735
#
# Velocity S-wave (km/s) = 3.42861 3.84152 3.64092
# Velocity P-wave (km/s) = 6.78416 7.30125 7.04745
#
# Compressibility (1/GPa) = 0.01800560
#
# Stress axis : x y z
#
# Youngs Moduli (GPa) = 52.64756 118.39484 64.09290
#
# Poissons Ratio (x) = 0.73321 0.45446
# Poissons Ratio (y) = 0.32604 -0.04902
# Poissons Ratio (z) = 0.37330 -0.09055
#
# Static dielectric constant tensor:
#      x y z
#    x 2.967870 0.000000 0.000000 
#    y 0.000000 3.719820 0.000000 
#    z 0.000000 0.000000 3.168730 
# 
# 
# High freq. dielectric constant tensor:
#      x y z
#    x 1.664550 0.000000 0.000000 
#    y 0.000000 1.735020 0.000000 
#    z 0.000000 0.000000 1.703630 
# 
# From -- ./inp_files/8046.got.cif
#   From: 2010.03.12/outbox.cif.g09.slc.cpg/sg39_5_cif.got.tgz:8046.got - 2010.04.14 02:53:20.
