data_PCOD8180370
_publ_section_title
;
Structure prediction by ZEFSAII (Michael W. Deem and Ramdas Pophale) SiO2 
 PCOD8180370
Probable space group: A M M 2
;
_chemical_formula_sum "Si O2"
_cell_formula_units_Z 64
_cell_length_a 15.357555
_cell_length_b 8.576371
_cell_length_c 23.653214
_cell_angle_alpha 90.000000
_cell_angle_beta 90.000000
_cell_angle_gamma 90.000000
_cell_volume 3115.414235
_symmetry_space_group_name_H-M "A M M 2"
_symmetry_group_IT_number 38
_symmetry_cell_setting 'orthorhombic'
loop_
_space_group_symop_operation_xyz
x,y,z
-x,-y,z
-x,y,z
x,-y,z
x,1/2+y,1/2+z
-x,1/2-y,1/2+z
-x,1/2+y,1/2+z
x,1/2-y,1/2+z
loop_
_atom_site_type_symbol
_atom_site_label
_atom_site_fract_x
_atom_site_fract_y
_atom_site_fract_z
Si Si1 0.662394 0.320424 0.941650
Si Si2 0.151324 0.820403 0.945862
Si Si3 0.597207 0.320907 0.551889
Si Si4 0.247965 0.181133 0.132941
Si Si5 0.098892 0.320985 0.060109
Si Si6 0.242304 0.318910 0.254584
Si Si7 0.902155 0.177577 0.331029
Si Si8 0.597244 0.179766 0.830362
O O1 0.690918 0.500000 0.941714
O O2 0.746562 0.211767 0.942617
O O3 0.607120 0.284405 0.885921
O O4 0.604417 0.284586 0.996290
O O5 0.108478 0.784529 0.885798
O O6 0.135828 0.000000 0.960911
O O7 0.106258 0.717164 0.993886
O O8 0.500000 0.299573 0.576948
O O9 0.615091 0.500000 0.535003
O O10 0.666857 0.265779 0.598269
O O11 0.161951 0.211194 0.096136
O O12 0.246547 0.284250 0.188667
O O13 0.252029 0.000000 0.149245
O O14 0.125952 0.500000 0.069626
O O15 0.000000 0.291685 0.080103
O O16 0.224078 0.500000 0.264348
O O17 0.162983 0.224567 0.281440
O O18 0.333363 0.267498 0.283130
O O19 0.000000 0.197220 0.307429
O O20 0.882730 0.000000 0.348720
O O21 0.500000 0.206091 0.805812
O O22 0.611892 0.000000 0.847329
#
# Coordination Sequence:
#
# PCOD8180370 Si02
#       8
#     8   8   8   8   8   8   8   8
#     4  12  23  36  61  94 128 164 205 253 306 365
#     4  12  23  38  63  94 128 166 203 247 308 373
#     4  10  22  41  64  91 125 165 206 252 309 370
#     4  11  24  42  65  90 122 165 211 259 309 363
#     4  11  24  42  65  94 127 162 203 255 310 366
#     4  11  24  42  65  90 122 165 211 259 309 363
#     4  11  24  42  65  94 127 162 203 255 310 366
#     4  10  22  41  64  91 125 165 206 252 309 370
#
# _framework density 20.543013999999999
#
# number of rings (size 3 to 8) (size 9 to 14) (size 15 to 20)
#    0.000    1.000    2.500    4.500    0.000    7.500 
#    0.000    0.000    0.000    0.000    0.000    0.000 
#    0.000    0.000    0.000    0.000    0.000    0.000 
#
# Total GULP energy -397015.588846 kJ/mol
# GULP energy per Si atom -12406.737151 kJ/mol
# Density = 2.049626 g / cm^3
# Si number density = 20.543014 Si / 1000 Ang^3
#
#
#
# Elastic Constant Matrix: (Units=GPa)
#
#
# Indices 1 2 3 4 5 6 
#
# 1 145.3355 35.1215 48.4038 0.0000 0.0000 0.0000
# 2 35.1215 65.5408 16.2185 0.0000 0.0000 0.0000
# 3 48.4038 16.2185 110.1387 0.0000 0.0000 0.0000
# 4 0.0000 0.0000 0.0000 30.2197 0.0000 0.0000
# 5 0.0000 0.0000 0.0000 0.0000 11.9145 0.0000
# 6 0.0000 0.0000 0.0000 0.0000 0.0000 24.8171
#
#
#
# Elastic Compliance Matrix: (Units=1/GPa)
#
#
# Indices 1 2 3 4 5 6 
#
# 1 0.008956 -0.003970 -0.003351 0.000000 0.000000 0.000000
# 2 -0.003970 0.017594 -0.000846 0.000000 0.000000 0.000000
# 3 -0.003351 -0.000846 0.010677 0.000000 0.000000 0.000000
# 4 0.000000 0.000000 0.000000 0.033091 0.000000 0.000000
# 5 0.000000 0.000000 0.000000 0.000000 0.083931 0.000000
# 6 0.000000 0.000000 0.000000 0.000000 0.000000 0.040295
#
#
# Mechanical properties :
#
#
# Convention : Reuss Voigt Hill
#
# Bulk Modulus (GPa) = 47.86435 57.83364 52.84899
# Shear Modulus (GPa) = 22.95221 28.14170 25.54695
#
# Velocity S-wave (km/s) = 3.34619 3.70522 3.53027
# Velocity P-wave (km/s) = 6.18704 6.82044 6.51145
#
# Compressibility (1/GPa) = 0.02089238
#
# Stress axis : x y z
#
# Youngs Moduli (GPa) = 111.65416 56.83602 93.65960
#
# Poissons Ratio (x) = 0.22564 0.31390
# Poissons Ratio (y) = 0.44327 0.07925
# Poissons Ratio (z) = 0.37421 0.04809
#
# Static dielectric constant tensor:
#      x y z
#    x 3.865290 0.000000 0.000000 
#    y 0.000000 3.719000 0.000000 
#    z 0.000000 0.000000 3.557940 
# 
# 
# High freq. dielectric constant tensor:
#      x y z
#    x 1.817620 0.000000 0.000000 
#    y 0.000000 1.807300 0.000000 
#    z 0.000000 0.000000 1.792440 
# 
# From -- ./inp_files/22932.got.cif
#   From: 2010.03.12/outbox.cif.g09.slc.cpg/sg38_12_cif.got.tgz:22932.got - 2010.04.14 02:38:36.
