data_PCOD8180048
_publ_section_title
;
Structure prediction by ZEFSAII (Michael W. Deem and Ramdas Pophale) SiO2 
 PCOD8180048
Probable space group: A M M 2
;
_chemical_formula_sum "Si O2"
_cell_formula_units_Z 56
_cell_length_a 19.690180
_cell_length_b 9.113116
_cell_length_c 15.867866
_cell_angle_alpha 90.000000
_cell_angle_beta 90.000000
_cell_angle_gamma 90.000000
_cell_volume 2847.312332
_symmetry_space_group_name_H-M "A M M 2"
_symmetry_group_IT_number 38
_symmetry_cell_setting 'orthorhombic'
loop_
_space_group_symop_operation_xyz
x,y,z
-x,-y,z
-x,y,z
x,-y,z
x,1/2+y,1/2+z
-x,1/2-y,1/2+z
-x,1/2+y,1/2+z
x,1/2-y,1/2+z
loop_
_atom_site_type_symbol
_atom_site_label
_atom_site_fract_x
_atom_site_fract_y
_atom_site_fract_z
Si Si1 0.077324 0.326952 0.441060
Si Si2 0.574101 0.339164 0.335475
Si Si3 0.834176 0.173213 0.782492
Si Si4 0.307611 0.167113 0.604000
Si Si5 0.425696 0.161238 0.031549
Si Si6 0.155294 0.332846 0.089073
Si Si7 0.301158 0.671202 0.773571
O O1 0.082832 0.500000 0.450333
O O2 0.110431 0.277534 0.351908
O O3 0.111851 0.261529 0.524214
O O4 0.000000 0.272467 0.438233
O O5 0.500000 0.293320 0.297670
O O6 0.595289 0.500000 0.298241
O O7 0.565984 0.355706 0.433570
O O8 0.629547 0.215745 0.318642
O O9 0.854448 0.222371 0.686703
O O10 0.764088 0.247051 0.812435
O O11 0.822287 0.000000 0.782118
O O12 0.369463 0.213132 0.544652
O O13 0.233965 0.180450 0.559982
O O14 0.309746 0.284199 0.677681
O O15 0.317940 0.000000 0.635511
O O16 0.500000 0.207135 0.069319
O O17 0.404620 0.000000 0.068526
O O18 0.129981 0.500000 0.082791
O O19 0.289105 0.500000 0.784093
#
# Coordination Sequence:
#
# PCOD8180048 Si02
#       7
#     8   8   8   8   8   8   8
#     4  10  22  39  61  90 119 151 192 231 279 346
#     4   9  19  36  55  76 107 147 187 228 281 340
#     4   9  20  40  61  83 116 157 194 234 286 346
#     4  10  21  37  56  79 109 145 187 231 282 341
#     4   9  19  35  54  78 108 143 185 232 282 335
#     4   9  20  38  59  85 117 151 192 238 285 338
#     4  11  22  35  55  82 110 142 187 237 282 332
#
# _framework density 19.667670999999999
#
# number of rings (size 3 to 8) (size 9 to 14) (size 15 to 20)
#    0.000    2.429    0.000    3.429    2.000    6.000 
#    0.000    2.857    0.000    0.000    0.000    0.000 
#    0.000    0.000    0.000    0.000    0.000    0.000 
#
# Total GULP energy -346960.905266 kJ/mol
# GULP energy per Si atom -12391.460902 kJ/mol
# Density = 1.962291 g / cm^3
# Si number density = 19.667671 Si / 1000 Ang^3
#
#
#
# Elastic Constant Matrix: (Units=GPa)
#
#
# Indices 1 2 3 4 5 6 
#
# 1 153.4506 55.6322 66.2356 0.0000 0.0000 0.0000
# 2 55.6322 68.8854 34.0547 0.0000 0.0000 0.0000
# 3 66.2356 34.0547 82.7929 0.0000 0.0000 0.0000
# 4 0.0000 0.0000 0.0000 28.9050 0.0000 0.0000
# 5 0.0000 0.0000 0.0000 0.0000 -25.0742 0.0000
# 6 0.0000 0.0000 0.0000 0.0000 0.0000 53.6287
#
#
#
# Elastic Compliance Matrix: (Units=1/GPa)
#
#
# Indices 1 2 3 4 5 6 
#
# 1 0.011658 -0.006031 -0.006846 0.000000 0.000000 0.000000
# 2 -0.006031 0.021342 -0.003954 0.000000 0.000000 0.000000
# 3 -0.006846 -0.003954 0.019182 0.000000 0.000000 0.000000
# 4 0.000000 0.000000 0.000000 0.034596 0.000000 0.000000
# 5 0.000000 0.000000 0.000000 0.000000 -0.039882 0.000000
# 6 0.000000 0.000000 0.000000 0.000000 0.000000 0.018647
#
#
# Mechanical properties :
#
#
# Convention : Reuss Voigt Hill
#
# Bulk Modulus (GPa) = 53.99436 68.55266 61.27351
# Shear Modulus (GPa) = 47.44831 21.43901 34.44366
#
# Velocity S-wave (km/s) = 4.91705 3.30519 4.18937
# Velocity P-wave (km/s) = 7.72978 7.03540 7.39075
#
# Compressibility (1/GPa) = 0.01852045
#
# Stress axis : x y z
#
# Youngs Moduli (GPa) = 85.77624 46.85616 52.13306
#
# Poissons Ratio (x) = 0.28258 0.35691
# Poissons Ratio (y) = 0.51729 0.20612
# Poissons Ratio (z) = 0.58724 0.18526
#
# Static dielectric constant tensor:
#      x y z
#    x 4.523320 0.000000 0.000000 
#    y 0.000000 3.565570 0.000000 
#    z 0.000000 0.000000 3.454190 
# 
# 
# High freq. dielectric constant tensor:
#      x y z
#    x 1.772680 0.000000 0.000000 
#    y 0.000000 1.757740 0.000000 
#    z 0.000000 0.000000 1.754750 
# 
# From -- ./inp_files/15429.got.cif
#   From: 2010.03.12/outbox.cif.g09.slc.cpg/sg38_8_cif.got.tgz:15429.got - 2010.04.14 02:38:36.
