data_PCOD8180749
_publ_section_title
;
Structure prediction by ZEFSAII (Michael W. Deem and Ramdas Pophale) SiO2 
 PCOD8180749
Probable space group: A B M 2
;
_chemical_formula_sum "Si O2"
_cell_formula_units_Z 56
_cell_length_a 19.584410
_cell_length_b 9.163282
_cell_length_c 15.184440
_cell_angle_alpha 90.000000
_cell_angle_beta 90.000000
_cell_angle_gamma 90.000000
_cell_volume 2724.961211
_symmetry_space_group_name_H-M "A B M 2"
_symmetry_group_IT_number 39
_symmetry_cell_setting 'orthorhombic'
loop_
_space_group_symop_operation_xyz
x,y,z
-x,-y,z
-x,1/2+y,z
x,1/2-y,z
x,1/2+y,1/2+z
-x,1/2-y,1/2+z
-x,y,1/2+z
x,-y,1/2+z
loop_
_atom_site_type_symbol
_atom_site_label
_atom_site_fract_x
_atom_site_fract_y
_atom_site_fract_z
Si Si1 0.565704 0.914441 0.712280
Si Si2 0.698668 0.918810 0.001913
Si Si3 0.169322 0.583621 0.957897
Si Si4 0.697458 0.417076 0.708171
Si Si5 0.928582 0.422299 0.116490
Si Si6 0.846777 0.583480 0.262066
Si Si7 0.434285 0.415287 0.502152
O O1 0.562576 0.750000 0.747714
O O2 0.564967 0.919677 0.607238
O O3 0.500000 0.000000 0.749903
O O4 0.635562 0.987315 0.747245
O O5 0.689613 0.750000 0.978455
O O6 0.765297 0.980243 0.954588
O O7 0.707531 0.945548 0.105227
O O8 0.632855 0.004504 0.965531
O O9 0.193407 0.750000 0.974603
O O10 0.131107 0.570025 0.864026
O O11 0.117951 0.532598 0.033845
O O12 0.678639 0.250000 0.727312
O O13 0.767581 0.463867 0.754918
O O14 0.939806 0.250000 0.122959
O O15 0.894188 0.476816 0.206335
O O16 0.000000 0.500000 0.102302
O O17 0.855527 0.750000 0.227809
O O18 0.500000 0.500000 0.464504
O O19 0.435369 0.250000 0.467139
#
# Coordination Sequence:
#
# PCOD8180749 Si02
#       7
#     8   8   8   8   8   8   8
#     4   9  16  25  41  68 104 144 189 240 289 344
#     4  10  18  30  52  80 111 151 196 242 293 349
#     4  10  22  39  61  89 121 156 195 239 290 345
#     4   9  17  30  51  77 108 148 190 237 288 342
#     4  11  24  42  65  92 122 155 191 235 285 344
#     4  10  21  40  63  89 121 157 196 240 290 345
#     4   9  16  26  42  69 106 147 193 245 297 351
#
# _framework density 20.550750000000001
#
# number of rings (size 3 to 8) (size 9 to 14) (size 15 to 20)
#    0.000    2.286    1.429    1.714    0.000    6.286 
#    0.000    1.429    0.000    0.857    0.000    4.000 
#    0.000    0.000    0.000    0.000    0.000    0.000 
#
# Total GULP energy -347283.746884 kJ/mol
# GULP energy per Si atom -12402.990960 kJ/mol
# Density = 2.050398 g / cm^3
# Si number density = 20.550750 Si / 1000 Ang^3
#
#
#
# Elastic Constant Matrix: (Units=GPa)
#
#
# Indices 1 2 3 4 5 6 
#
# 1 136.3519 71.9104 38.3733 0.0000 0.0000 0.0000
# 2 71.9104 129.8725 35.1613 0.0000 0.0000 0.0000
# 3 38.3733 35.1613 55.8879 0.0000 0.0000 0.0000
# 4 0.0000 0.0000 0.0000 19.3510 0.0000 0.0000
# 5 0.0000 0.0000 0.0000 0.0000 1.2125 0.0000
# 6 0.0000 0.0000 0.0000 0.0000 0.0000 44.1902
#
#
#
# Elastic Compliance Matrix: (Units=1/GPa)
#
#
# Indices 1 2 3 4 5 6 
#
# 1 0.011258 -0.004991 -0.004590 0.000000 0.000000 0.000000
# 2 -0.004991 0.011493 -0.003804 0.000000 0.000000 0.000000
# 3 -0.004590 -0.003804 0.023438 0.000000 0.000000 0.000000
# 4 0.000000 0.000000 0.000000 0.051677 0.000000 0.000000
# 5 0.000000 0.000000 0.000000 0.000000 0.824755 0.000000
# 6 0.000000 0.000000 0.000000 0.000000 0.000000 0.022629
#
#
# Mechanical properties :
#
#
# Convention : Reuss Voigt Hill
#
# Bulk Modulus (GPa) = 51.49530 68.11139 59.80334
# Shear Modulus (GPa) = 5.10990 24.72856 14.91923
#
# Velocity S-wave (km/s) = 1.57857 3.47261 2.69731
# Velocity P-wave (km/s) = 5.33240 7.02095 6.23411
#
# Compressibility (1/GPa) = 0.01941925
#
# Stress axis : x y z
#
# Youngs Moduli (GPa) = 88.82775 87.00830 42.66636
#
# Poissons Ratio (x) = 0.43424 0.19583
# Poissons Ratio (y) = 0.44332 0.16231
# Poissons Ratio (z) = 0.40770 0.33099
#
# Static dielectric constant tensor:
#      x y z
#    x 3.729280 0.000000 0.000000 
#    y 0.000000 3.761300 0.000000 
#    z 0.000000 0.000000 3.433930 
# 
# 
# High freq. dielectric constant tensor:
#      x y z
#    x 1.803010 0.000000 0.000000 
#    y 0.000000 1.806900 0.000000 
#    z 0.000000 0.000000 1.782620 
# 
# From -- ./inp_files/10338.got.cif
#   From: 2010.03.12/outbox.cif.g09.slc.cpg/sg39_6_cif.got.tgz:10338.got - 2010.04.14 02:53:20.
