data_PCOD8180298
_publ_section_title
;
Structure prediction by ZEFSAII (Michael W. Deem and Ramdas Pophale) SiO2 
 PCOD8180298
Probable space group: A M M 2
;
_chemical_formula_sum "Si O2"
_cell_formula_units_Z 56
_cell_length_a 14.398442
_cell_length_b 8.929270
_cell_length_c 20.996040
_cell_angle_alpha 90.000000
_cell_angle_beta 90.000000
_cell_angle_gamma 90.000000
_cell_volume 2699.409973
_symmetry_space_group_name_H-M "A M M 2"
_symmetry_group_IT_number 38
_symmetry_cell_setting 'orthorhombic'
loop_
_space_group_symop_operation_xyz
x,y,z
-x,-y,z
-x,y,z
x,-y,z
x,1/2+y,1/2+z
-x,1/2-y,1/2+z
-x,1/2+y,1/2+z
x,1/2-y,1/2+z
loop_
_atom_site_type_symbol
_atom_site_label
_atom_site_fract_x
_atom_site_fract_y
_atom_site_fract_z
Si Si1 0.282475 0.825622 0.898850
Si Si2 0.894638 0.320801 0.860521
Si Si3 0.391884 0.326118 0.156200
Si Si4 0.898572 0.177417 0.087309
Si Si5 0.108939 0.338507 0.723380
Si Si6 0.607526 0.176074 0.284699
Si Si7 0.293730 0.827197 0.039981
O O1 0.178166 0.760177 0.906512
O O2 0.341187 0.740867 0.845955
O O3 0.277985 0.000000 0.882106
O O4 0.330336 0.799949 0.968177
O O5 0.885482 0.500000 0.863983
O O6 0.863420 0.259086 0.789854
O O7 0.000000 0.271903 0.878122
O O8 0.500000 0.289529 0.150784
O O9 0.371338 0.500000 0.165130
O O10 0.350544 0.242174 0.218599
O O11 0.347769 0.272655 0.090270
O O12 0.870218 0.248447 0.157025
O O13 0.816077 0.218084 0.039342
O O14 0.000000 0.240020 0.064344
O O15 0.907904 0.000000 0.096939
O O16 0.160153 0.500000 0.721878
O O17 0.000000 0.366236 0.728289
O O18 0.500000 0.222256 0.290586
O O19 0.621875 0.000000 0.283725
O O20 0.306190 0.000000 0.059917
#
# Coordination Sequence:
#
# PCOD8180298 Si02
#       7
#     8   8   8   8   8   8   8
#     4  11  24  38  54  85 127 164 200 248 302 350
#     4   9  18  33  54  81 113 154 205 254 299 351
#     4  10  22  41  65  92 121 150 183 235 303 365
#     4   8  14  27  49  77 109 147 193 240 282 329
#     4   7  11  22  43  72 100 128 176 240 291 329
#     4  10  22  42  68  92 113 146 196 248 299 364
#     4  10  22  37  56  86 121 160 203 242 285 344
#
# _framework density 20.745273999999998
#
# number of rings (size 3 to 8) (size 9 to 14) (size 15 to 20)
#    0.000    2.714    0.000    3.000    2.000    4.286 
#    0.000    4.286    0.000    0.429    0.000    0.000 
#    0.000    0.000    0.000    0.000    0.000    0.000 
#
# Total GULP energy -346890.752241 kJ/mol
# GULP energy per Si atom -12388.955437 kJ/mol
# Density = 2.069806 g / cm^3
# Si number density = 20.745274 Si / 1000 Ang^3
#
#
#
# Elastic Constant Matrix: (Units=GPa)
#
#
# Indices 1 2 3 4 5 6 
#
# 1 65.6729 44.4639 49.8229 0.0000 0.0000 0.0000
# 2 44.4639 64.9838 44.6765 0.0000 0.0000 0.0000
# 3 49.8229 44.6765 122.7622 0.0000 0.0000 0.0000
# 4 0.0000 0.0000 0.0000 29.3022 0.0000 0.0000
# 5 0.0000 0.0000 0.0000 0.0000 25.8500 0.0000
# 6 0.0000 0.0000 0.0000 0.0000 0.0000 26.4510
#
#
#
# Elastic Compliance Matrix: (Units=1/GPa)
#
#
# Indices 1 2 3 4 5 6 
#
# 1 0.032029 -0.017309 -0.006700 0.000000 0.000000 0.000000
# 2 -0.017309 0.029878 -0.003848 0.000000 0.000000 0.000000
# 3 -0.006700 -0.003848 0.012265 0.000000 0.000000 0.000000
# 4 0.000000 0.000000 0.000000 0.034127 0.000000 0.000000
# 5 0.000000 0.000000 0.000000 0.000000 0.038685 0.000000
# 6 0.000000 0.000000 0.000000 0.000000 0.000000 0.037806
#
#
# Mechanical properties :
#
#
# Convention : Reuss Voigt Hill
#
# Bulk Modulus (GPa) = 54.17817 59.03842 56.60829
# Shear Modulus (GPa) = 20.27114 23.95103 22.11109
#
# Velocity S-wave (km/s) = 3.12932 3.40152 3.26826
# Velocity P-wave (km/s) = 6.26334 6.62930 6.44892
#
# Compressibility (1/GPa) = 0.01845762
#
# Stress axis : x y z
#
# Youngs Moduli (GPa) = 31.22192 33.46983 81.53016
#
# Poissons Ratio (x) = 0.57933 0.54622
# Poissons Ratio (y) = 0.54042 0.31376
# Poissons Ratio (z) = 0.20917 0.12881
#
# Static dielectric constant tensor:
#      x y z
#    x 3.772240 0.000000 0.000000 
#    y 0.000000 3.358140 0.000000 
#    z 0.000000 0.000000 3.968570 
# 
# 
# High freq. dielectric constant tensor:
#      x y z
#    x 1.809060 0.000000 0.000000 
#    y 0.000000 1.770980 0.000000 
#    z 0.000000 0.000000 1.821940 
# 
# From -- ./inp_files/21066.got.cif
#   From: 2010.03.12/outbox.cif.g09.slc.cpg/sg38_11_cif.got.tgz:21066.got - 2010.04.14 02:38:36.
