data_PCOD8180293
_publ_section_title
;
Structure prediction by ZEFSAII (Michael W. Deem and Ramdas Pophale) SiO2 
 PCOD8180293
Probable space group: A M M 2
;
_chemical_formula_sum "Si O2"
_cell_formula_units_Z 64
_cell_length_a 8.856739
_cell_length_b 29.051025
_cell_length_c 12.709925
_cell_angle_alpha 90.000000
_cell_angle_beta 90.000000
_cell_angle_gamma 90.000000
_cell_volume 3270.229972
_symmetry_space_group_name_H-M "A M M 2"
_symmetry_group_IT_number 38
_symmetry_cell_setting 'orthorhombic'
loop_
_space_group_symop_operation_xyz
x,y,z
-x,-y,z
-x,y,z
x,-y,z
x,1/2+y,1/2+z
-x,1/2-y,1/2+z
-x,1/2+y,1/2+z
x,1/2-y,1/2+z
loop_
_atom_site_type_symbol
_atom_site_label
_atom_site_fract_x
_atom_site_fract_y
_atom_site_fract_z
Si Si1 0.325168 0.445935 0.623290
Si Si2 0.324216 0.357486 0.239394
Si Si3 0.175229 0.382239 0.027041
Si Si4 0.177824 0.120579 0.960342
Si Si5 0.668615 0.747276 0.271601
Si Si6 0.333119 0.796953 0.069303
Si Si7 0.170960 0.280517 0.965105
Si Si8 0.176613 0.946753 0.340448
O O1 0.500000 0.432146 0.620642
O O2 0.298500 0.500000 0.610310
O O3 0.243394 0.422282 0.524996
O O4 0.259107 0.428665 0.735027
O O5 0.500000 0.367933 0.249075
O O6 0.262508 0.384725 0.137635
O O7 0.246026 0.377495 0.343823
O O8 0.289796 0.303067 0.224690
O O9 0.000000 0.390090 0.052561
O O10 0.205245 0.334287 0.968450
O O11 0.235460 0.420446 0.944651
O O12 0.000000 0.115073 0.950874
O O13 0.214207 0.166922 0.025002
O O14 0.500000 0.743498 0.322782
O O15 0.666973 0.791288 0.194260
O O16 0.801694 0.759968 0.350143
O O17 0.500000 0.810381 0.027283
O O18 0.289267 0.745162 0.038688
O O19 0.000000 0.269769 0.999791
O O20 0.000000 0.937555 0.323465
O O21 0.213977 0.000000 0.359143
#
# Coordination Sequence:
#
# PCOD8180293 Si02
#       8
#     8   8   8   8   8   8   8   8
#     4  10  22  42  67  94 122 152 190 240 296 353
#     4  11  22  39  60  83 115 159 203 246 296 350
#     4  10  22  38  57  87 120 155 199 246 296 354
#     4  12  25  40  61  89 119 156 199 244 298 354
#     4  10  22  37  54  76 110 154 197 244 295 346
#     4  11  22  38  56  80 114 154 200 243 291 347
#     4  11  22  34  53  81 115 153 195 242 292 347
#     4   9  19  39  65  91 121 156 194 241 297 353
#
# _framework density 19.570489999999999
#
# number of rings (size 3 to 8) (size 9 to 14) (size 15 to 20)
#    0.000    1.500    2.500    2.625    1.750    3.250 
#    0.000    0.625    0.000    2.250    0.000    0.000 
#    0.000    0.000    0.000    0.000    0.000    0.000 
#
# Total GULP energy -396714.418646 kJ/mol
# GULP energy per Si atom -12397.325583 kJ/mol
# Density = 1.952595 g / cm^3
# Si number density = 19.570490 Si / 1000 Ang^3
#
#
#
# Elastic Constant Matrix: (Units=GPa)
#
#
# Indices 1 2 3 4 5 6 
#
# 1 102.0091 40.2844 59.7639 0.0000 0.0000 0.0000
# 2 40.2844 73.1532 51.4707 0.0000 0.0000 0.0000
# 3 59.7639 51.4707 130.7596 0.0000 0.0000 0.0000
# 4 0.0000 0.0000 0.0000 38.6369 0.0000 0.0000
# 5 0.0000 0.0000 0.0000 0.0000 34.9848 0.0000
# 6 0.0000 0.0000 0.0000 0.0000 0.0000 26.6506
#
#
#
# Elastic Compliance Matrix: (Units=1/GPa)
#
#
# Indices 1 2 3 4 5 6 
#
# 1 0.014413 -0.004567 -0.004790 0.000000 0.000000 0.000000
# 2 -0.004567 0.020353 -0.005924 0.000000 0.000000 0.000000
# 3 -0.004790 -0.005924 0.012169 0.000000 0.000000 0.000000
# 4 0.000000 0.000000 0.000000 0.025882 0.000000 0.000000
# 5 0.000000 0.000000 0.000000 0.000000 0.028584 0.000000
# 6 0.000000 0.000000 0.000000 0.000000 0.000000 0.037523
#
#
# Mechanical properties :
#
#
# Convention : Reuss Voigt Hill
#
# Bulk Modulus (GPa) = 61.07647 67.66222 64.36934
# Shear Modulus (GPa) = 28.58084 30.34798 29.46441
#
# Velocity S-wave (km/s) = 3.82567 3.94217 3.88436
# Velocity P-wave (km/s) = 7.12675 7.44107 7.28561
#
# Compressibility (1/GPa) = 0.01637292
#
# Stress axis : x y z
#
# Youngs Moduli (GPa) = 69.38347 49.13236 82.17776
#
# Poissons Ratio (x) = 0.22438 0.39361
# Poissons Ratio (y) = 0.31686 0.48685
# Poissons Ratio (z) = 0.33233 0.29108
#
# Static dielectric constant tensor:
#      x y z
#    x 3.589640 0.000000 0.000000 
#    y 0.000000 3.479130 0.000000 
#    z 0.000000 0.000000 3.703060 
# 
# 
# High freq. dielectric constant tensor:
#      x y z
#    x 1.767070 0.000000 0.000000 
#    y 0.000000 1.747560 0.000000 
#    z 0.000000 0.000000 1.769930 
# 
# From -- ./inp_files/8512.got.cif
#   From: 2010.03.12/outbox.cif.g09.slc.cpg/sg38_5_cif.got.tgz:8512.got - 2010.04.14 02:38:36.
