data_PCOD8180981
_publ_section_title
;
Structure prediction by ZEFSAII (Michael W. Deem and Ramdas Pophale) SiO2 
 PCOD8180981
Probable space group: A B M 2
;
_chemical_formula_sum "Si O2"
_cell_formula_units_Z 40
_cell_length_a 13.920927
_cell_length_b 8.681194
_cell_length_c 20.619431
_cell_angle_alpha 90.000000
_cell_angle_beta 90.000000
_cell_angle_gamma 90.000000
_cell_volume 2491.863761
_symmetry_space_group_name_H-M "A B M 2"
_symmetry_group_IT_number 39
_symmetry_cell_setting 'orthorhombic'
loop_
_space_group_symop_operation_xyz
x,y,z
-x,-y,z
-x,1/2+y,z
x,1/2-y,z
x,1/2+y,1/2+z
-x,1/2-y,1/2+z
-x,y,1/2+z
x,-y,1/2+z
loop_
_atom_site_type_symbol
_atom_site_label
_atom_site_fract_x
_atom_site_fract_y
_atom_site_fract_z
Si Si1 0.270882 0.070326 0.019890
Si Si2 0.899136 0.575737 0.581014
Si Si3 0.285160 0.075766 0.648439
Si Si4 0.602950 0.932869 0.772861
Si Si5 0.396805 0.931644 0.909319
O O1 0.278861 0.250000 0.005598
O O2 0.158746 0.017092 0.024621
O O3 0.324228 0.027389 0.088083
O O4 0.318739 0.976494 0.962199
O O5 0.915831 0.750000 0.557236
O O6 0.832032 0.571644 0.645970
O O7 0.000000 0.500000 0.597790
O O8 0.322614 0.250000 0.637685
O O9 0.322479 0.013374 0.717202
O O10 0.596849 0.750000 0.779700
O O11 0.500000 0.000000 0.753354
O O12 0.639021 0.002963 0.840439
O O13 0.406907 0.750000 0.904424
O O14 0.500000 0.000000 0.928587
#
# Coordination Sequence:
#
# PCOD8180981 Si02
#       5
#     8   8   8   8   8
#     4  10  19  32  51  75  99 130 166 205 247 291
#     4   9  17  32  51  75 100 128 161 203 251 296
#     4   8  18  33  49  71 101 130 162 204 246 290
#     4  10  19  33  50  71  99 134 167 200 243 292
#     4  11  21  34  50  71 100 134 169 205 244 294
#
# _framework density 16.052240999999999
#
# number of rings (size 3 to 8) (size 9 to 14) (size 15 to 20)
#    1.200    1.200    0.000    5.400    0.000    2.400 
#    0.000    2.000    0.000    1.200    0.000    5.600 
#    0.000    0.000    0.000    0.000    0.000    0.000 
#
# Total GULP energy -247810.853029 kJ/mol
# GULP energy per Si atom -12390.542651 kJ/mol
# Density = 1.601571 g / cm^3
# Si number density = 16.052241 Si / 1000 Ang^3
#
#
#
# Elastic Constant Matrix: (Units=GPa)
#
#
# Indices 1 2 3 4 5 6 
#
# 1 82.5332 31.2361 60.0605 0.0000 0.0000 0.0000
# 2 31.2361 105.4578 40.5088 0.0000 0.0000 0.0000
# 3 60.0605 40.5088 102.8914 0.0000 0.0000 0.0000
# 4 0.0000 0.0000 0.0000 26.8743 0.0000 0.0000
# 5 0.0000 0.0000 0.0000 0.0000 7.3068 0.0000
# 6 0.0000 0.0000 0.0000 0.0000 0.0000 28.5614
#
#
#
# Elastic Compliance Matrix: (Units=1/GPa)
#
#
# Indices 1 2 3 4 5 6 
#
# 1 0.021354 -0.001811 -0.011752 0.000000 0.000000 0.000000
# 2 -0.001811 0.011326 -0.003402 0.000000 0.000000 0.000000
# 3 -0.011752 -0.003402 0.017918 0.000000 0.000000 0.000000
# 4 0.000000 0.000000 0.000000 0.037210 0.000000 0.000000
# 5 0.000000 0.000000 0.000000 0.000000 0.136859 0.000000
# 6 0.000000 0.000000 0.000000 0.000000 0.000000 0.035012
#
#
# Mechanical properties :
#
#
# Convention : Reuss Voigt Hill
#
# Bulk Modulus (GPa) = 59.99367 61.61035 60.80201
# Shear Modulus (GPa) = 16.71326 23.15363 19.93345
#
# Velocity S-wave (km/s) = 3.23023 3.80200 3.52772
# Velocity P-wave (km/s) = 7.16713 7.59856 7.38599
#
# Compressibility (1/GPa) = 0.01666842
#
# Stress axis : x y z
#
# Youngs Moduli (GPa) = 46.83066 88.29582 55.80926
#
# Poissons Ratio (x) = 0.15988 0.65586
# Poissons Ratio (y) = 0.08480 0.18986
# Poissons Ratio (z) = 0.55034 0.30038
#
# Static dielectric constant tensor:
#      x y z
#    x 2.878040 0.000000 0.000000 
#    y 0.000000 3.113420 0.000000 
#    z 0.000000 0.000000 2.973750 
# 
# 
# High freq. dielectric constant tensor:
#      x y z
#    x 1.595760 0.000000 0.000000 
#    y 0.000000 1.635190 0.000000 
#    z 0.000000 0.000000 1.601820 
# 
# From -- ./inp_files/12836.got.cif
#   From: 2010.03.12/outbox.cif.g09.slc.cpg/sg39_7_cif.got.tgz:12836.got - 2010.04.14 02:53:20.
