data_PCOD8180249
_publ_section_title
;
Structure prediction by ZEFSAII (Michael W. Deem and Ramdas Pophale) SiO2 
 PCOD8180249
Probable space group: A M M 2
;
_chemical_formula_sum "Si O2"
_cell_formula_units_Z 48
_cell_length_a 16.847124
_cell_length_b 8.776407
_cell_length_c 15.805358
_cell_angle_alpha 90.000000
_cell_angle_beta 90.000000
_cell_angle_gamma 90.000000
_cell_volume 2336.936248
_symmetry_space_group_name_H-M "A M M 2"
_symmetry_group_IT_number 38
_symmetry_cell_setting 'orthorhombic'
loop_
_space_group_symop_operation_xyz
x,y,z
-x,-y,z
-x,y,z
x,-y,z
x,1/2+y,1/2+z
-x,1/2-y,1/2+z
-x,1/2+y,1/2+z
x,1/2-y,1/2+z
loop_
_atom_site_type_symbol
_atom_site_label
_atom_site_fract_x
_atom_site_fract_y
_atom_site_fract_z
Si Si1 0.000000 0.325632 0.727010
Si Si2 0.161997 0.320199 0.283278
Si Si3 0.841836 0.824101 0.458011
Si Si4 0.311788 0.319911 0.710806
Si Si5 0.678231 0.175445 0.538761
Si Si6 0.000000 0.674669 0.527466
Si Si7 0.589688 0.181314 0.371747
O O1 0.924702 0.242212 0.764903
O O2 0.000000 0.312552 0.627156
O O3 0.000000 0.500000 0.757323
O O4 0.161719 0.500000 0.275151
O O5 0.187511 0.267998 0.376450
O O6 0.224477 0.252680 0.216787
O O7 0.772912 0.805863 0.527348
O O8 0.922943 0.757726 0.493076
O O9 0.853883 0.000000 0.432977
O O10 0.303856 0.500000 0.713763
O O11 0.349356 0.269039 0.621297
O O12 0.366177 0.257784 0.787631
O O13 0.632763 0.241680 0.456528
O O14 0.654970 0.000000 0.552735
O O15 0.000000 0.500000 0.496360
O O16 0.500000 0.243600 0.370626
O O17 0.592052 0.000000 0.370957
#
# Coordination Sequence:
#
# PCOD8180249 Si02
#       7
#     4   8   8   8   8   4   8
#     4  11  24  41  60  85 121 161 206 256 307 364
#     4  12  24  39  61  88 121 161 208 258 307 362
#     4  11  22  39  61  85 118 161 206 253 306 366
#     4  11  22  39  63  93 126 165 209 254 310 371
#     4  10  21  39  63  92 123 162 208 253 308 371
#     4  11  24  39  56  85 119 157 204 254 303 360
#     4   9  19  39  65  91 124 164 204 251 311 378
#
# _framework density 20.539714
#
# number of rings (size 3 to 8) (size 9 to 14) (size 15 to 20)
#    0.000    1.333    1.667    4.500    0.000    6.000 
#    0.000    0.000    0.000    3.500    0.000    0.000 
#    0.000    0.000    0.000    0.000    0.000    0.000 
#
# Total GULP energy -297703.272768 kJ/mol
# GULP energy per Si atom -12404.303032 kJ/mol
# Density = 2.049296 g / cm^3
# Si number density = 20.539714 Si / 1000 Ang^3
#
#
#
# Elastic Constant Matrix: (Units=GPa)
#
#
# Indices 1 2 3 4 5 6 
#
# 1 123.1368 40.8173 57.3890 0.0000 0.0000 0.0000
# 2 40.8173 107.1034 50.6560 0.0000 0.0000 0.0000
# 3 57.3890 50.6560 148.7943 0.0000 0.0000 0.0000
# 4 0.0000 0.0000 0.0000 36.8020 0.0000 0.0000
# 5 0.0000 0.0000 0.0000 0.0000 21.1196 0.0000
# 6 0.0000 0.0000 0.0000 0.0000 0.0000 14.9373
#
#
#
# Elastic Compliance Matrix: (Units=1/GPa)
#
#
# Indices 1 2 3 4 5 6 
#
# 1 0.010421 -0.002468 -0.003179 0.000000 0.000000 0.000000
# 2 -0.002468 0.011713 -0.003036 0.000000 0.000000 0.000000
# 3 -0.003179 -0.003036 0.008980 0.000000 0.000000 0.000000
# 4 0.000000 0.000000 0.000000 0.027172 0.000000 0.000000
# 5 0.000000 0.000000 0.000000 0.000000 0.047349 0.000000
# 6 0.000000 0.000000 0.000000 0.000000 0.000000 0.066946
#
#
# Mechanical properties :
#
#
# Convention : Reuss Voigt Hill
#
# Bulk Modulus (GPa) = 72.73358 75.19546 73.96452
# Shear Modulus (GPa) = 25.70289 29.91658 27.80973
#
# Velocity S-wave (km/s) = 3.54132 3.82058 3.68360
# Velocity P-wave (km/s) = 7.22560 7.49345 7.36074
#
# Compressibility (1/GPa) = 0.01374881
#
# Stress axis : x y z
#
# Youngs Moduli (GPa) = 95.96295 85.37458 111.35409
#
# Poissons Ratio (x) = 0.21068 0.35400
# Poissons Ratio (y) = 0.23681 0.33805
# Poissons Ratio (z) = 0.30507 0.25918
#
# Static dielectric constant tensor:
#      x y z
#    x 3.845260 0.000000 0.000000 
#    y 0.000000 3.612330 0.000000 
#    z 0.000000 0.000000 3.941770 
# 
# 
# High freq. dielectric constant tensor:
#      x y z
#    x 1.804660 0.000000 0.000000 
#    y 0.000000 1.789990 0.000000 
#    z 0.000000 0.000000 1.818090 
# 
# From -- ./inp_files/15044.got.cif
#   From: 2010.03.12/outbox.cif.g09.slc.cpg/sg38_8_cif.got.tgz:15044.got - 2010.04.14 02:38:36.
