data_PCOD8180207
_publ_section_title
;
Structure prediction by ZEFSAII (Michael W. Deem and Ramdas Pophale) SiO2 
 PCOD8180207
Probable space group: A M M 2
;
_chemical_formula_sum "Si O2"
_cell_formula_units_Z 64
_cell_length_a 23.770214
_cell_length_b 8.566216
_cell_length_c 15.410775
_cell_angle_alpha 90.000000
_cell_angle_beta 90.000000
_cell_angle_gamma 90.000000
_cell_volume 3137.954141
_symmetry_space_group_name_H-M "A M M 2"
_symmetry_group_IT_number 38
_symmetry_cell_setting 'orthorhombic'
loop_
_space_group_symop_operation_xyz
x,y,z
-x,-y,z
-x,y,z
x,-y,z
x,1/2+y,1/2+z
-x,1/2-y,1/2+z
-x,1/2+y,1/2+z
x,1/2-y,1/2+z
loop_
_atom_site_type_symbol
_atom_site_label
_atom_site_fract_x
_atom_site_fract_y
_atom_site_fract_z
Si Si1 0.871796 0.680438 0.055650
Si Si2 0.323096 0.316844 0.389100
Si Si3 0.320049 0.316737 0.711407
Si Si4 0.935840 0.680975 0.715016
Si Si5 0.065487 0.180733 0.895912
Si Si6 0.561031 0.314795 0.458606
Si Si7 0.560739 0.185123 0.153530
Si Si8 0.741524 0.181409 0.548699
O O1 0.880928 0.500000 0.078108
O O2 0.898344 0.781651 0.132144
O O3 0.806776 0.724725 0.049371
O O4 0.900188 0.717453 0.964024
O O5 0.321993 0.500000 0.370259
O O6 0.297079 0.226610 0.306684
O O7 0.386969 0.252008 0.401987
O O8 0.286913 0.283288 0.474015
O O9 0.314121 0.500000 0.693252
O O10 0.385309 0.257922 0.707999
O O11 0.283782 0.224617 0.641555
O O12 0.930238 0.500000 0.737979
O O13 0.914533 0.776798 0.798745
O O14 0.000000 0.726267 0.692321
O O15 0.000000 0.221780 0.906847
O O16 0.077649 0.000000 0.913683
O O17 0.500000 0.260961 0.420419
O O18 0.564356 0.500000 0.462153
O O19 0.567623 0.249267 0.556039
O O20 0.500000 0.244658 0.191557
O O21 0.560121 0.000000 0.150828
O O22 0.731370 0.000000 0.529220
#
# Coordination Sequence:
#
# PCOD8180207 Si02
#       8
#     8   8   8   8   8   8   8   8
#     4  11  24  40  61  87 117 156 200 245 294 343
#     4  11  22  38  61  87 114 152 194 238 294 352
#     4  11  22  38  61  87 114 152 194 238 294 352
#     4  10  21  38  62  93 127 160 194 235 285 341
#     4  10  21  38  62  93 127 160 194 235 285 341
#     4   8  14  28  53  83 113 145 183 230 286 348
#     4   8  14  28  53  83 113 145 183 230 286 348
#     4  11  25  44  61  82 114 153 200 251 294 341
#
# _framework density 20.395454999999998
#
# number of rings (size 3 to 8) (size 9 to 14) (size 15 to 20)
#    0.000    2.000    1.250    3.375    0.000    6.500 
#    0.000    0.000    0.000    3.000    0.000    0.000 
#    0.000    0.000    0.000    0.000    0.000    0.000 
#
# Total GULP energy -396776.507193 kJ/mol
# GULP energy per Si atom -12399.265850 kJ/mol
# Density = 2.034903 g / cm^3
# Si number density = 20.395455 Si / 1000 Ang^3
#
#
#
# Elastic Constant Matrix: (Units=GPa)
#
#
# Indices 1 2 3 4 5 6 
#
# 1 104.4270 28.5576 47.1395 0.0000 0.0000 0.0000
# 2 28.5576 37.4748 9.0737 0.0000 0.0000 0.0000
# 3 47.1395 9.0737 109.6550 0.0000 0.0000 0.0000
# 4 0.0000 0.0000 0.0000 33.3861 0.0000 0.0000
# 5 0.0000 0.0000 0.0000 0.0000 1.7836 0.0000
# 6 0.0000 0.0000 0.0000 0.0000 0.0000 24.3794
#
#
#
# Elastic Compliance Matrix: (Units=1/GPa)
#
#
# Indices 1 2 3 4 5 6 
#
# 1 0.014791 -0.009931 -0.005537 0.000000 0.000000 0.000000
# 2 -0.009931 0.033898 0.001464 0.000000 0.000000 0.000000
# 3 -0.005537 0.001464 0.011379 0.000000 0.000000 0.000000
# 4 0.000000 0.000000 0.000000 0.029953 0.000000 0.000000
# 5 0.000000 0.000000 0.000000 0.000000 0.560657 0.000000
# 6 0.000000 0.000000 0.000000 0.000000 0.000000 0.041018
#
#
# Mechanical properties :
#
#
# Convention : Reuss Voigt Hill
#
# Bulk Modulus (GPa) = 31.19095 46.78873 38.98984
# Shear Modulus (GPa) = 6.84566 23.02891 14.93729
#
# Velocity S-wave (km/s) = 1.83405 3.36388 2.70919
# Velocity P-wave (km/s) = 4.45099 6.17075 5.38003
#
# Compressibility (1/GPa) = 0.03206058
#
# Stress axis : x y z
#
# Youngs Moduli (GPa) = 67.60734 29.50030 87.88445
#
# Poissons Ratio (x) = 0.29297 0.48660
# Poissons Ratio (y) = 0.67141 -0.12869
# Poissons Ratio (z) = 0.37433 -0.04320
#
# Static dielectric constant tensor:
#      x y z
#    x 3.934250 0.000000 0.000000 
#    y 0.000000 3.420750 0.000000 
#    z 0.000000 0.000000 3.610390 
# 
# 
# High freq. dielectric constant tensor:
#      x y z
#    x 1.798750 0.000000 0.000000 
#    y 0.000000 1.780070 0.000000 
#    z 0.000000 0.000000 1.799890 
# 
# From -- ./inp_files/15804.got.cif
#   From: 2010.03.12/outbox.cif.g09.slc.cpg/sg38_8_cif.got.tgz:15804.got - 2010.04.14 02:38:36.
