data_PCOD8180593
_publ_section_title
;
Structure prediction by ZEFSAII (Michael W. Deem and Ramdas Pophale) SiO2 
 PCOD8180593
Probable space group: A B M 2
;
_chemical_formula_sum "Si O2"
_cell_formula_units_Z 64
_cell_length_a 24.898398
_cell_length_b 26.141794
_cell_length_c 5.313542
_cell_angle_alpha 90.000000
_cell_angle_beta 90.000000
_cell_angle_gamma 90.000000
_cell_volume 3458.524931
_symmetry_space_group_name_H-M "A B M 2"
_symmetry_group_IT_number 39
_symmetry_cell_setting 'orthorhombic'
loop_
_space_group_symop_operation_xyz
x,y,z
-x,-y,z
-x,1/2+y,z
x,1/2-y,z
x,1/2+y,1/2+z
-x,1/2-y,1/2+z
-x,y,1/2+z
x,-y,1/2+z
loop_
_atom_site_type_symbol
_atom_site_label
_atom_site_fract_x
_atom_site_fract_y
_atom_site_fract_z
Si Si1 0.522488 0.944093 0.654470
Si Si2 0.087709 0.193068 0.620458
Si Si3 0.940283 0.521026 0.146428
Si Si4 0.785401 0.632684 0.120472
Si Si5 0.351239 0.554359 0.129291
Si Si6 0.306551 0.059967 0.129445
Si Si7 0.087617 0.365515 0.120327
Si Si8 0.785062 0.807424 0.620459
O O1 0.494547 0.915377 0.415654
O O2 0.585411 0.951775 0.617144
O O3 0.500000 0.000000 0.708417
O O4 0.063028 0.250000 0.620124
O O5 0.068322 0.164624 0.368108
O O6 0.151276 0.196131 0.621041
O O7 0.068260 0.164708 0.872988
O O8 0.910123 0.504524 0.405784
O O9 0.943415 0.581410 0.116975
O O10 0.000000 0.500000 0.182069
O O11 0.756051 0.577038 0.122530
O O12 0.848862 0.623297 0.120708
O O13 0.766409 0.663930 0.366897
O O14 0.766313 0.663195 0.871922
O O15 0.317946 0.500761 0.133594
O O16 0.335316 0.584352 0.383221
O O17 0.332844 0.584787 0.880341
O O18 0.760775 0.750000 0.622069
#
# Coordination Sequence:
#
# PCOD8180593 Si02
#       8
#     8   8   8   8   8   8   8   8
#     4  10  16  25  41  60  76 104 159 207 233 267
#     4   9  17  30  52  79 107 129 150 192 261 308
#     4  10  21  38  56  77  98 132 176 205 253 292
#     4  10  19  30  46  69  95 124 161 195 230 275
#     4  10  19  30  42  57  88 127 166 187 231 278
#     4  10  18  30  40  57  86 126 162 186 222 275
#     4  10  19  33  51  78 104 126 166 215 238 290
#     4   9  17  30  47  67  93 122 153 193 236 283
#
# _framework density 18.504999000000002
#
# number of rings (size 3 to 8) (size 9 to 14) (size 15 to 20)
#    0.000    2.250    0.000    6.000    0.000    3.000 
#    4.500    0.000    0.000    0.000    0.000   35.000 
#    0.000    0.000    0.000    0.000    0.000  532.500 
#
# Total GULP energy -396492.349164 kJ/mol
# GULP energy per Si atom -12390.385911 kJ/mol
# Density = 1.846288 g / cm^3
# Si number density = 18.504999 Si / 1000 Ang^3
#
#
#
# Elastic Constant Matrix: (Units=GPa)
#
#
# Indices 1 2 3 4 5 6 
#
# 1 42.5317 24.1490 9.0534 0.0000 0.0000 0.0000
# 2 24.1490 89.8249 33.1561 0.0000 0.0000 0.0000
# 3 9.0534 33.1561 190.0320 0.0000 0.0000 0.0000
# 4 0.0000 0.0000 0.0000 21.2744 0.0000 0.0000
# 5 0.0000 0.0000 0.0000 0.0000 0.8117 0.0000
# 6 0.0000 0.0000 0.0000 0.0000 0.0000 6.4527
#
#
#
# Elastic Compliance Matrix: (Units=1/GPa)
#
#
# Indices 1 2 3 4 5 6 
#
# 1 0.027748 -0.007452 -0.000022 0.000000 0.000000 0.000000
# 2 -0.007452 0.013900 -0.002070 0.000000 0.000000 0.000000
# 3 -0.000022 -0.002070 0.005625 0.000000 0.000000 0.000000
# 4 0.000000 0.000000 0.000000 0.047005 0.000000 0.000000
# 5 0.000000 0.000000 0.000000 0.000000 1.231948 0.000000
# 6 0.000000 0.000000 0.000000 0.000000 0.000000 0.154974
#
#
# Mechanical properties :
#
#
# Convention : Reuss Voigt Hill
#
# Bulk Modulus (GPa) = 35.48015 50.56727 43.02371
# Shear Modulus (GPa) = 3.31196 22.77643 13.04419
#
# Velocity S-wave (km/s) = 1.33927 3.51212 2.65788
# Velocity P-wave (km/s) = 4.64827 6.62059 5.72008
#
# Compressibility (1/GPa) = 0.02818478
#
# Stress axis : x y z
#
# Youngs Moduli (GPa) = 36.03925 71.94080 177.79290
#
# Poissons Ratio (x) = 0.53609 0.00387
# Poissons Ratio (y) = 0.26856 0.36808
# Poissons Ratio (z) = 0.00078 0.14894
#
# Static dielectric constant tensor:
#      x y z
#    x 3.044390 0.000000 0.000000 
#    y 0.000000 3.103290 0.000000 
#    z 0.000000 0.000000 4.959490 
# 
# 
# High freq. dielectric constant tensor:
#      x y z
#    x 1.681750 0.000000 0.000000 
#    y 0.000000 1.669220 0.000000 
#    z 0.000000 0.000000 1.764010 
# 
# From -- ./inp_files/1458.got.cif
#   From: 2010.03.12/outbox.cif.g09.slc.cpg/sg39_1_cif.got.tgz:1458.got - 2010.04.14 02:53:20.
