data_PCOD8180261
_publ_section_title
;
Structure prediction by ZEFSAII (Michael W. Deem and Ramdas Pophale) SiO2 
 PCOD8180261
Probable space group: A M M 2
;
_chemical_formula_sum "Si O2"
_cell_formula_units_Z 40
_cell_length_a 14.618131
_cell_length_b 8.829266
_cell_length_c 15.662441
_cell_angle_alpha 90.000000
_cell_angle_beta 90.000000
_cell_angle_gamma 90.000000
_cell_volume 2021.510021
_symmetry_space_group_name_H-M "A M M 2"
_symmetry_group_IT_number 38
_symmetry_cell_setting 'orthorhombic'
loop_
_space_group_symop_operation_xyz
x,y,z
-x,-y,z
-x,y,z
x,-y,z
x,1/2+y,1/2+z
-x,1/2-y,1/2+z
-x,1/2+y,1/2+z
x,1/2-y,1/2+z
loop_
_atom_site_type_symbol
_atom_site_label
_atom_site_fract_x
_atom_site_fract_y
_atom_site_fract_z
Si Si1 0.102905 0.324442 0.915200
Si Si2 0.397223 0.179848 0.517036
Si Si3 0.098395 0.678121 0.113207
Si Si4 0.286155 0.178964 0.677760
Si Si5 0.717574 0.323482 0.366976
O O1 0.124818 0.500000 0.897967
O O2 0.175504 0.221060 0.865490
O O3 0.000000 0.284529 0.884202
O O4 0.114174 0.285917 0.014292
O O5 0.500000 0.244173 0.509274
O O6 0.354479 0.244123 0.605508
O O7 0.338796 0.231093 0.436197
O O8 0.397491 0.000000 0.518081
O O9 0.093529 0.500000 0.127376
O O10 0.184013 0.749040 0.164576
O O11 0.000000 0.748447 0.142816
O O12 0.321951 0.217506 0.772721
O O13 0.278804 0.000000 0.665099
O O14 0.707277 0.500000 0.386698
#
# Coordination Sequence:
#
# PCOD8180261 Si02
#       5
#     8   8   8   8   8
#     4   9  17  32  56  81 109 151 195 226 257 313
#     4  10  21  40  63  80 101 142 192 233 271 329
#     4   8  13  25  50  78 101 134 182 225 254 297
#     4   9  18  33  54  81 109 141 184 225 266 325
#     4  11  22  34  55  88 119 142 172 228 290 331
#
# _framework density 19.787188
#
# number of rings (size 3 to 8) (size 9 to 14) (size 15 to 20)
#    0.000    2.600    2.000    1.800    0.000    2.400 
#    0.000    6.000    0.000    0.000    0.000    0.000 
#    0.000    0.000    0.000    0.000    0.000    0.000 
#
# Total GULP energy -247864.243339 kJ/mol
# GULP energy per Si atom -12393.212167 kJ/mol
# Density = 1.974215 g / cm^3
# Si number density = 19.787188 Si / 1000 Ang^3
#
#
#
# Elastic Constant Matrix: (Units=GPa)
#
#
# Indices 1 2 3 4 5 6 
#
# 1 135.5749 13.5215 60.8788 0.0000 0.0000 0.0000
# 2 13.5215 15.3286 15.6245 0.0000 0.0000 0.0000
# 3 60.8788 15.6245 107.2299 0.0000 0.0000 0.0000
# 4 0.0000 0.0000 0.0000 21.0398 0.0000 0.0000
# 5 0.0000 0.0000 0.0000 0.0000 14.8450 0.0000
# 6 0.0000 0.0000 0.0000 0.0000 0.0000 18.9558
#
#
#
# Elastic Compliance Matrix: (Units=1/GPa)
#
#
# Indices 1 2 3 4 5 6 
#
# 1 0.010065 -0.003586 -0.005192 0.000000 0.000000 0.000000
# 2 -0.003586 0.077895 -0.009314 0.000000 0.000000 0.000000
# 3 -0.005192 -0.009314 0.013630 0.000000 0.000000 0.000000
# 4 0.000000 0.000000 0.000000 0.047529 0.000000 0.000000
# 5 0.000000 0.000000 0.000000 0.000000 0.067363 0.000000
# 6 0.000000 0.000000 0.000000 0.000000 0.000000 0.052754
#
#
# Mechanical properties :
#
#
# Convention : Reuss Voigt Hill
#
# Bulk Modulus (GPa) = 15.28906 48.68701 31.98803
# Shear Modulus (GPa) = 15.28010 22.17535 18.72772
#
# Velocity S-wave (km/s) = 2.78190 3.35131 3.07979
# Velocity P-wave (km/s) = 4.24996 6.29553 5.37103
#
# Compressibility (1/GPa) = 0.06540625
#
# Stress axis : x y z
#
# Youngs Moduli (GPa) = 99.35427 12.83778 73.36513
#
# Poissons Ratio (x) = 0.04604 0.38089
# Poissons Ratio (y) = 0.35633 0.68332
# Poissons Ratio (z) = 0.51582 0.11957
#
# Static dielectric constant tensor:
#      x y z
#    x 3.854800 0.000000 0.000000 
#    y 0.000000 3.061930 0.000000 
#    z 0.000000 0.000000 3.603860 
# 
# 
# High freq. dielectric constant tensor:
#      x y z
#    x 1.780440 0.000000 0.000000 
#    y 0.000000 1.718140 0.000000 
#    z 0.000000 0.000000 1.771320 
# 
# From -- ./inp_files/14266.got.cif
#   From: 2010.03.12/outbox.cif.g09.slc.cpg/sg38_8_cif.got.tgz:14266.got - 2010.04.14 02:38:36.
