data_PCOD8180619
_publ_section_title
;
Structure prediction by ZEFSAII (Michael W. Deem and Ramdas Pophale) SiO2 
 PCOD8180619
Probable space group: A B M 2
;
_chemical_formula_sum "Si O2"
_cell_formula_units_Z 64
_cell_length_a 21.706200
_cell_length_b 28.135865
_cell_length_c 5.308298
_cell_angle_alpha 90.000000
_cell_angle_beta 90.000000
_cell_angle_gamma 90.000000
_cell_volume 3241.898155
_symmetry_space_group_name_H-M "A B M 2"
_symmetry_group_IT_number 39
_symmetry_cell_setting 'orthorhombic'
loop_
_space_group_symop_operation_xyz
x,y,z
-x,-y,z
-x,1/2+y,z
x,1/2-y,z
x,1/2+y,1/2+z
-x,1/2-y,1/2+z
-x,y,1/2+z
x,-y,1/2+z
loop_
_atom_site_type_symbol
_atom_site_label
_atom_site_fract_x
_atom_site_fract_y
_atom_site_fract_z
Si Si1 0.644849 0.696022 0.308150
Si Si2 0.569002 0.018731 0.682027
Si Si3 0.280791 0.484612 0.886639
Si Si4 0.279051 0.695777 0.303494
Si Si5 0.537919 0.623219 0.256108
Si Si6 0.791292 0.395797 0.380857
Si Si7 0.026203 0.947909 0.849217
Si Si8 0.832285 0.940471 0.389599
O O1 0.623224 0.750000 0.346410
O O2 0.689689 0.681830 0.538223
O O3 0.585040 0.664305 0.320258
O O4 0.675225 0.688768 0.036688
O O5 0.571293 0.072572 0.778953
O O6 0.500000 0.000000 0.619580
O O7 0.601090 0.013010 0.404693
O O8 0.317691 0.494124 0.147350
O O9 0.270187 0.428584 0.853642
O O10 0.215259 0.514753 0.907953
O O11 0.254094 0.750000 0.295491
O O12 0.222801 0.659862 0.348555
O O13 0.486164 0.627982 0.470832
O O14 0.817178 0.404978 0.659088
O O15 0.835053 0.411074 0.150734
O O16 0.098933 0.957242 0.841768
O O17 0.999862 0.920827 0.599396
O O18 0.000000 0.000000 0.850515
#
# Coordination Sequence:
#
# PCOD8180619 Si02
#       8
#     8   8   8   8   8   8   8   8
#     4  10  23  40  58  80 113 140 166 219 286 341
#     4  10  16  30  49  75 103 134 179 208 251 268
#     4   8  16  25  44  66  96 133 165 201 260 299
#     4  10  21  41  61  79 103 138 177 227 293 336
#     4  12  21  33  58  87 109 147 182 216 255 322
#     4  10  19  31  56  74  96 135 185 226 267 313
#     4  10  21  27  43  67 113 156 186 206 251 311
#     4  10  19  31  47  78 108 145 178 217 266 309
#
# _framework density 19.741522
#
# number of rings (size 3 to 8) (size 9 to 14) (size 15 to 20)
#    0.000    2.000    2.500    2.250   10.500    0.500 
#    0.000    0.000    0.000   13.500    0.000    0.000 
#    0.000   10.000    0.000    0.000    0.000    0.000 
#
# Total GULP energy -396592.551220 kJ/mol
# GULP energy per Si atom -12393.517226 kJ/mol
# Density = 1.969659 g / cm^3
# Si number density = 19.741522 Si / 1000 Ang^3
#
#
#
# Elastic Constant Matrix: (Units=GPa)
#
#
# Indices 1 2 3 4 5 6 
#
# 1 35.9328 27.0348 14.6019 0.0000 0.0000 0.0000
# 2 27.0348 91.5079 18.5336 0.0000 0.0000 0.0000
# 3 14.6019 18.5336 150.9567 0.0000 0.0000 0.0000
# 4 0.0000 0.0000 0.0000 22.7169 0.0000 0.0000
# 5 0.0000 0.0000 0.0000 0.0000 30.6783 0.0000
# 6 0.0000 0.0000 0.0000 0.0000 0.0000 19.3210
#
#
#
# Elastic Compliance Matrix: (Units=1/GPa)
#
#
# Indices 1 2 3 4 5 6 
#
# 1 0.036523 -0.010332 -0.002264 0.000000 0.000000 0.000000
# 2 -0.010332 0.014129 -0.000735 0.000000 0.000000 0.000000
# 3 -0.002264 -0.000735 0.006934 0.000000 0.000000 0.000000
# 4 0.000000 0.000000 0.000000 0.044020 0.000000 0.000000
# 5 0.000000 0.000000 0.000000 0.000000 0.032596 0.000000
# 6 0.000000 0.000000 0.000000 0.000000 0.000000 0.051757
#
#
# Mechanical properties :
#
#
# Convention : Reuss Voigt Hill
#
# Bulk Modulus (GPa) = 32.33797 44.30422 38.32109
# Shear Modulus (GPa) = 22.42851 29.09171 25.76011
#
# Velocity S-wave (km/s) = 3.37428 3.84295 3.61622
# Velocity P-wave (km/s) = 5.62114 6.49476 6.07368
#
# Compressibility (1/GPa) = 0.03092340
#
# Stress axis : x y z
#
# Youngs Moduli (GPa) = 27.37988 70.77491 144.22259
#
# Poissons Ratio (x) = 0.73122 0.32658
# Poissons Ratio (y) = 0.28288 0.10605
# Poissons Ratio (z) = 0.06200 0.05204
#
# Static dielectric constant tensor:
#      x y z
#    x 3.369440 0.000000 0.000000 
#    y 0.000000 3.406060 0.000000 
#    z 0.000000 0.000000 3.978120 
# 
# 
# High freq. dielectric constant tensor:
#      x y z
#    x 1.749490 0.000000 0.000000 
#    y 0.000000 1.732820 0.000000 
#    z 0.000000 0.000000 1.822430 
# 
# From -- ./inp_files/1166.got.cif
#   From: 2010.03.12/outbox.cif.g09.slc.cpg/sg39_1_cif.got.tgz:1166.got - 2010.04.14 02:53:20.
