data_PCOD8180858
_publ_section_title
;
Structure prediction by ZEFSAII (Michael W. Deem and Ramdas Pophale) SiO2 
 PCOD8180858
Probable space group: A B M 2
;
_chemical_formula_sum "Si O2"
_cell_formula_units_Z 48
_cell_length_a 8.464614
_cell_length_b 10.029682
_cell_length_c 27.681485
_cell_angle_alpha 90.000000
_cell_angle_beta 90.000000
_cell_angle_gamma 90.000000
_cell_volume 2350.085736
_symmetry_space_group_name_H-M "A B M 2"
_symmetry_group_IT_number 39
_symmetry_cell_setting 'orthorhombic'
loop_
_space_group_symop_operation_xyz
x,y,z
-x,-y,z
-x,1/2+y,z
x,1/2-y,z
x,1/2+y,1/2+z
-x,1/2-y,1/2+z
-x,y,1/2+z
x,-y,1/2+z
loop_
_atom_site_type_symbol
_atom_site_label
_atom_site_fract_x
_atom_site_fract_y
_atom_site_fract_z
Si Si1 0.850642 0.404318 0.841650
Si Si2 0.814451 0.982574 0.238477
Si Si3 0.308044 0.250000 0.065826
Si Si4 0.184952 0.519121 0.027598
Si Si5 0.355601 0.098052 0.433726
Si Si6 0.155633 0.750000 0.670274
Si Si7 0.326570 0.750000 0.088237
Si Si8 0.215797 0.250000 0.692149
O O1 0.907496 0.250000 0.843264
O O2 0.759051 0.432717 0.791189
O O3 0.725789 0.436442 0.883186
O O4 0.000000 0.500000 0.848901
O O5 0.737573 0.123544 0.224867
O O6 0.770363 0.878520 0.196534
O O7 0.000000 0.000000 0.242062
O O8 0.269007 0.378046 0.034002
O O9 0.206372 0.250000 0.114834
O O10 0.493434 0.250000 0.072939
O O11 0.239215 0.618157 0.069766
O O12 0.000000 0.500000 0.031760
O O13 0.227008 0.579987 0.975758
O O14 0.417675 0.250000 0.434421
O O15 0.500000 0.000000 0.442867
O O16 0.966027 0.750000 0.674585
O O17 0.326678 0.750000 0.145836
#
# Coordination Sequence:
#
# PCOD8180858 Si02
#       8
#     8   8   4   8   8   4   4   4
#     4  10  21  39  64  95 129 165 215 267 315 381
#     4   9  18  33  58  89 120 161 212 268 315 358
#     4  12  26  40  67  94 133 174 209 268 332 382
#     4  12  25  44  68  96 125 169 220 268 316 382
#     4  11  25  45  66  94 130 166 209 264 327 390
#     4  10  18  36  57  88 119 166 215 258 316 370
#     4  12  24  44  61  96 135 168 217 266 328 386
#     4  10  20  34  59  86 125 164 217 270 308 380
#
# _framework density 20.424786000000001
#
# number of rings (size 3 to 8) (size 9 to 14) (size 15 to 20)
#    0.000    1.333    1.667    4.500    4.667    2.000 
#    0.000    1.667    0.000    0.000    0.000    0.000 
#    0.000    0.000    0.000    0.000    0.000    0.000 
#
# Total GULP energy -297695.967712 kJ/mol
# GULP energy per Si atom -12403.998655 kJ/mol
# Density = 2.037830 g / cm^3
# Si number density = 20.424786 Si / 1000 Ang^3
#
#
#
# Elastic Constant Matrix: (Units=GPa)
#
#
# Indices 1 2 3 4 5 6 
#
# 1 92.1797 31.7804 14.2131 0.0000 0.0000 0.0000
# 2 31.7804 142.0042 30.0908 0.0000 0.0000 0.0000
# 3 14.2131 30.0908 108.2028 0.0000 0.0000 0.0000
# 4 0.0000 0.0000 0.0000 37.5328 0.0000 0.0000
# 5 0.0000 0.0000 0.0000 0.0000 11.4428 0.0000
# 6 0.0000 0.0000 0.0000 0.0000 0.0000 26.9127
#
#
#
# Elastic Compliance Matrix: (Units=1/GPa)
#
#
# Indices 1 2 3 4 5 6 
#
# 1 0.011832 -0.002464 -0.000869 0.000000 0.000000 0.000000
# 2 -0.002464 0.007996 -0.001900 0.000000 0.000000 0.000000
# 3 -0.000869 -0.001900 0.009884 0.000000 0.000000 0.000000
# 4 0.000000 0.000000 0.000000 0.026643 0.000000 0.000000
# 5 0.000000 0.000000 0.000000 0.000000 0.087391 0.000000
# 6 0.000000 0.000000 0.000000 0.000000 0.000000 0.037157
#
#
# Mechanical properties :
#
#
# Convention : Reuss Voigt Hill
#
# Bulk Modulus (GPa) = 51.95718 54.95059 53.45388
# Shear Modulus (GPa) = 25.27992 32.93115 29.10554
#
# Velocity S-wave (km/s) = 3.52192 4.01972 3.77903
# Velocity P-wave (km/s) = 6.48322 6.96466 6.72825
#
# Compressibility (1/GPa) = 0.01924662
#
# Stress axis : x y z
#
# Youngs Moduli (GPa) = 84.51803 125.06158 101.16900
#
# Poissons Ratio (x) = 0.30813 0.08792
# Poissons Ratio (y) = 0.20824 0.19223
# Poissons Ratio (z) = 0.07345 0.23762
#
# Static dielectric constant tensor:
#      x y z
#    x 3.402320 0.000000 0.000000 
#    y 0.000000 4.112570 0.000000 
#    z 0.000000 0.000000 3.945080 
# 
# 
# High freq. dielectric constant tensor:
#      x y z
#    x 1.770720 0.000000 0.000000 
#    y 0.000000 1.819840 0.000000 
#    z 0.000000 0.000000 1.814630 
# 
# From -- ./inp_files/17720.got.cif
#   From: 2010.03.12/outbox.cif.g09.slc.cpg/sg39_9_cif.got.tgz:17720.got - 2010.04.14 02:53:20.
