data_PCOD8180882
_publ_section_title
;
Structure prediction by ZEFSAII (Michael W. Deem and Ramdas Pophale) SiO2 
 PCOD8180882
Probable space group: A B M 2
;
_chemical_formula_sum "Si O2"
_cell_formula_units_Z 48
_cell_length_a 13.244057
_cell_length_b 8.828437
_cell_length_c 22.849212
_cell_angle_alpha 90.000000
_cell_angle_beta 90.000000
_cell_angle_gamma 90.000000
_cell_volume 2671.628641
_symmetry_space_group_name_H-M "A B M 2"
_symmetry_group_IT_number 39
_symmetry_cell_setting 'orthorhombic'
loop_
_space_group_symop_operation_xyz
x,y,z
-x,-y,z
-x,1/2+y,z
x,1/2-y,z
x,1/2+y,1/2+z
-x,1/2-y,1/2+z
-x,y,1/2+z
x,-y,1/2+z
loop_
_atom_site_type_symbol
_atom_site_label
_atom_site_fract_x
_atom_site_fract_y
_atom_site_fract_z
Si Si1 0.609426 0.568777 0.457000
Si Si2 0.106234 0.571996 0.776637
Si Si3 0.092694 0.085245 0.460065
Si Si4 0.772198 0.928857 0.872902
Si Si5 0.104578 0.425193 0.140940
Si Si6 0.745877 0.914747 0.558516
O O1 0.500000 0.500000 0.449057
O O2 0.608148 0.750000 0.453304
O O3 0.675338 0.506823 0.402774
O O4 0.650755 0.516828 0.521731
O O5 0.103995 0.750000 0.789744
O O6 0.202922 0.495248 0.808526
O O7 0.122868 0.536912 0.708457
O O8 0.000000 0.500000 0.797492
O O9 0.064063 0.250000 0.433172
O O10 0.173570 0.113270 0.508793
O O11 0.128879 0.971821 0.409646
O O12 0.000000 0.000000 0.490626
O O13 0.754485 0.750000 0.870032
O O14 0.091152 0.250000 0.128232
O O15 0.206589 0.478358 0.107845
O O16 0.000000 0.500000 0.118687
O O17 0.718747 0.750000 0.586405
#
# Coordination Sequence:
#
# PCOD8180882 Si02
#       6
#     8   8   8   8   8   8
#     4  10  21  38  58  80 103 130 164 209 261 312
#     4  10  20  34  50  73 105 141 177 213 251 299
#     4  10  19  30  44  67  99 133 165 203 249 300
#     4  11  21  33  51  74  99 132 169 209 254 302
#     4  10  20  32  50  74 104 141 177 211 249 294
#     4   9  19  33  50  72 100 131 165 205 250 299
#
# _framework density 17.966569
#
# number of rings (size 3 to 8) (size 9 to 14) (size 15 to 20)
#    0.000    2.000    0.000    5.500    0.000    7.333 
#    0.000    0.000    0.000    1.000    0.000    2.333 
#    0.000    0.000    0.000    0.000    0.000    0.000 
#
# Total GULP energy -297408.585448 kJ/mol
# GULP energy per Si atom -12392.024394 kJ/mol
# Density = 1.792568 g / cm^3
# Si number density = 17.966569 Si / 1000 Ang^3
#
#
#
# Elastic Constant Matrix: (Units=GPa)
#
#
# Indices 1 2 3 4 5 6 
#
# 1 95.6780 56.8658 42.7467 0.0000 0.0000 0.0000
# 2 56.8658 114.6582 47.5137 0.0000 0.0000 0.0000
# 3 42.7467 47.5137 81.3354 0.0000 0.0000 0.0000
# 4 0.0000 0.0000 0.0000 31.8296 0.0000 0.0000
# 5 0.0000 0.0000 0.0000 0.0000 30.7210 0.0000
# 6 0.0000 0.0000 0.0000 0.0000 0.0000 28.4848
#
#
#
# Elastic Compliance Matrix: (Units=1/GPa)
#
#
# Indices 1 2 3 4 5 6 
#
# 1 0.016259 -0.005967 -0.005059 0.000000 0.000000 0.000000
# 2 -0.005967 0.013697 -0.004865 0.000000 0.000000 0.000000
# 3 -0.005059 -0.004865 0.017796 0.000000 0.000000 0.000000
# 4 0.000000 0.000000 0.000000 0.031417 0.000000 0.000000
# 5 0.000000 0.000000 0.000000 0.000000 0.032551 0.000000
# 6 0.000000 0.000000 0.000000 0.000000 0.000000 0.035106
#
#
# Mechanical properties :
#
#
# Convention : Reuss Voigt Hill
#
# Bulk Modulus (GPa) = 62.62358 65.10267 63.86313
# Shear Modulus (GPa) = 27.18391 27.84343 27.51367
#
# Velocity S-wave (km/s) = 3.89399 3.94094 3.91753
# Velocity P-wave (km/s) = 7.42622 7.55130 7.48902
#
# Compressibility (1/GPa) = 0.01596843
#
# Stress axis : x y z
#
# Youngs Moduli (GPa) = 61.50621 73.00748 56.19303
#
# Poissons Ratio (x) = 0.43565 0.28428
# Poissons Ratio (y) = 0.36702 0.27340
# Poissons Ratio (z) = 0.31116 0.35521
#
# Static dielectric constant tensor:
#      x y z
#    x 1.172850 0.000000 0.000000 
#    y 0.000000 3.430240 0.000000 
#    z 0.000000 0.000000 3.438510 
# 
# 
# High freq. dielectric constant tensor:
#      x y z
#    x 1.670160 0.000000 0.000000 
#    y 0.000000 1.711740 0.000000 
#    z 0.000000 0.000000 1.686920 
# 
# From -- ./inp_files/15976.got.cif
#   From: 2010.03.12/outbox.cif.g09.slc.cpg/sg39_8_cif.got.tgz:15976.got - 2010.04.14 02:53:20.
