data_PCOD8180209
_publ_section_title
;
Structure prediction by ZEFSAII (Michael W. Deem and Ramdas Pophale) SiO2 
 PCOD8180209
Probable space group: A M M 2
;
_chemical_formula_sum "Si O2"
_cell_formula_units_Z 56
_cell_length_a 15.635369
_cell_length_b 8.734650
_cell_length_c 20.618005
_cell_angle_alpha 90.000000
_cell_angle_beta 90.000000
_cell_angle_gamma 90.000000
_cell_volume 2815.790136
_symmetry_space_group_name_H-M "A M M 2"
_symmetry_group_IT_number 38
_symmetry_cell_setting 'orthorhombic'
loop_
_space_group_symop_operation_xyz
x,y,z
-x,-y,z
-x,y,z
x,-y,z
x,1/2+y,1/2+z
-x,1/2-y,1/2+z
-x,1/2+y,1/2+z
x,1/2-y,1/2+z
loop_
_atom_site_type_symbol
_atom_site_label
_atom_site_fract_x
_atom_site_fract_y
_atom_site_fract_z
Si Si1 0.908383 0.675626 0.783300
Si Si2 0.730116 0.320519 0.834196
Si Si3 0.405170 0.322152 0.571029
Si Si4 0.731363 0.318598 0.974959
Si Si5 0.904413 0.178422 0.022400
Si Si6 0.309091 0.678282 0.694744
Si Si7 0.863386 0.321358 0.154649
O O1 0.893612 0.500000 0.761758
O O2 0.829910 0.728562 0.828089
O O3 0.913196 0.780404 0.719877
O O4 0.000000 0.694661 0.819857
O O5 0.720073 0.500000 0.838840
O O6 0.699357 0.255179 0.903960
O O7 0.677391 0.264097 0.769915
O O8 0.500000 0.258841 0.554690
O O9 0.398778 0.500000 0.554127
O O10 0.333514 0.239068 0.529187
O O11 0.391143 0.296781 0.648672
O O12 0.730759 0.500000 0.977368
O O13 0.829216 0.267449 0.985172
O O14 0.906029 0.227639 0.097006
O O15 0.000000 0.213331 0.993774
O O16 0.883217 0.000000 0.017450
O O17 0.281699 0.500000 0.696449
O O18 0.235422 0.775939 0.661228
O O19 0.870973 0.500000 0.139201
#
# Coordination Sequence:
#
# PCOD8180209 Si02
#       7
#     8   8   8   8   8   8   8
#     4   9  17  31  51  73 102 145 193 235 278 334
#     4   8  17  33  54  80 109 146 187 229 282 335
#     4  10  21  38  63  90 114 147 191 235 282 343
#     4  11  22  37  58  86 120 152 186 238 294 338
#     4  11  23  37  53  75 109 156 202 239 280 335
#     4   9  17  35  60  81 108 145 186 229 275 335
#     4  11  20  30  49  79 112 143 181 236 292 333
#
# _framework density 19.887844999999999
#
# number of rings (size 3 to 8) (size 9 to 14) (size 15 to 20)
#    0.000    2.143    1.429    3.429    0.000    4.000 
#    0.000    7.857    0.000    2.571    0.000    0.000 
#    0.000    0.000    0.000    0.000    0.000    0.000 
#
# Total GULP energy -346879.603826 kJ/mol
# GULP energy per Si atom -12388.557279 kJ/mol
# Density = 1.984258 g / cm^3
# Si number density = 19.887845 Si / 1000 Ang^3
#
#
#
# Elastic Constant Matrix: (Units=GPa)
#
#
# Indices 1 2 3 4 5 6 
#
# 1 97.9416 31.1658 51.2915 0.0000 0.0000 0.0000
# 2 31.1658 46.6455 27.8012 0.0000 0.0000 0.0000
# 3 51.2915 27.8012 132.3820 0.0000 0.0000 0.0000
# 4 0.0000 0.0000 0.0000 19.8611 0.0000 0.0000
# 5 0.0000 0.0000 0.0000 0.0000 6.2963 0.0000
# 6 0.0000 0.0000 0.0000 0.0000 0.0000 14.7038
#
#
#
# Elastic Compliance Matrix: (Units=1/GPa)
#
#
# Indices 1 2 3 4 5 6 
#
# 1 0.014733 -0.007363 -0.004162 0.000000 0.000000 0.000000
# 2 -0.007363 0.028185 -0.003066 0.000000 0.000000 0.000000
# 3 -0.004162 -0.003066 0.009810 0.000000 0.000000 0.000000
# 4 0.000000 0.000000 0.000000 0.050350 0.000000 0.000000
# 5 0.000000 0.000000 0.000000 0.000000 0.158822 0.000000
# 6 0.000000 0.000000 0.000000 0.000000 0.000000 0.068010
#
#
# Mechanical properties :
#
#
# Convention : Reuss Voigt Hill
#
# Bulk Modulus (GPa) = 42.47010 55.27624 48.87317
# Shear Modulus (GPa) = 13.62617 19.28630 16.45624
#
# Velocity S-wave (km/s) = 2.62038 3.11746 2.87967
# Velocity P-wave (km/s) = 5.52778 6.38846 5.97364
#
# Compressibility (1/GPa) = 0.02354598
#
# Stress axis : x y z
#
# Youngs Moduli (GPa) = 67.87626 35.47944 101.93276
#
# Poissons Ratio (x) = 0.26123 0.42424
# Poissons Ratio (y) = 0.49977 0.31256
# Poissons Ratio (z) = 0.28250 0.10879
#
# Static dielectric constant tensor:
#      x y z
#    x 3.565640 0.000000 0.000000 
#    y 0.000000 3.383390 0.000000 
#    z 0.000000 0.000000 4.008180 
# 
# 
# High freq. dielectric constant tensor:
#      x y z
#    x 1.758610 0.000000 0.000000 
#    y 0.000000 1.754590 0.000000 
#    z 0.000000 0.000000 1.776740 
# 
# From -- ./inp_files/21057.got.cif
#   From: 2010.03.12/outbox.cif.g09.slc.cpg/sg38_11_cif.got.tgz:21057.got - 2010.04.14 02:38:36.
