data_PCOD8180994
_publ_section_title
;
Structure prediction by ZEFSAII (Michael W. Deem and Ramdas Pophale) SiO2 
 PCOD8180994
Probable space group: A B M 2
;
_chemical_formula_sum "Si O2"
_cell_formula_units_Z 64
_cell_length_a 20.992633
_cell_length_b 33.550093
_cell_length_c 5.103012
_cell_angle_alpha 90.000000
_cell_angle_beta 90.000000
_cell_angle_gamma 90.000000
_cell_volume 3594.075792
_symmetry_space_group_name_H-M "A B M 2"
_symmetry_group_IT_number 39
_symmetry_cell_setting 'orthorhombic'
loop_
_space_group_symop_operation_xyz
x,y,z
-x,-y,z
-x,1/2+y,z
x,1/2-y,z
x,1/2+y,1/2+z
-x,1/2-y,1/2+z
-x,y,1/2+z
x,-y,1/2+z
loop_
_atom_site_type_symbol
_atom_site_label
_atom_site_fract_x
_atom_site_fract_y
_atom_site_fract_z
Si Si1 0.256299 0.025096 0.689330
Si Si2 0.540945 0.704254 0.260693
Si Si3 0.289863 0.387058 0.760681
Si Si4 0.107516 0.474993 0.684738
Si Si5 0.958960 0.108520 0.191408
Si Si6 0.794573 0.203673 0.769141
Si Si7 0.331655 0.156804 0.265185
Si Si8 0.836444 0.660063 0.765003
O O1 0.295538 0.065582 0.728010
O O2 0.181808 0.035267 0.703816
O O3 0.275446 0.006376 0.412131
O O4 0.563611 0.750000 0.239490
O O5 0.512526 0.694947 0.545180
O O6 0.600520 0.676053 0.209036
O O7 0.332835 0.365489 0.542954
O O8 0.216422 0.374188 0.727027
O O9 0.316352 0.375731 0.044418
O O10 0.088608 0.492760 0.403903
O O11 0.068703 0.435238 0.734517
O O12 0.905569 0.141522 0.234995
O O13 0.015258 0.114710 0.399082
O O14 0.800414 0.250000 0.709241
O O15 0.720385 0.191897 0.763630
O O16 0.832943 0.179343 0.550757
O O17 0.825640 0.194238 0.049259
#
# Coordination Sequence:
#
# PCOD8180994 Si02
#       8
#     8   8   8   8   8   8   8   8
#     4  10  19  32  52  75 106 140 168 206 266 325
#     4  10  20  34  52  77 117 158 182 205 245 303
#     4  10  19  34  53  77 107 138 173 222 264 301
#     4  10  21  35  52  74 102 135 170 208 250 311
#     4  12  24  37  55  73 100 136 174 214 253 319
#     4  10  20  35  59  80 101 130 166 220 264 308
#     4  10  20  32  54  82 111 139 179 217 247 302
#     4  10  21  37  53  76 103 129 169 211 271 319
#
# _framework density 17.807079999999999
#
# number of rings (size 3 to 8) (size 9 to 14) (size 15 to 20)
#    0.000    1.750    1.250    3.750    0.000    1.500 
#    0.000    3.750    0.000    7.500    0.000    0.000 
#    0.000   35.000    0.000    0.000    0.000    0.000 
#
# Total GULP energy -396978.080884 kJ/mol
# GULP energy per Si atom -12405.565028 kJ/mol
# Density = 1.776655 g / cm^3
# Si number density = 17.807080 Si / 1000 Ang^3
#
#
#
# Elastic Constant Matrix: (Units=GPa)
#
#
# Indices 1 2 3 4 5 6 
#
# 1 59.9551 33.5881 3.5824 0.0000 0.0000 0.0000
# 2 33.5881 81.1762 0.8997 0.0000 0.0000 0.0000
# 3 3.5824 0.8997 73.2889 0.0000 0.0000 0.0000
# 4 0.0000 0.0000 0.0000 13.2207 0.0000 0.0000
# 5 0.0000 0.0000 0.0000 0.0000 14.6235 0.0000
# 6 0.0000 0.0000 0.0000 0.0000 0.0000 23.8001
#
#
#
# Elastic Compliance Matrix: (Units=1/GPa)
#
#
# Indices 1 2 3 4 5 6 
#
# 1 0.021779 -0.009001 -0.000954 0.000000 0.000000 0.000000
# 2 -0.009001 0.016040 0.000243 0.000000 0.000000 0.000000
# 3 -0.000954 0.000243 0.013688 0.000000 0.000000 0.000000
# 4 0.000000 0.000000 0.000000 0.075639 0.000000 0.000000
# 5 0.000000 0.000000 0.000000 0.000000 0.068383 0.000000
# 6 0.000000 0.000000 0.000000 0.000000 0.000000 0.042017
#
#
# Mechanical properties :
#
#
# Convention : Reuss Voigt Hill
#
# Bulk Modulus (GPa) = 31.16837 32.28451 31.72644
# Shear Modulus (GPa) = 18.68015 22.08552 20.38283
#
# Velocity S-wave (km/s) = 3.24239 3.52556 3.38693
# Velocity P-wave (km/s) = 5.61772 5.89426 5.75765
#
# Compressibility (1/GPa) = 0.03208381
#
# Stress axis : x y z
#
# Youngs Moduli (GPa) = 45.91683 62.34267 73.05514
#
# Poissons Ratio (x) = 0.56113 0.06970
# Poissons Ratio (y) = 0.41328 -0.01776
# Poissons Ratio (z) = 0.04381 -0.01515
#
# Static dielectric constant tensor:
#      x y z
#    x 3.018180 0.000000 0.000000 
#    y 0.000000 3.143370 0.000000 
#    z 0.000000 0.000000 3.505720 
# 
# 
# High freq. dielectric constant tensor:
#      x y z
#    x 1.660680 0.000000 0.000000 
#    y 0.000000 1.684870 0.000000 
#    z 0.000000 0.000000 1.711040 
# 
# From -- ./inp_files/905.got.cif
#   From: 2010.03.12/outbox.cif.g09.slc.cpg/sg39_1_cif.got.tgz:905.got - 2010.04.14 02:53:20.
