data_PCOD8180089
_publ_section_title
;
Structure prediction by ZEFSAII (Michael W. Deem and Ramdas Pophale) SiO2 
 PCOD8180089
Probable space group: A M M 2
;
_chemical_formula_sum "Si O2"
_cell_formula_units_Z 56
_cell_length_a 14.286711
_cell_length_b 8.903985
_cell_length_c 21.021868
_cell_angle_alpha 90.000000
_cell_angle_beta 90.000000
_cell_angle_gamma 90.000000
_cell_volume 2674.163668
_symmetry_space_group_name_H-M "A M M 2"
_symmetry_group_IT_number 38
_symmetry_cell_setting 'orthorhombic'
loop_
_space_group_symop_operation_xyz
x,y,z
-x,-y,z
-x,y,z
x,-y,z
x,1/2+y,1/2+z
-x,1/2-y,1/2+z
-x,1/2+y,1/2+z
x,1/2-y,1/2+z
loop_
_atom_site_type_symbol
_atom_site_label
_atom_site_fract_x
_atom_site_fract_y
_atom_site_fract_z
Si Si1 0.782665 0.177280 0.089760
Si Si2 0.607703 0.824474 0.541691
Si Si3 0.210745 0.677148 0.217373
Si Si4 0.610534 0.665857 0.416029
Si Si5 0.602643 0.322288 0.277501
Si Si6 0.890495 0.826649 0.844612
Si Si7 0.110155 0.825538 0.473561
O O1 0.675092 0.234730 0.089179
O O2 0.828202 0.237041 0.155509
O O3 0.786354 0.000000 0.088290
O O4 0.840311 0.240435 0.030828
O O5 0.500000 0.777171 0.554341
O O6 0.640965 0.782850 0.470261
O O7 0.621939 0.000000 0.552754
O O8 0.196343 0.500000 0.207448
O O9 0.320535 0.721803 0.225254
O O10 0.156153 0.733682 0.279854
O O11 0.500000 0.649784 0.414561
O O12 0.654210 0.500000 0.430232
O O13 0.641096 0.729821 0.347020
O O14 0.500000 0.252548 0.260620
O O15 0.592427 0.500000 0.281623
O O16 0.852010 0.737238 0.906058
O O17 0.000000 0.800340 0.836723
O O18 0.864591 0.000000 0.855288
O O19 0.000000 0.794990 0.479289
O O20 0.135029 0.000000 0.478141
#
# Coordination Sequence:
#
# PCOD8180089 Si02
#       7
#     8   8   8   8   8   8   8
#     4  12  26  41  59  86 123 165 209 253 303 361
#     4  10  21  37  57  83 117 158 204 254 306 358
#     4  10  21  37  57  84 119 159 204 245 293 354
#     4   8  14  27  49  78 109 143 188 239 291 348
#     4   8  15  29  51  79 111 149 194 241 289 345
#     4   9  19  37  62  92 123 155 193 238 292 359
#     4  10  22  42  68  95 122 154 196 249 307 365
#
# _framework density 20.941126000000001
#
# number of rings (size 3 to 8) (size 9 to 14) (size 15 to 20)
#    0.000    2.429    0.000    3.000    2.000    3.429 
#    0.000    3.571    0.000    0.857    0.000    0.000 
#    0.000    0.000    0.000    0.000    0.000    0.000 
#
# Total GULP energy -347119.561931 kJ/mol
# GULP energy per Si atom -12397.127212 kJ/mol
# Density = 2.089346 g / cm^3
# Si number density = 20.941126 Si / 1000 Ang^3
#
#
#
# Elastic Constant Matrix: (Units=GPa)
#
#
# Indices 1 2 3 4 5 6 
#
# 1 47.2797 39.3640 51.6674 0.0000 0.0000 0.0000
# 2 39.3640 105.6303 69.9656 0.0000 0.0000 0.0000
# 3 51.6674 69.9656 165.6989 0.0000 0.0000 0.0000
# 4 0.0000 0.0000 0.0000 34.9160 0.0000 0.0000
# 5 0.0000 0.0000 0.0000 0.0000 25.0980 0.0000
# 6 0.0000 0.0000 0.0000 0.0000 0.0000 22.8398
#
#
#
# Elastic Compliance Matrix: (Units=1/GPa)
#
#
# Indices 1 2 3 4 5 6 
#
# 1 0.036870 -0.008503 -0.007906 0.000000 0.000000 0.000000
# 2 -0.008503 0.015104 -0.003726 0.000000 0.000000 0.000000
# 3 -0.007906 -0.003726 0.010074 0.000000 0.000000 0.000000
# 4 0.000000 0.000000 0.000000 0.028640 0.000000 0.000000
# 5 0.000000 0.000000 0.000000 0.000000 0.039844 0.000000
# 6 0.000000 0.000000 0.000000 0.000000 0.000000 0.043783
#
#
# Mechanical properties :
#
#
# Convention : Reuss Voigt Hill
#
# Bulk Modulus (GPa) = 45.92077 71.17810 58.54943
# Shear Modulus (GPa) = 22.53827 27.07822 24.80824
#
# Velocity S-wave (km/s) = 3.28421 3.59982 3.44563
# Velocity P-wave (km/s) = 6.02972 7.16531 6.62190
#
# Compressibility (1/GPa) = 0.02177664
#
# Stress axis : x y z
#
# Youngs Moduli (GPa) = 27.12210 66.20854 99.26880
#
# Poissons Ratio (x) = 0.56298 0.78485
# Poissons Ratio (y) = 0.23062 0.36988
# Poissons Ratio (z) = 0.21443 0.24670
#
# Static dielectric constant tensor:
#      x y z
#    x 3.930800 0.000000 0.000000 
#    y 0.000000 3.548300 0.000000 
#    z 0.000000 0.000000 4.045860 
# 
# 
# High freq. dielectric constant tensor:
#      x y z
#    x 1.820710 0.000000 0.000000 
#    y 0.000000 1.789350 0.000000 
#    z 0.000000 0.000000 1.826630 
# 
# From -- ./inp_files/21050.got.cif
#   From: 2010.03.12/outbox.cif.g09.slc.cpg/sg38_11_cif.got.tgz:21050.got - 2010.04.14 02:38:36.
