data_PCOD8180091
_publ_section_title
;
Structure prediction by ZEFSAII (Michael W. Deem and Ramdas Pophale) SiO2 
 PCOD8180091
Probable space group: A M M 2
;
_chemical_formula_sum "Si O2"
_cell_formula_units_Z 64
_cell_length_a 14.018128
_cell_length_b 8.889122
_cell_length_c 25.524602
_cell_angle_alpha 90.000000
_cell_angle_beta 90.000000
_cell_angle_gamma 90.000000
_cell_volume 3180.591302
_symmetry_space_group_name_H-M "A M M 2"
_symmetry_group_IT_number 38
_symmetry_cell_setting 'orthorhombic'
loop_
_space_group_symop_operation_xyz
x,y,z
-x,-y,z
-x,y,z
x,-y,z
x,1/2+y,1/2+z
-x,1/2-y,1/2+z
-x,1/2+y,1/2+z
x,1/2-y,1/2+z
loop_
_atom_site_type_symbol
_atom_site_label
_atom_site_fract_x
_atom_site_fract_y
_atom_site_fract_z
Si Si1 0.108254 0.822632 0.634780
Si Si2 0.388053 0.827822 0.797451
Si Si3 0.389481 0.175970 0.984943
Si Si4 0.612296 0.329255 0.178716
Si Si5 0.113181 0.669396 0.740829
Si Si6 0.277615 0.675642 0.588328
Si Si7 0.717446 0.823762 0.389798
Si Si8 0.108593 0.822198 0.847559
O O1 0.149541 0.753200 0.688748
O O2 0.175992 0.762075 0.588431
O O3 0.000000 0.770374 0.623236
O O4 0.114545 0.000000 0.639397
O O5 0.500000 0.803993 0.805110
O O6 0.357622 0.788760 0.738072
O O7 0.333580 0.715307 0.835420
O O8 0.360686 0.000000 0.811146
O O9 0.500000 0.218048 0.991541
O O10 0.347009 0.267567 0.937059
O O11 0.376062 0.000000 0.973766
O O12 0.335728 0.227284 0.037421
O O13 0.500000 0.311771 0.172321
O O14 0.643687 0.500000 0.165372
O O15 0.662111 0.214489 0.139700
O O16 0.154412 0.500000 0.742744
O O17 0.146618 0.760695 0.791828
O O18 0.000000 0.667218 0.739393
O O19 0.256474 0.500000 0.587431
O O20 0.822101 0.745796 0.391999
O O21 0.732273 0.000000 0.394450
O O22 0.000000 0.770338 0.859070
O O23 0.116466 0.000000 0.846906
#
# Coordination Sequence:
#
# PCOD8180091 Si02
#       8
#     8   8   8   8   8   8   8   8
#     4  10  21  37  57  83 119 163 206 245 292 354
#     4   9  19  37  59  83 116 158 198 238 291 358
#     4  10  23  45  68  88 115 155 202 250 301 361
#     4   9  19  36  58  85 118 156 195 237 292 359
#     4   9  17  31  53  82 117 155 196 245 295 341
#     4  11  23  38  61  90 119 153 198 251 306 356
#     4  12  25  38  59  90 121 154 197 250 306 356
#     4  10  21  38  60  85 117 160 205 245 292 355
#
# _framework density 20.122046000000001
#
# number of rings (size 3 to 8) (size 9 to 14) (size 15 to 20)
#    0.000    2.000    0.000    4.125    1.750    7.250 
#    0.000    1.875    0.000    0.750    0.000    0.000 
#    0.000    0.000    0.000    0.000    0.000    0.000 
#
# Total GULP energy -396888.156609 kJ/mol
# GULP energy per Si atom -12402.754894 kJ/mol
# Density = 2.007625 g / cm^3
# Si number density = 20.122046 Si / 1000 Ang^3
#
#
#
# Elastic Constant Matrix: (Units=GPa)
#
#
# Indices 1 2 3 4 5 6 
#
# 1 97.8667 43.4402 59.9323 0.0000 0.0000 0.0000
# 2 43.4402 93.3180 44.2457 0.0000 0.0000 0.0000
# 3 59.9323 44.2457 92.3647 0.0000 0.0000 0.0000
# 4 0.0000 0.0000 0.0000 32.8542 0.0000 0.0000
# 5 0.0000 0.0000 0.0000 0.0000 37.2307 0.0000
# 6 0.0000 0.0000 0.0000 0.0000 0.0000 32.3385
#
#
#
# Elastic Compliance Matrix: (Units=1/GPa)
#
#
# Indices 1 2 3 4 5 6 
#
# 1 0.017867 -0.003649 -0.009845 0.000000 0.000000 0.000000
# 2 -0.003649 0.014611 -0.004631 0.000000 0.000000 0.000000
# 3 -0.009845 -0.004631 0.019433 0.000000 0.000000 0.000000
# 4 0.000000 0.000000 0.000000 0.030438 0.000000 0.000000
# 5 0.000000 0.000000 0.000000 0.000000 0.026860 0.000000
# 6 0.000000 0.000000 0.000000 0.000000 0.000000 0.030923
#
#
# Mechanical properties :
#
#
# Convention : Reuss Voigt Hill
#
# Bulk Modulus (GPa) = 63.85756 64.30952 64.08354
# Shear Modulus (GPa) = 27.53288 29.54675 28.53982
#
# Velocity S-wave (km/s) = 3.70306 3.83610 3.77017
# Velocity P-wave (km/s) = 7.07726 7.18679 7.13223
#
# Compressibility (1/GPa) = 0.01565985
#
# Stress axis : x y z
#
# Youngs Moduli (GPa) = 55.97006 68.44365 51.45834
#
# Poissons Ratio (x) = 0.24976 0.50661
# Poissons Ratio (y) = 0.20424 0.23831
# Poissons Ratio (z) = 0.55103 0.31697
#
# Static dielectric constant tensor:
#      x y z
#    x 3.848530 0.000000 0.000000 
#    y 0.000000 3.594090 0.000000 
#    z 0.000000 0.000000 3.596080 
# 
# 
# High freq. dielectric constant tensor:
#      x y z
#    x 1.800920 0.000000 0.000000 
#    y 0.000000 1.784700 0.000000 
#    z 0.000000 0.000000 1.767030 
# 
# From -- ./inp_files/22920.got.cif
#   From: 2010.03.12/outbox.cif.g09.slc.cpg/sg38_12_cif.got.tgz:22920.got - 2010.04.14 02:38:36.
