data_PCOD8180311
_publ_section_title
;
Structure prediction by ZEFSAII (Michael W. Deem and Ramdas Pophale) SiO2 
 PCOD8180311
Probable space group: A M M 2
;
_chemical_formula_sum "Si O2"
_cell_formula_units_Z 56
_cell_length_a 20.180574
_cell_length_b 14.089491
_cell_length_c 9.637355
_cell_angle_alpha 90.000000
_cell_angle_beta 90.000000
_cell_angle_gamma 90.000000
_cell_volume 2740.227848
_symmetry_space_group_name_H-M "A M M 2"
_symmetry_group_IT_number 38
_symmetry_cell_setting 'orthorhombic'
loop_
_space_group_symop_operation_xyz
x,y,z
-x,-y,z
-x,y,z
x,-y,z
x,1/2+y,1/2+z
-x,1/2-y,1/2+z
-x,1/2+y,1/2+z
x,1/2-y,1/2+z
loop_
_atom_site_type_symbol
_atom_site_label
_atom_site_fract_x
_atom_site_fract_y
_atom_site_fract_z
Si Si1 0.891442 0.251743 0.826660
Si Si2 0.691365 0.887851 0.694439
Si Si3 0.000000 0.388465 0.431324
Si Si4 0.305326 0.887865 0.013845
Si Si5 0.800020 0.740985 0.076318
Si Si6 0.573483 0.112693 0.197542
Si Si7 0.426567 0.887161 0.507719
Si Si8 0.000000 0.609110 0.759150
O O1 0.933827 0.158424 0.867102
O O2 0.864796 0.241282 0.671386
O O3 0.936216 0.345253 0.831586
O O4 0.827186 0.268175 0.920933
O O5 0.689875 0.855830 0.854101
O O6 0.755193 0.848735 0.614867
O O7 0.625674 0.846565 0.619146
O O8 0.694874 0.000000 0.682268
O O9 0.000000 0.500000 0.394632
O O10 0.000000 0.371417 0.595393
O O11 0.294972 0.000000 0.030396
O O12 0.242890 0.837602 0.087163
O O13 0.372274 0.850616 0.087959
O O14 0.500000 0.149551 0.154717
O O15 0.591798 0.148360 0.352611
O O16 0.573103 0.000000 0.196228
O O17 0.500000 0.851112 0.549368
O O18 0.425125 0.000000 0.510653
O O19 0.000000 0.500000 0.797505
#
# Coordination Sequence:
#
# PCOD8180311 Si02
#       8
#     8   8   4   8   8   8   8   4
#     4  11  24  42  65  94 126 160 194 240 291 347
#     4  10  22  38  57  85 119 158 205 252 301 358
#     4  10  22  43  72  97 122 159 197 236 288 348
#     4  10  22  38  58  85 117 159 207 250 299 361
#     4  12  24  41  60  89 129 163 195 240 298 351
#     4   8  15  30  53  81 113 151 199 255 309 358
#     4   8  15  30  53  81 114 152 197 254 312 357
#     4  10  22  43  70  99 124 153 199 242 282 344
#
# _framework density 20.436257000000001
#
# number of rings (size 3 to 8) (size 9 to 14) (size 15 to 20)
#    0.000    2.143    2.857    0.857    2.000    2.857 
#    0.000    4.286    0.000    0.000    0.000    0.000 
#    0.000    0.000    0.000    0.000    0.000    0.000 
#
# Total GULP energy -347195.220726 kJ/mol
# GULP energy per Si atom -12399.829312 kJ/mol
# Density = 2.038974 g / cm^3
# Si number density = 20.436257 Si / 1000 Ang^3
#
#
#
# Elastic Constant Matrix: (Units=GPa)
#
#
# Indices 1 2 3 4 5 6 
#
# 1 135.6693 44.0909 47.4818 0.0000 0.0000 0.0000
# 2 44.0909 75.8491 35.3492 0.0000 0.0000 0.0000
# 3 47.4818 35.3492 79.8972 0.0000 0.0000 0.0000
# 4 0.0000 0.0000 0.0000 22.7616 0.0000 0.0000
# 5 0.0000 0.0000 0.0000 0.0000 51.6497 0.0000
# 6 0.0000 0.0000 0.0000 0.0000 0.0000 -13.9046
#
#
#
# Elastic Compliance Matrix: (Units=1/GPa)
#
#
# Indices 1 2 3 4 5 6 
#
# 1 0.010142 -0.003888 -0.004307 0.000000 0.000000 0.000000
# 2 -0.003888 0.018099 -0.005697 0.000000 0.000000 0.000000
# 3 -0.004307 -0.005697 0.017596 0.000000 0.000000 0.000000
# 4 0.000000 0.000000 0.000000 0.043934 0.000000 0.000000
# 5 0.000000 0.000000 0.000000 0.000000 0.019361 0.000000
# 6 0.000000 0.000000 0.000000 0.000000 0.000000 -0.071919
#
#
# Mechanical properties :
#
#
# Convention : Reuss Voigt Hill
#
# Bulk Modulus (GPa) = 55.39224 60.58439 57.98832
# Shear Modulus (GPa) = 70.40734 23.06759 46.73746
#
# Velocity S-wave (km/s) = 5.87596 3.36334 4.78743
# Velocity P-wave (km/s) = 8.55568 6.69273 7.68090
#
# Compressibility (1/GPa) = 0.01805307
#
# Stress axis : x y z
#
# Youngs Moduli (GPa) = 98.60178 55.25055 56.83057
#
# Poissons Ratio (x) = 0.21483 0.24476
# Poissons Ratio (y) = 0.38338 0.32377
# Poissons Ratio (z) = 0.42466 0.31477
#
# Static dielectric constant tensor:
#      x y z
#    x 3.916910 0.000000 0.000000 
#    y 0.000000 3.409890 0.000000 
#    z 0.000000 0.000000 3.846810 
# 
# 
# High freq. dielectric constant tensor:
#      x y z
#    x 1.807950 0.000000 0.000000 
#    y 0.000000 1.786610 0.000000 
#    z 0.000000 0.000000 1.801870 
# 
# From -- ./inp_files/6757.got.cif
#   From: 2010.03.12/outbox.cif.g09.slc.cpg/sg38_4_cif.got.tgz:6757.got - 2010.04.14 02:38:36.
