data_PCOD8180970
_publ_section_title
;
Structure prediction by ZEFSAII (Michael W. Deem and Ramdas Pophale) SiO2 
 PCOD8180970
Probable space group: A B M 2
;
_chemical_formula_sum "Si O2"
_cell_formula_units_Z 56
_cell_length_a 15.449976
_cell_length_b 8.875485
_cell_length_c 20.268363
_cell_angle_alpha 90.000000
_cell_angle_beta 90.000000
_cell_angle_gamma 90.000000
_cell_volume 2779.320158
_symmetry_space_group_name_H-M "A B M 2"
_symmetry_group_IT_number 39
_symmetry_cell_setting 'orthorhombic'
loop_
_space_group_symop_operation_xyz
x,y,z
-x,-y,z
-x,1/2+y,z
x,1/2-y,z
x,1/2+y,1/2+z
-x,1/2-y,1/2+z
-x,y,1/2+z
x,-y,1/2+z
loop_
_atom_site_type_symbol
_atom_site_label
_atom_site_fract_x
_atom_site_fract_y
_atom_site_fract_z
Si Si1 0.913705 0.923281 0.790330
Si Si2 0.589274 0.427944 0.018114
Si Si3 0.736611 0.429348 0.754451
Si Si4 0.265567 0.071546 0.621311
Si Si5 0.912006 0.925369 0.076915
Si Si6 0.312679 0.073228 0.394963
Si Si7 0.855992 0.918486 0.933431
O O1 0.906948 0.750000 0.766825
O O2 0.916685 0.934947 0.869672
O O3 0.835347 0.018392 0.760740
O O4 0.000000 0.000000 0.761946
O O5 0.500000 0.500000 0.042096
O O6 0.579338 0.250000 0.021850
O O7 0.667209 0.481525 0.065349
O O8 0.610282 0.483890 0.942981
O O9 0.732547 0.250000 0.747295
O O10 0.696032 0.508794 0.690379
O O11 0.683525 0.488171 0.819549
O O12 0.256826 0.250000 0.624127
O O13 0.171410 0.001302 0.609672
O O14 0.911532 0.750000 0.095318
O O15 0.911324 0.953638 0.998320
O O16 0.000000 0.000000 0.104812
O O17 0.316371 0.250000 0.391281
O O18 0.222843 0.033633 0.429915
O O19 0.816629 0.750000 0.936704
#
# Coordination Sequence:
#
# PCOD8180970 Si02
#       7
#     8   8   8   8   8   8   8
#     4  10  19  32  50  77 112 151 198 246 293 345
#     4  10  22  40  65  94 120 152 192 239 296 354
#     4  10  21  37  59  83 113 154 195 238 293 351
#     4  11  23  41  61  85 121 159 198 246 296 349
#     4  11  22  35  54  83 118 159 204 247 296 348
#     4   9  18  36  60  86 115 148 187 235 290 345
#     4   9  18  31  51  80 113 149 191 241 292 344
#
# _framework density 20.148814000000002
#
# number of rings (size 3 to 8) (size 9 to 14) (size 15 to 20)
#    0.000    2.000    1.429    2.143    0.000    4.000 
#    0.000    3.571    0.000    3.429    0.000    0.000 
#    0.000    0.000    0.000    0.000    0.000    0.000 
#
# Total GULP energy -347127.695716 kJ/mol
# GULP energy per Si atom -12397.417704 kJ/mol
# Density = 2.010295 g / cm^3
# Si number density = 20.148814 Si / 1000 Ang^3
#
#
#
# Elastic Constant Matrix: (Units=GPa)
#
#
# Indices 1 2 3 4 5 6 
#
# 1 101.4335 32.6400 49.4056 0.0000 0.0000 0.0000
# 2 32.6400 58.4744 45.1651 0.0000 0.0000 0.0000
# 3 49.4056 45.1651 118.4948 0.0000 0.0000 0.0000
# 4 0.0000 0.0000 0.0000 30.2651 0.0000 0.0000
# 5 0.0000 0.0000 0.0000 0.0000 10.4382 0.0000
# 6 0.0000 0.0000 0.0000 0.0000 0.0000 30.6134
#
#
#
# Elastic Compliance Matrix: (Units=1/GPa)
#
#
# Indices 1 2 3 4 5 6 
#
# 1 0.013121 -0.004391 -0.003797 0.000000 0.000000 0.000000
# 2 -0.004391 0.025707 -0.007967 0.000000 0.000000 0.000000
# 3 -0.003797 -0.007967 0.013059 0.000000 0.000000 0.000000
# 4 0.000000 0.000000 0.000000 0.033041 0.000000 0.000000
# 5 0.000000 0.000000 0.000000 0.000000 0.095802 0.000000
# 6 0.000000 0.000000 0.000000 0.000000 0.000000 0.032665
#
#
# Mechanical properties :
#
#
# Convention : Reuss Voigt Hill
#
# Bulk Modulus (GPa) = 51.08410 59.20270 55.14340
# Shear Modulus (GPa) = 19.82300 24.34279 22.08289
#
# Velocity S-wave (km/s) = 3.14001 3.47962 3.31417
# Velocity P-wave (km/s) = 6.20924 6.75205 6.48632
#
# Compressibility (1/GPa) = 0.01957556
#
# Stress axis : x y z
#
# Youngs Moduli (GPa) = 76.21267 38.90043 76.57492
#
# Poissons Ratio (x) = 0.17083 0.29075
# Poissons Ratio (y) = 0.33468 0.61010
# Poissons Ratio (z) = 0.28938 0.30993
#
# Static dielectric constant tensor:
#      x y z
#    x 3.379540 0.000000 0.000000 
#    y 0.000000 3.615730 0.000000 
#    z 0.000000 0.000000 4.147430 
# 
# 
# High freq. dielectric constant tensor:
#      x y z
#    x 1.755760 0.000000 0.000000 
#    y 0.000000 1.787090 0.000000 
#    z 0.000000 0.000000 1.800300 
# 
# From -- ./inp_files/14732.got.cif
#   From: 2010.03.12/outbox.cif.g09.slc.cpg/sg39_8_cif.got.tgz:14732.got - 2010.04.14 02:53:20.
