data_PCOD8180945
_publ_section_title
;
Structure prediction by ZEFSAII (Michael W. Deem and Ramdas Pophale) SiO2 
 PCOD8180945
Probable space group: A B M 2
;
_chemical_formula_sum "Si O2"
_cell_formula_units_Z 64
_cell_length_a 14.631316
_cell_length_b 8.814389
_cell_length_c 24.875240
_cell_angle_alpha 90.000000
_cell_angle_beta 90.000000
_cell_angle_gamma 90.000000
_cell_volume 3208.062958
_symmetry_space_group_name_H-M "A B M 2"
_symmetry_group_IT_number 39
_symmetry_cell_setting 'orthorhombic'
loop_
_space_group_symop_operation_xyz
x,y,z
-x,-y,z
-x,1/2+y,z
x,1/2-y,z
x,1/2+y,1/2+z
-x,1/2-y,1/2+z
-x,y,1/2+z
x,-y,1/2+z
loop_
_atom_site_type_symbol
_atom_site_label
_atom_site_fract_x
_atom_site_fract_y
_atom_site_fract_z
Si Si1 0.862483 0.573910 0.992440
Si Si2 0.905693 0.429955 0.371254
Si Si3 0.588019 0.080386 0.915146
Si Si4 0.712075 0.074048 0.135790
Si Si5 0.272499 0.070657 0.329111
Si Si6 0.601510 0.568296 0.737505
Si Si7 0.909394 0.071008 0.101099
Si Si8 0.682691 0.923188 0.518360
O O1 0.883555 0.750000 0.002476
O O2 0.894735 0.520893 0.933527
O O3 0.911881 0.474988 0.038232
O O4 0.754974 0.543925 0.996833
O O5 0.904642 0.250000 0.364756
O O6 0.828048 0.499529 0.332548
O O7 0.000000 0.500000 0.349771
O O8 0.568974 0.250000 0.898420
O O9 0.680908 0.029083 0.886184
O O10 0.500000 0.000000 0.891371
O O11 0.595364 0.057815 0.979619
O O12 0.722559 0.250000 0.147955
O O13 0.651697 0.003844 0.183597
O O14 0.816155 0.008351 0.129645
O O15 0.657067 0.042867 0.080209
O O16 0.265884 0.250000 0.317759
O O17 0.334218 0.989575 0.284840
O O18 0.500000 0.500000 0.741554
O O19 0.593973 0.750000 0.738490
O O20 0.914419 0.250000 0.105877
O O21 0.000000 0.000000 0.129131
O O22 0.721823 0.750000 0.513958
#
# Coordination Sequence:
#
# PCOD8180945 Si02
#       8
#     8   8   8   8   8   8   8   8
#     4  10  19  31  51  82 117 157 198 236 281 337
#     4  11  23  37  57  86 120 158 197 241 290 349
#     4  10  21  34  54  82 114 150 188 232 288 349
#     4   8  18  36  59  82 112 151 193 237 291 347
#     4  11  23  41  62  86 115 153 197 245 296 349
#     4  11  23  42  65  89 114 149 197 249 300 354
#     4  10  19  33  54  82 117 157 197 238 284 342
#     4   9  17  34  55  79 114 157 192 234 290 343
#
# _framework density 19.949733999999999
#
# number of rings (size 3 to 8) (size 9 to 14) (size 15 to 20)
#    0.000    2.000    1.250    3.375    0.000    5.500 
#    0.000    6.875    0.000    1.500    0.000    0.000 
#    0.000    0.000    0.000    0.000    0.000    0.000 
#
# Total GULP energy -396592.006493 kJ/mol
# GULP energy per Si atom -12393.500203 kJ/mol
# Density = 1.990433 g / cm^3
# Si number density = 19.949734 Si / 1000 Ang^3
#
#
#
# Elastic Constant Matrix: (Units=GPa)
#
#
# Indices 1 2 3 4 5 6 
#
# 1 149.4336 49.7546 62.6255 0.0000 0.0000 0.0000
# 2 49.7546 71.4113 40.2071 0.0000 0.0000 0.0000
# 3 62.6255 40.2071 102.8141 0.0000 0.0000 0.0000
# 4 0.0000 0.0000 0.0000 21.7194 0.0000 0.0000
# 5 0.0000 0.0000 0.0000 0.0000 29.0156 0.0000
# 6 0.0000 0.0000 0.0000 0.0000 0.0000 35.4437
#
#
#
# Elastic Compliance Matrix: (Units=1/GPa)
#
#
# Indices 1 2 3 4 5 6 
#
# 1 0.010017 -0.004545 -0.004325 0.000000 0.000000 0.000000
# 2 -0.004545 0.020019 -0.005061 0.000000 0.000000 0.000000
# 3 -0.004325 -0.005061 0.014339 0.000000 0.000000 0.000000
# 4 0.000000 0.000000 0.000000 0.046042 0.000000 0.000000
# 5 0.000000 0.000000 0.000000 0.000000 0.034464 0.000000
# 6 0.000000 0.000000 0.000000 0.000000 0.000000 0.028214
#
#
# Mechanical properties :
#
#
# Convention : Reuss Voigt Hill
#
# Bulk Modulus (GPa) = 60.54549 69.87035 65.20792
# Shear Modulus (GPa) = 26.81532 28.64053 27.72792
#
# Velocity S-wave (km/s) = 3.67023 3.79309 3.73217
# Velocity P-wave (km/s) = 6.95527 7.36767 7.16444
#
# Compressibility (1/GPa) = 0.01651651
#
# Stress axis : x y z
#
# Youngs Moduli (GPa) = 99.82607 49.95241 69.73783
#
# Poissons Ratio (x) = 0.22701 0.30158
# Poissons Ratio (y) = 0.45367 0.35291
# Poissons Ratio (z) = 0.43170 0.25279
#
# Static dielectric constant tensor:
#      x y z
#    x 3.693870 0.000000 0.000000 
#    y 0.000000 3.521650 0.000000 
#    z 0.000000 0.000000 3.646660 
# 
# 
# High freq. dielectric constant tensor:
#      x y z
#    x 1.782600 0.000000 0.000000 
#    y 0.000000 1.769340 0.000000 
#    z 0.000000 0.000000 1.763200 
# 
# From -- ./inp_files/16207.got.cif
#   From: 2010.03.12/outbox.cif.g09.slc.cpg/sg39_9_cif.got.tgz:16207.got - 2010.04.14 02:53:20.
