data_PCOD8180172
_publ_section_title
;
Structure prediction by ZEFSAII (Michael W. Deem and Ramdas Pophale) SiO2 
 PCOD8180172
Probable space group: A M M 2
;
_chemical_formula_sum "Si O2"
_cell_formula_units_Z 64
_cell_length_a 8.864166
_cell_length_b 24.711456
_cell_length_c 15.106507
_cell_angle_alpha 90.000000
_cell_angle_beta 90.000000
_cell_angle_gamma 90.000000
_cell_volume 3309.026701
_symmetry_space_group_name_H-M "A M M 2"
_symmetry_group_IT_number 38
_symmetry_cell_setting 'orthorhombic'
loop_
_space_group_symop_operation_xyz
x,y,z
-x,-y,z
-x,y,z
x,-y,z
x,1/2+y,1/2+z
-x,1/2-y,1/2+z
-x,1/2+y,1/2+z
x,1/2-y,1/2+z
loop_
_atom_site_type_symbol
_atom_site_label
_atom_site_fract_x
_atom_site_fract_y
_atom_site_fract_z
Si Si1 0.322755 0.863388 0.389430
Si Si2 0.830053 0.714935 0.591464
Si Si3 0.822727 0.437206 0.745020
Si Si4 0.177858 0.337517 0.064804
Si Si5 0.174406 0.561527 0.400357
Si Si6 0.323282 0.608012 0.568499
Si Si7 0.178942 0.351407 0.260678
Si Si8 0.172168 0.233018 0.296618
O O1 0.500000 0.871032 0.383184
O O2 0.244837 0.909511 0.331610
O O3 0.267684 0.870536 0.490356
O O4 0.277679 0.803601 0.357238
O O5 0.782930 0.773859 0.556637
O O6 0.720628 0.670275 0.548441
O O7 0.818484 0.711687 0.696968
O O8 0.000000 0.701646 0.560876
O O9 0.780506 0.500000 0.748309
O O10 0.756198 0.411245 0.657219
O O11 0.000000 0.427044 0.744120
O O12 0.237021 0.359085 0.160090
O O13 0.000000 0.347234 0.053391
O O14 0.194792 0.500000 0.368653
O O15 0.270841 0.570463 0.488145
O O16 0.236337 0.599417 0.321302
O O17 0.000000 0.574747 0.421206
O O18 0.500000 0.602362 0.581058
O O19 0.234812 0.294445 0.301927
O O20 0.000000 0.348023 0.255244
O O21 0.000000 0.229108 0.331506
#
# Coordination Sequence:
#
# PCOD8180172 Si02
#       8
#     8   8   8   8   8   8   8   8
#     4  12  24  36  55  88 125 157 190 236 296 357
#     4   9  18  34  57  82 112 154 198 237 280 338
#     4  11  24  43  65  85 110 152 205 251 289 342
#     4   9  19  37  60  84 115 156 199 243 287 342
#     4  10  21  38  60  85 114 151 199 249 291 342
#     4  12  24  36  55  86 123 157 188 236 298 358
#     4   8  17  36  61  86 109 146 201 251 292 331
#     4   9  17  33  57  82 110 149 195 239 285 341
#
# _framework density 19.341035000000002
#
# number of rings (size 3 to 8) (size 9 to 14) (size 15 to 20)
#    0.000    2.000    1.250    4.500    1.750    3.250 
#    0.000    3.125    0.000    2.250    0.000    0.000 
#    0.000    0.000    0.000    0.000    0.000    0.000 
#
# Total GULP energy -396859.030766 kJ/mol
# GULP energy per Si atom -12401.844711 kJ/mol
# Density = 1.929701 g / cm^3
# Si number density = 19.341035 Si / 1000 Ang^3
#
#
#
# Elastic Constant Matrix: (Units=GPa)
#
#
# Indices 1 2 3 4 5 6 
#
# 1 61.7670 34.8192 21.5395 0.0000 0.0000 0.0000
# 2 34.8192 103.6911 44.4473 0.0000 0.0000 0.0000
# 3 21.5395 44.4473 76.6578 0.0000 0.0000 0.0000
# 4 0.0000 0.0000 0.0000 30.1989 0.0000 0.0000
# 5 0.0000 0.0000 0.0000 0.0000 3.7747 0.0000
# 6 0.0000 0.0000 0.0000 0.0000 0.0000 3.7004
#
#
#
# Elastic Compliance Matrix: (Units=1/GPa)
#
#
# Indices 1 2 3 4 5 6 
#
# 1 0.020278 -0.005811 -0.002328 0.000000 0.000000 0.000000
# 2 -0.005811 0.014499 -0.006774 0.000000 0.000000 0.000000
# 3 -0.002328 -0.006774 0.017627 0.000000 0.000000 0.000000
# 4 0.000000 0.000000 0.000000 0.033114 0.000000 0.000000
# 5 0.000000 0.000000 0.000000 0.000000 0.264923 0.000000
# 6 0.000000 0.000000 0.000000 0.000000 0.000000 0.270244
#
#
# Mechanical properties :
#
#
# Convention : Reuss Voigt Hill
#
# Bulk Modulus (GPa) = 44.29327 49.30312 46.79819
# Shear Modulus (GPa) = 7.59836 16.95545 12.27691
#
# Velocity S-wave (km/s) = 1.98423 2.96405 2.52218
# Velocity P-wave (km/s) = 5.31041 6.10417 5.72107
#
# Compressibility (1/GPa) = 0.02257679
#
# Stress axis : x y z
#
# Youngs Moduli (GPa) = 49.31537 68.96996 56.73180
#
# Poissons Ratio (x) = 0.40080 0.13209
# Poissons Ratio (y) = 0.28658 0.38430
# Poissons Ratio (z) = 0.11482 0.46720
#
# Static dielectric constant tensor:
#      x y z
#    x 3.280960 0.000000 0.000000 
#    y 0.000000 3.617000 0.000000 
#    z 0.000000 0.000000 3.643120 
# 
# 
# High freq. dielectric constant tensor:
#      x y z
#    x 1.727500 0.000000 0.000000 
#    y 0.000000 1.749310 0.000000 
#    z 0.000000 0.000000 1.757050 
# 
# From -- ./inp_files/12815.got.cif
#   From: 2010.03.12/outbox.cif.g09.slc.cpg/sg38_7_cif.got.tgz:12815.got - 2010.04.14 02:38:36.
