data_PCOD8180734
_publ_section_title
;
Structure prediction by ZEFSAII (Michael W. Deem and Ramdas Pophale) SiO2 
 PCOD8180734
Probable space group: A B M 2
;
_chemical_formula_sum "Si O2"
_cell_formula_units_Z 56
_cell_length_a 17.748226
_cell_length_b 8.908680
_cell_length_c 18.925455
_cell_angle_alpha 90.000000
_cell_angle_beta 90.000000
_cell_angle_gamma 90.000000
_cell_volume 2992.365501
_symmetry_space_group_name_H-M "A B M 2"
_symmetry_group_IT_number 39
_symmetry_cell_setting 'orthorhombic'
loop_
_space_group_symop_operation_xyz
x,y,z
-x,-y,z
-x,1/2+y,z
x,1/2-y,z
x,1/2+y,1/2+z
-x,1/2-y,1/2+z
-x,y,1/2+z
x,-y,1/2+z
loop_
_atom_site_type_symbol
_atom_site_label
_atom_site_fract_x
_atom_site_fract_y
_atom_site_fract_z
Si Si1 0.080455 0.581922 0.269540
Si Si2 0.076172 0.418325 0.928499
Si Si3 0.699217 0.924769 0.109739
Si Si4 0.313490 0.580325 0.883484
Si Si5 0.803158 0.417761 0.008318
Si Si6 0.580448 0.927490 0.990868
Si Si7 0.245301 0.071476 0.745750
O O1 0.064263 0.750000 0.243135
O O2 0.111012 0.582844 0.350170
O O3 0.157329 0.517105 0.232419
O O4 0.000000 0.500000 0.255096
O O5 0.068147 0.250000 0.958182
O O6 0.116792 0.518952 0.986240
O O7 0.000000 0.500000 0.914724
O O8 0.699994 0.750000 0.128118
O O9 0.700893 0.018601 0.181859
O O10 0.627816 0.969283 0.061252
O O11 0.773467 0.967934 0.066504
O O12 0.338503 0.750000 0.864104
O O13 0.246411 0.583384 0.938720
O O14 0.383491 0.494042 0.919324
O O15 0.284150 0.496204 0.814791
O O16 0.810534 0.250000 0.040201
O O17 0.574369 0.750000 0.981361
O O18 0.500000 0.000000 0.003136
O O19 0.246789 0.250000 0.752146
#
# Coordination Sequence:
#
# PCOD8180734 Si02
#       7
#     8   8   8   8   8   8   8
#     4   9  19  32  50  76 108 146 187 233 285 335
#     4  10  18  30  48  74 106 140 182 233 286 334
#     4  10  22  38  57  82 112 149 187 228 279 338
#     4  10  20  34  57  85 112 143 183 226 274 329
#     4  10  19  33  53  78 105 140 183 229 276 330
#     4  10  21  39  63  88 116 146 182 226 277 336
#     4  11  21  36  56  83 116 150 191 239 285 334
#
# _framework density 18.714292
#
# number of rings (size 3 to 8) (size 9 to 14) (size 15 to 20)
#    0.000    2.000    1.429    2.571    0.000    4.571 
#    0.000    1.429    0.000    3.429    0.000    0.000 
#    0.000    0.000    0.000    0.000    0.000    0.000 
#
# Total GULP energy -346977.171787 kJ/mol
# GULP energy per Si atom -12392.041850 kJ/mol
# Density = 1.867170 g / cm^3
# Si number density = 18.714292 Si / 1000 Ang^3
#
#
#
# Elastic Constant Matrix: (Units=GPa)
#
#
# Indices 1 2 3 4 5 6 
#
# 1 84.0656 52.3979 42.0859 0.0000 0.0000 0.0000
# 2 52.3979 105.2827 44.4805 0.0000 0.0000 0.0000
# 3 42.0859 44.4805 82.4047 0.0000 0.0000 0.0000
# 4 0.0000 0.0000 0.0000 31.1292 0.0000 0.0000
# 5 0.0000 0.0000 0.0000 0.0000 20.1780 0.0000
# 6 0.0000 0.0000 0.0000 0.0000 0.0000 32.6799
#
#
#
# Elastic Compliance Matrix: (Units=1/GPa)
#
#
# Indices 1 2 3 4 5 6 
#
# 1 0.019330 -0.007059 -0.006062 0.000000 0.000000 0.000000
# 2 -0.007059 0.014882 -0.004428 0.000000 0.000000 0.000000
# 3 -0.006062 -0.004428 0.017621 0.000000 0.000000 0.000000
# 4 0.000000 0.000000 0.000000 0.032124 0.000000 0.000000
# 5 0.000000 0.000000 0.000000 0.000000 0.049559 0.000000
# 6 0.000000 0.000000 0.000000 0.000000 0.000000 0.030600
#
#
# Mechanical properties :
#
#
# Convention : Reuss Voigt Hill
#
# Bulk Modulus (GPa) = 59.75262 61.07574 60.41418
# Shear Modulus (GPa) = 24.41484 25.65002 25.03243
#
# Velocity S-wave (km/s) = 3.61586 3.70619 3.66130
# Velocity P-wave (km/s) = 7.03070 7.14291 7.08703
#
# Compressibility (1/GPa) = 0.01673567
#
# Stress axis : x y z
#
# Youngs Moduli (GPa) = 51.73200 67.19395 56.74980
#
# Poissons Ratio (x) = 0.47435 0.34401
# Poissons Ratio (y) = 0.36520 0.25127
# Poissons Ratio (z) = 0.31360 0.29752
#
# Static dielectric constant tensor:
#      x y z
#    x 3.360150 0.000000 0.000000 
#    y 0.000000 3.608160 0.000000 
#    z 0.000000 0.000000 3.483600 
# 
# 
# High freq. dielectric constant tensor:
#      x y z
#    x 1.717220 0.000000 0.000000 
#    y 0.000000 1.739670 0.000000 
#    z 0.000000 0.000000 1.711740 
# 
# From -- ./inp_files/14943.got.cif
#   From: 2010.03.12/outbox.cif.g09.slc.cpg/sg39_8_cif.got.tgz:14943.got - 2010.04.14 02:53:20.
