data_PCOD8180529
_publ_section_title
;
Structure prediction by ZEFSAII (Michael W. Deem and Ramdas Pophale) SiO2 
 PCOD8180529
Probable space group: A M M 2
;
_chemical_formula_sum "Si O2"
_cell_formula_units_Z 64
_cell_length_a 9.697770
_cell_length_b 18.257311
_cell_length_c 26.236379
_cell_angle_alpha 90.000000
_cell_angle_beta 90.000000
_cell_angle_gamma 90.000000
_cell_volume 4645.287407
_symmetry_space_group_name_H-M "A M M 2"
_symmetry_group_IT_number 38
_symmetry_cell_setting 'orthorhombic'
loop_
_space_group_symop_operation_xyz
x,y,z
-x,-y,z
-x,y,z
x,-y,z
x,1/2+y,1/2+z
-x,1/2-y,1/2+z
-x,1/2+y,1/2+z
x,1/2-y,1/2+z
loop_
_atom_site_type_symbol
_atom_site_label
_atom_site_fract_x
_atom_site_fract_y
_atom_site_fract_z
Si Si1 0.846206 0.785295 0.039020
Si Si2 0.847454 0.696160 0.143208
Si Si3 0.337625 0.419505 0.898517
Si Si4 0.339766 0.914636 0.283454
Si Si5 0.162643 0.838155 0.200172
Si Si6 0.660717 0.328363 0.992773
Si Si7 0.164037 0.081092 0.099766
Si Si8 0.659836 0.915941 0.594818
O O1 0.850593 0.741480 0.091430
O O2 0.742159 0.747637 0.999632
O O3 0.790442 0.866830 0.052696
O O4 0.000000 0.787875 0.015076
O O5 0.804690 0.752622 0.188138
O O6 0.741730 0.628697 0.138428
O O7 0.000000 0.664204 0.154159
O O8 0.500000 0.426239 0.906328
O O9 0.272011 0.500000 0.907388
O O10 0.304299 0.392309 0.841596
O O11 0.279843 0.363831 0.940876
O O12 0.500000 0.900055 0.271382
O O13 0.245707 0.861971 0.249830
O O14 0.304415 0.000000 0.274066
O O15 0.217748 0.888428 0.153774
O O16 0.000000 0.849552 0.209414
O O17 0.500000 0.309042 0.989211
O O18 0.690835 0.384377 0.038776
O O19 0.000000 0.080708 0.101909
O O20 0.225003 0.000000 0.090674
O O21 0.500000 0.908550 0.608450
O O22 0.708522 0.000000 0.595616
#
# Coordination Sequence:
#
# PCOD8180529 Si02
#       8
#     8   8   8   8   8   8   8   8
#     4   8  14  24  36  51  72  94 118 151 183 211
#     4   8  15  26  37  51  72  98 124 148 180 221
#     4   8  14  25  39  53  71  97 127 154 178 210
#     4   9  17  27  38  54  75  97 123 155 187 216
#     4   9  16  26  40  55  72  97 128 156 180 212
#     4   9  15  24  39  54  70  97 128 152 177 212
#     4   8  13  22  37  54  71  96 127 150 172 211
#     4   9  16  24  36  56  77  96 123 156 183 209
#
# _framework density 13.777403
#
# number of rings (size 3 to 8) (size 9 to 14) (size 15 to 20)
#    0.000    3.500    0.000    3.000    0.000    3.000 
#    0.000    2.500    0.000    3.000    0.000    0.000 
#    0.000    1.000    0.000    7.000    0.000    4.000 
#
# Total GULP energy -396568.014651 kJ/mol
# GULP energy per Si atom -12392.750458 kJ/mol
# Density = 1.374605 g / cm^3
# Si number density = 13.777403 Si / 1000 Ang^3
#
#
#
# Elastic Constant Matrix: (Units=GPa)
#
#
# Indices 1 2 3 4 5 6 
#
# 1 47.4491 43.0661 37.3015 0.0000 0.0000 0.0000
# 2 43.0661 100.3598 50.9362 0.0000 0.0000 0.0000
# 3 37.3015 50.9362 76.7173 0.0000 0.0000 0.0000
# 4 0.0000 0.0000 0.0000 23.7929 0.0000 0.0000
# 5 0.0000 0.0000 0.0000 0.0000 16.4495 0.0000
# 6 0.0000 0.0000 0.0000 0.0000 0.0000 21.5677
#
#
#
# Elastic Compliance Matrix: (Units=1/GPa)
#
#
# Indices 1 2 3 4 5 6 
#
# 1 0.041187 -0.011327 -0.012505 0.000000 0.000000 0.000000
# 2 -0.011327 0.018144 -0.006539 0.000000 0.000000 0.000000
# 3 -0.012505 -0.006539 0.023457 0.000000 0.000000 0.000000
# 4 0.000000 0.000000 0.000000 0.042029 0.000000 0.000000
# 5 0.000000 0.000000 0.000000 0.000000 0.060792 0.000000
# 6 0.000000 0.000000 0.000000 0.000000 0.000000 0.046366
#
#
# Mechanical properties :
#
#
# Convention : Reuss Voigt Hill
#
# Bulk Modulus (GPa) = 45.36273 54.12598 49.74435
# Shear Modulus (GPa) = 16.66307 18.57686 17.61996
#
# Velocity S-wave (km/s) = 3.48149 3.67598 3.58005
# Velocity P-wave (km/s) = 7.01127 7.57552 7.29885
#
# Compressibility (1/GPa) = 0.02204453
#
# Stress axis : x y z
#
# Youngs Moduli (GPa) = 24.27954 55.11614 42.63178
#
# Poissons Ratio (x) = 0.62431 0.53312
# Poissons Ratio (y) = 0.27502 0.27876
# Poissons Ratio (z) = 0.30362 0.36040
#
# Static dielectric constant tensor:
#      x y z
#    x 2.604720 0.000000 0.000000 
#    y 0.000000 2.937560 0.000000 
#    z 0.000000 0.000000 2.585770 
# 
# 
# High freq. dielectric constant tensor:
#      x y z
#    x 1.507980 0.000000 0.000000 
#    y 0.000000 1.516370 0.000000 
#    z 0.000000 0.000000 1.495190 
# 
# From -- ./inp_files/22285.got.cif
#   From: 2010.03.12/outbox.cif.g09.slc.cpg/sg38_12_cif.got.tgz:22285.got - 2010.04.14 02:38:36.
