data_PCOD8180023
_publ_section_title
;
Structure prediction by ZEFSAII (Michael W. Deem and Ramdas Pophale) SiO2 
 PCOD8180023
Probable space group: A M M 2
;
_chemical_formula_sum "Si O2"
_cell_formula_units_Z 44
_cell_length_a 13.175656
_cell_length_b 17.855004
_cell_length_c 9.467281
_cell_angle_alpha 90.000000
_cell_angle_beta 90.000000
_cell_angle_gamma 90.000000
_cell_volume 2227.191020
_symmetry_space_group_name_H-M "A M M 2"
_symmetry_group_IT_number 38
_symmetry_cell_setting 'orthorhombic'
loop_
_space_group_symop_operation_xyz
x,y,z
-x,-y,z
-x,y,z
x,-y,z
x,1/2+y,1/2+z
-x,1/2-y,1/2+z
-x,1/2+y,1/2+z
x,1/2-y,1/2+z
loop_
_atom_site_type_symbol
_atom_site_label
_atom_site_fract_x
_atom_site_fract_y
_atom_site_fract_z
Si Si1 0.887663 0.865304 0.684340
Si Si2 0.386512 0.000000 0.408207
Si Si3 0.114587 0.867528 0.995240
Si Si4 0.616924 0.666883 0.823839
Si Si5 0.880826 0.000000 0.195839
Si Si6 0.731208 0.247845 0.578422
Si Si7 0.817239 0.000000 0.509287
O O1 0.799427 0.804666 0.676826
O O2 0.872842 0.927511 0.565885
O O3 0.000000 0.829582 0.660952
O O4 0.882421 0.903519 0.838707
O O5 0.370729 0.076282 0.316638
O O6 0.304756 0.000000 0.537894
O O7 0.500000 0.000000 0.474308
O O8 0.190420 0.798322 0.992205
O O9 0.000000 0.840837 0.031195
O O10 0.152519 0.927418 0.108571
O O11 0.500000 0.690143 0.831258
O O12 0.660936 0.702638 0.680592
O O13 0.668179 0.699361 0.965864
O O14 0.820428 0.000000 0.340250
O O15 0.000000 0.000000 0.225552
#
# Coordination Sequence:
#
# PCOD8180023 Si02
#       7
#     8   4   8   8   4   8   4
#     4  11  23  38  59  91 130 170 210 258 319 386
#     4  10  22  41  64  92 124 162 211 265 318 375
#     4  10  22  39  58  86 127 170 207 255 317 381
#     4  11  24  43  68  93 125 166 215 270 328 383
#     4  10  21  36  59  90 124 167 214 259 310 380
#     4  12  22  41  62  92 124 164 213 263 323 381
#     4  12  21  39  63  94 124 167 217 262 318 379
#
# _framework density 19.755827
#
# number of rings (size 3 to 8) (size 9 to 14) (size 15 to 20)
#    0.000    1.091    3.636    3.545    0.000    1.455 
#    0.000    0.000    0.000    0.000    0.000    5.091 
#    0.000    0.000    0.000    0.000    0.000    0.000 
#
# Total GULP energy -272730.395976 kJ/mol
# GULP energy per Si atom -12396.836181 kJ/mol
# Density = 1.971086 g / cm^3
# Si number density = 19.755827 Si / 1000 Ang^3
#
#
#
# Elastic Constant Matrix: (Units=GPa)
#
#
# Indices 1 2 3 4 5 6 
#
# 1 116.3999 50.9243 47.2385 0.0000 0.0000 0.0000
# 2 50.9243 115.2477 48.8832 0.0000 0.0000 0.0000
# 3 47.2385 48.8832 120.7760 0.0000 0.0000 0.0000
# 4 0.0000 0.0000 0.0000 27.8696 0.0000 0.0000
# 5 0.0000 0.0000 0.0000 0.0000 27.0031 0.0000
# 6 0.0000 0.0000 0.0000 0.0000 0.0000 38.9157
#
#
#
# Elastic Compliance Matrix: (Units=1/GPa)
#
#
# Indices 1 2 3 4 5 6 
#
# 1 0.011451 -0.003815 -0.002935 0.000000 0.000000 0.000000
# 2 -0.003815 0.011746 -0.003262 0.000000 0.000000 0.000000
# 3 -0.002935 -0.003262 0.010748 0.000000 0.000000 0.000000
# 4 0.000000 0.000000 0.000000 0.035881 0.000000 0.000000
# 5 0.000000 0.000000 0.000000 0.000000 0.037033 0.000000
# 6 0.000000 0.000000 0.000000 0.000000 0.000000 0.025697
#
#
# Mechanical properties :
#
#
# Convention : Reuss Voigt Hill
#
# Bulk Modulus (GPa) = 71.83041 71.83507 71.83274
# Shear Modulus (GPa) = 31.80247 32.44952 32.12599
#
# Velocity S-wave (km/s) = 4.01655 4.05721 4.03693
# Velocity P-wave (km/s) = 7.61238 7.64123 7.62682
#
# Compressibility (1/GPa) = 0.01392168
#
# Stress axis : x y z
#
# Youngs Moduli (GPa) = 87.32747 85.13253 93.04129
#
# Poissons Ratio (x) = 0.32479 0.27305
# Poissons Ratio (y) = 0.33317 0.30351
# Poissons Ratio (z) = 0.25628 0.27771
#
# Static dielectric constant tensor:
#      x y z
#    x 3.859970 0.000000 0.000000 
#    y 0.000000 3.632360 0.000000 
#    z 0.000000 0.000000 3.438970 
# 
# 
# High freq. dielectric constant tensor:
#      x y z
#    x 1.785320 0.000000 0.000000 
#    y 0.000000 1.771400 0.000000 
#    z 0.000000 0.000000 1.762980 
# 
# From -- ./inp_files/5422.got.cif
#   From: 2010.03.12/outbox.cif.g09.slc.cpg/sg38_3_cif.got.tgz:5422.got - 2010.04.14 02:38:36.
