data_PCOD8180078
_publ_section_title
;
Structure prediction by ZEFSAII (Michael W. Deem and Ramdas Pophale) SiO2 
 PCOD8180078
Probable space group: A M M 2
;
_chemical_formula_sum "Si O2"
_cell_formula_units_Z 40
_cell_length_a 7.444559
_cell_length_b 9.157596
_cell_length_c 29.754394
_cell_angle_alpha 90.000000
_cell_angle_beta 90.000000
_cell_angle_gamma 90.000000
_cell_volume 2028.483903
_symmetry_space_group_name_H-M "A M M 2"
_symmetry_group_IT_number 38
_symmetry_cell_setting 'orthorhombic'
loop_
_space_group_symop_operation_xyz
x,y,z
-x,-y,z
-x,y,z
x,-y,z
x,1/2+y,1/2+z
-x,1/2-y,1/2+z
-x,1/2+y,1/2+z
x,1/2-y,1/2+z
loop_
_atom_site_type_symbol
_atom_site_label
_atom_site_fract_x
_atom_site_fract_y
_atom_site_fract_z
Si Si1 0.787259 0.164346 0.275750
Si Si2 0.796572 0.327623 0.189351
Si Si3 0.787162 0.836574 0.374203
Si Si4 0.500000 0.827019 0.621757
Si Si5 0.211060 0.829817 0.961314
Si Si6 0.500000 0.325228 0.019847
O O1 0.713387 0.265696 0.235836
O O2 0.714912 0.214434 0.325047
O O3 0.000000 0.173996 0.276186
O O4 0.722300 0.000000 0.266344
O O5 0.788379 0.500000 0.193615
O O6 0.677460 0.270489 0.147740
O O7 0.000000 0.272632 0.180996
O O8 0.722040 0.724431 0.412330
O O9 0.000000 0.840343 0.372848
O O10 0.715472 0.000000 0.385222
O O11 0.500000 0.768745 0.571131
O O12 0.500000 0.000000 0.621220
O O13 0.000000 0.799358 0.968685
O O14 0.257160 0.000000 0.965490
O O15 0.319390 0.738981 0.998220
O O16 0.500000 0.500000 0.015734
#
# Coordination Sequence:
#
# PCOD8180078 Si02
#       6
#     8   8   8   4   8   4
#     4   8  14  26  46  74 107 139 171 208 249 298
#     4   9  17  31  52  75 100 132 169 209 255 308
#     4   8  14  27  49  76 106 141 179 215 253 306
#     4   9  20  37  54  75 100 127 168 221 268 311
#     4  10  21  37  57  82 113 145 178 222 275 328
#     4  11  23  39  60  81 104 139 184 233 278 325
#
# _framework density 19.719159999999999
#
# number of rings (size 3 to 8) (size 9 to 14) (size 15 to 20)
#    0.000    3.000    0.000    2.100    0.000    2.800 
#    0.000    9.500    0.000    7.200    0.000    0.000 
#    0.000    0.000    0.000    0.000    0.000    0.000 
#
# Total GULP energy -247868.549799 kJ/mol
# GULP energy per Si atom -12393.427490 kJ/mol
# Density = 1.967428 g / cm^3
# Si number density = 19.719160 Si / 1000 Ang^3
#
#
#
# Elastic Constant Matrix: (Units=GPa)
#
#
# Indices 1 2 3 4 5 6 
#
# 1 78.9603 34.2435 62.0696 0.0000 0.0000 0.0000
# 2 34.2435 78.2410 66.2121 0.0000 0.0000 0.0000
# 3 62.0696 66.2121 196.1147 0.0000 0.0000 0.0000
# 4 0.0000 0.0000 0.0000 31.4616 0.0000 0.0000
# 5 0.0000 0.0000 0.0000 0.0000 -188.3192 0.0000
# 6 0.0000 0.0000 0.0000 0.0000 0.0000 16.4938
#
#
#
# Elastic Compliance Matrix: (Units=1/GPa)
#
#
# Indices 1 2 3 4 5 6 
#
# 1 0.017807 -0.004234 -0.004207 0.000000 0.000000 0.000000
# 2 -0.004234 0.018900 -0.005041 0.000000 0.000000 0.000000
# 3 -0.004207 -0.005041 0.008132 0.000000 0.000000 0.000000
# 4 0.000000 0.000000 0.000000 0.031785 0.000000 0.000000
# 5 0.000000 0.000000 0.000000 0.000000 -0.005310 0.000000
# 6 0.000000 0.000000 0.000000 0.000000 0.000000 0.060629
#
#
# Mechanical properties :
#
#
# Convention : Reuss Voigt Hill
#
# Bulk Modulus (GPa) = 55.93798 75.37404 65.65601
# Shear Modulus (GPa) = 30.32781 -15.35338 7.48722
#
# Velocity S-wave (km/s) = 3.92597 -2.79337 1.95068
# Velocity P-wave (km/s) = 6.99857 5.28231 6.20011
#
# Compressibility (1/GPa) = 0.01787694
#
# Stress axis : x y z
#
# Youngs Moduli (GPa) = 56.15623 52.90993 122.96565
#
# Poissons Ratio (x) = 0.22402 0.51726
# Poissons Ratio (y) = 0.23776 0.61987
# Poissons Ratio (z) = 0.23622 0.26672
#
# Static dielectric constant tensor:
#      x y z
#    x 3.483540 0.000000 0.000000 
#    y 0.000000 3.485360 0.000000 
#    z 0.000000 0.000000 4.104770 
# 
# 
# High freq. dielectric constant tensor:
#      x y z
#    x 1.759350 0.000000 0.000000 
#    y 0.000000 1.747820 0.000000 
#    z 0.000000 0.000000 1.772310 
# 
# From -- ./inp_files/23272.got.cif
#   From: 2010.03.12/outbox.cif.g09.slc.cpg/sg38_12_cif.got.tgz:23272.got - 2010.04.14 02:38:36.
