data_PCOD8180953
_publ_section_title
;
Structure prediction by ZEFSAII (Michael W. Deem and Ramdas Pophale) SiO2 
 PCOD8180953
Probable space group: A B M 2
;
_chemical_formula_sum "Si O2"
_cell_formula_units_Z 56
_cell_length_a 15.947125
_cell_length_b 18.845053
_cell_length_c 9.629758
_cell_angle_alpha 90.000000
_cell_angle_beta 90.000000
_cell_angle_gamma 90.000000
_cell_volume 2893.977397
_symmetry_space_group_name_H-M "A B M 2"
_symmetry_group_IT_number 39
_symmetry_cell_setting 'orthorhombic'
loop_
_space_group_symop_operation_xyz
x,y,z
-x,-y,z
-x,1/2+y,z
x,1/2-y,z
x,1/2+y,1/2+z
-x,1/2-y,1/2+z
-x,y,1/2+z
x,-y,1/2+z
loop_
_atom_site_type_symbol
_atom_site_label
_atom_site_fract_x
_atom_site_fract_y
_atom_site_fract_z
Si Si1 0.473824 0.580020 0.029510
Si Si2 0.431488 0.835124 0.763003
Si Si3 0.716204 0.439283 0.088792
Si Si4 0.255574 0.327300 0.372756
Si Si5 0.195017 0.474004 0.866249
Si Si6 0.097265 0.386786 0.284367
Si Si7 0.965061 0.920910 0.995975
O O1 0.500000 0.500000 0.988409
O O2 0.536557 0.619230 0.133935
O O3 0.382836 0.571963 0.098344
O O4 0.475673 0.632326 0.898312
O O5 0.449501 0.750000 0.748686
O O6 0.332229 0.853136 0.775067
O O7 0.749195 0.439800 0.245504
O O8 0.758116 0.373204 0.010387
O O9 0.743987 0.507224 0.996013
O O10 0.278837 0.250000 0.426988
O O11 0.168675 0.326266 0.286413
O O12 0.146967 0.539600 0.797311
O O13 0.124775 0.419474 0.919385
O O14 0.031648 0.375457 0.409010
O O15 0.044367 0.383310 0.143717
O O16 0.000000 0.000000 0.018357
#
# Coordination Sequence:
#
# PCOD8180953 Si02
#       7
#     8   8   8   8   8   8   8
#     4  11  24  36  60  95 127 150 203 268 314 346
#     4  10  22  43  64  84 119 172 210 242 305 388
#     4  10  22  35  59  86 120 152 192 239 307 353
#     4   9  21  41  61  79 112 161 202 237 296 364
#     4  10  19  34  55  86 118 151 186 236 299 361
#     4  10  20  32  55  83 111 151 190 241 287 350
#     4  10  19  31  53  84 119 147 191 234 295 357
#
# _framework density 19.350531
#
# number of rings (size 3 to 8) (size 9 to 14) (size 15 to 20)
#    0.000    2.000    1.429    2.143   12.000    0.571 
#    0.000    0.714    0.000    0.857    0.000    0.000 
#    0.000    0.000    0.000    0.000    0.000    0.000 
#
# Total GULP energy -347064.854411 kJ/mol
# GULP energy per Si atom -12395.173372 kJ/mol
# Density = 1.930649 g / cm^3
# Si number density = 19.350531 Si / 1000 Ang^3
#
#
#
# Elastic Constant Matrix: (Units=GPa)
#
#
# Indices 1 2 3 4 5 6 
#
# 1 87.9618 29.5427 48.3182 0.0000 0.0000 0.0000
# 2 29.5427 64.1257 21.3617 0.0000 0.0000 0.0000
# 3 48.3182 21.3617 104.5522 0.0000 0.0000 0.0000
# 4 0.0000 0.0000 0.0000 14.1822 0.0000 0.0000
# 5 0.0000 0.0000 0.0000 0.0000 37.3224 0.0000
# 6 0.0000 0.0000 0.0000 0.0000 0.0000 21.8785
#
#
#
# Elastic Compliance Matrix: (Units=1/GPa)
#
#
# Indices 1 2 3 4 5 6 
#
# 1 0.016904 -0.005564 -0.006675 0.000000 0.000000 0.000000
# 2 -0.005564 0.018565 -0.001222 0.000000 0.000000 0.000000
# 3 -0.006675 -0.001222 0.012899 0.000000 0.000000 0.000000
# 4 0.000000 0.000000 0.000000 0.070511 0.000000 0.000000
# 5 0.000000 0.000000 0.000000 0.000000 0.026794 0.000000
# 6 0.000000 0.000000 0.000000 0.000000 0.000000 0.045707
#
#
# Mechanical properties :
#
#
# Convention : Reuss Voigt Hill
#
# Bulk Modulus (GPa) = 46.62892 50.56499 48.59696
# Shear Modulus (GPa) = 22.17786 25.17109 23.67447
#
# Velocity S-wave (km/s) = 3.38910 3.61057 3.50158
# Velocity P-wave (km/s) = 6.28203 6.60071 6.44334
#
# Compressibility (1/GPa) = 0.02144592
#
# Stress axis : x y z
#
# Youngs Moduli (GPa) = 59.15725 53.86567 77.52438
#
# Poissons Ratio (x) = 0.29971 0.51750
# Poissons Ratio (y) = 0.32915 0.09471
# Poissons Ratio (z) = 0.39489 0.06581
#
# Static dielectric constant tensor:
#      x y z
#    x 3.872160 0.000000 0.000000 
#    y 0.000000 3.374820 0.000000 
#    z 0.000000 0.000000 3.468960 
# 
# 
# High freq. dielectric constant tensor:
#      x y z
#    x 1.770730 0.000000 0.000000 
#    y 0.000000 1.718830 0.000000 
#    z 0.000000 0.000000 1.750450 
# 
# From -- ./inp_files/3413.got.cif
#   From: 2010.03.12/outbox.cif.g09.slc.cpg/sg39_2_cif.got.tgz:3413.got - 2010.04.14 02:53:20.
