data_PCOD8180228
_publ_section_title
;
Structure prediction by ZEFSAII (Michael W. Deem and Ramdas Pophale) SiO2 
 PCOD8180228
Probable space group: A M M 2
;
_chemical_formula_sum "Si O2"
_cell_formula_units_Z 40
_cell_length_a 13.071265
_cell_length_b 15.351898
_cell_length_c 10.309926
_cell_angle_alpha 90.000000
_cell_angle_beta 90.000000
_cell_angle_gamma 90.000000
_cell_volume 2068.879726
_symmetry_space_group_name_H-M "A M M 2"
_symmetry_group_IT_number 38
_symmetry_cell_setting 'orthorhombic'
loop_
_space_group_symop_operation_xyz
x,y,z
-x,-y,z
-x,y,z
x,-y,z
x,1/2+y,1/2+z
-x,1/2-y,1/2+z
-x,1/2+y,1/2+z
x,1/2-y,1/2+z
loop_
_atom_site_type_symbol
_atom_site_label
_atom_site_fract_x
_atom_site_fract_y
_atom_site_fract_z
Si Si1 0.758714 0.901166 0.799170
Si Si2 0.382461 0.152962 0.569244
Si Si3 0.287653 0.330925 0.570486
Si Si4 0.748328 0.596770 0.831972
Si Si5 0.119471 0.238741 0.232068
O O1 0.665810 0.877020 0.704855
O O2 0.854553 0.837082 0.775801
O O3 0.795815 0.000000 0.776606
O O4 0.717573 0.891629 0.945212
O O5 0.500000 0.125187 0.569810
O O6 0.373298 0.256951 0.550889
O O7 0.327818 0.104023 0.451679
O O8 0.314980 0.388508 0.697600
O O9 0.177471 0.283033 0.596586
O O10 0.796754 0.500000 0.831948
O O11 0.839031 0.669266 0.840299
O O12 0.000000 0.227569 0.211098
#
# Coordination Sequence:
#
# PCOD8180228 Si02
#       5
#     8   8   8   8   8
#     4  11  22  39  62  93 125 158 206 259 309 365
#     4  11  22  41  64  87 124 170 205 248 315 374
#     4   9  20  40  60  90 117 160 201 259 296 359
#     4  10  21  39  61  90 121 158 205 251 296 362
#     4   9  21  40  62  89 122 161 200 247 310 363
#
# _framework density 19.334135
#
# number of rings (size 3 to 8) (size 9 to 14) (size 15 to 20)
#    1.200    0.800    2.000    1.200    0.000    6.400 
#    0.000    0.000    0.000    6.000    0.000    0.000 
#    0.000    0.000    0.000    0.000    0.000    0.000 
#
# Total GULP energy -247875.034082 kJ/mol
# GULP energy per Si atom -12393.751704 kJ/mol
# Density = 1.929013 g / cm^3
# Si number density = 19.334135 Si / 1000 Ang^3
#
#
#
# Elastic Constant Matrix: (Units=GPa)
#
#
# Indices 1 2 3 4 5 6 
#
# 1 94.4685 35.7485 32.8490 0.0000 0.0000 0.0000
# 2 35.7485 146.0966 12.5450 0.0000 0.0000 0.0000
# 3 32.8490 12.5450 109.5057 0.0000 0.0000 0.0000
# 4 0.0000 0.0000 0.0000 25.0048 0.0000 0.0000
# 5 0.0000 0.0000 0.0000 0.0000 16.5619 0.0000
# 6 0.0000 0.0000 0.0000 0.0000 0.0000 7.8752
#
#
#
# Elastic Compliance Matrix: (Units=1/GPa)
#
#
# Indices 1 2 3 4 5 6 
#
# 1 0.012896 -0.002851 -0.003542 0.000000 0.000000 0.000000
# 2 -0.002851 0.007543 -0.000009 0.000000 0.000000 0.000000
# 3 -0.003542 -0.000009 0.010195 0.000000 0.000000 0.000000
# 4 0.000000 0.000000 0.000000 0.039992 0.000000 0.000000
# 5 0.000000 0.000000 0.000000 0.000000 0.060380 0.000000
# 6 0.000000 0.000000 0.000000 0.000000 0.000000 0.126980
#
#
# Mechanical properties :
#
#
# Convention : Reuss Voigt Hill
#
# Bulk Modulus (GPa) = 56.08322 56.92842 56.50582
# Shear Modulus (GPa) = 18.06783 27.81694 22.94239
#
# Velocity S-wave (km/s) = 3.06028 3.79720 3.44848
# Velocity P-wave (km/s) = 6.44651 6.98093 6.71903
#
# Compressibility (1/GPa) = 0.01783064
#
# Stress axis : x y z
#
# Youngs Moduli (GPa) = 77.54241 132.56868 98.08315
#
# Poissons Ratio (x) = 0.37801 0.34740
# Poissons Ratio (y) = 0.22111 0.00086
# Poissons Ratio (z) = 0.27465 0.00117
#
# Static dielectric constant tensor:
#      x y z
#    x 3.069540 0.000000 0.000000 
#    y 0.000000 3.584260 0.000000 
#    z 0.000000 0.000000 3.522300 
# 
# 
# High freq. dielectric constant tensor:
#      x y z
#    x 1.709630 0.000000 0.000000 
#    y 0.000000 1.760560 0.000000 
#    z 0.000000 0.000000 1.761470 
# 
# From -- ./inp_files/9073.got.cif
#   From: 2010.03.12/outbox.cif.g09.slc.cpg/sg38_5_cif.got.tgz:9073.got - 2010.04.14 02:38:36.
