data_PCOD8180372
_publ_section_title
;
Structure prediction by ZEFSAII (Michael W. Deem and Ramdas Pophale) SiO2 
 PCOD8180372
Probable space group: A M M 2
;
_chemical_formula_sum "Si O2"
_cell_formula_units_Z 56
_cell_length_a 19.276327
_cell_length_b 8.868475
_cell_length_c 15.846916
_cell_angle_alpha 90.000000
_cell_angle_beta 90.000000
_cell_angle_gamma 90.000000
_cell_volume 2709.056027
_symmetry_space_group_name_H-M "A M M 2"
_symmetry_group_IT_number 38
_symmetry_cell_setting 'orthorhombic'
loop_
_space_group_symop_operation_xyz
x,y,z
-x,-y,z
-x,y,z
x,-y,z
x,1/2+y,1/2+z
-x,1/2-y,1/2+z
-x,1/2+y,1/2+z
x,1/2-y,1/2+z
loop_
_atom_site_type_symbol
_atom_site_label
_atom_site_fract_x
_atom_site_fract_y
_atom_site_fract_z
Si Si1 0.421823 0.328524 0.899190
Si Si2 0.921434 0.678418 0.746095
Si Si3 0.167200 0.175071 0.406109
Si Si4 0.710804 0.323507 0.658702
Si Si5 0.160376 0.174450 0.593989
Si Si6 0.709072 0.823863 0.831707
Si Si7 0.577816 0.171701 0.597669
O O1 0.500000 0.290474 0.869703
O O2 0.402681 0.500000 0.874015
O O3 0.370254 0.213337 0.854221
O O4 0.415307 0.306749 0.998465
O O5 0.918518 0.500000 0.739970
O O6 0.884060 0.732880 0.832241
O O7 0.887157 0.741435 0.661362
O O8 0.000000 0.738097 0.750381
O O9 0.132080 0.199165 0.498326
O O10 0.238184 0.272399 0.404850
O O11 0.186494 0.000000 0.393923
O O12 0.721748 0.500000 0.648719
O O13 0.761090 0.238058 0.593783
O O14 0.733881 0.271160 0.751152
O O15 0.630634 0.282340 0.644054
O O16 0.161579 0.000000 0.618578
O O17 0.715119 0.000000 0.813300
O O18 0.500000 0.214080 0.626903
O O19 0.595097 0.000000 0.623222
#
# Coordination Sequence:
#
# PCOD8180372 Si02
#       7
#     8   8   8   8   8   8   8
#     4   9  19  37  59  82 113 155 200 248 307 372
#     4  10  22  42  67  95 129 169 209 250 300 362
#     4  10  22  41  65  92 127 168 207 251 307 370
#     4  12  24  38  58  84 119 161 205 255 313 370
#     4  11  23  40  65  96 127 164 211 258 307 365
#     4  12  24  37  58  87 119 156 204 259 310 363
#     4   9  19  37  59  83 114 153 200 254 309 367
#
# _framework density 20.671406999999999
#
# number of rings (size 3 to 8) (size 9 to 14) (size 15 to 20)
#    0.000    1.571    1.429    4.714    0.000    7.143 
#    0.000    2.857    0.000    0.000    0.000    0.000 
#    0.000    0.000    0.000    0.000    0.000    0.000 
#
# Total GULP energy -347258.965242 kJ/mol
# GULP energy per Si atom -12402.105902 kJ/mol
# Density = 2.062436 g / cm^3
# Si number density = 20.671407 Si / 1000 Ang^3
#
#
#
# Elastic Constant Matrix: (Units=GPa)
#
#
# Indices 1 2 3 4 5 6 
#
# 1 118.1034 25.9928 43.9659 0.0000 0.0000 0.0000
# 2 25.9928 35.2230 18.9061 0.0000 0.0000 0.0000
# 3 43.9659 18.9061 101.7174 0.0000 0.0000 0.0000
# 4 0.0000 0.0000 0.0000 29.7654 0.0000 0.0000
# 5 0.0000 0.0000 0.0000 0.0000 27.7912 0.0000
# 6 0.0000 0.0000 0.0000 0.0000 0.0000 29.6513
#
#
#
# Elastic Compliance Matrix: (Units=1/GPa)
#
#
# Indices 1 2 3 4 5 6 
#
# 1 0.011225 -0.006309 -0.003679 0.000000 0.000000 0.000000
# 2 -0.006309 0.035083 -0.003794 0.000000 0.000000 0.000000
# 3 -0.003679 -0.003794 0.012127 0.000000 0.000000 0.000000
# 4 0.000000 0.000000 0.000000 0.033596 0.000000 0.000000
# 5 0.000000 0.000000 0.000000 0.000000 0.035983 0.000000
# 6 0.000000 0.000000 0.000000 0.000000 0.000000 0.033725
#
#
# Mechanical properties :
#
#
# Convention : Reuss Voigt Hill
#
# Bulk Modulus (GPa) = 32.39347 48.08595 40.23971
# Shear Modulus (GPa) = 25.05099 28.52016 26.78558
#
# Velocity S-wave (km/s) = 3.48496 3.71845 3.60360
# Velocity P-wave (km/s) = 5.64783 6.46130 6.06821
#
# Compressibility (1/GPa) = 0.03087042
#
# Stress axis : x y z
#
# Youngs Moduli (GPa) = 89.08414 28.50423 82.46281
#
# Poissons Ratio (x) = 0.17983 0.30341
# Poissons Ratio (y) = 0.56202 0.31285
# Poissons Ratio (z) = 0.32777 0.10814
#
# Static dielectric constant tensor:
#      x y z
#    x 3.909060 0.000000 0.000000 
#    y 0.000000 3.571010 0.000000 
#    z 0.000000 0.000000 3.764360 
# 
# 
# High freq. dielectric constant tensor:
#      x y z
#    x 1.808360 0.000000 0.000000 
#    y 0.000000 1.799650 0.000000 
#    z 0.000000 0.000000 1.813680 
# 
# From -- ./inp_files/15498.got.cif
#   From: 2010.03.12/outbox.cif.g09.slc.cpg/sg38_8_cif.got.tgz:15498.got - 2010.04.14 02:38:36.
