data_PCOD8180575
_publ_section_title
;
Structure prediction by ZEFSAII (Michael W. Deem and Ramdas Pophale) SiO2 
 PCOD8180575
Probable space group: A B M 2
;
_chemical_formula_sum "Si O2"
_cell_formula_units_Z 48
_cell_length_a 19.221480
_cell_length_b 34.298549
_cell_length_c 5.296292
_cell_angle_alpha 90.000000
_cell_angle_beta 90.000000
_cell_angle_gamma 90.000000
_cell_volume 3491.680461
_symmetry_space_group_name_H-M "A B M 2"
_symmetry_group_IT_number 39
_symmetry_cell_setting 'orthorhombic'
loop_
_space_group_symop_operation_xyz
x,y,z
-x,-y,z
-x,1/2+y,z
x,1/2-y,z
x,1/2+y,1/2+z
-x,1/2-y,1/2+z
-x,y,1/2+z
x,-y,1/2+z
loop_
_atom_site_type_symbol
_atom_site_label
_atom_site_fract_x
_atom_site_fract_y
_atom_site_fract_z
Si Si1 0.470945 0.044496 0.025950
Si Si2 0.320540 0.476600 0.082139
Si Si3 0.918824 0.795177 0.542154
Si Si4 0.928655 0.172209 0.542149
Si Si5 0.041318 0.581336 0.541918
Si Si6 0.167810 0.525323 0.520642
O O1 0.501808 0.065776 0.273460
O O2 0.387572 0.049915 0.029532
O O3 0.500000 0.000000 0.025273
O O4 0.325191 0.488876 0.375253
O O5 0.245737 0.456167 0.036252
O O6 0.899717 0.750000 0.541747
O O7 0.885887 0.816082 0.293977
O O8 0.001637 0.801736 0.542531
O O9 0.885850 0.815993 0.790577
O O10 0.948287 0.127291 0.541592
O O11 0.115928 0.561208 0.543580
O O12 0.000217 0.568051 0.792411
O O13 0.156055 0.504503 0.251597
#
# Coordination Sequence:
#
# PCOD8180575 Si02
#       6
#     8   8   8   8   8   8
#     4  10  14  20  36  60  72  93 106 125 171 230
#     4  10  16  27  39  53  78  88 111 143 184 240
#     4  10  16  25  41  61  79  92 106 132 186 233
#     4  10  16  27  38  59  74  95 111 142 184 228
#     4  12  21  34  48  54  71  93 131 170 202 239
#     4  10  23  35  44  57  69  96 125 170 216 230
#
# _framework density 13.746962999999999
#
# number of rings (size 3 to 8) (size 9 to 14) (size 15 to 20)
#    0.000    1.667    6.667    3.500    0.000    2.000 
#    0.000    0.000    0.000    0.000    0.000    0.000 
#    0.000    0.000    0.000    0.000    0.000    0.000 
#
# Total GULP energy -297321.605892 kJ/mol
# GULP energy per Si atom -12388.400245 kJ/mol
# Density = 1.371567 g / cm^3
# Si number density = 13.746963 Si / 1000 Ang^3
#
#
#
# Elastic Constant Matrix: (Units=GPa)
#
#
# Indices 1 2 3 4 5 6 
#
# 1 84.1953 25.0171 29.8992 0.0000 0.0000 0.0000
# 2 25.0171 20.3158 13.1195 0.0000 0.0000 0.0000
# 3 29.8992 13.1195 136.1022 0.0000 0.0000 0.0000
# 4 0.0000 0.0000 0.0000 11.0316 0.0000 0.0000
# 5 0.0000 0.0000 0.0000 0.0000 15.7647 0.0000
# 6 0.0000 0.0000 0.0000 0.0000 0.0000 3.9565
#
#
#
# Elastic Compliance Matrix: (Units=1/GPa)
#
#
# Indices 1 2 3 4 5 6 
#
# 1 0.019264 -0.022383 -0.002074 0.000000 0.000000 0.000000
# 2 -0.022383 0.078496 -0.002650 0.000000 0.000000 0.000000
# 3 -0.002074 -0.002650 0.008059 0.000000 0.000000 0.000000
# 4 0.000000 0.000000 0.000000 0.090649 0.000000 0.000000
# 5 0.000000 0.000000 0.000000 0.000000 0.063433 0.000000
# 6 0.000000 0.000000 0.000000 0.000000 0.000000 0.252746
#
#
# Mechanical properties :
#
#
# Convention : Reuss Voigt Hill
#
# Bulk Modulus (GPa) = 19.37770 41.85386 30.61578
# Shear Modulus (GPa) = 8.56072 17.65572 13.10822
#
# Velocity S-wave (km/s) = 2.49817 3.58765 3.09129
# Velocity P-wave (km/s) = 4.73791 6.90461 5.92121
#
# Compressibility (1/GPa) = 0.05160572
#
# Stress axis : x y z
#
# Youngs Moduli (GPa) = 51.90908 12.73944 124.09185
#
# Poissons Ratio (x) = 0.28514 0.25742
# Poissons Ratio (y) = 1.16187 0.32879
# Poissons Ratio (z) = 0.10768 0.03375
#
# Static dielectric constant tensor:
#      x y z
#    x 2.603870 0.000000 0.000000 
#    y 0.000000 2.297180 0.000000 
#    z 0.000000 0.000000 4.520700 
# 
# 
# High freq. dielectric constant tensor:
#      x y z
#    x 1.483430 0.000000 0.000000 
#    y 0.000000 1.466360 0.000000 
#    z 0.000000 0.000000 1.569060 
# 
# From -- ./inp_files/884.got.cif
#   From: 2010.03.12/outbox.cif.g09.slc.cpg/sg39_1_cif.got.tgz:884.got - 2010.04.14 02:53:20.
