data_PCOD8180175
_publ_section_title
;
Structure prediction by ZEFSAII (Michael W. Deem and Ramdas Pophale) SiO2 
 PCOD8180175
Probable space group: A M M 2
;
_chemical_formula_sum "Si O2"
_cell_formula_units_Z 64
_cell_length_a 15.942685
_cell_length_b 13.380138
_cell_length_c 13.124722
_cell_angle_alpha 90.000000
_cell_angle_beta 90.000000
_cell_angle_gamma 90.000000
_cell_volume 2799.704344
_symmetry_space_group_name_H-M "A M M 2"
_symmetry_group_IT_number 38
_symmetry_cell_setting 'orthorhombic'
loop_
_space_group_symop_operation_xyz
x,y,z
-x,-y,z
-x,y,z
x,-y,z
x,1/2+y,1/2+z
-x,1/2-y,1/2+z
-x,1/2+y,1/2+z
x,1/2-y,1/2+z
loop_
_atom_site_type_symbol
_atom_site_label
_atom_site_fract_x
_atom_site_fract_y
_atom_site_fract_z
Si Si1 0.821113 0.701006 0.094320
Si Si2 0.225471 0.617090 0.461679
Si Si3 0.407945 0.610611 0.981113
Si Si4 0.353671 0.702731 0.173827
Si Si5 0.406968 0.382666 0.383097
Si Si6 0.687381 0.612305 0.788978
Si Si7 0.135464 0.610774 0.883223
Si Si8 0.091166 0.810165 0.801382
O O1 0.737567 0.658423 0.147553
O O2 0.892643 0.695314 0.180143
O O3 0.809588 0.815454 0.054108
O O4 0.840859 0.627472 0.001095
O O5 0.220384 0.500000 0.491702
O O6 0.322318 0.652453 0.442569
O O7 0.167058 0.635514 0.361629
O O8 0.500000 0.600073 0.935574
O O9 0.373296 0.500000 0.011680
O O10 0.352680 0.658549 0.891668
O O11 0.411065 0.686291 0.075456
O O12 0.396243 0.644735 0.265479
O O13 0.343199 0.821215 0.194738
O O14 0.500000 0.340039 0.420041
O O15 0.411048 0.500000 0.392363
O O16 0.655487 0.500000 0.768682
O O17 0.786034 0.618112 0.806081
O O18 0.095002 0.500000 0.874329
O O19 0.075402 0.698171 0.844850
O O20 0.000000 0.863882 0.816749
#
# Coordination Sequence:
#
# PCOD8180175 Si02
#       8
#     8   8   8   8   8   8   8   8
#     4  11  22  38  63  98 129 164 214 261 320 379
#     4  10  23  44  68  94 130 175 218 263 320 389
#     4  10  22  38  58  88 122 159 208 262 314 373
#     4  12  20  35  61  91 124 162 211 259 317 374
#     4  10  21  38  63  95 130 170 216 267 322 383
#     4  10  21  38  60  86 120 163 208 255 308 376
#     4  10  21  40  65  92 123 160 204 255 314 379
#     4  11  24  44  67  94 132 168 210 269 322 381
#
# _framework density 22.859556000000001
#
# number of rings (size 3 to 8) (size 9 to 14) (size 15 to 20)
#    0.000    1.500    3.750    1.500    0.000    6.500 
#    0.000    0.625    0.000    0.000    0.000    3.500 
#    0.000    0.000    0.000    0.000    0.000    0.000 
#
# Total GULP energy -396539.700746 kJ/mol
# GULP energy per Si atom -12391.865648 kJ/mol
# Density = 2.280753 g / cm^3
# Si number density = 22.859556 Si / 1000 Ang^3
#
#
#
# Elastic Constant Matrix: (Units=GPa)
#
#
# Indices 1 2 3 4 5 6 
#
# 1 122.7721 11.8260 18.2509 0.0000 0.0000 0.0000
# 2 11.8260 65.0083 20.9635 0.0000 0.0000 0.0000
# 3 18.2509 20.9635 64.2552 0.0000 0.0000 0.0000
# 4 0.0000 0.0000 0.0000 29.6076 0.0000 0.0000
# 5 0.0000 0.0000 0.0000 0.0000 16.5280 0.0000
# 6 0.0000 0.0000 0.0000 0.0000 0.0000 16.8500
#
#
#
# Elastic Compliance Matrix: (Units=1/GPa)
#
#
# Indices 1 2 3 4 5 6 
#
# 1 0.008547 -0.000863 -0.002146 0.000000 0.000000 0.000000
# 2 -0.000863 0.017278 -0.005392 0.000000 0.000000 0.000000
# 3 -0.002146 -0.005392 0.017932 0.000000 0.000000 0.000000
# 4 0.000000 0.000000 0.000000 0.033775 0.000000 0.000000
# 5 0.000000 0.000000 0.000000 0.000000 0.060503 0.000000
# 6 0.000000 0.000000 0.000000 0.000000 0.000000 0.059347
#
#
# Mechanical properties :
#
#
# Convention : Reuss Voigt Hill
#
# Bulk Modulus (GPa) = 37.09854 39.34625 38.22240
# Shear Modulus (GPa) = 22.40441 25.99682 24.20061
#
# Velocity S-wave (km/s) = 3.13403 3.37596 3.25724
# Velocity P-wave (km/s) = 5.41852 5.69611 5.55905
#
# Compressibility (1/GPa) = 0.02695524
#
# Stress axis : x y z
#
# Youngs Moduli (GPa) = 116.99553 57.87569 55.76705
#
# Poissons Ratio (x) = 0.04993 0.11969
# Poissons Ratio (y) = 0.10094 0.30070
# Poissons Ratio (z) = 0.25110 0.31207
#
# Static dielectric constant tensor:
#      x y z
#    x 4.262230 0.000000 0.000000 
#    y 0.000000 4.201000 0.000000 
#    z 0.000000 0.000000 3.997150 
# 
# 
# High freq. dielectric constant tensor:
#      x y z
#    x 1.896520 0.000000 0.000000 
#    y 0.000000 1.903420 0.000000 
#    z 0.000000 0.000000 1.893380 
# 
# From -- ./inp_files/10592.got.cif
#   From: 2010.03.12/outbox.cif.g09.slc.cpg/sg38_6_cif.got.tgz:10592.got - 2010.04.14 02:38:36.
