data_PCOD8180886
_publ_section_title
;
Structure prediction by ZEFSAII (Michael W. Deem and Ramdas Pophale) SiO2 
 PCOD8180886
Probable space group: A B M 2
;
_chemical_formula_sum "Si O2"
_cell_formula_units_Z 48
_cell_length_a 16.348962
_cell_length_b 9.380376
_cell_length_c 18.388621
_cell_angle_alpha 90.000000
_cell_angle_beta 90.000000
_cell_angle_gamma 90.000000
_cell_volume 2820.068081
_symmetry_space_group_name_H-M "A B M 2"
_symmetry_group_IT_number 39
_symmetry_cell_setting 'orthorhombic'
loop_
_space_group_symop_operation_xyz
x,y,z
-x,-y,z
-x,1/2+y,z
x,1/2-y,z
x,1/2+y,1/2+z
-x,1/2-y,1/2+z
-x,y,1/2+z
x,-y,1/2+z
loop_
_atom_site_type_symbol
_atom_site_label
_atom_site_fract_x
_atom_site_fract_y
_atom_site_fract_z
Si Si1 0.739885 0.080534 0.692890
Si Si2 0.675445 0.093013 0.915866
Si Si3 0.241490 0.083836 0.030499
Si Si4 0.840243 0.409003 0.824801
Si Si5 0.418434 0.581266 0.777313
Si Si6 0.078644 0.582641 0.442776
O O1 0.739144 0.250000 0.693989
O O2 0.755255 0.020757 0.612010
O O3 0.815353 0.031700 0.744806
O O4 0.652801 0.025809 0.723164
O O5 0.654439 0.250000 0.946579
O O6 0.757910 0.101244 0.870343
O O7 0.604495 0.041015 0.860800
O O8 0.686014 0.987075 0.983598
O O9 0.260433 0.250000 0.029887
O O10 0.152463 0.050398 0.997905
O O11 0.880021 0.250000 0.820853
O O12 0.902185 0.519295 0.862657
O O13 0.500000 0.500000 0.754269
O O14 0.431366 0.750000 0.769623
O O15 0.060716 0.750000 0.435809
O O16 0.000000 0.500000 0.474556
#
# Coordination Sequence:
#
# PCOD8180886 Si02
#       6
#     8   8   8   8   8   8
#     4   8  15  30  50  69  91 121 152 184 229 276
#     4   8  15  28  45  65  88 116 149 183 222 265
#     4   9  17  30  49  70  91 119 154 187 222 271
#     4   8  14  28  49  66  84 114 149 183 219 264
#     4   9  17  30  48  68  91 120 154 191 230 271
#     4  10  19  30  46  68  92 118 150 188 228 269
#
# _framework density 17.020865000000001
#
# number of rings (size 3 to 8) (size 9 to 14) (size 15 to 20)
#    0.000    3.333    0.000    2.500    0.000    1.333 
#    0.000    5.833    0.000    6.000    0.000    0.000 
#    0.000    0.000    0.000    0.000    0.000    0.000 
#
# Total GULP energy -297443.905959 kJ/mol
# GULP energy per Si atom -12393.496082 kJ/mol
# Density = 1.698212 g / cm^3
# Si number density = 17.020865 Si / 1000 Ang^3
#
#
#
# Elastic Constant Matrix: (Units=GPa)
#
#
# Indices 1 2 3 4 5 6 
#
# 1 73.2792 36.8951 40.3391 0.0000 0.0000 0.0000
# 2 36.8951 61.3624 42.8829 0.0000 0.0000 0.0000
# 3 40.3391 42.8829 132.0572 0.0000 0.0000 0.0000
# 4 0.0000 0.0000 0.0000 20.4762 0.0000 0.0000
# 5 0.0000 0.0000 0.0000 0.0000 17.4375 0.0000
# 6 0.0000 0.0000 0.0000 0.0000 0.0000 27.8579
#
#
#
# Elastic Compliance Matrix: (Units=1/GPa)
#
#
# Indices 1 2 3 4 5 6 
#
# 1 0.020400 -0.010233 -0.002908 0.000000 0.000000 0.000000
# 2 -0.010233 0.026214 -0.005387 0.000000 0.000000 0.000000
# 3 -0.002908 -0.005387 0.010210 0.000000 0.000000 0.000000
# 4 0.000000 0.000000 0.000000 0.048837 0.000000 0.000000
# 5 0.000000 0.000000 0.000000 0.000000 0.057348 0.000000
# 6 0.000000 0.000000 0.000000 0.000000 0.000000 0.035897
#
#
# Mechanical properties :
#
#
# Convention : Reuss Voigt Hill
#
# Bulk Modulus (GPa) = 50.58819 56.32587 53.45703
# Shear Modulus (GPa) = 20.61431 22.92644 21.77037
#
# Velocity S-wave (km/s) = 3.48389 3.67408 3.58025
# Velocity P-wave (km/s) = 6.78005 7.15280 6.96892
#
# Compressibility (1/GPa) = 0.01976746
#
# Stress axis : x y z
#
# Youngs Moduli (GPa) = 49.02031 38.14787 97.94246
#
# Poissons Ratio (x) = 0.39037 0.28486
# Poissons Ratio (y) = 0.50163 0.52757
# Poissons Ratio (z) = 0.14257 0.20548
#
# Static dielectric constant tensor:
#      x y z
#    x 3.066440 0.000000 0.000000 
#    y 0.000000 3.088090 0.000000 
#    z 0.000000 0.000000 3.502020 
# 
# 
# High freq. dielectric constant tensor:
#      x y z
#    x 1.638410 0.000000 0.000000 
#    y 0.000000 1.639680 0.000000 
#    z 0.000000 0.000000 1.648650 
# 
# From -- ./inp_files/9731.got.cif
#   From: 2010.03.12/outbox.cif.g09.slc.cpg/sg39_5_cif.got.tgz:9731.got - 2010.04.14 02:53:20.
