data_PCOD8180299
_publ_section_title
;
Structure prediction by ZEFSAII (Michael W. Deem and Ramdas Pophale) SiO2 
 PCOD8180299
Probable space group: A M M 2
;
_chemical_formula_sum "Si O2"
_cell_formula_units_Z 48
_cell_length_a 9.035971
_cell_length_b 16.510171
_cell_length_c 17.036790
_cell_angle_alpha 90.000000
_cell_angle_beta 90.000000
_cell_angle_gamma 90.000000
_cell_volume 2541.640780
_symmetry_space_group_name_H-M "A M M 2"
_symmetry_group_IT_number 38
_symmetry_cell_setting 'orthorhombic'
loop_
_space_group_symop_operation_xyz
x,y,z
-x,-y,z
-x,y,z
x,-y,z
x,1/2+y,1/2+z
-x,1/2-y,1/2+z
-x,1/2+y,1/2+z
x,1/2-y,1/2+z
loop_
_atom_site_type_symbol
_atom_site_label
_atom_site_fract_x
_atom_site_fract_y
_atom_site_fract_z
Si Si1 0.827979 0.361294 0.798530
Si Si2 0.324428 0.000000 0.025661
Si Si3 0.171630 0.176151 0.764167
Si Si4 0.327953 0.329590 0.954716
Si Si5 0.676218 0.500000 0.702798
Si Si6 0.672849 0.094055 0.619441
Si Si7 0.327443 0.146819 0.921106
O O1 0.798073 0.271719 0.766286
O O2 0.768558 0.370939 0.886896
O O3 0.737073 0.419950 0.743024
O O4 0.000000 0.384516 0.797562
O O5 0.263512 0.000000 0.113870
O O6 0.500000 0.000000 0.027490
O O7 0.265878 0.080002 0.981418
O O8 0.238031 0.141531 0.684889
O O9 0.246511 0.133559 0.838609
O O10 0.000000 0.155435 0.767195
O O11 0.500000 0.345965 0.936448
O O12 0.293591 0.234014 0.959007
O O13 0.278870 0.369920 0.035857
O O14 0.500000 0.500000 0.707470
O O15 0.500000 0.108188 0.634219
O O16 0.714965 0.000000 0.621866
O O17 0.500000 0.134769 0.904486
#
# Coordination Sequence:
#
# PCOD8180299 Si02
#       7
#     8   4   8   8   4   8   8
#     4  10  22  40  59  83 118 154 189 233 288 343
#     4   9  20  35  57  88 113 140 185 237 288 335
#     4  10  22  39  58  83 115 153 193 232 281 344
#     4   9  19  36  60  85 110 147 193 239 288 339
#     4  11  23  37  61  90 117 148 191 237 280 339
#     4  10  22  37  57  86 117 148 189 241 289 336
#     4   9  18  36  59  83 112 145 185 236 289 340
#
# _framework density 18.885438000000001
#
# number of rings (size 3 to 8) (size 9 to 14) (size 15 to 20)
#    0.000    2.333    0.000    1.250    4.667    3.000 
#    0.000    1.667    0.000    0.000    0.000    0.000 
#    0.000    0.000    0.000    0.000    0.000    0.000 
#
# Total GULP energy -297693.679972 kJ/mol
# GULP energy per Si atom -12403.903332 kJ/mol
# Density = 1.884245 g / cm^3
# Si number density = 18.885438 Si / 1000 Ang^3
#
#
#
# Elastic Constant Matrix: (Units=GPa)
#
#
# Indices 1 2 3 4 5 6 
#
# 1 80.4884 51.1838 75.2716 0.0000 0.0000 0.0000
# 2 51.1838 93.3813 86.2603 0.0000 0.0000 0.0000
# 3 75.2716 86.2603 179.3418 0.0000 0.0000 0.0000
# 4 0.0000 0.0000 0.0000 32.5412 0.0000 0.0000
# 5 0.0000 0.0000 0.0000 0.0000 5.2959 0.0000
# 6 0.0000 0.0000 0.0000 0.0000 0.0000 25.7653
#
#
#
# Elastic Compliance Matrix: (Units=1/GPa)
#
#
# Indices 1 2 3 4 5 6 
#
# 1 0.022436 -0.006476 -0.006301 0.000000 0.000000 0.000000
# 2 -0.006476 0.021141 -0.007450 0.000000 0.000000 0.000000
# 3 -0.006301 -0.007450 0.011804 0.000000 0.000000 0.000000
# 4 0.000000 0.000000 0.000000 0.030730 0.000000 0.000000
# 5 0.000000 0.000000 0.000000 0.000000 0.188824 0.000000
# 6 0.000000 0.000000 0.000000 0.000000 0.000000 0.038812
#
#
# Mechanical properties :
#
#
# Convention : Reuss Voigt Hill
#
# Bulk Modulus (GPa) = 67.00405 86.51585 76.75995
# Shear Modulus (GPa) = 13.92070 22.08687 18.00379
#
# Velocity S-wave (km/s) = 2.71793 3.42353 3.09093
# Velocity P-wave (km/s) = 6.73838 7.84460 7.31244
#
# Compressibility (1/GPa) = 0.01492447
#
# Stress axis : x y z
#
# Youngs Moduli (GPa) = 44.57200 47.30255 84.71695
#
# Poissons Ratio (x) = 0.30635 0.53383
# Poissons Ratio (y) = 0.28867 0.63114
# Poissons Ratio (z) = 0.28087 0.35240
#
# Static dielectric constant tensor:
#      x y z
#    x 3.384600 0.000000 0.000000 
#    y 0.000000 3.566010 0.000000 
#    z 0.000000 0.000000 3.578000 
# 
# 
# High freq. dielectric constant tensor:
#      x y z
#    x 1.724180 0.000000 0.000000 
#    y 0.000000 1.742180 0.000000 
#    z 0.000000 0.000000 1.742930 
# 
# From -- ./inp_files/12074.got.cif
#   From: 2010.03.12/outbox.cif.g09.slc.cpg/sg38_7_cif.got.tgz:12074.got - 2010.04.14 02:38:36.
