data_PCOD8180273
_publ_section_title
;
Structure prediction by ZEFSAII (Michael W. Deem and Ramdas Pophale) SiO2 
 PCOD8180273
Probable space group: A M M 2
;
_chemical_formula_sum "Si O2"
_cell_formula_units_Z 64
_cell_length_a 8.923705
_cell_length_b 30.370909
_cell_length_c 11.846538
_cell_angle_alpha 90.000000
_cell_angle_beta 90.000000
_cell_angle_gamma 90.000000
_cell_volume 3210.660960
_symmetry_space_group_name_H-M "A M M 2"
_symmetry_group_IT_number 38
_symmetry_cell_setting 'orthorhombic'
loop_
_space_group_symop_operation_xyz
x,y,z
-x,-y,z
-x,y,z
x,-y,z
x,1/2+y,1/2+z
-x,1/2-y,1/2+z
-x,1/2+y,1/2+z
x,1/2-y,1/2+z
loop_
_atom_site_type_symbol
_atom_site_label
_atom_site_fract_x
_atom_site_fract_y
_atom_site_fract_z
Si Si1 0.330076 0.951084 0.925390
Si Si2 0.829310 0.570820 0.648755
Si Si3 0.826363 0.709931 0.421863
Si Si4 0.825745 0.123759 0.788726
Si Si5 0.325756 0.550405 0.883244
Si Si6 0.175066 0.125449 0.525241
Si Si7 0.325004 0.800856 0.380479
Si Si8 0.167583 0.672263 0.661675
O O1 0.500000 0.936596 0.950695
O O2 0.261037 0.918194 0.834923
O O3 0.323560 0.000000 0.872091
O O4 0.241255 0.953384 0.042497
O O5 0.739924 0.558237 0.760050
O O6 0.819714 0.622306 0.621580
O O7 0.000000 0.555248 0.664623
O O8 0.770144 0.668020 0.350365
O O9 0.726415 0.750721 0.385645
O O10 0.800046 0.702632 0.554331
O O11 0.000000 0.719726 0.395009
O O12 0.790671 0.127798 0.657117
O O13 0.000000 0.116218 0.813960
O O14 0.500000 0.562367 0.879255
O O15 0.299052 0.500000 0.920597
O O16 0.247999 0.581697 0.974237
O O17 0.240033 0.169842 0.472131
O O18 0.000000 0.123652 0.498005
O O19 0.500000 0.804397 0.404028
O O20 0.290615 0.818628 0.255924
O O21 0.000000 0.681584 0.709350
#
# Coordination Sequence:
#
# PCOD8180273 Si02
#       8
#     8   8   8   8   8   8   8   8
#     4  11  24  40  61  92 130 168 203 249 314 377
#     4  11  21  38  65  95 125 162 209 257 306 364
#     4  10  22  43  67  91 122 161 207 255 308 365
#     4  10  23  44  67  91 119 160 214 264 307 362
#     4  11  24  41  62  91 127 165 205 255 317 376
#     4  11  24  43  66  91 122 164 213 260 309 367
#     4  12  26  41  62  95 131 163 203 253 310 372
#     4  10  21  40  67  93 122 162 206 256 309 362
#
# _framework density 19.933589999999999
#
# number of rings (size 3 to 8) (size 9 to 14) (size 15 to 20)
#    0.000    1.250    2.500    3.000    1.750    6.500 
#    0.000    2.500    0.000    0.000    0.000    0.000 
#    0.000    0.000    0.000    0.000    0.000    0.000 
#
# Total GULP energy -396975.495212 kJ/mol
# GULP energy per Si atom -12405.484225 kJ/mol
# Density = 1.988822 g / cm^3
# Si number density = 19.933590 Si / 1000 Ang^3
#
#
#
# Elastic Constant Matrix: (Units=GPa)
#
#
# Indices 1 2 3 4 5 6 
#
# 1 120.2856 57.8503 59.1663 0.0000 0.0000 0.0000
# 2 57.8503 120.1705 48.3082 0.0000 0.0000 0.0000
# 3 59.1663 48.3082 100.0381 0.0000 0.0000 0.0000
# 4 0.0000 0.0000 0.0000 18.5828 0.0000 0.0000
# 5 0.0000 0.0000 0.0000 0.0000 14.0780 0.0000
# 6 0.0000 0.0000 0.0000 0.0000 0.0000 37.9812
#
#
#
# Elastic Compliance Matrix: (Units=1/GPa)
#
#
# Indices 1 2 3 4 5 6 
#
# 1 0.013082 -0.003955 -0.005827 0.000000 0.000000 0.000000
# 2 -0.003955 0.011522 -0.003225 0.000000 0.000000 0.000000
# 3 -0.005827 -0.003225 0.015000 0.000000 0.000000 0.000000
# 4 0.000000 0.000000 0.000000 0.053813 0.000000 0.000000
# 5 0.000000 0.000000 0.000000 0.000000 0.071033 0.000000
# 6 0.000000 0.000000 0.000000 0.000000 0.000000 0.026329
#
#
# Mechanical properties :
#
#
# Convention : Reuss Voigt Hill
#
# Bulk Modulus (GPa) = 73.58594 74.57156 74.07875
# Shear Modulus (GPa) = 22.59146 25.80637 24.19892
#
# Velocity S-wave (km/s) = 3.37016 3.60198 3.48800
# Velocity P-wave (km/s) = 7.22078 7.40204 7.31197
#
# Compressibility (1/GPa) = 0.01358955
#
# Stress axis : x y z
#
# Youngs Moduli (GPa) = 76.44028 86.79170 66.66741
#
# Poissons Ratio (x) = 0.34328 0.38849
# Poissons Ratio (y) = 0.30234 0.21498
# Poissons Ratio (z) = 0.44544 0.27987
#
# Static dielectric constant tensor:
#      x y z
#    x 3.741450 0.000000 0.000000 
#    y 0.000000 3.765390 0.000000 
#    z 0.000000 0.000000 3.595270 
# 
# 
# High freq. dielectric constant tensor:
#      x y z
#    x 1.781380 0.000000 0.000000 
#    y 0.000000 1.792070 0.000000 
#    z 0.000000 0.000000 1.779810 
# 
# From -- ./inp_files/8668.got.cif
#   From: 2010.03.12/outbox.cif.g09.slc.cpg/sg38_5_cif.got.tgz:8668.got - 2010.04.14 02:38:36.
