data_PCOD8180062
_publ_section_title
;
Structure prediction by ZEFSAII (Michael W. Deem and Ramdas Pophale) SiO2 
 PCOD8180062
Probable space group: A M M 2
;
_chemical_formula_sum "Si O2"
_cell_formula_units_Z 48
_cell_length_a 9.243190
_cell_length_b 9.180535
_cell_length_c 30.911706
_cell_angle_alpha 90.000000
_cell_angle_beta 90.000000
_cell_angle_gamma 90.000000
_cell_volume 2623.087907
_symmetry_space_group_name_H-M "A M M 2"
_symmetry_group_IT_number 38
_symmetry_cell_setting 'orthorhombic'
loop_
_space_group_symop_operation_xyz
x,y,z
-x,-y,z
-x,y,z
x,-y,z
x,1/2+y,1/2+z
-x,1/2-y,1/2+z
-x,1/2+y,1/2+z
x,1/2-y,1/2+z
loop_
_atom_site_type_symbol
_atom_site_label
_atom_site_fract_x
_atom_site_fract_y
_atom_site_fract_z
Si Si1 0.665898 0.670105 0.833910
Si Si2 0.332258 0.171946 0.996374
Si Si3 0.168879 0.329784 0.919730
Si Si4 0.169776 0.830625 0.571272
Si Si5 0.840329 0.172937 0.667818
Si Si6 0.332111 0.830739 0.749155
O O1 0.500000 0.715815 0.843394
O O2 0.678889 0.500000 0.825018
O O3 0.763453 0.718698 0.874145
O O4 0.728181 0.750762 0.791657
O O5 0.500000 0.216441 0.993145
O O6 0.246694 0.239477 0.956591
O O7 0.311397 0.000000 0.995517
O O8 0.266853 0.232594 0.040573
O O9 0.196033 0.500000 0.928495
O O10 0.000000 0.291839 0.919489
O O11 0.214297 0.783186 0.619992
O O12 0.000000 0.801462 0.563033
O O13 0.204479 0.000000 0.562767
O O14 0.739322 0.235550 0.705785
O O15 0.000000 0.237113 0.675533
O O16 0.844842 0.000000 0.669927
O O17 0.500000 0.799489 0.744093
O O18 0.295961 0.000000 0.754443
#
# Coordination Sequence:
#
# PCOD8180062 Si02
#       6
#     8   8   8   8   8   8
#     4   9  18  33  51  71  99 134 167 202 249 300
#     4  11  24  38  52  75 106 136 167 206 253 305
#     4  10  21  37  57  79 101 129 169 213 254 301
#     4   9  18  34  56  79 102 132 172 214 254 299
#     4   8  15  29  49  73 100 129 163 204 247 292
#     4   9  17  29  47  72 100 130 166 206 245 288
#
# _framework density 18.299043000000001
#
# number of rings (size 3 to 8) (size 9 to 14) (size 15 to 20)
#    0.000    2.667    0.000    2.500    0.000    6.667 
#    0.000    4.167    0.000    3.000    0.000    0.000 
#    0.000    0.000    0.000    0.000    0.000    0.000 
#
# Total GULP energy -297580.072507 kJ/mol
# GULP energy per Si atom -12399.169688 kJ/mol
# Density = 1.825739 g / cm^3
# Si number density = 18.299043 Si / 1000 Ang^3
#
#
#
# Elastic Constant Matrix: (Units=GPa)
#
#
# Indices 1 2 3 4 5 6 
#
# 1 105.9223 48.4947 93.8926 0.0000 0.0000 0.0000
# 2 48.4947 46.7798 60.6786 0.0000 0.0000 0.0000
# 3 93.8926 60.6786 190.6548 0.0000 0.0000 0.0000
# 4 0.0000 0.0000 0.0000 31.9526 0.0000 0.0000
# 5 0.0000 0.0000 0.0000 0.0000 48.6224 0.0000
# 6 0.0000 0.0000 0.0000 0.0000 0.0000 23.0088
#
#
#
# Elastic Compliance Matrix: (Units=1/GPa)
#
#
# Indices 1 2 3 4 5 6 
#
# 1 0.021244 -0.014395 -0.005881 0.000000 0.000000 0.000000
# 2 -0.014395 0.046160 -0.007602 0.000000 0.000000 0.000000
# 3 -0.005881 -0.007602 0.010561 0.000000 0.000000 0.000000
# 4 0.000000 0.000000 0.000000 0.031296 0.000000 0.000000
# 5 0.000000 0.000000 0.000000 0.000000 0.020567 0.000000
# 6 0.000000 0.000000 0.000000 0.000000 0.000000 0.043462
#
#
# Mechanical properties :
#
#
# Convention : Reuss Voigt Hill
#
# Bulk Modulus (GPa) = 45.02593 83.27652 64.15122
# Shear Modulus (GPa) = 21.14627 30.06951 25.60789
#
# Velocity S-wave (km/s) = 3.40309 4.05807 3.74493
# Velocity P-wave (km/s) = 6.33249 8.21978 7.33707
#
# Compressibility (1/GPa) = 0.02220943
#
# Stress axis : x y z
#
# Youngs Moduli (GPa) = 47.07119 21.66381 94.69081
#
# Poissons Ratio (x) = 0.31185 0.55687
# Poissons Ratio (y) = 0.67759 0.71983
# Poissons Ratio (z) = 0.27682 0.16469
#
# Static dielectric constant tensor:
#      x y z
#    x 3.458260 0.000000 0.000000 
#    y 0.000000 3.136690 0.000000 
#    z 0.000000 0.000000 3.731330 
# 
# 
# High freq. dielectric constant tensor:
#      x y z
#    x 1.708090 0.000000 0.000000 
#    y 0.000000 1.683620 0.000000 
#    z 0.000000 0.000000 1.727160 
# 
# From -- ./inp_files/24294.got.cif
#   From: 2010.03.12/outbox.cif.g09.slc.cpg/sg38_13_cif.got.tgz:24294.got - 2010.04.14 02:38:36.
