data_PCOD8180351
_publ_section_title
;
Structure prediction by ZEFSAII (Michael W. Deem and Ramdas Pophale) SiO2 
 PCOD8180351
Probable space group: A M M 2
;
_chemical_formula_sum "Si O2"
_cell_formula_units_Z 64
_cell_length_a 23.793738
_cell_length_b 8.532962
_cell_length_c 15.326120
_cell_angle_alpha 90.000000
_cell_angle_beta 90.000000
_cell_angle_gamma 90.000000
_cell_volume 3111.678423
_symmetry_space_group_name_H-M "A M M 2"
_symmetry_group_IT_number 38
_symmetry_cell_setting 'orthorhombic'
loop_
_space_group_symop_operation_xyz
x,y,z
-x,-y,z
-x,y,z
x,-y,z
x,1/2+y,1/2+z
-x,1/2-y,1/2+z
-x,1/2+y,1/2+z
x,1/2-y,1/2+z
loop_
_atom_site_type_symbol
_atom_site_label
_atom_site_fract_x
_atom_site_fract_y
_atom_site_fract_z
Si Si1 0.248626 0.315125 0.242210
Si Si2 0.434959 0.818459 0.332509
Si Si3 0.062370 0.315869 0.336625
Si Si4 0.134134 0.178818 0.185888
Si Si5 0.369695 0.682635 0.173481
Si Si6 0.368528 0.682595 0.492041
Si Si7 0.141101 0.181153 0.990404
Si Si8 0.253959 0.316483 0.934931
O O1 0.239921 0.500000 0.240951
O O2 0.198317 0.234519 0.190419
O O3 0.306670 0.264505 0.197485
O O4 0.248421 0.257468 0.340485
O O5 0.500000 0.776892 0.343110
O O6 0.410528 0.716810 0.253788
O O7 0.404784 0.777598 0.422534
O O8 0.424935 0.000000 0.311154
O O9 0.056990 0.500000 0.345808
O O10 0.093469 0.278949 0.246575
O O11 0.097315 0.251189 0.419309
O O12 0.000000 0.239894 0.336667
O O13 0.130688 0.000000 0.217159
O O14 0.113686 0.198149 0.086110
O O15 0.371887 0.500000 0.151138
O O16 0.390575 0.778505 0.089082
O O17 0.375086 0.500000 0.471929
O O18 0.303908 0.734062 0.487175
O O19 0.196970 0.285495 0.987455
O O20 0.156444 0.000000 0.970498
O O21 0.266218 0.500000 0.928657
#
# Coordination Sequence:
#
# PCOD8180351 Si02
#       8
#     8   8   8   8   8   8   8   8
#     4  11  22  38  62  92 127 165 202 247 311 378
#     4  11  25  45  68  94 126 166 214 266 317 372
#     4  10  22  41  63  85 116 163 210 255 308 365
#     4  11  23  38  61  93 123 159 203 253 306 362
#     4  11  24  42  67  97 129 167 209 258 316 376
#     4  12  25  42  66  95 130 170 211 258 314 374
#     4  10  22  40  62  89 125 162 202 248 308 376
#     4  12  23  37  63  95 128 162 204 254 311 373
#
# _framework density 20.567678999999998
#
# number of rings (size 3 to 8) (size 9 to 14) (size 15 to 20)
#    0.000    1.000    2.500    4.500    0.000    6.750 
#    0.000    1.250    0.000    0.000    0.000    0.000 
#    0.000    0.000    0.000    0.000    0.000    0.000 
#
# Total GULP energy -396998.418888 kJ/mol
# GULP energy per Si atom -12406.200590 kJ/mol
# Density = 2.052087 g / cm^3
# Si number density = 20.567679 Si / 1000 Ang^3
#
#
#
# Elastic Constant Matrix: (Units=GPa)
#
#
# Indices 1 2 3 4 5 6 
#
# 1 125.7495 14.9573 41.7114 0.0000 0.0000 0.0000
# 2 14.9573 41.3662 5.4906 0.0000 0.0000 0.0000
# 3 41.7114 5.4906 126.9151 0.0000 0.0000 0.0000
# 4 0.0000 0.0000 0.0000 31.8679 0.0000 0.0000
# 5 0.0000 0.0000 0.0000 0.0000 6.0394 0.0000
# 6 0.0000 0.0000 0.0000 0.0000 0.0000 21.7292
#
#
#
# Elastic Compliance Matrix: (Units=1/GPa)
#
#
# Indices 1 2 3 4 5 6 
#
# 1 0.009273 -0.002966 -0.002919 0.000000 0.000000 0.000000
# 2 -0.002966 0.025262 -0.000118 0.000000 0.000000 0.000000
# 3 -0.002919 -0.000118 0.008844 0.000000 0.000000 0.000000
# 4 0.000000 0.000000 0.000000 0.031380 0.000000 0.000000
# 5 0.000000 0.000000 0.000000 0.000000 0.165579 0.000000
# 6 0.000000 0.000000 0.000000 0.000000 0.000000 0.046021
#
#
# Mechanical properties :
#
#
# Convention : Reuss Voigt Hill
#
# Bulk Modulus (GPa) = 31.87446 46.48324 39.17885
# Shear Modulus (GPa) = 16.19045 27.38539 21.78792
#
# Velocity S-wave (km/s) = 2.80872 3.65290 3.25826
# Velocity P-wave (km/s) = 5.10387 6.35931 5.76586
#
# Compressibility (1/GPa) = 0.03137308
#
# Stress axis : x y z
#
# Youngs Moduli (GPa) = 107.83456 39.58458 113.07222
#
# Poissons Ratio (x) = 0.11739 0.33011
# Poissons Ratio (y) = 0.31980 0.01337
# Poissons Ratio (z) = 0.31482 0.00468
#
# Static dielectric constant tensor:
#      x y z
#    x 3.872120 0.000000 0.000000 
#    y 0.000000 3.733040 0.000000 
#    z 0.000000 0.000000 3.770670 
# 
# 
# High freq. dielectric constant tensor:
#      x y z
#    x 1.800340 0.000000 0.000000 
#    y 0.000000 1.806300 0.000000 
#    z 0.000000 0.000000 1.819660 
# 
# From -- ./inp_files/15888.got.cif
#   From: 2010.03.12/outbox.cif.g09.slc.cpg/sg38_8_cif.got.tgz:15888.got - 2010.04.14 02:38:36.
