data_PCOD8180724
_publ_section_title
;
Structure prediction by ZEFSAII (Michael W. Deem and Ramdas Pophale) SiO2 
 PCOD8180724
Probable space group: A B M 2
;
_chemical_formula_sum "Si O2"
_cell_formula_units_Z 48
_cell_length_a 9.364855
_cell_length_b 18.718362
_cell_length_c 14.958080
_cell_angle_alpha 90.000000
_cell_angle_beta 90.000000
_cell_angle_gamma 90.000000
_cell_volume 2622.072834
_symmetry_space_group_name_H-M "A B M 2"
_symmetry_group_IT_number 39
_symmetry_cell_setting 'orthorhombic'
loop_
_space_group_symop_operation_xyz
x,y,z
-x,-y,z
-x,1/2+y,z
x,1/2-y,z
x,1/2+y,1/2+z
-x,1/2-y,1/2+z
-x,y,1/2+z
x,-y,1/2+z
loop_
_atom_site_type_symbol
_atom_site_label
_atom_site_fract_x
_atom_site_fract_y
_atom_site_fract_z
Si Si1 0.647147 0.031975 0.515430
Si Si2 0.782343 0.010367 0.183751
Si Si3 0.815033 0.168765 0.493036
Si Si4 0.036135 0.828762 0.844749
Si Si5 0.995028 0.380996 0.655854
Si Si6 0.160842 0.972980 0.869224
O O1 0.649758 0.008745 0.619632
O O2 0.675778 0.117435 0.506008
O O3 0.500000 0.000000 0.475057
O O4 0.779035 0.995245 0.464792
O O5 0.742583 0.008855 0.289767
O O6 0.896000 0.947545 0.176645
O O7 0.844943 0.086341 0.149233
O O8 0.758379 0.250000 0.499195
O O9 0.889071 0.152730 0.397626
O O10 0.940307 0.157440 0.566488
O O11 0.090337 0.750000 0.873937
O O12 0.004834 0.826638 0.738942
O O13 0.159116 0.886529 0.866500
O O14 0.000000 0.000000 0.856907
#
# Coordination Sequence:
#
# PCOD8180724 Si02
#       6
#     8   8   8   8   8   8
#     4  11  23  35  52  78 106 145 180 211 255 316
#     4   9  17  30  52  77 104 132 173 217 255 297
#     4  10  19  31  50  74 105 137 169 211 262 312
#     4  10  18  29  50  83 108 128 165 218 273 309
#     4   9  15  28  49  77 102 130 163 213 262 302
#     4  11  18  34  57  80 104 135 175 224 262 300
#
# _framework density 18.306128000000001
#
# number of rings (size 3 to 8) (size 9 to 14) (size 15 to 20)
#    0.000    2.000    5.000    1.500    2.333    0.667 
#    0.000    0.833    0.000    2.000    0.000    7.000 
#    0.000    0.000    0.000    0.000    0.000    0.000 
#
# Total GULP energy -297361.752442 kJ/mol
# GULP energy per Si atom -12390.073018 kJ/mol
# Density = 1.826446 g / cm^3
# Si number density = 18.306128 Si / 1000 Ang^3
#
#
#
# Elastic Constant Matrix: (Units=GPa)
#
#
# Indices 1 2 3 4 5 6 
#
# 1 43.1914 33.1781 23.9299 0.0000 0.0000 0.0000
# 2 33.1781 109.1675 27.3170 0.0000 0.0000 0.0000
# 3 23.9299 27.3170 93.1388 0.0000 0.0000 0.0000
# 4 0.0000 0.0000 0.0000 22.8545 0.0000 0.0000
# 5 0.0000 0.0000 0.0000 0.0000 15.5208 0.0000
# 6 0.0000 0.0000 0.0000 0.0000 0.0000 17.8432
#
#
#
# Elastic Compliance Matrix: (Units=1/GPa)
#
#
# Indices 1 2 3 4 5 6 
#
# 1 0.033027 -0.008541 -0.005981 0.000000 0.000000 0.000000
# 2 -0.008541 0.012095 -0.001353 0.000000 0.000000 0.000000
# 3 -0.005981 -0.001353 0.012670 0.000000 0.000000 0.000000
# 4 0.000000 0.000000 0.000000 0.043755 0.000000 0.000000
# 5 0.000000 0.000000 0.000000 0.000000 0.064430 0.000000
# 6 0.000000 0.000000 0.000000 0.000000 0.000000 0.056044
#
#
# Mechanical properties :
#
#
# Convention : Reuss Voigt Hill
#
# Bulk Modulus (GPa) = 38.39828 46.03866 42.21847
# Shear Modulus (GPa) = 19.05123 21.98187 20.51655
#
# Velocity S-wave (km/s) = 3.22949 3.46901 3.35139
# Velocity P-wave (km/s) = 5.90994 6.42256 6.17157
#
# Compressibility (1/GPa) = 0.02604284
#
# Stress axis : x y z
#
# Youngs Moduli (GPa) = 30.27807 82.68182 78.92652
#
# Poissons Ratio (x) = 0.70619 0.47202
# Poissons Ratio (y) = 0.25861 0.10677
# Poissons Ratio (z) = 0.18108 0.11185
#
# Static dielectric constant tensor:
#      x y z
#    x 2.851440 0.000000 0.000000 
#    y 0.000000 3.526570 0.000000 
#    z 0.000000 0.000000 3.826750 
# 
# 
# High freq. dielectric constant tensor:
#      x y z
#    x 1.638630 0.000000 0.000000 
#    y 0.000000 1.713080 0.000000 
#    z 0.000000 0.000000 1.730370 
# 
# From -- ./inp_files/8465.got.cif
#   From: 2010.03.12/outbox.cif.g09.slc.cpg/sg39_5_cif.got.tgz:8465.got - 2010.04.14 02:53:20.
