data_PCOD8180546
_publ_section_title
;
Structure prediction by ZEFSAII (Michael W. Deem and Ramdas Pophale) SiO2 
 PCOD8180546
Probable space group: A M M 2
;
_chemical_formula_sum "Si O2"
_cell_formula_units_Z 64
_cell_length_a 9.199133
_cell_length_b 9.805676
_cell_length_c 41.213505
_cell_angle_alpha 90.000000
_cell_angle_beta 90.000000
_cell_angle_gamma 90.000000
_cell_volume 3717.611370
_symmetry_space_group_name_H-M "A M M 2"
_symmetry_group_IT_number 38
_symmetry_cell_setting 'orthorhombic'
loop_
_space_group_symop_operation_xyz
x,y,z
-x,-y,z
-x,y,z
x,-y,z
x,1/2+y,1/2+z
-x,1/2-y,1/2+z
-x,1/2+y,1/2+z
x,1/2-y,1/2+z
loop_
_atom_site_type_symbol
_atom_site_label
_atom_site_fract_x
_atom_site_fract_y
_atom_site_fract_z
Si Si1 0.163904 0.162208 0.426340
Si Si2 0.827293 0.847195 0.109568
Si Si3 0.335905 0.162313 0.488348
Si Si4 0.669524 0.156497 0.802946
Si Si5 0.827265 0.346934 0.681418
Si Si6 0.330483 0.657516 0.862486
Si Si7 0.829313 0.656436 0.238154
Si Si8 0.170392 0.657825 0.052244
O O1 0.251130 0.221759 0.457166
O O2 0.242671 0.210721 0.393614
O O3 0.000000 0.219878 0.426905
O O4 0.163068 0.000000 0.428035
O O5 0.770300 0.805267 0.145483
O O6 0.767595 0.741774 0.082909
O O7 0.000000 0.842796 0.109656
O O8 0.773710 0.000000 0.101022
O O9 0.500000 0.219526 0.488304
O O10 0.254059 0.212042 0.520631
O O11 0.336343 0.000000 0.486920
O O12 0.500000 0.175609 0.796130
O O13 0.721663 0.251610 0.832345
O O14 0.753716 0.205992 0.771069
O O15 0.707634 0.000000 0.811507
O O16 0.775263 0.500000 0.689841
O O17 0.764481 0.244025 0.708331
O O18 0.000000 0.339656 0.681532
O O19 0.500000 0.678331 0.869985
O O20 0.295493 0.500000 0.854588
O O21 0.791205 0.500000 0.230674
O O22 0.000000 0.679610 0.242456
O O23 0.203689 0.500000 0.059151
O O24 0.000000 0.682710 0.046418
#
# Coordination Sequence:
#
# PCOD8180546 Si02
#       8
#     8   8   8   8   8   8   8   8
#     4   9  16  26  42  65  91 115 140 175 217 255
#     4   8  14  25  41  61  86 115 143 172 212 260
#     4   9  16  26  41  61  87 118 146 173 211 257
#     4   9  18  32  47  62  85 118 148 172 207 257
#     4   8  14  25  41  62  87 113 141 174 214 258
#     4   9  17  29  45  65  87 111 142 178 213 251
#     4   9  17  28  43  64  87 110 140 179 217 251
#     4   9  16  25  40  64  88 108 138 181 219 249
#
# _framework density 17.215354999999999
#
# number of rings (size 3 to 8) (size 9 to 14) (size 15 to 20)
#    0.000    3.250    0.000    1.500    0.000    4.500 
#    0.000    2.500    0.000    1.875    0.000    5.250 
#    0.000    0.000    0.000    0.000    0.000    0.000 
#
# Total GULP energy -396704.435157 kJ/mol
# GULP energy per Si atom -12397.013599 kJ/mol
# Density = 1.717617 g / cm^3
# Si number density = 17.215355 Si / 1000 Ang^3
#
#
#
# Elastic Constant Matrix: (Units=GPa)
#
#
# Indices 1 2 3 4 5 6 
#
# 1 58.4495 28.4983 61.3870 0.0000 0.0000 0.0000
# 2 28.4983 62.2573 79.0890 0.0000 0.0000 0.0000
# 3 61.3870 79.0890 193.3899 0.0000 0.0000 0.0000
# 4 0.0000 0.0000 0.0000 27.2609 0.0000 0.0000
# 5 0.0000 0.0000 0.0000 0.0000 10.4480 0.0000
# 6 0.0000 0.0000 0.0000 0.0000 0.0000 10.6884
#
#
#
# Elastic Compliance Matrix: (Units=1/GPa)
#
#
# Indices 1 2 3 4 5 6 
#
# 1 0.025921 -0.002941 -0.007025 0.000000 0.000000 0.000000
# 2 -0.002941 0.033764 -0.012875 0.000000 0.000000 0.000000
# 3 -0.007025 -0.012875 0.012666 0.000000 0.000000 0.000000
# 4 0.000000 0.000000 0.000000 0.036683 0.000000 0.000000
# 5 0.000000 0.000000 0.000000 0.000000 0.095712 0.000000
# 6 0.000000 0.000000 0.000000 0.000000 0.000000 0.093559
#
#
# Mechanical properties :
#
#
# Convention : Reuss Voigt Hill
#
# Bulk Modulus (GPa) = 37.49567 72.44948 54.97258
# Shear Modulus (GPa) = 14.16926 19.35429 16.76178
#
# Velocity S-wave (km/s) = 2.87201 3.35662 3.12373
# Velocity P-wave (km/s) = 5.72936 7.56294 6.70909
#
# Compressibility (1/GPa) = 0.02666975
#
# Stress axis : x y z
#
# Youngs Moduli (GPa) = 38.57870 29.61738 78.95006
#
# Poissons Ratio (x) = 0.08709 0.55466
# Poissons Ratio (y) = 0.11344 1.01646
# Poissons Ratio (z) = 0.27103 0.38132
#
# Static dielectric constant tensor:
#      x y z
#    x 3.006670 0.000000 0.000000 
#    y 0.000000 3.043610 0.000000 
#    z 0.000000 0.000000 3.504480 
# 
# 
# High freq. dielectric constant tensor:
#      x y z
#    x 1.638090 0.000000 0.000000 
#    y 0.000000 1.632500 0.000000 
#    z 0.000000 0.000000 1.677860 
# 
# From -- ./inp_files/24615.got.cif
#   From: 2010.03.12/outbox.cif.g09.slc.cpg/sg38_13_cif.got.tgz:24615.got - 2010.04.14 02:38:36.
