data_PCOD8180346
_publ_section_title
;
Structure prediction by ZEFSAII (Michael W. Deem and Ramdas Pophale) SiO2 
 PCOD8180346
Probable space group: A M M 2
;
_chemical_formula_sum "Si O2"
_cell_formula_units_Z 48
_cell_length_a 14.123839
_cell_length_b 8.525971
_cell_length_c 20.202597
_cell_angle_alpha 90.000000
_cell_angle_beta 90.000000
_cell_angle_gamma 90.000000
_cell_volume 2432.785452
_symmetry_space_group_name_H-M "A M M 2"
_symmetry_group_IT_number 38
_symmetry_cell_setting 'orthorhombic'
loop_
_space_group_symop_operation_xyz
x,y,z
-x,-y,z
-x,y,z
x,-y,z
x,1/2+y,1/2+z
-x,1/2-y,1/2+z
-x,1/2+y,1/2+z
x,1/2-y,1/2+z
loop_
_atom_site_type_symbol
_atom_site_label
_atom_site_fract_x
_atom_site_fract_y
_atom_site_fract_z
Si Si1 0.693381 0.686814 0.670290
Si Si2 0.500000 0.315831 0.214678
Si Si3 0.693418 0.817150 0.909698
Si Si4 0.800824 0.317129 0.541865
Si Si5 0.812398 0.681450 0.795735
Si Si6 0.500000 0.186318 0.362195
Si Si7 0.000000 0.318163 0.339561
Si Si8 0.000000 0.188202 0.988772
O O1 0.679286 0.500000 0.667063
O O2 0.590905 0.767737 0.671426
O O3 0.754447 0.752781 0.608487
O O4 0.748402 0.742005 0.735644
O O5 0.500000 0.500000 0.229102
O O6 0.500000 0.225700 0.284588
O O7 0.759050 0.712999 0.863565
O O8 0.586965 0.761921 0.900763
O O9 0.704962 0.000000 0.891417
O O10 0.726206 0.782425 0.983967
O O11 0.815451 0.500000 0.552372
O O12 0.905425 0.246909 0.525724
O O13 0.834683 0.500000 0.787558
O O14 0.910924 0.771174 0.795539
O O15 0.500000 0.000000 0.369762
O O16 0.000000 0.500000 0.351290
O O17 0.000000 0.243193 0.413546
O O18 0.000000 0.000000 0.986953
#
# Coordination Sequence:
#
# PCOD8180346 Si02
#       8
#     8   4   8   8   8   4   4   4
#     4  10  22  40  62  88 122 160 199 248 301 359
#     4  12  24  39  62  87 117 159 203 249 304 366
#     4  11  21  37  62  91 119 154 203 249 295 354
#     4   9  19  36  61  90 120 157 202 247 293 356
#     4  11  22  36  58  90 123 155 198 248 303 357
#     4  12  24  39  60  89 123 159 201 251 304 358
#     4  11  21  36  61  89 121 158 204 255 300 353
#     4   9  16  32  59  89 113 148 202 251 294 347
#
# _framework density 19.730471000000001
#
# number of rings (size 3 to 8) (size 9 to 14) (size 15 to 20)
#    0.000    1.500    3.333    2.750    0.000    2.000 
#    0.000    7.500    0.000    0.000    0.000    0.000 
#    0.000    0.000    0.000    0.000    0.000    0.000 
#
# Total GULP energy -297626.110777 kJ/mol
# GULP energy per Si atom -12401.087949 kJ/mol
# Density = 1.968556 g / cm^3
# Si number density = 19.730471 Si / 1000 Ang^3
#
#
#
# Elastic Constant Matrix: (Units=GPa)
#
#
# Indices 1 2 3 4 5 6 
#
# 1 165.0064 28.2341 42.5297 0.0000 0.0000 0.0000
# 2 28.2341 25.6850 36.1651 0.0000 0.0000 0.0000
# 3 42.5297 36.1651 83.8306 0.0000 0.0000 0.0000
# 4 0.0000 0.0000 0.0000 23.0055 0.0000 0.0000
# 5 0.0000 0.0000 0.0000 0.0000 -171.9271 0.0000
# 6 0.0000 0.0000 0.0000 0.0000 0.0000 34.3758
#
#
#
# Elastic Compliance Matrix: (Units=1/GPa)
#
#
# Indices 1 2 3 4 5 6 
#
# 1 0.007477 -0.007332 -0.000631 0.000000 0.000000 0.000000
# 2 -0.007332 0.106364 -0.042167 0.000000 0.000000 0.000000
# 3 -0.000631 -0.042167 0.030440 0.000000 0.000000 0.000000
# 4 0.000000 0.000000 0.000000 0.043468 0.000000 0.000000
# 5 0.000000 0.000000 0.000000 0.000000 -0.005816 0.000000
# 6 0.000000 0.000000 0.000000 0.000000 0.000000 0.029090
#
#
# Mechanical properties :
#
#
# Convention : Reuss Voigt Hill
#
# Bulk Modulus (GPa) = 22.71509 54.26443 38.48976
# Shear Modulus (GPa) = 15.33948 -11.73630 1.80159
#
# Velocity S-wave (km/s) = 2.79131 -2.44156 0.95660
# Velocity P-wave (km/s) = 4.68254 4.42880 4.55744
#
# Compressibility (1/GPa) = 0.04402360
#
# Stress axis : x y z
#
# Youngs Moduli (GPa) = 133.73624 9.40163 32.85169
#
# Poissons Ratio (x) = 0.06893 0.02072
# Poissons Ratio (y) = 0.98050 1.38525
# Poissons Ratio (z) = 0.08434 0.39644
#
# Static dielectric constant tensor:
#      x y z
#    x 4.052760 0.000000 0.000000 
#    y 0.000000 3.366970 0.000000 
#    z 0.000000 0.000000 3.690850 
# 
# 
# High freq. dielectric constant tensor:
#      x y z
#    x 1.789240 0.000000 0.000000 
#    y 0.000000 1.745500 0.000000 
#    z 0.000000 0.000000 1.765240 
# 
# From -- ./inp_files/18246.got.cif
#   From: 2010.03.12/outbox.cif.g09.slc.cpg/sg38_10_cif.got.tgz:18246.got - 2010.04.14 02:38:36.
