data_PCOD8180700
_publ_section_title
;
Structure prediction by ZEFSAII (Michael W. Deem and Ramdas Pophale) SiO2 
 PCOD8180700
Probable space group: A B M 2
;
_chemical_formula_sum "Si O2"
_cell_formula_units_Z 64
_cell_length_a 19.825075
_cell_length_b 9.047600
_cell_length_c 20.175289
_cell_angle_alpha 90.000000
_cell_angle_beta 90.000000
_cell_angle_gamma 90.000000
_cell_volume 3618.828445
_symmetry_space_group_name_H-M "A B M 2"
_symmetry_group_IT_number 39
_symmetry_cell_setting 'orthorhombic'
loop_
_space_group_symop_operation_xyz
x,y,z
-x,-y,z
-x,1/2+y,z
x,1/2-y,z
x,1/2+y,1/2+z
-x,1/2-y,1/2+z
-x,y,1/2+z
x,-y,1/2+z
loop_
_atom_site_type_symbol
_atom_site_label
_atom_site_fract_x
_atom_site_fract_y
_atom_site_fract_z
Si Si1 0.299843 0.078421 0.141430
Si Si2 0.671873 0.079229 0.784481
Si Si3 0.327915 0.073962 0.997871
Si Si4 0.571607 0.576342 0.398796
Si Si5 0.929544 0.424320 0.557626
Si Si6 0.189833 0.077342 0.808346
Si Si7 0.154380 0.923747 0.682369
Si Si8 0.180903 0.577316 0.456288
O O1 0.289203 0.250000 0.128515
O O2 0.345142 0.045915 0.206835
O O3 0.224741 0.013093 0.152774
O O4 0.334385 0.018215 0.074466
O O5 0.693522 0.250000 0.792643
O O6 0.607259 0.040901 0.828626
O O7 0.733895 0.980518 0.807783
O O8 0.337148 0.250000 0.988894
O O9 0.255629 0.015827 0.971387
O O10 0.386194 0.990678 0.958906
O O11 0.500000 0.500000 0.396425
O O12 0.563004 0.750000 0.410312
O O13 0.937930 0.250000 0.548620
O O14 0.905566 0.464015 0.632069
O O15 0.875131 0.490263 0.505529
O O16 0.000000 0.500000 0.542805
O O17 0.191544 0.250000 0.793980
O O18 0.159400 0.042115 0.880847
O O19 0.142094 0.000614 0.753519
O O20 0.159145 0.750000 0.694972
O O21 0.184417 0.750000 0.470774
#
# Coordination Sequence:
#
# PCOD8180700 Si02
#       8
#     8   8   8   8   8   8   8   8
#     4   8  14  28  54  79  98 128 169 210 254 308
#     4   9  18  33  52  76 104 135 172 212 258 311
#     4  10  17  32  57  80 103 136 176 216 264 318
#     4  11  23  37  53  76 108 143 177 217 263 318
#     4  10  20  36  55  76 105 143 182 220 265 320
#     4  10  18  29  51  80 106 130 168 219 263 306
#     4   9  17  32  52  74 103 137 172 211 260 316
#     4   9  17  31  53  79 105 138 176 215 263 317
#
# _framework density 17.685281
#
# number of rings (size 3 to 8) (size 9 to 14) (size 15 to 20)
#    0.000    2.500    2.500    1.500    0.000    1.000 
#    0.000    5.625    0.000    4.500    0.000    0.000 
#    0.000    0.000    0.000    0.000    0.000    0.000 
#
# Total GULP energy -396657.162962 kJ/mol
# GULP energy per Si atom -12395.536343 kJ/mol
# Density = 1.764503 g / cm^3
# Si number density = 17.685281 Si / 1000 Ang^3
#
#
#
# Elastic Constant Matrix: (Units=GPa)
#
#
# Indices 1 2 3 4 5 6 
#
# 1 94.2340 33.3831 56.8624 0.0000 0.0000 0.0000
# 2 33.3831 52.6114 47.3691 0.0000 0.0000 0.0000
# 3 56.8624 47.3691 141.5702 0.0000 0.0000 0.0000
# 4 0.0000 0.0000 0.0000 24.6253 0.0000 0.0000
# 5 0.0000 0.0000 0.0000 0.0000 26.9433 0.0000
# 6 0.0000 0.0000 0.0000 0.0000 0.0000 25.5047
#
#
#
# Elastic Compliance Matrix: (Units=1/GPa)
#
#
# Indices 1 2 3 4 5 6 
#
# 1 0.015200 -0.005936 -0.004119 0.000000 0.000000 0.000000
# 2 -0.005936 0.029521 -0.007493 0.000000 0.000000 0.000000
# 3 -0.004119 -0.007493 0.011225 0.000000 0.000000 0.000000
# 4 0.000000 0.000000 0.000000 0.040609 0.000000 0.000000
# 5 0.000000 0.000000 0.000000 0.000000 0.037115 0.000000
# 6 0.000000 0.000000 0.000000 0.000000 0.000000 0.039209
#
#
# Mechanical properties :
#
#
# Convention : Reuss Voigt Hill
#
# Bulk Modulus (GPa) = 47.96368 62.62723 55.29546
# Shear Modulus (GPa) = 23.26391 25.46805 24.36598
#
# Velocity S-wave (km/s) = 3.63083 3.79894 3.71584
# Velocity P-wave (km/s) = 6.69005 7.39808 7.05296
#
# Compressibility (1/GPa) = 0.02084911
#
# Stress axis : x y z
#
# Youngs Moduli (GPa) = 65.78787 33.87464 89.08492
#
# Poissons Ratio (x) = 0.20109 0.36694
# Poissons Ratio (y) = 0.39054 0.66753
# Poissons Ratio (z) = 0.27098 0.25383
#
# Static dielectric constant tensor:
#      x y z
#    x 3.075110 0.000000 0.000000 
#    y 0.000000 3.046210 0.000000 
#    z 0.000000 0.000000 3.687580 
# 
# 
# High freq. dielectric constant tensor:
#      x y z
#    x 1.654960 0.000000 0.000000 
#    y 0.000000 1.659240 0.000000 
#    z 0.000000 0.000000 1.704490 
# 
# From -- ./inp_files/15081.got.cif
#   From: 2010.03.12/outbox.cif.g09.slc.cpg/sg39_8_cif.got.tgz:15081.got - 2010.04.14 02:53:20.
