data_PCOD8180545
_publ_section_title
;
Structure prediction by ZEFSAII (Michael W. Deem and Ramdas Pophale) SiO2 
 PCOD8180545
Probable space group: A M M 2
;
_chemical_formula_sum "Si O2"
_cell_formula_units_Z 56
_cell_length_a 9.500860
_cell_length_b 9.859468
_cell_length_c 36.019362
_cell_angle_alpha 90.000000
_cell_angle_beta 90.000000
_cell_angle_gamma 90.000000
_cell_volume 3374.057010
_symmetry_space_group_name_H-M "A M M 2"
_symmetry_group_IT_number 38
_symmetry_cell_setting 'orthorhombic'
loop_
_space_group_symop_operation_xyz
x,y,z
-x,-y,z
-x,y,z
x,-y,z
x,1/2+y,1/2+z
-x,1/2-y,1/2+z
-x,1/2+y,1/2+z
x,1/2-y,1/2+z
loop_
_atom_site_type_symbol
_atom_site_label
_atom_site_fract_x
_atom_site_fract_y
_atom_site_fract_z
Si Si1 0.832875 0.151891 0.983130
Si Si2 0.164911 0.342882 0.835903
Si Si3 0.832783 0.652085 0.400847
Si Si4 0.343618 0.838909 0.266884
Si Si5 0.836023 0.156559 0.547971
Si Si6 0.667480 0.848693 0.185506
Si Si7 0.335862 0.343603 0.120245
O O1 0.776624 0.191607 0.942005
O O2 0.000000 0.157860 0.982719
O O3 0.782196 0.000000 0.993429
O O4 0.774904 0.257013 0.013538
O O5 0.200188 0.500000 0.843281
O O6 0.225821 0.258569 0.870788
O O7 0.240037 0.286150 0.798951
O O8 0.000000 0.319295 0.830276
O O9 0.782303 0.500000 0.390544
O O10 0.000000 0.657805 0.401059
O O11 0.500000 0.778569 0.273758
O O12 0.284217 0.795528 0.226278
O O13 0.351556 0.000000 0.267463
O O14 0.750018 0.201209 0.584102
O O15 0.000000 0.186385 0.555391
O O16 0.809877 0.000000 0.538212
O O17 0.500000 0.853631 0.185525
O O18 0.723024 0.745487 0.154340
O O19 0.727054 0.000000 0.177346
O O20 0.500000 0.316053 0.112672
O O21 0.307803 0.500000 0.130185
#
# Coordination Sequence:
#
# PCOD8180545 Si02
#       7
#     8   8   8   8   8   8   8
#     4   8  14  25  41  60  81 106 136 167 197 232
#     4   9  16  25  40  63  85 103 130 169 203 231
#     4   8  14  25  40  58  82 110 135 161 198 240
#     4   8  14  26  43  60  80 107 135 163 199 240
#     4   9  17  28  42  61  84 107 131 163 202 239
#     4   8  14  26  44  62  78 102 138 171 195 229
#     4   9  17  29  44  61  82 107 133 163 200 239
#
# _framework density 16.597228000000001
#
# number of rings (size 3 to 8) (size 9 to 14) (size 15 to 20)
#    0.000    3.571    0.000    1.714    0.000    1.143 
#    0.000    4.286    0.000    3.000    0.000    6.000 
#    0.000    0.000    0.000    0.000    0.000    0.000 
#
# Total GULP energy -347013.069815 kJ/mol
# GULP energy per Si atom -12393.323922 kJ/mol
# Density = 1.655945 g / cm^3
# Si number density = 16.597228 Si / 1000 Ang^3
#
#
#
# Elastic Constant Matrix: (Units=GPa)
#
#
# Indices 1 2 3 4 5 6 
#
# 1 27.2910 24.2389 41.1572 0.0000 0.0000 0.0000
# 2 24.2389 79.4225 89.9645 0.0000 0.0000 0.0000
# 3 41.1572 89.9645 183.3107 0.0000 0.0000 0.0000
# 4 0.0000 0.0000 0.0000 34.3290 0.0000 0.0000
# 5 0.0000 0.0000 0.0000 0.0000 11.1216 0.0000
# 6 0.0000 0.0000 0.0000 0.0000 0.0000 10.7846
#
#
#
# Elastic Compliance Matrix: (Units=1/GPa)
#
#
# Indices 1 2 3 4 5 6 
#
# 1 0.056858 -0.006513 -0.009570 0.000000 0.000000 0.000000
# 2 -0.006513 0.029099 -0.012819 0.000000 0.000000 0.000000
# 3 -0.009570 -0.012819 0.013895 0.000000 0.000000 0.000000
# 4 0.000000 0.000000 0.000000 0.029130 0.000000 0.000000
# 5 0.000000 0.000000 0.000000 0.000000 0.089915 0.000000
# 6 0.000000 0.000000 0.000000 0.000000 0.000000 0.092725
#
#
# Mechanical properties :
#
#
# Convention : Reuss Voigt Hill
#
# Bulk Modulus (GPa) = 23.78130 66.74949 45.26540
# Shear Modulus (GPa) = 13.03982 20.22460 16.63221
#
# Velocity S-wave (km/s) = 2.80601 3.49456 3.16904
# Velocity P-wave (km/s) = 4.98576 7.52245 6.38142
#
# Compressibility (1/GPa) = 0.04204984
#
# Stress axis : x y z
#
# Youngs Moduli (GPa) = 17.58755 34.36583 71.96886
#
# Poissons Ratio (x) = 0.22382 0.68871
# Poissons Ratio (y) = 0.11454 0.92254
# Poissons Ratio (z) = 0.16831 0.44052
#
# Static dielectric constant tensor:
#      x y z
#    x 2.763910 0.000000 0.000000 
#    y 0.000000 3.141990 0.000000 
#    z 0.000000 0.000000 3.567740 
# 
# 
# High freq. dielectric constant tensor:
#      x y z
#    x 1.590090 0.000000 0.000000 
#    y 0.000000 1.625260 0.000000 
#    z 0.000000 0.000000 1.651570 
# 
# From -- ./inp_files/22543.got.cif
#   From: 2010.03.12/outbox.cif.g09.slc.cpg/sg38_12_cif.got.tgz:22543.got - 2010.04.14 02:38:36.
