data_PCOD8180603
_publ_section_title
;
Structure prediction by ZEFSAII (Michael W. Deem and Ramdas Pophale) SiO2 
 PCOD8180603
Probable space group: A B M 2
;
_chemical_formula_sum "Si O2"
_cell_formula_units_Z 56
_cell_length_a 8.907050
_cell_length_b 18.133377
_cell_length_c 20.867008
_cell_angle_alpha 90.000000
_cell_angle_beta 90.000000
_cell_angle_gamma 90.000000
_cell_volume 3370.332619
_symmetry_space_group_name_H-M "A B M 2"
_symmetry_group_IT_number 39
_symmetry_cell_setting 'orthorhombic'
loop_
_space_group_symop_operation_xyz
x,y,z
-x,-y,z
-x,1/2+y,z
x,1/2-y,z
x,1/2+y,1/2+z
-x,1/2-y,1/2+z
-x,y,1/2+z
x,-y,1/2+z
loop_
_atom_site_type_symbol
_atom_site_label
_atom_site_fract_x
_atom_site_fract_y
_atom_site_fract_z
Si Si1 0.383590 0.834292 0.022610
Si Si2 0.366859 0.058845 0.167470
Si Si3 0.749738 0.049819 0.935859
Si Si4 0.000000 0.000000 0.847655
Si Si5 0.500000 0.500000 0.847655
Si Si6 0.633141 0.941155 0.027840
Si Si7 0.749738 0.549819 0.759451
Si Si8 0.616410 0.334292 0.172700
O O1 0.376074 0.750000 0.000333
O O2 0.552979 0.864114 0.008499
O O3 0.345792 0.843459 0.097655
O O4 0.257657 0.880055 0.983186
O O5 0.287878 0.066238 0.097655
O O6 0.447021 0.135886 0.186810
O O7 0.500000 0.000000 0.163173
O O8 0.248578 0.028338 0.219786
O O9 0.898232 0.052766 0.892312
O O10 0.602507 0.052922 0.891103
O O11 0.751422 0.971662 0.975524
O O12 0.898232 0.947234 0.802998
O O13 0.602507 0.552922 0.804207
O O14 0.500000 0.000000 0.032137
O O15 0.742343 0.619945 0.712124
O O16 0.623926 0.250000 0.194977
#
# Coordination Sequence:
#
# PCOD8180603 Si02
#       8
#     8   8   8   4   4   8   8   8
#     4   9  16  28  51  79  99 116 149 201 252 288
#     4   8  13  25  48  71  91 113 149 200 245 275
#     4  10  17  32  46  71  95 129 161 200 228 274
#     4  10  24  30  48  62 100 130 172 194 224 270
#     4  10  16  26  52  62  92 126 166 192 232 266
#     4   8  13  25  48  71  91 113 149 200 245 275
#     4  10  17  32  46  71  95 129 161 200 228 274
#     4   9  16  28  51  79  99 116 149 201 252 288
#
# _framework density 16.615570999999999
#
# number of rings (size 3 to 8) (size 9 to 14) (size 15 to 20)
#    0.000    2.857    4.286    2.571    0.000    0.000 
#    0.000    4.286    0.000    1.714    0.000    4.000 
#    0.000    0.000    0.000    0.000    0.000    0.000 
#
# Total GULP energy -346927.072592 kJ/mol
# GULP energy per Si atom -12390.252593 kJ/mol
# Density = 1.657775 g / cm^3
# Si number density = 16.615571 Si / 1000 Ang^3
#
#
#
# Elastic Constant Matrix: (Units=GPa)
#
#
# Indices 1 2 3 4 5 6 
#
# 1 70.5184 35.2681 44.0147 0.0000 0.0000 0.0000
# 2 35.2681 111.8456 50.1690 0.0000 0.0000 0.0000
# 3 44.0147 50.1690 103.4517 0.0000 0.0000 0.0000
# 4 0.0000 0.0000 0.0000 16.1517 0.0000 0.0000
# 5 0.0000 0.0000 0.0000 0.0000 26.1778 0.0000
# 6 0.0000 0.0000 0.0000 0.0000 0.0000 11.9017
#
#
#
# Elastic Compliance Matrix: (Units=1/GPa)
#
#
# Indices 1 2 3 4 5 6 
#
# 1 0.020171 -0.003209 -0.007026 0.000000 0.000000 0.000000
# 2 -0.003209 0.011937 -0.004424 0.000000 0.000000 0.000000
# 3 -0.007026 -0.004424 0.014801 0.000000 0.000000 0.000000
# 4 0.000000 0.000000 0.000000 0.061913 0.000000 0.000000
# 5 0.000000 0.000000 0.000000 0.000000 0.038200 0.000000
# 6 0.000000 0.000000 0.000000 0.000000 0.000000 0.084021
#
#
# Mechanical properties :
#
#
# Convention : Reuss Voigt Hill
#
# Bulk Modulus (GPa) = 56.84400 60.52436 58.68418
# Shear Modulus (GPa) = 18.78120 21.27050 20.02585
#
# Velocity S-wave (km/s) = 3.36570 3.58181 3.47543
# Velocity P-wave (km/s) = 7.02776 7.32196 7.17637
#
# Compressibility (1/GPa) = 0.01759201
#
# Stress axis : x y z
#
# Youngs Moduli (GPa) = 49.57677 83.77323 67.56445
#
# Poissons Ratio (x) = 0.26883 0.47468
# Poissons Ratio (y) = 0.15909 0.29887
# Poissons Ratio (z) = 0.34831 0.37057
#
# Static dielectric constant tensor:
#      x y z
#    x 2.777130 0.000000 0.000000 
#    y 0.000000 3.218840 0.000000 
#    z 0.000000 0.000000 3.603710 
# 
# 
# High freq. dielectric constant tensor:
#      x y z
#    x 1.589170 0.000000 0.000000 
#    y 0.000000 1.608240 0.000000 
#    z 0.000000 0.000000 1.663350 
# 
# From -- ./inp_files/14156.got.cif
#   From: 2010.03.12/outbox.cif.g09.slc.cpg/sg39_8_cif.got.tgz:14156.got - 2010.04.14 02:53:20.
