data_PCOD8180578
_publ_section_title
;
Structure prediction by ZEFSAII (Michael W. Deem and Ramdas Pophale) SiO2 
 PCOD8180578
Probable space group: A B M 2
;
_chemical_formula_sum "Si O2"
_cell_formula_units_Z 48
_cell_length_a 27.381969
_cell_length_b 17.938695
_cell_length_c 5.311467
_cell_angle_alpha 90.000000
_cell_angle_beta 90.000000
_cell_angle_gamma 90.000000
_cell_volume 2608.975543
_symmetry_space_group_name_H-M "A B M 2"
_symmetry_group_IT_number 39
_symmetry_cell_setting 'orthorhombic'
loop_
_space_group_symop_operation_xyz
x,y,z
-x,-y,z
-x,1/2+y,z
x,1/2-y,z
x,1/2+y,1/2+z
-x,1/2-y,1/2+z
-x,y,1/2+z
x,-y,1/2+z
loop_
_atom_site_type_symbol
_atom_site_label
_atom_site_fract_x
_atom_site_fract_y
_atom_site_fract_z
Si Si1 0.479539 0.915487 0.602660
Si Si2 0.628814 0.546834 0.079865
Si Si3 0.970439 0.663025 0.609040
Si Si4 0.225374 0.078867 0.609007
Si Si5 0.266111 0.587395 0.608993
Si Si6 0.111711 0.454169 0.608833
O O1 0.499319 0.874765 0.351093
O O2 0.421216 0.908149 0.610716
O O3 0.500000 0.000000 0.596398
O O4 0.630687 0.485448 0.298619
O O5 0.675595 0.600705 0.111162
O O6 0.958099 0.750000 0.609036
O O7 0.919056 0.621254 0.609043
O O8 0.000003 0.640058 0.359049
O O9 0.241869 0.123996 0.859302
O O10 0.168002 0.067462 0.608893
O O11 0.253875 0.000546 0.606304
O O12 0.241936 0.123988 0.358594
O O13 0.098450 0.500071 0.858682
#
# Coordination Sequence:
#
# PCOD8180578 Si02
#       6
#     8   8   8   8   8   8
#     4  10  16  22  26  35  53  75 115 173 211 235
#     4  12  16  20  31  42  55  91 127 151 211 269
#     4  10  23  42  57  73 102 135 160 188 231 281
#     4  10  16  27  38  59  86 106 127 170 221 262
#     4  10  16  25  36  51  80 107 127 165 221 277
#     4  12  21  32  55  80 100 123 157 197 238 276
#
# _framework density 18.398026999999999
#
# number of rings (size 3 to 8) (size 9 to 14) (size 15 to 20)
#    0.000    1.333   10.000    1.000    0.000    2.000 
#    0.000    0.000    0.000    0.000    0.000    0.000 
#    0.000    0.000    0.000    0.000    0.000    0.000 
#
# Total GULP energy -297436.691569 kJ/mol
# GULP energy per Si atom -12393.195482 kJ/mol
# Density = 1.835615 g / cm^3
# Si number density = 18.398027 Si / 1000 Ang^3
#
#
#
# Elastic Constant Matrix: (Units=GPa)
#
#
# Indices 1 2 3 4 5 6 
#
# 1 135.2534 37.4974 48.4497 0.0000 0.0000 0.0000
# 2 37.4974 17.5724 18.9085 0.0000 0.0000 0.0000
# 3 48.4497 18.9085 194.7673 0.0000 0.0000 0.0000
# 4 0.0000 0.0000 0.0000 4.7296 0.0000 0.0000
# 5 0.0000 0.0000 0.0000 0.0000 23.7162 0.0000
# 6 0.0000 0.0000 0.0000 0.0000 0.0000 -0.4513
#
#
#
# Elastic Compliance Matrix: (Units=1/GPa)
#
#
# Indices 1 2 3 4 5 6 
#
# 1 0.018228 -0.037985 -0.000847 0.000000 0.000000 0.000000
# 2 -0.037985 0.142702 -0.004405 0.000000 0.000000 0.000000
# 3 -0.000847 -0.004405 0.005773 0.000000 0.000000 0.000000
# 4 0.000000 0.000000 0.000000 0.211433 0.000000 0.000000
# 5 0.000000 0.000000 0.000000 0.000000 0.042165 0.000000
# 6 0.000000 0.000000 0.000000 0.000000 0.000000 -2.215769
#
#
# Mechanical properties :
#
#
# Convention : Reuss Voigt Hill
#
# Bulk Modulus (GPa) = 12.46415 61.92269 37.19342
# Shear Modulus (GPa) = -2.97221 21.78140 9.40460
#
# Velocity S-wave (km/s) = -1.27240 3.44452 2.26337
# Velocity P-wave (km/s) = 2.15192 7.03917 5.20484
#
# Compressibility (1/GPa) = 0.08023011
#
# Stress axis : x y z
#
# Youngs Moduli (GPa) = 54.86187 7.00759 173.23300
#
# Poissons Ratio (x) = 0.26618 0.14666
# Poissons Ratio (y) = 2.08391 0.76308
# Poissons Ratio (z) = 0.04645 0.03087
#
# Static dielectric constant tensor:
#      x y z
#    x 3.567100 0.000000 0.000000 
#    y 0.000000 2.512250 0.000000 
#    z 0.000000 0.000000 5.576660 
# 
# 
# High freq. dielectric constant tensor:
#      x y z
#    x 1.733390 0.000000 0.000000 
#    y 0.000000 1.600070 0.000000 
#    z 0.000000 0.000000 1.760380 
# 
# From -- ./inp_files/1252.got.cif
#   From: 2010.03.12/outbox.cif.g09.slc.cpg/sg39_1_cif.got.tgz:1252.got - 2010.04.14 02:53:20.
