data_PCOD8180449
_publ_section_title
;
Structure prediction by ZEFSAII (Michael W. Deem and Ramdas Pophale) SiO2 
 PCOD8180449
Probable space group: A M M 2
;
_chemical_formula_sum "Si O2"
_cell_formula_units_Z 56
_cell_length_a 14.189238
_cell_length_b 22.757452
_cell_length_c 9.744324
_cell_angle_alpha 90.000000
_cell_angle_beta 90.000000
_cell_angle_gamma 90.000000
_cell_volume 3146.548459
_symmetry_space_group_name_H-M "A M M 2"
_symmetry_group_IT_number 38
_symmetry_cell_setting 'orthorhombic'
loop_
_space_group_symop_operation_xyz
x,y,z
-x,-y,z
-x,y,z
x,-y,z
x,1/2+y,1/2+z
-x,1/2-y,1/2+z
-x,1/2+y,1/2+z
x,1/2-y,1/2+z
loop_
_atom_site_type_symbol
_atom_site_label
_atom_site_fract_x
_atom_site_fract_y
_atom_site_fract_z
Si Si1 0.887713 0.000000 0.363971
Si Si2 0.600890 0.691190 0.606972
Si Si3 0.202103 0.822220 0.037440
Si Si4 0.108374 0.625588 0.789828
Si Si5 0.202022 0.183676 0.530789
Si Si6 0.602432 0.193325 0.426815
Si Si7 0.888344 0.125269 0.779068
Si Si8 0.889177 0.500000 0.169818
O O1 0.853864 0.941792 0.283393
O O2 0.844041 0.000000 0.517691
O O3 0.000000 0.000000 0.377018
O O4 0.500000 0.657022 0.594606
O O5 0.688966 0.654969 0.544203
O O6 0.593385 0.749108 0.517387
O O7 0.620809 0.707985 0.766233
O O8 0.197599 0.753244 0.003760
O O9 0.140095 0.860381 0.934236
O O10 0.162312 0.831986 0.188171
O O11 0.122825 0.650748 0.942157
O O12 0.000000 0.627309 0.751099
O O13 0.306370 0.158765 0.487914
O O14 0.174816 0.168831 0.686653
O O15 0.500000 0.159795 0.440456
O O16 0.000000 0.135754 0.757409
O O17 0.857663 0.058171 0.751372
O O18 0.000000 0.500000 0.155118
#
# Coordination Sequence:
#
# PCOD8180449 Si02
#       8
#     4   8   8   8   8   8   8   4
#     4   9  18  35  57  75  94 133 191 236 258 295
#     4   9  18  33  52  75 106 141 177 219 263 313
#     4  11  23  34  49  83 115 141 172 213 271 329
#     4  11  21  35  54  76 105 141 183 222 260 310
#     4  11  21  34  53  79 110 147 174 211 265 331
#     4   9  18  32  51  76 106 140 178 220 262 311
#     4  11  23  37  55  76 108 147 183 223 261 309
#     4   9  18  37  57  73  94 135 193 232 258 297
#
# _framework density 17.797277999999999
#
# number of rings (size 3 to 8) (size 9 to 14) (size 15 to 20)
#    0.000    1.857    2.857    1.714    6.000    4.000 
#    0.000    2.143    0.000    0.000    0.000    6.000 
#    0.000    0.000    0.000    0.000    0.000    0.000 
#
# Total GULP energy -346918.842833 kJ/mol
# GULP energy per Si atom -12389.958673 kJ/mol
# Density = 1.775677 g / cm^3
# Si number density = 17.797278 Si / 1000 Ang^3
#
#
#
# Elastic Constant Matrix: (Units=GPa)
#
#
# Indices 1 2 3 4 5 6 
#
# 1 104.6260 38.4674 27.2244 0.0000 0.0000 0.0000
# 2 38.4674 65.7513 14.9730 0.0000 0.0000 0.0000
# 3 27.2244 14.9730 61.8486 0.0000 0.0000 0.0000
# 4 0.0000 0.0000 0.0000 18.9689 0.0000 0.0000
# 5 0.0000 0.0000 0.0000 0.0000 29.5504 0.0000
# 6 0.0000 0.0000 0.0000 0.0000 0.0000 0.9555
#
#
#
# Elastic Compliance Matrix: (Units=1/GPa)
#
#
# Indices 1 2 3 4 5 6 
#
# 1 0.013108 -0.006726 -0.004142 0.000000 0.000000 0.000000
# 2 -0.006726 0.019547 -0.001772 0.000000 0.000000 0.000000
# 3 -0.004142 -0.001772 0.018421 0.000000 0.000000 0.000000
# 4 0.000000 0.000000 0.000000 0.052718 0.000000 0.000000
# 5 0.000000 0.000000 0.000000 0.000000 0.033840 0.000000
# 6 0.000000 0.000000 0.000000 0.000000 0.000000 1.046619
#
#
# Mechanical properties :
#
#
# Convention : Reuss Voigt Hill
#
# Bulk Modulus (GPa) = 38.76324 43.72839 41.24581
# Shear Modulus (GPa) = 4.10465 19.99903 12.05184
#
# Velocity S-wave (km/s) = 1.52031 3.35582 2.60508
# Velocity P-wave (km/s) = 4.99094 6.29595 5.68104
#
# Compressibility (1/GPa) = 0.02579764
#
# Stress axis : x y z
#
# Youngs Moduli (GPa) = 76.28682 51.15828 54.28729
#
# Poissons Ratio (x) = 0.34408 0.22485
# Poissons Ratio (y) = 0.51309 0.09618
# Poissons Ratio (z) = 0.31596 0.09063
#
# Static dielectric constant tensor:
#      x y z
#    x 3.879290 0.000000 0.000000 
#    y 0.000000 3.081820 0.000000 
#    z 0.000000 0.000000 3.315680 
# 
# 
# High freq. dielectric constant tensor:
#      x y z
#    x 1.692670 0.000000 0.000000 
#    y 0.000000 1.646110 0.000000 
#    z 0.000000 0.000000 1.700570 
# 
# From -- ./inp_files/5762.got.cif
#   From: 2010.03.12/outbox.cif.g09.slc.cpg/sg38_3_cif.got.tgz:5762.got - 2010.04.14 02:38:36.
