data_PCOD8180145
_publ_section_title
;
Structure prediction by ZEFSAII (Michael W. Deem and Ramdas Pophale) SiO2 
 PCOD8180145
Probable space group: A M M 2
;
_chemical_formula_sum "Si O2"
_cell_formula_units_Z 40
_cell_length_a 8.443416
_cell_length_b 9.674755
_cell_length_c 25.570509
_cell_angle_alpha 90.000000
_cell_angle_beta 90.000000
_cell_angle_gamma 90.000000
_cell_volume 2088.803258
_symmetry_space_group_name_H-M "A M M 2"
_symmetry_group_IT_number 38
_symmetry_cell_setting 'orthorhombic'
loop_
_space_group_symop_operation_xyz
x,y,z
-x,-y,z
-x,y,z
x,-y,z
x,1/2+y,1/2+z
-x,1/2-y,1/2+z
-x,1/2+y,1/2+z
x,1/2-y,1/2+z
loop_
_atom_site_type_symbol
_atom_site_label
_atom_site_fract_x
_atom_site_fract_y
_atom_site_fract_z
Si Si1 0.187066 0.778401 0.556070
Si Si2 0.815509 0.500000 0.702478
Si Si3 0.817395 0.000000 0.744459
Si Si4 0.815246 0.000000 0.475803
Si Si5 0.685697 0.722019 0.777046
Si Si6 0.685360 0.500000 0.131240
Si Si7 0.682734 0.000000 0.089593
Si Si8 0.684105 0.500000 0.861588
O O1 0.232519 0.863268 0.608098
O O2 0.277932 0.633440 0.554770
O O3 0.000000 0.751951 0.555641
O O4 0.248985 0.862950 0.505137
O O5 0.734830 0.636966 0.725669
O O6 0.792557 0.500000 0.640620
O O7 0.000000 0.500000 0.716412
O O8 0.778790 0.133976 0.779446
O O9 0.708471 0.000000 0.693283
O O10 0.000000 0.000000 0.727995
O O11 0.777797 0.000000 0.415191
O O12 0.000000 0.000000 0.484916
O O13 0.500000 0.750764 0.774410
O O14 0.731621 0.635654 0.828753
O O15 0.500000 0.500000 0.118053
O O16 0.500000 0.000000 0.106284
O O17 0.500000 0.500000 0.874687
#
# Coordination Sequence:
#
# PCOD8180145 Si02
#       8
#     8   4   4   4   8   4   4   4
#     4  10  21  38  56  80 111 145 182 224 268 318
#     4  11  21  35  55  80 111 150 186 221 262 318
#     4  12  23  35  53  81 113 147 182 224 270 318
#     4   9  20  38  62  83 104 135 176 223 273 324
#     4  10  21  38  56  80 111 145 182 224 268 318
#     4  11  21  35  55  80 111 150 186 221 262 318
#     4  12  23  35  53  81 113 147 182 224 270 318
#     4   9  20  38  62  83 104 135 176 223 273 324
#
# _framework density 19.149722000000001
#
# number of rings (size 3 to 8) (size 9 to 14) (size 15 to 20)
#    0.000    1.600    0.000    7.200    0.000    4.800 
#    0.000    1.000    0.000    0.000    0.000    0.000 
#    0.000    0.000    0.000    0.000    0.000    0.000 
#
# Total GULP energy -248089.547509 kJ/mol
# GULP energy per Si atom -12404.477375 kJ/mol
# Density = 1.910614 g / cm^3
# Si number density = 19.149722 Si / 1000 Ang^3
#
#
#
# Elastic Constant Matrix: (Units=GPa)
#
#
# Indices 1 2 3 4 5 6 
#
# 1 67.2116 27.2418 12.4415 0.0000 0.0000 0.0000
# 2 27.2418 159.5947 44.3616 0.0000 0.0000 0.0000
# 3 12.4415 44.3616 96.9850 0.0000 0.0000 0.0000
# 4 0.0000 0.0000 0.0000 7.2673 0.0000 0.0000
# 5 0.0000 0.0000 0.0000 0.0000 29.9729 0.0000
# 6 0.0000 0.0000 0.0000 0.0000 0.0000 30.3305
#
#
#
# Elastic Compliance Matrix: (Units=1/GPa)
#
#
# Indices 1 2 3 4 5 6 
#
# 1 0.016056 -0.002484 -0.000924 0.000000 0.000000 0.000000
# 2 -0.002484 0.007563 -0.003141 0.000000 0.000000 0.000000
# 3 -0.000924 -0.003141 0.011866 0.000000 0.000000 0.000000
# 4 0.000000 0.000000 0.000000 0.137602 0.000000 0.000000
# 5 0.000000 0.000000 0.000000 0.000000 0.033364 0.000000
# 6 0.000000 0.000000 0.000000 0.000000 0.000000 0.032970
#
#
# Mechanical properties :
#
#
# Convention : Reuss Voigt Hill
#
# Bulk Modulus (GPa) = 44.66563 54.65345 49.65954
# Shear Modulus (GPa) = 19.23229 29.49725 24.36477
#
# Velocity S-wave (km/s) = 3.17253 3.92899 3.57084
# Velocity P-wave (km/s) = 6.06589 7.01317 6.55666
#
# Compressibility (1/GPa) = 0.02238858
#
# Stress axis : x y z
#
# Youngs Moduli (GPa) = 62.28153 132.22517 84.27507
#
# Poissons Ratio (x) = 0.32844 0.07783
# Poissons Ratio (y) = 0.15471 0.26468
# Poissons Ratio (z) = 0.05752 0.41527
#
# Static dielectric constant tensor:
#      x y z
#    x 3.473260 0.000000 0.000000 
#    y 0.000000 3.785870 0.000000 
#    z 0.000000 0.000000 3.249360 
# 
# 
# High freq. dielectric constant tensor:
#      x y z
#    x 1.754510 0.000000 0.000000 
#    y 0.000000 1.754160 0.000000 
#    z 0.000000 0.000000 1.720150 
# 
# From -- ./inp_files/23322.got.cif
#   From: 2010.03.12/outbox.cif.g09.slc.cpg/sg38_12_cif.got.tgz:23322.got - 2010.04.14 02:38:36.
