data_PCOD8180571
_publ_section_title
;
Structure prediction by ZEFSAII (Michael W. Deem and Ramdas Pophale) SiO2 
 PCOD8180571
Probable space group: A B M 2
;
_chemical_formula_sum "Si O2"
_cell_formula_units_Z 64
_cell_length_a 26.366006
_cell_length_b 26.502377
_cell_length_c 5.245013
_cell_angle_alpha 90.000000
_cell_angle_beta 90.000000
_cell_angle_gamma 90.000000
_cell_volume 3665.014887
_symmetry_space_group_name_H-M "A B M 2"
_symmetry_group_IT_number 39
_symmetry_cell_setting 'orthorhombic'
loop_
_space_group_symop_operation_xyz
x,y,z
-x,-y,z
-x,1/2+y,z
x,1/2-y,z
x,1/2+y,1/2+z
-x,1/2-y,1/2+z
-x,y,1/2+z
x,-y,1/2+z
loop_
_atom_site_type_symbol
_atom_site_label
_atom_site_fract_x
_atom_site_fract_y
_atom_site_fract_z
Si Si1 0.577179 0.193372 0.127700
Si Si2 0.868689 0.469537 0.584309
Si Si3 0.302185 0.134806 0.127716
Si Si4 0.242656 0.466764 0.149739
Si Si5 0.443937 0.021488 0.098897
Si Si6 0.422755 0.135750 0.127738
Si Si7 0.978449 0.057506 0.646765
Si Si8 0.697886 0.306943 0.127789
O O1 0.555388 0.250000 0.129134
O O2 0.557142 0.164738 0.378183
O O3 0.637559 0.194629 0.127557
O O4 0.557172 0.165266 0.875651
O O5 0.871933 0.484715 0.287451
O O6 0.814355 0.442996 0.633770
O O7 0.917694 0.435622 0.640945
O O8 0.282295 0.078073 0.124695
O O9 0.362498 0.131224 0.127137
O O10 0.282164 0.164066 0.377414
O O11 0.282177 0.164438 0.879156
O O12 0.251270 0.493794 0.420686
O O13 0.500000 0.000000 0.054768
O O14 0.415110 0.005149 0.837492
O O15 0.447341 0.080921 0.133166
O O16 0.001727 0.085362 0.400233
O O17 0.000000 0.000000 0.649728
O O18 0.719542 0.250000 0.126833
#
# Coordination Sequence:
#
# PCOD8180571 Si02
#       8
#     8   8   8   8   8   8   8   8
#     4   9  17  30  49  77 103 120 141 179 230 282
#     4  10  16  25  35  50  72 104 145 186 215 256
#     4  10  19  31  46  68  94 121 155 187 222 266
#     4  10  21  31  41  56  87 129 162 186 209 259
#     4  10  21  36  52  73  94 122 158 194 230 260
#     4  10  19  31  51  74  96 122 152 188 227 266
#     4  10  14  20  34  51  67  88 132 194 224 247
#     4   9  17  30  49  69  92 116 146 190 236 274
#
# _framework density 17.462413000000002
#
# number of rings (size 3 to 8) (size 9 to 14) (size 15 to 20)
#    0.000    2.250    2.500    2.250    0.000    4.000 
#    0.000    0.000    0.000    0.000    0.000   35.000 
#    0.000    0.000    0.000    0.000    0.000   12.500 
#
# Total GULP energy -396615.847841 kJ/mol
# GULP energy per Si atom -12394.245245 kJ/mol
# Density = 1.742267 g / cm^3
# Si number density = 17.462413 Si / 1000 Ang^3
#
#
#
# Elastic Constant Matrix: (Units=GPa)
#
#
# Indices 1 2 3 4 5 6 
#
# 1 31.1760 17.2408 9.5213 0.0000 0.0000 0.0000
# 2 17.2408 102.5504 42.3382 0.0000 0.0000 0.0000
# 3 9.5213 42.3382 154.9232 0.0000 0.0000 0.0000
# 4 0.0000 0.0000 0.0000 29.6338 0.0000 0.0000
# 5 0.0000 0.0000 0.0000 0.0000 156.0144 0.0000
# 6 0.0000 0.0000 0.0000 0.0000 0.0000 1.7696
#
#
#
# Elastic Compliance Matrix: (Units=1/GPa)
#
#
# Indices 1 2 3 4 5 6 
#
# 1 0.035416 -0.005699 -0.000619 0.000000 0.000000 0.000000
# 2 -0.005699 0.011908 -0.002904 0.000000 0.000000 0.000000
# 3 -0.000619 -0.002904 0.007287 0.000000 0.000000 0.000000
# 4 0.000000 0.000000 0.000000 0.033745 0.000000 0.000000
# 5 0.000000 0.000000 0.000000 0.000000 0.006410 0.000000
# 6 0.000000 0.000000 0.000000 0.000000 0.000000 0.565109
#
#
# Mechanical properties :
#
#
# Convention : Reuss Voigt Hill
#
# Bulk Modulus (GPa) = 27.64927 47.42780 37.53854
# Shear Modulus (GPa) = 7.24245 52.12018 29.68131
#
# Velocity S-wave (km/s) = 2.03874 5.46917 4.12725
# Velocity P-wave (km/s) = 4.62708 8.19154 6.65249
#
# Compressibility (1/GPa) = 0.03616731
#
# Stress axis : x y z
#
# Youngs Moduli (GPa) = 28.23549 83.97487 137.23949
#
# Poissons Ratio (x) = 0.47853 0.08499
# Poissons Ratio (y) = 0.16090 0.39856
# Poissons Ratio (z) = 0.01749 0.24388
#
# Static dielectric constant tensor:
#      x y z
#    x 3.103350 0.000000 0.000000 
#    y 0.000000 2.956770 0.000000 
#    z 0.000000 0.000000 4.315840 
# 
# 
# High freq. dielectric constant tensor:
#      x y z
#    x 1.641460 0.000000 0.000000 
#    y 0.000000 1.629550 0.000000 
#    z 0.000000 0.000000 1.712650 
# 
# From -- ./inp_files/1317.got.cif
#   From: 2010.03.12/outbox.cif.g09.slc.cpg/sg39_1_cif.got.tgz:1317.got - 2010.04.14 02:53:20.
