data_PCOD8180942
_publ_section_title
;
Structure prediction by ZEFSAII (Michael W. Deem and Ramdas Pophale) SiO2 
 PCOD8180942
Probable space group: A B M 2
;
_chemical_formula_sum "Si O2"
_cell_formula_units_Z 60
_cell_length_a 15.460451
_cell_length_b 9.071941
_cell_length_c 21.961397
_cell_angle_alpha 90.000000
_cell_angle_beta 90.000000
_cell_angle_gamma 90.000000
_cell_volume 3080.224271
_symmetry_space_group_name_H-M "A B M 2"
_symmetry_group_IT_number 39
_symmetry_cell_setting 'orthorhombic'
loop_
_space_group_symop_operation_xyz
x,y,z
-x,-y,z
-x,1/2+y,z
x,1/2-y,z
x,1/2+y,1/2+z
-x,1/2-y,1/2+z
-x,y,1/2+z
x,-y,1/2+z
loop_
_atom_site_type_symbol
_atom_site_label
_atom_site_fract_x
_atom_site_fract_y
_atom_site_fract_z
Si Si1 0.911755 0.580686 0.506010
Si Si2 0.583337 0.579112 0.744551
Si Si3 0.609799 0.408629 0.627106
Si Si4 0.759734 0.918000 0.045886
Si Si5 0.266670 0.575728 0.333323
Si Si6 0.500000 0.500000 0.017124
Si Si7 0.341878 0.585079 0.945081
Si Si8 0.907715 0.578852 0.365170
O O1 0.917504 0.750000 0.526100
O O2 0.853786 0.488212 0.553312
O O3 0.881540 0.565041 0.435863
O O4 0.000000 0.500000 0.513815
O O5 0.500000 0.500000 0.775589
O O6 0.566468 0.750000 0.751753
O O7 0.583357 0.538350 0.672615
O O8 0.675677 0.535401 0.773793
O O9 0.594645 0.250000 0.659455
O O10 0.710810 0.426444 0.610368
O O11 0.558749 0.402871 0.562644
O O12 0.763596 0.750000 0.021238
O O13 0.717851 0.028647 0.998394
O O14 0.250680 0.750000 0.339362
O O15 0.328069 0.522052 0.388071
O O16 0.172779 0.496543 0.329242
O O17 0.439718 0.591886 0.970978
O O18 0.313600 0.750000 0.926274
O O19 0.916424 0.750000 0.345800
O O20 0.000000 0.500000 0.350991
#
# Coordination Sequence:
#
# PCOD8180942 Si02
#       8
#     8   8   8   8   8   4   8   8
#     4  10  19  31  51  81 116 153 188 224 276 337
#     4  11  25  42  61  84 112 152 197 243 289 337
#     4  10  21  38  60  83 109 147 193 239 283 330
#     4  10  20  34  54  82 115 147 182 230 282 332
#     4  11  24  40  57  83 119 155 192 239 290 342
#     4  10  22  36  56  84 112 148 190 238 280 336
#     4  11  22  35  54  81 113 149 188 228 281 341
#     4  10  20  35  58  86 115 151 190 232 284 345
#
# _framework density 19.479101
#
# number of rings (size 3 to 8) (size 9 to 14) (size 15 to 20)
#    0.000    1.600    2.000    2.800    0.933    7.467 
#    0.000    0.000    0.000    0.800    0.000    5.600 
#    0.000    0.000    0.000    0.000    0.000    0.000 
#
# Total GULP energy -371776.016778 kJ/mol
# GULP energy per Si atom -12392.533893 kJ/mol
# Density = 1.943477 g / cm^3
# Si number density = 19.479101 Si / 1000 Ang^3
#
#
#
# Elastic Constant Matrix: (Units=GPa)
#
#
# Indices 1 2 3 4 5 6 
#
# 1 117.1268 69.8207 35.4154 0.0000 0.0000 0.0000
# 2 69.8207 127.3492 20.5339 0.0000 0.0000 0.0000
# 3 35.4154 20.5339 46.9973 0.0000 0.0000 0.0000
# 4 0.0000 0.0000 0.0000 18.1266 0.0000 0.0000
# 5 0.0000 0.0000 0.0000 0.0000 24.4442 0.0000
# 6 0.0000 0.0000 0.0000 0.0000 0.0000 33.2795
#
#
#
# Elastic Compliance Matrix: (Units=1/GPa)
#
#
# Indices 1 2 3 4 5 6 
#
# 1 0.015270 -0.007010 -0.008444 0.000000 0.000000 0.000000
# 2 -0.007010 0.011666 0.000186 0.000000 0.000000 0.000000
# 3 -0.008444 0.000186 0.027560 0.000000 0.000000 0.000000
# 4 0.000000 0.000000 0.000000 0.055167 0.000000 0.000000
# 5 0.000000 0.000000 0.000000 0.000000 0.040910 0.000000
# 6 0.000000 0.000000 0.000000 0.000000 0.000000 0.030048
#
#
# Mechanical properties :
#
#
# Convention : Reuss Voigt Hill
#
# Bulk Modulus (GPa) = 41.73892 60.33480 51.03686
# Shear Modulus (GPa) = 22.81601 26.21695 24.51648
#
# Velocity S-wave (km/s) = 3.42615 3.67263 3.55153
# Velocity P-wave (km/s) = 6.09306 7.00183 6.56320
#
# Compressibility (1/GPa) = 0.02395846
#
# Stress axis : x y z
#
# Youngs Moduli (GPa) = 65.48827 85.71909 36.28488
#
# Poissons Ratio (x) = 0.60093 0.30639
# Poissons Ratio (y) = 0.45910 -0.00674
# Poissons Ratio (z) = 0.55298 -0.01592
#
# Static dielectric constant tensor:
#      x y z
#    x 3.868190 0.000000 0.000000 
#    y 0.000000 3.661810 0.000000 
#    z 0.000000 0.000000 3.307880 
# 
# 
# High freq. dielectric constant tensor:
#      x y z
#    x 1.775290 0.000000 0.000000 
#    y 0.000000 1.772120 0.000000 
#    z 0.000000 0.000000 1.711620 
# 
# From -- ./inp_files/16058.got.cif
#   From: 2010.03.12/outbox.cif.g09.slc.cpg/sg39_9_cif.got.tgz:16058.got - 2010.04.14 02:53:20.
