data_PCOD8180352
_publ_section_title
;
Structure prediction by ZEFSAII (Michael W. Deem and Ramdas Pophale) SiO2 
 PCOD8180352
Probable space group: A M M 2
;
_chemical_formula_sum "Si O2"
_cell_formula_units_Z 40
_cell_length_a 7.806659
_cell_length_b 7.858004
_cell_length_c 32.009708
_cell_angle_alpha 90.000000
_cell_angle_beta 90.000000
_cell_angle_gamma 90.000000
_cell_volume 1963.627780
_symmetry_space_group_name_H-M "A M M 2"
_symmetry_group_IT_number 38
_symmetry_cell_setting 'orthorhombic'
loop_
_space_group_symop_operation_xyz
x,y,z
-x,-y,z
-x,y,z
x,-y,z
x,1/2+y,1/2+z
-x,1/2-y,1/2+z
-x,1/2+y,1/2+z
x,1/2-y,1/2+z
loop_
_atom_site_type_symbol
_atom_site_label
_atom_site_fract_x
_atom_site_fract_y
_atom_site_fract_z
Si Si1 0.299644 0.000000 0.396600
Si Si2 0.195456 0.812026 0.953015
Si Si3 0.000000 0.194145 0.681005
Si Si4 0.312205 0.192351 0.538094
Si Si5 0.698923 0.695394 0.244567
Si Si6 0.701022 0.500000 0.804231
Si Si7 0.000000 0.190459 0.090132
O O1 0.246488 0.171499 0.419647
O O2 0.214508 0.000000 0.350358
O O3 0.500000 0.000000 0.392415
O O4 0.000000 0.783586 0.965535
O O5 0.227692 0.000000 0.933469
O O6 0.296727 0.804030 0.996466
O O7 0.174119 0.233654 0.706256
O O8 0.000000 0.309703 0.640103
O O9 0.000000 0.000000 0.666089
O O10 0.500000 0.227996 0.557952
O O11 0.171698 0.222300 0.573477
O O12 0.295605 0.000000 0.522251
O O13 0.500000 0.725765 0.231064
O O14 0.723780 0.500000 0.260257
O O15 0.756457 0.826969 0.280551
O O16 0.500000 0.500000 0.808972
O O17 0.000000 0.000000 0.073167
#
# Coordination Sequence:
#
# PCOD8180352 Si02
#       7
#     4   8   4   8   8   4   4
#     4  11  23  39  61  95 127 165 217 262 315 375
#     4  11  23  40  61  87 125 170 212 259 310 368
#     4  10  22  40  62  90 119 156 205 250 306 378
#     4  11  23  41  65  89 120 166 213 256 313 373
#     4   9  19  38  63  89 122 163 202 251 311 368
#     4   9  20  38  62  90 123 161 209 258 305 369
#     4  12  26  40  60  94 129 160 203 260 316 374
#
# _framework density 20.370457999999999
#
# number of rings (size 3 to 8) (size 9 to 14) (size 15 to 20)
#    0.000    1.600    2.000    2.400    1.400    4.400 
#    3.600    4.000    0.000    0.000    0.000    0.000 
#    0.000    0.000    0.000    0.000    0.000    0.000 
#
# Total GULP energy -247962.653033 kJ/mol
# GULP energy per Si atom -12398.132652 kJ/mol
# Density = 2.032409 g / cm^3
# Si number density = 20.370458 Si / 1000 Ang^3
#
#
#
# Elastic Constant Matrix: (Units=GPa)
#
#
# Indices 1 2 3 4 5 6 
#
# 1 127.5018 47.1227 54.2860 0.0000 0.0000 0.0000
# 2 47.1227 126.2259 60.9744 0.0000 0.0000 0.0000
# 3 54.2860 60.9744 132.0871 0.0000 0.0000 0.0000
# 4 0.0000 0.0000 0.0000 23.9544 0.0000 0.0000
# 5 0.0000 0.0000 0.0000 0.0000 -230.7098 0.0000
# 6 0.0000 0.0000 0.0000 0.0000 0.0000 4.7655
#
#
#
# Elastic Compliance Matrix: (Units=1/GPa)
#
#
# Indices 1 2 3 4 5 6 
#
# 1 0.009977 -0.002244 -0.003064 0.000000 0.000000 0.000000
# 2 -0.002244 0.010701 -0.004017 0.000000 0.000000 0.000000
# 3 -0.003064 -0.004017 0.010685 0.000000 0.000000 0.000000
# 4 0.000000 0.000000 0.000000 0.041746 0.000000 0.000000
# 5 0.000000 0.000000 0.000000 0.000000 -0.004334 0.000000
# 6 0.000000 0.000000 0.000000 0.000000 0.000000 0.209841
#
#
# Mechanical properties :
#
#
# Convention : Reuss Voigt Hill
#
# Bulk Modulus (GPa) = 78.67566 78.95344 78.81455
# Shear Modulus (GPa) = 16.58350 -25.50254 -4.45952
#
# Velocity S-wave (km/s) = 2.85633 -3.54211 -1.48120
# Velocity P-wave (km/s) = 7.04162 4.70257 5.98743
#
# Compressibility (1/GPa) = 0.01271041
#
# Stress axis : x y z
#
# Youngs Moduli (GPa) = 100.22783 93.45111 93.59188
#
# Poissons Ratio (x) = 0.20974 0.28681
# Poissons Ratio (y) = 0.22495 0.37599
# Poissons Ratio (z) = 0.30714 0.37542
#
# Static dielectric constant tensor:
#      x y z
#    x 3.957920 0.000000 0.000000 
#    y 0.000000 3.886230 0.000000 
#    z 0.000000 0.000000 3.606550 
# 
# 
# High freq. dielectric constant tensor:
#      x y z
#    x 1.806410 0.000000 0.000000 
#    y 0.000000 1.811220 0.000000 
#    z 0.000000 0.000000 1.774290 
# 
# From -- ./inp_files/23301.got.cif
#   From: 2010.03.12/outbox.cif.g09.slc.cpg/sg38_12_cif.got.tgz:23301.got - 2010.04.14 02:38:36.
