data_PCOD8180689
_publ_section_title
;
Structure prediction by ZEFSAII (Michael W. Deem and Ramdas Pophale) SiO2 
 PCOD8180689
Probable space group: A B M 2
;
_chemical_formula_sum "Si O2"
_cell_formula_units_Z 64
_cell_length_a 24.423331
_cell_length_b 8.519447
_cell_length_c 15.081522
_cell_angle_alpha 90.000000
_cell_angle_beta 90.000000
_cell_angle_gamma 90.000000
_cell_volume 3138.061660
_symmetry_space_group_name_H-M "A B M 2"
_symmetry_group_IT_number 39
_symmetry_cell_setting 'orthorhombic'
loop_
_space_group_symop_operation_xyz
x,y,z
-x,-y,z
-x,1/2+y,z
x,1/2-y,z
x,1/2+y,1/2+z
-x,1/2-y,1/2+z
-x,y,1/2+z
x,-y,1/2+z
loop_
_atom_site_type_symbol
_atom_site_label
_atom_site_fract_x
_atom_site_fract_y
_atom_site_fract_z
Si Si1 0.058051 0.434252 0.007120
Si Si2 0.672060 0.568355 0.813758
Si Si3 0.447644 0.931836 0.325875
Si Si4 0.940184 0.935553 0.317004
Si Si5 0.555606 0.931653 0.518679
Si Si6 0.871293 0.566715 0.660623
Si Si7 0.331265 0.565189 0.512085
Si Si8 0.744502 0.565254 0.656803
O O1 0.052875 0.250000 0.987736
O O2 0.102639 0.465856 0.081926
O O3 0.000000 0.500000 0.041315
O O4 0.075861 0.522133 0.917451
O O5 0.686860 0.750000 0.821617
O O6 0.610057 0.544337 0.775653
O O7 0.677354 0.494544 0.912447
O O8 0.714130 0.492446 0.743531
O O9 0.455927 0.750000 0.350700
O O10 0.500000 0.000000 0.270213
O O11 0.445891 0.034428 0.414531
O O12 0.938822 0.750000 0.302419
O O13 0.896531 0.018836 0.254306
O O14 0.000000 0.000000 0.293043
O O15 0.557109 0.750000 0.540679
O O16 0.500000 0.000000 0.563706
O O17 0.612153 0.004382 0.556468
O O18 0.881135 0.750000 0.642488
O O19 0.807814 0.522827 0.664286
O O20 0.335876 0.750000 0.505956
O O21 0.279228 0.514878 0.569193
O O22 0.734164 0.750000 0.649442
#
# Coordination Sequence:
#
# PCOD8180689 Si02
#       8
#     8   8   8   8   8   8   8   8
#     4  11  22  39  63  91 123 157 194 238 291 346
#     4   8  17  35  56  76 104 144 183 224 278 334
#     4   9  15  26  47  75 105 136 174 221 276 337
#     4  11  22  39  63  92 124 156 193 237 289 347
#     4  10  17  28  49  77 107 139 178 224 279 340
#     4  11  23  39  59  86 120 158 200 244 291 343
#     4  10  20  36  57  81 110 145 185 231 284 340
#     4  10  22  40  59  80 109 149 195 239 280 329
#
# _framework density 20.394755
#
# number of rings (size 3 to 8) (size 9 to 14) (size 15 to 20)
#    0.000    2.000    0.000    7.125    0.000    2.000 
#    0.000    5.625    0.000    1.500    0.000    0.000 
#    0.000    0.000    0.000    0.000    0.000    0.000 
#
# Total GULP energy -396711.590301 kJ/mol
# GULP energy per Si atom -12397.237197 kJ/mol
# Density = 2.034834 g / cm^3
# Si number density = 20.394755 Si / 1000 Ang^3
#
#
#
# Elastic Constant Matrix: (Units=GPa)
#
#
# Indices 1 2 3 4 5 6 
#
# 1 145.0875 38.3924 65.1675 0.0000 0.0000 0.0000
# 2 38.3924 73.3192 15.1318 0.0000 0.0000 0.0000
# 3 65.1675 15.1318 89.7384 0.0000 0.0000 0.0000
# 4 0.0000 0.0000 0.0000 24.4049 0.0000 0.0000
# 5 0.0000 0.0000 0.0000 0.0000 8.9295 0.0000
# 6 0.0000 0.0000 0.0000 0.0000 0.0000 30.2836
#
#
#
# Elastic Compliance Matrix: (Units=1/GPa)
#
#
# Indices 1 2 3 4 5 6 
#
# 1 0.011474 -0.004443 -0.007583 0.000000 0.000000 0.000000
# 2 -0.004443 0.015851 0.000554 0.000000 0.000000 0.000000
# 3 -0.007583 0.000554 0.016557 0.000000 0.000000 0.000000
# 4 0.000000 0.000000 0.000000 0.040975 0.000000 0.000000
# 5 0.000000 0.000000 0.000000 0.000000 0.111988 0.000000
# 6 0.000000 0.000000 0.000000 0.000000 0.000000 0.033021
#
#
# Mechanical properties :
#
#
# Convention : Reuss Voigt Hill
#
# Bulk Modulus (GPa) = 47.76204 60.61429 54.18816
# Shear Modulus (GPa) = 19.24615 25.35382 22.29999
#
# Velocity S-wave (km/s) = 3.07527 3.52966 3.31027
# Velocity P-wave (km/s) = 6.00661 6.81149 6.42167
#
# Compressibility (1/GPa) = 0.02093713
#
# Stress axis : x y z
#
# Youngs Moduli (GPa) = 87.15150 63.08614 60.39706
#
# Poissons Ratio (x) = 0.28031 0.45801
# Poissons Ratio (y) = 0.38724 -0.03345
# Poissons Ratio (z) = 0.66090 -0.03494
#
# Static dielectric constant tensor:
#      x y z
#    x 3.995600 0.000000 0.000000 
#    y 0.000000 3.601630 0.000000 
#    z 0.000000 0.000000 3.608260 
# 
# 
# High freq. dielectric constant tensor:
#      x y z
#    x 1.803940 0.000000 0.000000 
#    y 0.000000 1.792570 0.000000 
#    z 0.000000 0.000000 1.782020 
# 
# From -- ./inp_files/10664.got.cif
#   From: 2010.03.12/outbox.cif.g09.slc.cpg/sg39_6_cif.got.tgz:10664.got - 2010.04.14 02:53:20.
