data_PCOD8180411
_publ_section_title
;
Structure prediction by ZEFSAII (Michael W. Deem and Ramdas Pophale) SiO2 
 PCOD8180411
Probable space group: A M M 2
;
_chemical_formula_sum "Si O2"
_cell_formula_units_Z 36
_cell_length_a 9.876232
_cell_length_b 26.699532
_cell_length_c 5.324978
_cell_angle_alpha 90.000000
_cell_angle_beta 90.000000
_cell_angle_gamma 90.000000
_cell_volume 1404.147561
_symmetry_space_group_name_H-M "A M M 2"
_symmetry_group_IT_number 38
_symmetry_cell_setting 'orthorhombic'
loop_
_space_group_symop_operation_xyz
x,y,z
-x,-y,z
-x,y,z
x,-y,z
x,1/2+y,1/2+z
-x,1/2-y,1/2+z
-x,1/2+y,1/2+z
x,1/2-y,1/2+z
loop_
_atom_site_type_symbol
_atom_site_label
_atom_site_fract_x
_atom_site_fract_y
_atom_site_fract_z
Si Si1 0.846534 0.227136 0.046970
Si Si2 0.653396 0.942913 0.002431
Si Si3 0.500000 0.219687 0.067618
Si Si4 0.152774 0.130227 0.763062
Si Si5 0.351672 0.645112 0.854672
O O1 0.775062 0.244533 0.309407
O O2 0.000000 0.247823 0.069927
O O3 0.849932 0.166308 0.007213
O O4 0.500000 0.938968 0.894475
O O5 0.666303 0.911553 0.258637
O O6 0.692669 0.000000 0.061636
O O7 0.760413 0.920216 0.805375
O O8 0.500000 0.262549 0.282283
O O9 0.364680 0.184561 0.113385
O O10 0.227054 0.159657 0.534231
O O11 0.000000 0.115697 0.683794
O O12 0.500000 0.649775 0.991636
#
# Coordination Sequence:
#
# PCOD8180411 Si02
#       5
#     8   8   4   8   8
#     4   9  20  38  60  92 137 189 233 271 336 424
#     4  10  23  46  72  96 131 184 245 307 369 439
#     4  10  24  42  73 110 149 198 244 312 364 426
#     4  11  24  40  67 103 143 185 234 301 367 444
#     4   9  23  42  68  97 140 184 250 288 368 435
#
# _framework density 25.638334
#
# number of rings (size 3 to 8) (size 9 to 14) (size 15 to 20)
#    0.667    1.556    0.000    0.667    6.222    4.000 
#    0.000    2.222    0.000    0.000    0.000    0.000 
#    0.000    0.000    0.000    0.000    0.000    0.000 
#
# Total GULP energy -223067.557281 kJ/mol
# GULP energy per Si atom -12392.642071 kJ/mol
# Density = 2.557998 g / cm^3
# Si number density = 25.638334 Si / 1000 Ang^3
#
#
#
# Elastic Constant Matrix: (Units=GPa)
#
#
# Indices 1 2 3 4 5 6 
#
# 1 170.7884 9.7344 16.3478 0.0000 0.0000 0.0000
# 2 9.7344 127.0119 19.5720 0.0000 0.0000 0.0000
# 3 16.3478 19.5720 80.4933 0.0000 0.0000 0.0000
# 4 0.0000 0.0000 0.0000 34.4152 0.0000 0.0000
# 5 0.0000 0.0000 0.0000 0.0000 31.1509 0.0000
# 6 0.0000 0.0000 0.0000 0.0000 0.0000 31.0498
#
#
#
# Elastic Compliance Matrix: (Units=1/GPa)
#
#
# Indices 1 2 3 4 5 6 
#
# 1 0.005981 -0.000282 -0.001146 0.000000 0.000000 0.000000
# 2 -0.000282 0.008193 -0.001935 0.000000 0.000000 0.000000
# 3 -0.001146 -0.001935 0.013127 0.000000 0.000000 0.000000
# 4 0.000000 0.000000 0.000000 0.029057 0.000000 0.000000
# 5 0.000000 0.000000 0.000000 0.000000 0.032102 0.000000
# 6 0.000000 0.000000 0.000000 0.000000 0.000000 0.032206
#
#
# Mechanical properties :
#
#
# Convention : Reuss Voigt Hill
#
# Bulk Modulus (GPa) = 48.60291 52.17802 50.39046
# Shear Modulus (GPa) = 37.24399 41.49913 39.37156
#
# Velocity S-wave (km/s) = 3.81552 4.02759 3.92299
# Velocity P-wave (km/s) = 6.19752 6.48262 6.34167
#
# Compressibility (1/GPa) = 0.02057490
#
# Stress axis : x y z
#
# Youngs Moduli (GPa) = 167.19693 122.05489 76.18084
#
# Poissons Ratio (x) = 0.03439 0.08732
# Poissons Ratio (y) = 0.04711 0.14740
# Poissons Ratio (z) = 0.19164 0.23617
#
# Static dielectric constant tensor:
#      x y z
#    x 5.113700 0.000000 0.000000 
#    y 0.000000 4.448070 0.000000 
#    z 0.000000 0.000000 4.405410 
# 
# 
# High freq. dielectric constant tensor:
#      x y z
#    x 2.059180 0.000000 0.000000 
#    y 0.000000 2.011200 0.000000 
#    z 0.000000 0.000000 2.007930 
# 
# From -- ./inp_files/899.got.cif
#   From: 2010.03.12/outbox.cif.g09.slc.cpg/sg38_1_cif.got.tgz:899.got - 2010.04.14 02:38:36.
