data_PCOD8180764
_publ_section_title
;
Structure prediction by ZEFSAII (Michael W. Deem and Ramdas Pophale) SiO2 
 PCOD8180764
Probable space group: A B M 2
;
_chemical_formula_sum "Si O2"
_cell_formula_units_Z 64
_cell_length_a 19.257646
_cell_length_b 8.804581
_cell_length_c 20.612258
_cell_angle_alpha 90.000000
_cell_angle_beta 90.000000
_cell_angle_gamma 90.000000
_cell_volume 3494.921795
_symmetry_space_group_name_H-M "A B M 2"
_symmetry_group_IT_number 39
_symmetry_cell_setting 'orthorhombic'
loop_
_space_group_symop_operation_xyz
x,y,z
-x,-y,z
-x,1/2+y,z
x,1/2-y,z
x,1/2+y,1/2+z
-x,1/2-y,1/2+z
-x,y,1/2+z
x,-y,1/2+z
loop_
_atom_site_type_symbol
_atom_site_label
_atom_site_fract_x
_atom_site_fract_y
_atom_site_fract_z
Si Si1 0.429892 0.072388 0.959620
Si Si2 0.203789 0.070608 0.530742
Si Si3 0.719270 0.426232 0.412529
Si Si4 0.927925 0.428650 0.583992
Si Si5 0.712428 0.070661 0.153645
Si Si6 0.569965 0.070454 0.099388
Si Si7 0.790771 0.570531 0.778857
Si Si8 0.072859 0.429038 0.232722
O O1 0.442747 0.250000 0.969796
O O2 0.363586 0.040948 0.913566
O O3 0.500000 0.000000 0.928600
O O4 0.414411 0.997480 0.028876
O O5 0.195114 0.250000 0.534028
O O6 0.248040 0.005339 0.590979
O O7 0.241405 0.027251 0.464714
O O8 0.128722 0.993805 0.534663
O O9 0.733775 0.250000 0.427624
O O10 0.748955 0.474837 0.343049
O O11 0.932422 0.250000 0.576541
O O12 0.911117 0.476346 0.658289
O O13 0.000000 0.500000 0.561494
O O14 0.719947 0.250000 0.154133
O O15 0.631670 0.024300 0.148309
O O16 0.745519 0.003688 0.219146
O O17 0.562771 0.250000 0.091982
O O18 0.500000 0.000000 0.129296
O O19 0.801093 0.750000 0.773284
O O20 0.866399 0.493647 0.778479
O O21 0.068049 0.250000 0.241165
O O22 0.000000 0.500000 0.255638
#
# Coordination Sequence:
#
# PCOD8180764 Si02
#       8
#     8   8   8   8   8   8   8   8
#     4  10  19  32  51  77 105 138 180 222 270 323
#     4  11  20  34  57  82 109 142 180 224 272 323
#     4  10  22  37  55  80 111 147 183 226 274 324
#     4  10  20  34  54  83 115 144 180 226 274 325
#     4   9  18  32  54  79 104 138 179 219 267 321
#     4  10  18  31  50  78 107 138 177 223 274 322
#     4  10  20  38  58  78 109 147 185 223 268 326
#     4  10  20  34  55  83 111 142 179 223 269 321
#
# _framework density 18.312283999999998
#
# number of rings (size 3 to 8) (size 9 to 14) (size 15 to 20)
#    0.000    2.000    2.500    2.625    0.000    2.000 
#    0.000    2.500    0.000    3.000    0.000    0.000 
#    0.000    0.000    0.000    0.000    0.000    0.000 
#
# Total GULP energy -396826.985146 kJ/mol
# GULP energy per Si atom -12400.843286 kJ/mol
# Density = 1.827060 g / cm^3
# Si number density = 18.312284 Si / 1000 Ang^3
#
#
#
# Elastic Constant Matrix: (Units=GPa)
#
#
# Indices 1 2 3 4 5 6 
#
# 1 172.7347 54.7695 68.1350 0.0000 0.0000 0.0000
# 2 54.7695 75.8380 32.3628 0.0000 0.0000 0.0000
# 3 68.1350 32.3628 92.4374 0.0000 0.0000 0.0000
# 4 0.0000 0.0000 0.0000 21.2178 0.0000 0.0000
# 5 0.0000 0.0000 0.0000 0.0000 -0.9980 0.0000
# 6 0.0000 0.0000 0.0000 0.0000 0.0000 32.2269
#
#
#
# Elastic Compliance Matrix: (Units=1/GPa)
#
#
# Indices 1 2 3 4 5 6 
#
# 1 0.009285 -0.004450 -0.005286 0.000000 0.000000 0.000000
# 2 -0.004450 0.017635 -0.002894 0.000000 0.000000 0.000000
# 3 -0.005286 -0.002894 0.015728 0.000000 0.000000 0.000000
# 4 0.000000 0.000000 0.000000 0.047130 0.000000 0.000000
# 5 0.000000 0.000000 0.000000 0.000000 -1.002048 0.000000
# 6 0.000000 0.000000 0.000000 0.000000 0.000000 0.031030
#
#
# Mechanical properties :
#
#
# Convention : Reuss Voigt Hill
#
# Bulk Modulus (GPa) = 57.51254 72.39387 64.95320
# Shear Modulus (GPa) = -5.88108 22.87221 8.49557
#
# Velocity S-wave (km/s) = -1.79402 3.53797 2.15623
# Velocity P-wave (km/s) = 5.21377 7.50389 6.46110
#
# Compressibility (1/GPa) = 0.01738751
#
# Stress axis : x y z
#
# Youngs Moduli (GPa) = 107.69688 56.70642 63.58197
#
# Poissons Ratio (x) = 0.25234 0.33611
# Poissons Ratio (y) = 0.47925 0.18400
# Poissons Ratio (z) = 0.56931 0.16411
#
# Static dielectric constant tensor:
#      x y z
#    x 4.219200 0.000000 0.000000 
#    y 0.000000 3.275290 0.000000 
#    z 0.000000 0.000000 3.183980 
# 
# 
# High freq. dielectric constant tensor:
#      x y z
#    x 1.728530 0.000000 0.000000 
#    y 0.000000 1.707800 0.000000 
#    z 0.000000 0.000000 1.676540 
# 
# From -- ./inp_files/13187.got.cif
#   From: 2010.03.12/outbox.cif.g09.slc.cpg/sg39_7_cif.got.tgz:13187.got - 2010.04.14 02:53:20.
