data_PCOD8180419
_publ_section_title
;
Structure prediction by ZEFSAII (Michael W. Deem and Ramdas Pophale) SiO2 
 PCOD8180419
Probable space group: A M M 2
;
_chemical_formula_sum "Si O2"
_cell_formula_units_Z 56
_cell_length_a 8.642812
_cell_length_b 29.467394
_cell_length_c 13.955306
_cell_angle_alpha 90.000000
_cell_angle_beta 90.000000
_cell_angle_gamma 90.000000
_cell_volume 3554.153331
_symmetry_space_group_name_H-M "A M M 2"
_symmetry_group_IT_number 38
_symmetry_cell_setting 'orthorhombic'
loop_
_space_group_symop_operation_xyz
x,y,z
-x,-y,z
-x,y,z
x,-y,z
x,1/2+y,1/2+z
-x,1/2-y,1/2+z
-x,1/2+y,1/2+z
x,1/2-y,1/2+z
loop_
_atom_site_type_symbol
_atom_site_label
_atom_site_fract_x
_atom_site_fract_y
_atom_site_fract_z
Si Si1 0.814394 0.903385 0.712190
Si Si2 0.681389 0.406357 0.004848
Si Si3 0.817544 0.822939 0.402032
Si Si4 0.183298 0.270840 0.717529
Si Si5 0.830564 0.000000 0.722728
Si Si6 0.816234 0.768340 0.006262
Si Si7 0.828705 0.500000 0.995583
Si Si8 0.815701 0.182752 0.823152
O O1 0.758576 0.892657 0.605431
O O2 0.747185 0.952340 0.750274
O O3 0.751114 0.865271 0.785114
O O4 0.000000 0.905324 0.708797
O O5 0.500000 0.409201 0.020019
O O6 0.739376 0.454579 0.963173
O O7 0.724263 0.367937 0.928125
O O8 0.771393 0.810372 0.292323
O O9 0.765168 0.781672 0.471301
O O10 0.000000 0.832033 0.411863
O O11 0.253084 0.279704 0.611365
O O12 0.247377 0.222484 0.754189
O O13 0.000000 0.267613 0.711457
O O14 0.844138 0.000000 0.608921
O O15 0.000000 0.000000 0.770584
O O16 0.757073 0.806758 0.931307
O O17 0.000000 0.769472 0.008224
O O18 0.000000 0.500000 0.949014
O O19 0.000000 0.182152 0.820271
#
# Coordination Sequence:
#
# PCOD8180419 Si02
#       8
#     8   8   8   8   4   8   4   8
#     4   9  15  25  40  57  80 110 141 168 201 247
#     4  11  20  28  40  61  87 110 134 166 202 240
#     4   9  16  26  41  59  79 107 140 170 207 253
#     4   8  13  21  35  57  81 102 131 175 217 246
#     4   7  12  21  35  55  76  99 126 156 189 232
#     4   8  13  22  38  61  83 102 137 185 216 236
#     4   9  17  31  47  61  80 107 136 164 199 242
#     4   8  13  20  35  59  80 102 136 177 214 244
#
# _framework density 15.756214
#
# number of rings (size 3 to 8) (size 9 to 14) (size 15 to 20)
#    0.000    3.286    0.000    4.929    0.000    2.286 
#    0.000    0.000    0.000    7.714    0.000    1.000 
#    0.000    5.714    0.000    3.429    0.000    4.000 
#
# Total GULP energy -346878.218424 kJ/mol
# GULP energy per Si atom -12388.507801 kJ/mol
# Density = 1.572035 g / cm^3
# Si number density = 15.756214 Si / 1000 Ang^3
#
#
#
# Elastic Constant Matrix: (Units=GPa)
#
#
# Indices 1 2 3 4 5 6 
#
# 1 29.3930 20.3895 10.0355 0.0000 0.0000 0.0000
# 2 20.3895 142.4455 66.4171 0.0000 0.0000 0.0000
# 3 10.0355 66.4171 115.7424 0.0000 0.0000 0.0000
# 4 0.0000 0.0000 0.0000 23.6007 0.0000 0.0000
# 5 0.0000 0.0000 0.0000 0.0000 3.6474 0.0000
# 6 0.0000 0.0000 0.0000 0.0000 0.0000 6.7019
#
#
#
# Elastic Compliance Matrix: (Units=1/GPa)
#
#
# Indices 1 2 3 4 5 6 
#
# 1 0.037777 -0.005298 -0.000236 0.000000 0.000000 0.000000
# 2 -0.005298 0.010328 -0.005467 0.000000 0.000000 0.000000
# 3 -0.000236 -0.005467 0.011797 0.000000 0.000000 0.000000
# 4 0.000000 0.000000 0.000000 0.042372 0.000000 0.000000
# 5 0.000000 0.000000 0.000000 0.000000 0.274168 0.000000
# 6 0.000000 0.000000 0.000000 0.000000 0.000000 0.149212
#
#
# Mechanical properties :
#
#
# Convention : Reuss Voigt Hill
#
# Bulk Modulus (GPa) = 26.38397 53.47390 39.92894
# Shear Modulus (GPa) = 8.92398 19.50590 14.21494
#
# Velocity S-wave (km/s) = 2.38245 3.52231 3.00689
# Velocity P-wave (km/s) = 4.93453 7.11015 6.11980
#
# Compressibility (1/GPa) = 0.03790180
#
# Stress axis : x y z
#
# Youngs Moduli (GPa) = 26.47117 96.82820 84.76403
#
# Poissons Ratio (x) = 0.51295 0.01997
# Poissons Ratio (y) = 0.14023 0.46340
# Poissons Ratio (z) = 0.00624 0.52936
#
# Static dielectric constant tensor:
#      x y z
#    x 2.557580 0.000000 0.000000 
#    y 0.000000 3.334320 0.000000 
#    z 0.000000 0.000000 3.148740 
# 
# 
# High freq. dielectric constant tensor:
#      x y z
#    x 1.561320 0.000000 0.000000 
#    y 0.000000 1.607280 0.000000 
#    z 0.000000 0.000000 1.577770 
# 
# From -- ./inp_files/13002.got.cif
#   From: 2010.03.12/outbox.cif.g09.slc.cpg/sg38_7_cif.got.tgz:13002.got - 2010.04.14 02:38:36.
