data_PCOD8180596
_publ_section_title
;
Structure prediction by ZEFSAII (Michael W. Deem and Ramdas Pophale) SiO2 
 PCOD8180596
Probable space group: A B M 2
;
_chemical_formula_sum "Si O2"
_cell_formula_units_Z 64
_cell_length_a 35.012547
_cell_length_b 14.905648
_cell_length_c 5.306590
_cell_angle_alpha 90.000000
_cell_angle_beta 90.000000
_cell_angle_gamma 90.000000
_cell_volume 2769.428136
_symmetry_space_group_name_H-M "A B M 2"
_symmetry_group_IT_number 39
_symmetry_cell_setting 'orthorhombic'
loop_
_space_group_symop_operation_xyz
x,y,z
-x,-y,z
-x,1/2+y,z
x,1/2-y,z
x,1/2+y,1/2+z
-x,1/2-y,1/2+z
-x,y,1/2+z
x,-y,1/2+z
loop_
_atom_site_type_symbol
_atom_site_label
_atom_site_fract_x
_atom_site_fract_y
_atom_site_fract_z
Si Si1 0.515971 0.100280 0.047760
Si Si2 0.146054 0.143377 0.566517
Si Si3 0.016118 0.399967 0.067575
Si Si4 0.724538 0.643266 0.065848
Si Si5 0.393751 0.600356 0.052597
Si Si6 0.361670 0.099762 0.052427
Si Si7 0.102563 0.356714 0.066538
Si Si8 0.768137 0.856569 0.565976
O O1 0.497343 0.149740 0.290335
O O2 0.561081 0.101676 0.074007
O O3 0.500000 0.000000 0.022557
O O4 0.147277 0.250000 0.566408
O O5 0.124782 0.109273 0.314930
O O6 0.188965 0.104440 0.566455
O O7 0.124812 0.109303 0.818236
O O8 0.061570 0.402946 0.066259
O O9 0.000000 0.500000 0.069412
O O10 0.000155 0.349789 0.318023
O O11 0.719218 0.750000 0.065262
O O12 0.683739 0.595880 0.068665
O O13 0.746964 0.609669 0.313761
O O14 0.746774 0.609455 0.817328
O O15 0.378570 0.499509 0.031898
O O16 0.375388 0.649891 0.296220
O O17 0.379319 0.649924 0.797670
O O18 0.097678 0.250000 0.066588
O O19 0.769470 0.750000 0.566466
#
# Coordination Sequence:
#
# PCOD8180596 Si02
#       8
#     8   8   8   8   8   8   8   8
#     4  10  16  25  41  63  91 110 136 186 239 291
#     4   9  17  30  49  75 104 127 151 196 253 291
#     4  10  21  36  52  73  99 135 172 198 231 286
#     4  10  19  30  47  71  97 127 162 196 228 269
#     4  10  19  30  45  67  92 121 152 185 236 290
#     4  10  18  30  44  64  94 125 155 188 226 278
#     4  10  19  31  51  79 104 125 155 199 247 290
#     4   9  17  30  47  70  99 126 155 194 240 283
#
# _framework density 23.109463000000002
#
# number of rings (size 3 to 8) (size 9 to 14) (size 15 to 20)
#    0.000    2.250    0.000    6.000    0.000    3.500 
#    0.000    0.000    0.000    0.000    0.000   70.000 
#    0.000   37.000    0.000    0.000    0.000    0.000 
#
# Total GULP energy -396665.508739 kJ/mol
# GULP energy per Si atom -12395.797148 kJ/mol
# Density = 2.305686 g / cm^3
# Si number density = 23.109463 Si / 1000 Ang^3
#
#
#
# Elastic Constant Matrix: (Units=GPa)
#
#
# Indices 1 2 3 4 5 6 
#
# 1 213.0283 9.3052 80.0294 0.0000 0.0000 0.0000
# 2 9.3052 20.6581 -1.7225 0.0000 0.0000 0.0000
# 3 80.0294 -1.7225 250.6150 0.0000 0.0000 0.0000
# 4 0.0000 0.0000 0.0000 -3.9798 0.0000 0.0000
# 5 0.0000 0.0000 0.0000 0.0000 55.5557 0.0000
# 6 0.0000 0.0000 0.0000 0.0000 0.0000 -213.8927
#
#
#
# Elastic Compliance Matrix: (Units=1/GPa)
#
#
# Indices 1 2 3 4 5 6 
#
# 1 0.005471 -0.002612 -0.001765 0.000000 0.000000 0.000000
# 2 -0.002612 0.049682 0.001175 0.000000 0.000000 0.000000
# 3 -0.001765 0.001175 0.004562 0.000000 0.000000 0.000000
# 4 0.000000 0.000000 0.000000 -0.251268 0.000000 0.000000
# 5 0.000000 0.000000 0.000000 0.000000 0.018000 0.000000
# 6 0.000000 0.000000 0.000000 0.000000 0.000000 -0.004675
#
#
# Mechanical properties :
#
#
# Convention : Reuss Voigt Hill
#
# Bulk Modulus (GPa) = 18.75745 73.28062 46.01904
# Shear Modulus (GPa) = -32.45595 -6.01740 -19.23667
#
# Velocity S-wave (km/s) = -3.75166 -1.61540 -2.88829
# Velocity P-wave (km/s) = 3.26070 5.31975 2.97217
#
# Compressibility (1/GPa) = 0.05331215
#
# Stress axis : x y z
#
# Youngs Moduli (GPa) = 182.76803 20.12818 219.20535
#
# Poissons Ratio (x) = 0.05257 0.38693
# Poissons Ratio (y) = 0.47734 -0.25767
# Poissons Ratio (z) = 0.32261 -0.02366
#
# Static dielectric constant tensor:
#      x y z
#    x 4.145390 0.000000 0.000000 
#    y 0.000000 3.319730 0.000000 
#    z 0.000000 0.000000 11.772570 
# 
# 
# High freq. dielectric constant tensor:
#      x y z
#    x 1.924280 0.000000 0.000000 
#    y 0.000000 1.853030 0.000000 
#    z 0.000000 0.000000 1.951990 
# 
# From -- ./inp_files/1460.got.cif
#   From: 2010.03.12/outbox.cif.g09.slc.cpg/sg39_1_cif.got.tgz:1460.got - 2010.04.14 02:53:20.
