data_PCOD8180946
_publ_section_title
;
Structure prediction by ZEFSAII (Michael W. Deem and Ramdas Pophale) SiO2 
 PCOD8180946
Probable space group: A B M 2
;
_chemical_formula_sum "Si O2"
_cell_formula_units_Z 64
_cell_length_a 14.498160
_cell_length_b 9.069331
_cell_length_c 24.598920
_cell_angle_alpha 90.000000
_cell_angle_beta 90.000000
_cell_angle_gamma 90.000000
_cell_volume 3234.477846
_symmetry_space_group_name_H-M "A B M 2"
_symmetry_group_IT_number 39
_symmetry_cell_setting 'orthorhombic'
loop_
_space_group_symop_operation_xyz
x,y,z
-x,-y,z
-x,1/2+y,z
x,1/2-y,z
x,1/2+y,1/2+z
-x,1/2-y,1/2+z
-x,y,1/2+z
x,-y,1/2+z
loop_
_atom_site_type_symbol
_atom_site_label
_atom_site_fract_x
_atom_site_fract_y
_atom_site_fract_z
Si Si1 0.791360 0.581420 0.821470
Si Si2 0.588491 0.423546 0.359938
Si Si3 0.900349 0.423807 0.728371
Si Si4 0.816369 0.915320 0.941780
Si Si5 0.086582 0.914011 0.545762
Si Si6 0.767496 0.577961 0.129352
Si Si7 0.359509 0.578026 0.967283
Si Si8 0.407004 0.076063 0.590134
O O1 0.798097 0.750000 0.800828
O O2 0.683555 0.535081 0.828829
O O3 0.844305 0.474093 0.781296
O O4 0.843610 0.561803 0.879154
O O5 0.500000 0.500000 0.330502
O O6 0.573854 0.250000 0.360640
O O7 0.588573 0.481703 0.421945
O O8 0.917232 0.250000 0.731675
O O9 0.835590 0.468102 0.677992
O O10 0.000000 0.500000 0.723739
O O11 0.771772 0.750000 0.947900
O O12 0.748181 0.041414 0.962464
O O13 0.905922 0.927196 0.980337
O O14 0.067557 0.750000 0.565839
O O15 0.181145 0.966793 0.573484
O O16 0.000000 0.000000 0.568638
O O17 0.741381 0.750000 0.132216
O O18 0.674104 0.483639 0.129284
O O19 0.375985 0.750000 0.955862
O O20 0.393103 0.531671 0.027132
O O21 0.413403 0.250000 0.597816
O O22 0.500000 0.000000 0.611206
#
# Coordination Sequence:
#
# PCOD8180946 Si02
#       8
#     8   8   8   8   8   8   8   8
#     4   9  20  38  59  85 117 153 196 242 292 344
#     4  10  20  34  55  84 119 159 199 239 287 342
#     4  11  24  42  66  91 113 148 195 244 297 350
#     4   9  18  34  55  80 115 157 191 232 291 343
#     4  10  20  34  55  82 114 150 186 233 288 347
#     4  10  22  41  62  84 114 151 194 242 293 345
#     4  10  19  31  51  82 117 157 199 236 281 337
#     4  11  23  36  56  86 119 157 197 238 287 344
#
# _framework density 19.786811
#
# number of rings (size 3 to 8) (size 9 to 14) (size 15 to 20)
#    0.000    2.000    1.250    3.000    0.000    7.500 
#    0.000    1.875    0.000    1.500    0.000    0.000 
#    0.000    0.000    0.000    0.000    0.000    0.000 
#
# Total GULP energy -396686.864790 kJ/mol
# GULP energy per Si atom -12396.464525 kJ/mol
# Density = 1.974178 g / cm^3
# Si number density = 19.786811 Si / 1000 Ang^3
#
#
#
# Elastic Constant Matrix: (Units=GPa)
#
#
# Indices 1 2 3 4 5 6 
#
# 1 139.6861 68.6016 54.6797 0.0000 0.0000 0.0000
# 2 68.6016 90.2543 45.6287 0.0000 0.0000 0.0000
# 3 54.6797 45.6287 91.3851 0.0000 0.0000 0.0000
# 4 0.0000 0.0000 0.0000 26.8215 0.0000 0.0000
# 5 0.0000 0.0000 0.0000 0.0000 9.4819 0.0000
# 6 0.0000 0.0000 0.0000 0.0000 0.0000 39.7704
#
#
#
# Elastic Compliance Matrix: (Units=1/GPa)
#
#
# Indices 1 2 3 4 5 6 
#
# 1 0.012242 -0.007493 -0.003583 0.000000 0.000000 0.000000
# 2 -0.007493 0.019408 -0.005207 0.000000 0.000000 0.000000
# 3 -0.003583 -0.005207 0.015687 0.000000 0.000000 0.000000
# 4 0.000000 0.000000 0.000000 0.037283 0.000000 0.000000
# 5 0.000000 0.000000 0.000000 0.000000 0.105464 0.000000
# 6 0.000000 0.000000 0.000000 0.000000 0.000000 0.025144
#
#
# Mechanical properties :
#
#
# Convention : Reuss Voigt Hill
#
# Bulk Modulus (GPa) = 67.70845 73.23839 70.47342
# Shear Modulus (GPa) = 19.78495 25.37580 22.58037
#
# Velocity S-wave (km/s) = 3.16556 3.58503 3.38180
# Velocity P-wave (km/s) = 6.90321 7.36415 7.13740
#
# Compressibility (1/GPa) = 0.01476921
#
# Stress axis : x y z
#
# Youngs Moduli (GPa) = 81.68880 51.52618 63.74907
#
# Poissons Ratio (x) = 0.38609 0.22843
# Poissons Ratio (y) = 0.61211 0.33193
# Poissons Ratio (z) = 0.29272 0.26828
#
# Static dielectric constant tensor:
#      x y z
#    x 3.617720 0.000000 0.000000 
#    y 0.000000 3.577220 0.000000 
#    z 0.000000 0.000000 3.482710 
# 
# 
# High freq. dielectric constant tensor:
#      x y z
#    x 1.772090 0.000000 0.000000 
#    y 0.000000 1.772090 0.000000 
#    z 0.000000 0.000000 1.754740 
# 
# From -- ./inp_files/16145.got.cif
#   From: 2010.03.12/outbox.cif.g09.slc.cpg/sg39_9_cif.got.tgz:16145.got - 2010.04.14 02:53:20.
