data_PCOD8180873
_publ_section_title
;
Structure prediction by ZEFSAII (Michael W. Deem and Ramdas Pophale) SiO2 
 PCOD8180873
Probable space group: A B M 2
;
_chemical_formula_sum "Si O2"
_cell_formula_units_Z 48
_cell_length_a 13.234214
_cell_length_b 8.829287
_cell_length_c 22.955794
_cell_angle_alpha 90.000000
_cell_angle_beta 90.000000
_cell_angle_gamma 90.000000
_cell_volume 2682.354081
_symmetry_space_group_name_H-M "A B M 2"
_symmetry_group_IT_number 39
_symmetry_cell_setting 'orthorhombic'
loop_
_space_group_symop_operation_xyz
x,y,z
-x,-y,z
-x,1/2+y,z
x,1/2-y,z
x,1/2+y,1/2+z
-x,1/2-y,1/2+z
-x,y,1/2+z
x,-y,1/2+z
loop_
_atom_site_type_symbol
_atom_site_label
_atom_site_fract_x
_atom_site_fract_y
_atom_site_fract_z
Si Si1 0.391194 0.429818 0.626760
Si Si2 0.252709 0.415127 0.526391
Si Si3 0.104166 0.928059 0.816412
Si Si4 0.908425 0.413618 0.123897
Si Si5 0.229229 0.424686 0.206784
Si Si6 0.893480 0.570647 0.940379
O O1 0.500000 0.500000 0.635721
O O2 0.397093 0.250000 0.627994
O O3 0.348343 0.483371 0.562854
O O4 0.323668 0.480141 0.682318
O O5 0.278315 0.250000 0.497594
O O6 0.174209 0.382846 0.576558
O O7 0.204095 0.528484 0.479703
O O8 0.085885 0.750000 0.826811
O O9 0.201281 0.954684 0.774455
O O10 0.132012 0.009046 0.876646
O O11 0.000000 0.000000 0.791413
O O12 0.940222 0.250000 0.150292
O O13 0.872232 0.525966 0.174212
O O14 0.000000 0.500000 0.092570
O O15 0.253401 0.250000 0.194890
O O16 0.905657 0.750000 0.940200
O O17 0.000000 0.500000 0.962915
#
# Coordination Sequence:
#
# PCOD8180873 Si02
#       6
#     8   8   8   8   8   8
#     4  10  21  37  58  80 103 131 164 209 261 311
#     4   9  19  34  50  71  99 131 166 205 250 299
#     4  10  20  33  50  73 104 141 176 210 247 293
#     4  10  19  29  44  68  99 133 165 202 249 299
#     4  10  20  33  51  74 100 132 169 209 253 301
#     4  11  21  32  50  74 103 140 176 211 248 293
#
# _framework density 17.894728000000001
#
# number of rings (size 3 to 8) (size 9 to 14) (size 15 to 20)
#    0.000    2.000    0.000    6.500    0.000    9.333 
#    0.000    0.000    0.000    1.000    0.000    4.667 
#    0.000    0.000    0.000    0.000    0.000    0.000 
#
# Total GULP energy -297352.472222 kJ/mol
# GULP energy per Si atom -12389.686343 kJ/mol
# Density = 1.785400 g / cm^3
# Si number density = 17.894728 Si / 1000 Ang^3
#
#
#
# Elastic Constant Matrix: (Units=GPa)
#
#
# Indices 1 2 3 4 5 6 
#
# 1 86.4030 51.7465 40.6476 0.0000 0.0000 0.0000
# 2 51.7465 116.3426 50.1654 0.0000 0.0000 0.0000
# 3 40.6476 50.1654 81.9172 0.0000 0.0000 0.0000
# 4 0.0000 0.0000 0.0000 28.6195 0.0000 0.0000
# 5 0.0000 0.0000 0.0000 0.0000 683.7775 0.0000
# 6 0.0000 0.0000 0.0000 0.0000 0.0000 26.8616
#
#
#
# Elastic Compliance Matrix: (Units=1/GPa)
#
#
# Indices 1 2 3 4 5 6 
#
# 1 0.017298 -0.005425 -0.005261 0.000000 0.000000 0.000000
# 2 -0.005425 0.013381 -0.005502 0.000000 0.000000 0.000000
# 3 -0.005261 -0.005502 0.018187 0.000000 0.000000 0.000000
# 4 0.000000 0.000000 0.000000 0.034941 0.000000 0.000000
# 5 0.000000 0.000000 0.000000 0.000000 0.001462 0.000000
# 6 0.000000 0.000000 0.000000 0.000000 0.000000 0.037228
#
#
# Mechanical properties :
#
#
# Convention : Reuss Voigt Hill
#
# Bulk Modulus (GPa) = 60.64536 63.30909 61.97722
# Shear Modulus (GPa) = 31.17776 157.32527 94.25152
#
# Velocity S-wave (km/s) = 4.17860 9.38658 7.26528
# Velocity P-wave (km/s) = 7.56601 12.36660 10.25128
#
# Compressibility (1/GPa) = 0.01648931
#
# Stress axis : x y z
#
# Youngs Moduli (GPa) = 57.81097 74.73374 54.98296
#
# Poissons Ratio (x) = 0.40545 0.28926
# Poissons Ratio (y) = 0.31364 0.30253
# Poissons Ratio (z) = 0.30413 0.41121
#
# Static dielectric constant tensor:
#      x y z
#    x -318.614070 0.000000 0.000000 
#    y 0.000000 3.463300 0.000000 
#    z 0.000000 0.000000 3.373740 
# 
# 
# High freq. dielectric constant tensor:
#      x y z
#    x 1.666700 0.000000 0.000000 
#    y 0.000000 1.710890 0.000000 
#    z 0.000000 0.000000 1.679740 
# 
# From -- ./inp_files/14589.got.cif
#   From: 2010.03.12/outbox.cif.g09.slc.cpg/sg39_8_cif.got.tgz:14589.got - 2010.04.14 02:53:20.
