data_PCOD8180653
_publ_section_title
;
Structure prediction by ZEFSAII (Michael W. Deem and Ramdas Pophale) SiO2 
 PCOD8180653
Probable space group: A B M 2
;
_chemical_formula_sum "Si O2"
_cell_formula_units_Z 64
_cell_length_a 17.869252
_cell_length_b 8.892417
_cell_length_c 23.237260
_cell_angle_alpha 90.000000
_cell_angle_beta 90.000000
_cell_angle_gamma 90.000000
_cell_volume 3692.420139
_symmetry_space_group_name_H-M "A B M 2"
_symmetry_group_IT_number 39
_symmetry_cell_setting 'orthorhombic'
loop_
_space_group_symop_operation_xyz
x,y,z
-x,-y,z
-x,1/2+y,z
x,1/2-y,z
x,1/2+y,1/2+z
-x,1/2-y,1/2+z
-x,y,1/2+z
x,-y,1/2+z
loop_
_atom_site_type_symbol
_atom_site_label
_atom_site_fract_x
_atom_site_fract_y
_atom_site_fract_z
Si Si1 0.133312 0.915577 0.900880
Si Si2 0.643413 0.426518 0.455519
Si Si3 0.575165 0.928936 0.560963
Si Si4 0.298835 0.580511 0.850307
Si Si5 0.230607 0.429224 0.745969
Si Si6 0.215874 0.075987 0.505524
Si Si7 0.925224 0.074965 0.297700
Si Si8 0.725345 0.424020 0.122599
O O1 0.098839 0.750000 0.889633
O O2 0.218986 0.920777 0.881206
O O3 0.083856 0.034197 0.865631
O O4 0.137815 0.949971 0.970177
O O5 0.626898 0.250000 0.452926
O O6 0.582581 0.508117 0.495921
O O7 0.641173 0.494847 0.390829
O O8 0.724469 0.457156 0.482469
O O9 0.570083 0.750000 0.559251
O O10 0.645502 0.985326 0.599565
O O11 0.500000 0.000000 0.588252
O O12 0.326883 0.750000 0.839471
O O13 0.292145 0.495414 0.789450
O O14 0.233778 0.250000 0.749558
O O15 0.146927 0.484893 0.762772
O O16 0.249293 0.497499 0.682902
O O17 0.243652 0.250000 0.495454
O O18 0.209523 0.048601 0.574385
O O19 0.934813 0.250000 0.291185
O O20 0.000000 0.000000 0.272186
O O21 0.715384 0.250000 0.135695
#
# Coordination Sequence:
#
# PCOD8180653 Si02
#       8
#     8   8   8   8   8   8   8   8
#     4   8  14  25  42  63  87 113 143 178 224 275
#     4  10  17  26  43  67  92 118 148 185 227 274
#     4  10  19  32  49  70  96 125 155 193 240 290
#     4   9  16  27  43  65  92 119 146 185 232 275
#     4   9  17  30  48  70  92 122 164 203 234 276
#     4   8  14  26  44  66  91 119 146 180 226 275
#     4  10  19  29  44  65  90 118 152 194 242 291
#     4   8  15  29  49  70  94 124 160 196 232 276
#
# _framework density 17.332806000000001
#
# number of rings (size 3 to 8) (size 9 to 14) (size 15 to 20)
#    0.000    3.000    0.000    3.750    0.000    3.500 
#    0.000    3.125    0.000    1.500    0.000    5.250 
#    0.000    0.000    0.000    0.000    0.000    0.000 
#
# Total GULP energy -396463.321141 kJ/mol
# GULP energy per Si atom -12389.478786 kJ/mol
# Density = 1.729336 g / cm^3
# Si number density = 17.332806 Si / 1000 Ang^3
#
#
#
# Elastic Constant Matrix: (Units=GPa)
#
#
# Indices 1 2 3 4 5 6 
#
# 1 60.0291 23.7116 42.3718 0.0000 0.0000 0.0000
# 2 23.7116 65.9345 28.5414 0.0000 0.0000 0.0000
# 3 42.3718 28.5414 137.9484 0.0000 0.0000 0.0000
# 4 0.0000 0.0000 0.0000 19.4942 0.0000 0.0000
# 5 0.0000 0.0000 0.0000 0.0000 16.3804 0.0000
# 6 0.0000 0.0000 0.0000 0.0000 0.0000 21.9907
#
#
#
# Elastic Compliance Matrix: (Units=1/GPa)
#
#
# Indices 1 2 3 4 5 6 
#
# 1 0.023098 -0.005751 -0.005905 0.000000 0.000000 0.000000
# 2 -0.005751 0.018090 -0.001977 0.000000 0.000000 0.000000
# 3 -0.005905 -0.001977 0.009472 0.000000 0.000000 0.000000
# 4 0.000000 0.000000 0.000000 0.051297 0.000000 0.000000
# 5 0.000000 0.000000 0.000000 0.000000 0.061049 0.000000
# 6 0.000000 0.000000 0.000000 0.000000 0.000000 0.045474
#
#
# Mechanical properties :
#
#
# Convention : Reuss Voigt Hill
#
# Bulk Modulus (GPa) = 42.74229 50.35128 46.54679
# Shear Modulus (GPa) = 20.53030 22.85887 21.69459
#
# Velocity S-wave (km/s) = 3.44536 3.63550 3.54170
# Velocity P-wave (km/s) = 6.36715 6.83632 6.60590
#
# Compressibility (1/GPa) = 0.02339603
#
# Stress axis : x y z
#
# Youngs Moduli (GPa) = 43.29362 55.27865 105.57682
#
# Poissons Ratio (x) = 0.31788 0.62343
# Poissons Ratio (y) = 0.24896 0.20868
# Poissons Ratio (z) = 0.25565 0.10926
#
# Static dielectric constant tensor:
#      x y z
#    x 3.031920 0.000000 0.000000 
#    y 0.000000 3.109140 0.000000 
#    z 0.000000 0.000000 3.551540 
# 
# 
# High freq. dielectric constant tensor:
#      x y z
#    x 1.626490 0.000000 0.000000 
#    y 0.000000 1.661930 0.000000 
#    z 0.000000 0.000000 1.662970 
# 
# From -- ./inp_files/16318.got.cif
#   From: 2010.03.12/outbox.cif.g09.slc.cpg/sg39_9_cif.got.tgz:16318.got - 2010.04.14 02:53:20.
