data_PCOD8180598
_publ_section_title
;
Structure prediction by ZEFSAII (Michael W. Deem and Ramdas Pophale) SiO2 
 PCOD8180598
Probable space group: A B M 2
;
_chemical_formula_sum "Si O2"
_cell_formula_units_Z 40
_cell_length_a 13.743747
_cell_length_b 33.975016
_cell_length_c 5.321334
_cell_angle_alpha 90.000000
_cell_angle_beta 90.000000
_cell_angle_gamma 90.000000
_cell_volume 2484.765112
_symmetry_space_group_name_H-M "A B M 2"
_symmetry_group_IT_number 39
_symmetry_cell_setting 'orthorhombic'
loop_
_space_group_symop_operation_xyz
x,y,z
-x,-y,z
-x,1/2+y,z
x,1/2-y,z
x,1/2+y,1/2+z
-x,1/2-y,1/2+z
-x,y,1/2+z
x,-y,1/2+z
loop_
_atom_site_type_symbol
_atom_site_label
_atom_site_fract_x
_atom_site_fract_y
_atom_site_fract_z
Si Si1 0.737821 0.525278 0.892510
Si Si2 0.557163 0.419759 0.405706
Si Si3 0.386199 0.295495 0.405851
Si Si4 0.400856 0.328085 0.905849
Si Si5 0.041092 0.544089 0.389968
O O1 0.723007 0.502865 0.630614
O O2 0.662071 0.560570 0.907194
O O3 0.843199 0.545049 0.902851
O O4 0.500063 0.433360 0.655825
O O5 0.570003 0.373256 0.405635
O O6 0.357939 0.250000 0.405725
O O7 0.340939 0.316623 0.157476
O O8 0.502273 0.301406 0.405972
O O9 0.340919 0.316595 0.654301
O O10 0.000000 0.500000 0.375847
O O11 0.996567 0.565752 0.636117
#
# Coordination Sequence:
#
# PCOD8180598 Si02
#       5
#     8   8   8   8   8
#     4  12  23  35  52  73  84 116 169 199 230 281
#     4  12  23  37  47  59  95 138 158 191 226 261
#     4  10  16  25  46  65  78 104 160 198 214 251
#     4  10  16  29  41  58  86 116 149 184 226 261
#     4  10  16  32  56  71  90 102 128 202 261 282
#
# _framework density 16.098101
#
# number of rings (size 3 to 8) (size 9 to 14) (size 15 to 20)
#    0.000    1.200    8.000    4.200    0.000    2.400 
#    0.000    0.000    0.000    0.000    0.000    0.000 
#    0.000    0.000    0.000    0.000    0.000   34.000 
#
# Total GULP energy -247876.567351 kJ/mol
# GULP energy per Si atom -12393.828368 kJ/mol
# Density = 1.606146 g / cm^3
# Si number density = 16.098101 Si / 1000 Ang^3
#
#
#
# Elastic Constant Matrix: (Units=GPa)
#
#
# Indices 1 2 3 4 5 6 
#
# 1 78.0664 28.1284 24.9576 0.0000 0.0000 0.0000
# 2 28.1284 26.8083 16.0405 0.0000 0.0000 0.0000
# 3 24.9576 16.0405 163.1473 0.0000 0.0000 0.0000
# 4 0.0000 0.0000 0.0000 10.2058 0.0000 0.0000
# 5 0.0000 0.0000 0.0000 0.0000 14.6640 0.0000
# 6 0.0000 0.0000 0.0000 0.0000 0.0000 -1.7191
#
#
#
# Elastic Compliance Matrix: (Units=1/GPa)
#
#
# Indices 1 2 3 4 5 6 
#
# 1 0.020780 -0.021145 -0.001100 0.000000 0.000000 0.000000
# 2 -0.021145 0.061150 -0.002778 0.000000 0.000000 0.000000
# 3 -0.001100 -0.002778 0.006571 0.000000 0.000000 0.000000
# 4 0.000000 0.000000 0.000000 0.097983 0.000000 0.000000
# 5 0.000000 0.000000 0.000000 0.000000 0.068194 0.000000
# 6 0.000000 0.000000 0.000000 0.000000 0.000000 -0.581702
#
#
# Mechanical properties :
#
#
# Convention : Reuss Voigt Hill
#
# Bulk Modulus (GPa) = 26.00387 45.14165 35.57276
# Shear Modulus (GPa) = -18.92804 17.88984 -0.51910
#
# Velocity S-wave (km/s) = -3.43270 3.33724 -0.56847
# Velocity P-wave (km/s) = 0.69077 6.55378 4.65989
#
# Compressibility (1/GPa) = 0.03845582
#
# Stress axis : x y z
#
# Youngs Moduli (GPa) = 48.12278 16.35315 152.18922
#
# Poissons Ratio (x) = 0.34579 0.16739
# Poissons Ratio (y) = 1.01757 0.42271
# Poissons Ratio (z) = 0.05293 0.04542
#
# Static dielectric constant tensor:
#      x y z
#    x 2.662380 0.000000 0.000000 
#    y 0.000000 2.740240 0.000000 
#    z 0.000000 0.000000 5.750600 
# 
# 
# High freq. dielectric constant tensor:
#      x y z
#    x 1.555140 0.000000 0.000000 
#    y 0.000000 1.586280 0.000000 
#    z 0.000000 0.000000 1.667920 
# 
# From -- ./inp_files/384.got.cif
#   From: 2010.03.12/outbox.cif.g09.slc.cpg/sg39_1_cif.got.tgz:384.got - 2010.04.14 02:53:20.
