data_PCOD8180735
_publ_section_title
;
Structure prediction by ZEFSAII (Michael W. Deem and Ramdas Pophale) SiO2 
 PCOD8180735
Probable space group: A B M 2
;
_chemical_formula_sum "Si O2"
_cell_formula_units_Z 64
_cell_length_a 14.200034
_cell_length_b 8.644261
_cell_length_c 31.172820
_cell_angle_alpha 90.000000
_cell_angle_beta 90.000000
_cell_angle_gamma 90.000000
_cell_volume 3826.426251
_symmetry_space_group_name_H-M "A B M 2"
_symmetry_group_IT_number 39
_symmetry_cell_setting 'orthorhombic'
loop_
_space_group_symop_operation_xyz
x,y,z
-x,-y,z
-x,1/2+y,z
x,1/2-y,z
x,1/2+y,1/2+z
-x,1/2-y,1/2+z
-x,y,1/2+z
x,-y,1/2+z
loop_
_atom_site_type_symbol
_atom_site_label
_atom_site_fract_x
_atom_site_fract_y
_atom_site_fract_z
Si Si1 0.397145 0.431640 0.247680
Si Si2 0.723172 0.569327 0.502735
Si Si3 0.397448 0.432063 0.585796
Si Si4 0.098936 0.432770 0.630698
Si Si5 0.604469 0.066683 0.334214
Si Si6 0.603506 0.567247 0.420950
Si Si7 0.097943 0.568074 0.537729
Si Si8 0.717797 0.568745 0.163580
O O1 0.500000 0.500000 0.238116
O O2 0.408500 0.250000 0.254326
O O3 0.348314 0.505215 0.290271
O O4 0.329116 0.473836 0.208668
O O5 0.746927 0.750000 0.501855
O O6 0.660390 0.525363 0.543485
O O7 0.668945 0.516066 0.460218
O O8 0.820437 0.474587 0.504235
O O9 0.500000 0.500000 0.579184
O O10 0.402610 0.250000 0.593754
O O11 0.349957 0.510528 0.626381
O O12 0.092276 0.250000 0.628922
O O13 0.123661 0.494021 0.583467
O O14 0.181384 0.484503 0.662673
O O15 0.000000 0.500000 0.647476
O O16 0.605286 0.250000 0.335300
O O17 0.500000 0.000000 0.333603
O O18 0.652010 0.000578 0.377602
O O19 0.500000 0.500000 0.428783
O O20 0.594736 0.750000 0.417131
O O21 0.088201 0.750000 0.543459
O O22 0.000000 0.500000 0.520060
O O23 0.733759 0.750000 0.158065
#
# Coordination Sequence:
#
# PCOD8180735 Si02
#       8
#     8   8   8   8   8   8   8   8
#     4  10  20  33  50  72 101 133 169 208 249 298
#     4  10  21  35  50  72 100 134 171 207 249 297
#     4  11  22  34  48  67  99 138 173 207 242 290
#     4  11  21  35  54  74  99 129 166 210 255 299
#     4  10  18  30  49  71  97 128 167 209 252 296
#     4  10  19  32  50  72 102 135 169 208 249 295
#     4  11  21  34  54  74  98 129 166 211 255 298
#     4  11  22  35  51  74 100 132 171 208 251 299
#
# _framework density 16.72579
#
# number of rings (size 3 to 8) (size 9 to 14) (size 15 to 20)
#    0.000    1.500    1.250    7.875    0.000    4.500 
#    0.000    0.000    0.000    0.000    0.000    0.875 
#    0.000    0.000    0.000    0.000    0.000    0.000 
#
# Total GULP energy -396855.071480 kJ/mol
# GULP energy per Si atom -12401.720984 kJ/mol
# Density = 1.668772 g / cm^3
# Si number density = 16.725790 Si / 1000 Ang^3
#
#
#
# Elastic Constant Matrix: (Units=GPa)
#
#
# Indices 1 2 3 4 5 6 
#
# 1 108.8380 50.2808 57.6758 0.0000 0.0000 0.0000
# 2 50.2808 118.4865 63.7432 0.0000 0.0000 0.0000
# 3 57.6758 63.7432 129.6709 0.0000 0.0000 0.0000
# 4 0.0000 0.0000 0.0000 26.3600 0.0000 0.0000
# 5 0.0000 0.0000 0.0000 0.0000 2.3990 0.0000
# 6 0.0000 0.0000 0.0000 0.0000 0.0000 28.6320
#
#
#
# Elastic Compliance Matrix: (Units=1/GPa)
#
#
# Indices 1 2 3 4 5 6 
#
# 1 0.012875 -0.003240 -0.004134 0.000000 0.000000 0.000000
# 2 -0.003240 0.012289 -0.004600 0.000000 0.000000 0.000000
# 3 -0.004134 -0.004600 0.011812 0.000000 0.000000 0.000000
# 4 0.000000 0.000000 0.000000 0.037936 0.000000 0.000000
# 5 0.000000 0.000000 0.000000 0.000000 0.416845 0.000000
# 6 0.000000 0.000000 0.000000 0.000000 0.000000 0.034926
#
#
# Mechanical properties :
#
#
# Convention : Reuss Voigt Hill
#
# Bulk Modulus (GPa) = 76.75430 77.82165 77.28798
# Shear Modulus (GPa) = 9.00941 23.83124 16.42032
#
# Velocity S-wave (km/s) = 2.32341 3.77877 3.13667
# Velocity P-wave (km/s) = 7.29295 8.10357 7.70892
#
# Compressibility (1/GPa) = 0.01302859
#
# Stress axis : x y z
#
# Youngs Moduli (GPa) = 77.66698 81.37115 84.65924
#
# Poissons Ratio (x) = 0.26361 0.35001
# Poissons Ratio (y) = 0.25161 0.38945
# Poissons Ratio (z) = 0.32110 0.37432
#
# Static dielectric constant tensor:
#      x y z
#    x 3.102370 0.000000 0.000000 
#    y 0.000000 3.279710 0.000000 
#    z 0.000000 0.000000 3.512970 
# 
# 
# High freq. dielectric constant tensor:
#      x y z
#    x 1.624660 0.000000 0.000000 
#    y 0.000000 1.665780 0.000000 
#    z 0.000000 0.000000 1.637870 
# 
# From -- ./inp_files/17954.got.cif
#   From: 2010.03.12/outbox.cif.g09.slc.cpg/sg39_9_cif.got.tgz:17954.got - 2010.04.14 02:53:20.
