data_PCOD8180377
_publ_section_title
;
Structure prediction by ZEFSAII (Michael W. Deem and Ramdas Pophale) SiO2 
 PCOD8180377
Probable space group: A M M 2
;
_chemical_formula_sum "Si O2"
_cell_formula_units_Z 48
_cell_length_a 18.881849
_cell_length_b 13.016970
_cell_length_c 8.960112
_cell_angle_alpha 90.000000
_cell_angle_beta 90.000000
_cell_angle_gamma 90.000000
_cell_volume 2202.256307
_symmetry_space_group_name_H-M "A M M 2"
_symmetry_group_IT_number 38
_symmetry_cell_setting 'orthorhombic'
loop_
_space_group_symop_operation_xyz
x,y,z
-x,-y,z
-x,y,z
x,-y,z
x,1/2+y,1/2+z
-x,1/2-y,1/2+z
-x,1/2+y,1/2+z
x,1/2-y,1/2+z
loop_
_atom_site_type_symbol
_atom_site_label
_atom_site_fract_x
_atom_site_fract_y
_atom_site_fract_z
Si Si1 0.577889 0.294276 0.117580
Si Si2 0.254192 0.611797 0.622632
Si Si3 0.916987 0.119149 0.474147
Si Si4 0.613388 0.618287 0.799160
Si Si5 0.705160 0.615363 0.308029
Si Si6 0.154272 0.767188 0.729979
O O1 0.500000 0.343011 0.151200
O O2 0.573427 0.172900 0.159663
O O3 0.640658 0.333607 0.222484
O O4 0.596708 0.317331 0.947420
O O5 0.218418 0.500000 0.618723
O O6 0.301502 0.624819 0.772611
O O7 0.309348 0.623446 0.485035
O O8 0.190089 0.690766 0.610582
O O9 0.901219 0.161188 0.641343
O O10 0.881055 0.195739 0.355742
O O11 0.000000 0.123253 0.446399
O O12 0.890397 0.000000 0.457962
O O13 0.588137 0.500000 0.813096
O O14 0.708891 0.500000 0.247820
O O15 0.782706 0.662813 0.289738
#
# Coordination Sequence:
#
# PCOD8180377 Si02
#       6
#     8   8   8   8   8   8
#     4  12  26  44  68  99 136 182 231 288 359 421
#     4  10  22  41  67  98 132 172 226 283 340 404
#     4  11  26  46  71 107 145 185 230 275 339 414
#     4  11  25  45  69  98 133 175 226 286 344 411
#     4  11  24  42  68 102 135 176 235 290 341 412
#     4  12  22  44  71 101 138 181 227 284 337 395
#
# _framework density 21.795828
#
# number of rings (size 3 to 8) (size 9 to 14) (size 15 to 20)
#    0.000    0.833    3.333    3.500    2.333    2.333 
#    0.000    1.667    0.000   14.000    0.000    0.000 
#    0.000    0.000    0.000    0.000    0.000    0.000 
#
# Total GULP energy -297352.706717 kJ/mol
# GULP energy per Si atom -12389.696113 kJ/mol
# Density = 2.174622 g / cm^3
# Si number density = 21.795828 Si / 1000 Ang^3
#
#
#
# Elastic Constant Matrix: (Units=GPa)
#
#
# Indices 1 2 3 4 5 6 
#
# 1 99.8263 35.5307 33.4115 0.0000 0.0000 0.0000
# 2 35.5307 137.5272 67.2759 0.0000 0.0000 0.0000
# 3 33.4115 67.2759 104.4475 0.0000 0.0000 0.0000
# 4 0.0000 0.0000 0.0000 33.5743 0.0000 0.0000
# 5 0.0000 0.0000 0.0000 0.0000 13.0830 0.0000
# 6 0.0000 0.0000 0.0000 0.0000 0.0000 5.7965
#
#
#
# Elastic Compliance Matrix: (Units=1/GPa)
#
#
# Indices 1 2 3 4 5 6 
#
# 1 0.011487 -0.001709 -0.002574 0.000000 0.000000 0.000000
# 2 -0.001709 0.010871 -0.006455 0.000000 0.000000 0.000000
# 3 -0.002574 -0.006455 0.014556 0.000000 0.000000 0.000000
# 4 0.000000 0.000000 0.000000 0.029785 0.000000 0.000000
# 5 0.000000 0.000000 0.000000 0.000000 0.076435 0.000000
# 6 0.000000 0.000000 0.000000 0.000000 0.000000 0.172517
#
#
# Mechanical properties :
#
#
# Convention : Reuss Voigt Hill
#
# Bulk Modulus (GPa) = 64.77821 68.24857 66.51339
# Shear Modulus (GPa) = 14.60829 24.19629 19.40229
#
# Velocity S-wave (km/s) = 2.59169 3.33548 2.98683
# Velocity P-wave (km/s) = 6.22421 6.79813 6.51749
#
# Compressibility (1/GPa) = 0.01543729
#
# Stress axis : x y z
#
# Youngs Moduli (GPa) = 87.05454 91.99200 68.70236
#
# Poissons Ratio (x) = 0.15717 0.17685
# Poissons Ratio (y) = 0.14874 0.44349
# Poissons Ratio (z) = 0.22409 0.59384
#
# Static dielectric constant tensor:
#      x y z
#    x 3.819780 0.000000 0.000000 
#    y 0.000000 4.388600 0.000000 
#    z 0.000000 0.000000 3.988920 
# 
# 
# High freq. dielectric constant tensor:
#      x y z
#    x 1.848360 0.000000 0.000000 
#    y 0.000000 1.876590 0.000000 
#    z 0.000000 0.000000 1.856750 
# 
# From -- ./inp_files/6182.got.cif
#   From: 2010.03.12/outbox.cif.g09.slc.cpg/sg38_4_cif.got.tgz:6182.got - 2010.04.14 02:38:36.
