data_PCOD8180284
_publ_section_title
;
Structure prediction by ZEFSAII (Michael W. Deem and Ramdas Pophale) SiO2 
 PCOD8180284
Probable space group: A M M 2
;
_chemical_formula_sum "Si O2"
_cell_formula_units_Z 48
_cell_length_a 8.508034
_cell_length_b 18.303251
_cell_length_c 15.003772
_cell_angle_alpha 90.000000
_cell_angle_beta 90.000000
_cell_angle_gamma 90.000000
_cell_volume 2336.457621
_symmetry_space_group_name_H-M "A M M 2"
_symmetry_group_IT_number 38
_symmetry_cell_setting 'orthorhombic'
loop_
_space_group_symop_operation_xyz
x,y,z
-x,-y,z
-x,y,z
x,-y,z
x,1/2+y,1/2+z
-x,1/2-y,1/2+z
-x,1/2+y,1/2+z
x,1/2-y,1/2+z
loop_
_atom_site_type_symbol
_atom_site_label
_atom_site_fract_x
_atom_site_fract_y
_atom_site_fract_z
Si Si1 0.321529 0.609849 0.949110
Si Si2 0.318102 0.224198 0.194637
Si Si3 0.819757 0.000000 0.784751
Si Si4 0.820383 0.081090 0.269808
Si Si5 0.182511 0.342622 0.331884
Si Si6 0.678748 0.500000 0.100210
Si Si7 0.820298 0.744792 0.502524
O O1 0.500000 0.595314 0.918058
O O2 0.205266 0.577041 0.875772
O O3 0.287601 0.571899 0.042972
O O4 0.294916 0.694986 0.962779
O O5 0.500000 0.237105 0.173436
O O6 0.294899 0.142335 0.231248
O O7 0.265471 0.284735 0.266251
O O8 0.220742 0.226722 0.103668
O O9 0.743543 0.075686 0.821362
O O10 0.802935 0.000000 0.678861
O O11 0.000000 0.000000 0.813461
O O12 0.000000 0.103613 0.250081
O O13 0.785371 0.000000 0.229811
O O14 0.204439 0.323750 0.436272
O O15 0.000000 0.342250 0.304159
O O16 0.500000 0.500000 0.136973
O O17 0.000000 0.772125 0.498377
#
# Coordination Sequence:
#
# PCOD8180284 Si02
#       7
#     8   8   4   8   8   4   8
#     4  11  21  36  59  90 126 160 201 252 313 375
#     4  12  25  41  65  93 127 165 209 263 319 378
#     4  10  22  40  62  89 120 159 208 259 308 362
#     4  11  23  40  63  91 124 163 207 254 312 378
#     4  10  22  42  66  91 124 164 210 262 312 370
#     4  10  22  36  54  87 126 159 194 247 310 372
#     4  11  23  40  63  90 123 164 213 260 310 377
#
# _framework density 20.54392
#
# number of rings (size 3 to 8) (size 9 to 14) (size 15 to 20)
#    0.000    1.167    2.500    4.000    0.000    6.333 
#    1.500    0.000    0.000    0.000    0.000    0.000 
#    0.000    0.000    0.000    0.000    0.000    0.000 
#
# Total GULP energy -297582.589583 kJ/mol
# GULP energy per Si atom -12399.274566 kJ/mol
# Density = 2.049716 g / cm^3
# Si number density = 20.543920 Si / 1000 Ang^3
#
#
#
# Elastic Constant Matrix: (Units=GPa)
#
#
# Indices 1 2 3 4 5 6 
#
# 1 51.8007 28.6390 19.8480 0.0000 0.0000 0.0000
# 2 28.6390 146.8394 39.2513 0.0000 0.0000 0.0000
# 3 19.8480 39.2513 98.0069 0.0000 0.0000 0.0000
# 4 0.0000 0.0000 0.0000 28.1297 0.0000 0.0000
# 5 0.0000 0.0000 0.0000 0.0000 22.0115 0.0000
# 6 0.0000 0.0000 0.0000 0.0000 0.0000 17.7590
#
#
#
# Elastic Compliance Matrix: (Units=1/GPa)
#
#
# Indices 1 2 3 4 5 6 
#
# 1 0.022464 -0.003545 -0.003130 0.000000 0.000000 0.000000
# 2 -0.003545 0.008186 -0.002561 0.000000 0.000000 0.000000
# 3 -0.003130 -0.002561 0.011863 0.000000 0.000000 0.000000
# 4 0.000000 0.000000 0.000000 0.035550 0.000000 0.000000
# 5 0.000000 0.000000 0.000000 0.000000 0.045431 0.000000
# 6 0.000000 0.000000 0.000000 0.000000 0.000000 0.056309
#
#
# Mechanical properties :
#
#
# Convention : Reuss Voigt Hill
#
# Bulk Modulus (GPa) = 41.59295 52.45817 47.02556
# Shear Modulus (GPa) = 24.23819 27.50730 25.87274
#
# Velocity S-wave (km/s) = 3.43858 3.66314 3.55263
# Velocity P-wave (km/s) = 6.00458 6.59405 6.30621
#
# Compressibility (1/GPa) = 0.02404254
#
# Stress axis : x y z
#
# Youngs Moduli (GPa) = 44.51634 122.16040 84.29811
#
# Poissons Ratio (x) = 0.43302 0.26382
# Poissons Ratio (y) = 0.15780 0.21585
# Poissons Ratio (z) = 0.13932 0.31280
#
# Static dielectric constant tensor:
#      x y z
#    x 3.635290 0.000000 0.000000 
#    y 0.000000 4.002760 0.000000 
#    z 0.000000 0.000000 3.650040 
# 
# 
# High freq. dielectric constant tensor:
#      x y z
#    x 1.798830 0.000000 0.000000 
#    y 0.000000 1.815100 0.000000 
#    z 0.000000 0.000000 1.795110 
# 
# From -- ./inp_files/12081.got.cif
#   From: 2010.03.12/outbox.cif.g09.slc.cpg/sg38_7_cif.got.tgz:12081.got - 2010.04.14 02:38:36.
