data_PCOD8180152
_publ_section_title
;
Structure prediction by ZEFSAII (Michael W. Deem and Ramdas Pophale) SiO2 
 PCOD8180152
Probable space group: A M M 2
;
_chemical_formula_sum "Si O2"
_cell_formula_units_Z 40
_cell_length_a 8.563952
_cell_length_b 29.234896
_cell_length_c 7.655392
_cell_angle_alpha 90.000000
_cell_angle_beta 90.000000
_cell_angle_gamma 90.000000
_cell_volume 1916.651757
_symmetry_space_group_name_H-M "A M M 2"
_symmetry_group_IT_number 38
_symmetry_cell_setting 'orthorhombic'
loop_
_space_group_symop_operation_xyz
x,y,z
-x,-y,z
-x,y,z
x,-y,z
x,1/2+y,1/2+z
-x,1/2-y,1/2+z
-x,1/2+y,1/2+z
x,1/2-y,1/2+z
loop_
_atom_site_type_symbol
_atom_site_label
_atom_site_fract_x
_atom_site_fract_y
_atom_site_fract_z
Si Si1 0.324672 0.707449 0.183060
Si Si2 0.317196 0.883558 0.094875
Si Si3 0.819103 0.052923 0.383536
Si Si4 0.821916 0.293983 0.538620
Si Si5 0.318919 0.894176 0.694622
O O1 0.500000 0.723397 0.135266
O O2 0.308012 0.703020 0.389676
O O3 0.291210 0.656542 0.110730
O O4 0.197232 0.744846 0.128783
O O5 0.500000 0.873061 0.099966
O O6 0.279426 0.923502 0.230314
O O7 0.222704 0.837821 0.158404
O O8 0.263828 0.897468 0.897320
O O9 0.779352 0.071259 0.576812
O O10 0.000000 0.061248 0.345539
O O11 0.774260 0.000000 0.379688
O O12 0.000000 0.297891 0.473431
O O13 0.500000 0.907408 0.681931
#
# Coordination Sequence:
#
# PCOD8180152 Si02
#       5
#     8   8   8   8   8
#     4  10  21  38  58  84 120 162 204 248 303 367
#     4  10  22  42  65  89 122 163 208 258 311 370
#     4  11  25  42  63  93 126 162 205 257 319 378
#     4  11  22  36  57  88 122 159 203 251 305 366
#     4   9  21  41  64  89 119 160 207 255 308 366
#
# _framework density 20.869727999999999
#
# number of rings (size 3 to 8) (size 9 to 14) (size 15 to 20)
#    0.000    1.800    0.000    4.800    2.800    7.200 
#    0.000    4.000    0.000    0.000    0.000    0.000 
#    0.000    0.000    0.000    0.000    0.000    0.000 
#
# Total GULP energy -247935.358009 kJ/mol
# GULP energy per Si atom -12396.767900 kJ/mol
# Density = 2.082223 g / cm^3
# Si number density = 20.869728 Si / 1000 Ang^3
#
#
#
# Elastic Constant Matrix: (Units=GPa)
#
#
# Indices 1 2 3 4 5 6 
#
# 1 79.9201 35.7416 16.5195 0.0000 0.0000 0.0000
# 2 35.7416 87.6072 16.4506 0.0000 0.0000 0.0000
# 3 16.5195 16.4506 56.3510 0.0000 0.0000 0.0000
# 4 0.0000 0.0000 0.0000 34.7573 0.0000 0.0000
# 5 0.0000 0.0000 0.0000 0.0000 28.2705 0.0000
# 6 0.0000 0.0000 0.0000 0.0000 0.0000 34.2358
#
#
#
# Elastic Compliance Matrix: (Units=1/GPa)
#
#
# Indices 1 2 3 4 5 6 
#
# 1 0.015740 -0.005877 -0.002898 0.000000 0.000000 0.000000
# 2 -0.005877 0.014271 -0.002443 0.000000 0.000000 0.000000
# 3 -0.002898 -0.002443 0.019309 0.000000 0.000000 0.000000
# 4 0.000000 0.000000 0.000000 0.028771 0.000000 0.000000
# 5 0.000000 0.000000 0.000000 0.000000 0.035373 0.000000
# 6 0.000000 0.000000 0.000000 0.000000 0.000000 0.029209
#
#
# Mechanical properties :
#
#
# Convention : Reuss Voigt Hill
#
# Bulk Modulus (GPa) = 37.19955 40.14461 38.67208
# Shear Modulus (GPa) = 28.72384 29.79717 29.26051
#
# Velocity S-wave (km/s) = 3.71393 3.78268 3.74846
# Velocity P-wave (km/s) = 6.02116 6.19321 6.10779
#
# Compressibility (1/GPa) = 0.02688204
#
# Stress axis : x y z
#
# Youngs Moduli (GPa) = 63.53225 70.07142 51.78969
#
# Poissons Ratio (x) = 0.41183 0.15011
# Poissons Ratio (y) = 0.37340 0.12653
# Poissons Ratio (z) = 0.18415 0.17120
#
# Static dielectric constant tensor:
#      x y z
#    x 3.592020 0.000000 0.000000 
#    y 0.000000 4.108380 0.000000 
#    z 0.000000 0.000000 3.643480 
# 
# 
# High freq. dielectric constant tensor:
#      x y z
#    x 1.818690 0.000000 0.000000 
#    y 0.000000 1.821030 0.000000 
#    z 0.000000 0.000000 1.805730 
# 
# From -- ./inp_files/3305.got.cif
#   From: 2010.03.12/outbox.cif.g09.slc.cpg/sg38_2_cif.got.tgz:3305.got - 2010.04.14 02:38:36.
