data_PCOD8180157
_publ_section_title
;
Structure prediction by ZEFSAII (Michael W. Deem and Ramdas Pophale) SiO2 
 PCOD8180157
Probable space group: A M M 2
;
_chemical_formula_sum "Si O2"
_cell_formula_units_Z 56
_cell_length_a 17.394741
_cell_length_b 15.069684
_cell_length_c 10.400944
_cell_angle_alpha 90.000000
_cell_angle_beta 90.000000
_cell_angle_gamma 90.000000
_cell_volume 2726.433255
_symmetry_space_group_name_H-M "A M M 2"
_symmetry_group_IT_number 38
_symmetry_cell_setting 'orthorhombic'
loop_
_space_group_symop_operation_xyz
x,y,z
-x,-y,z
-x,y,z
x,-y,z
x,1/2+y,1/2+z
-x,1/2-y,1/2+z
-x,1/2+y,1/2+z
x,1/2-y,1/2+z
loop_
_atom_site_type_symbol
_atom_site_label
_atom_site_fract_x
_atom_site_fract_y
_atom_site_fract_z
Si Si1 0.193316 0.238632 0.009880
Si Si2 0.587475 0.639600 0.407012
Si Si3 0.085144 0.596024 0.392516
Si Si4 0.298142 0.100796 0.137912
Si Si5 0.662174 0.184650 0.395936
Si Si6 0.914073 0.599741 0.090001
Si Si7 0.584598 0.098216 0.626464
O O1 0.232681 0.176772 0.120402
O O2 0.149896 0.327355 0.055057
O O3 0.133605 0.177489 0.939042
O O4 0.255845 0.266986 0.904576
O O5 0.500000 0.614030 0.440292
O O6 0.639788 0.606999 0.524058
O O7 0.594404 0.744258 0.378604
O O8 0.614450 0.594593 0.273502
O O9 0.119843 0.500000 0.435747
O O10 0.080355 0.598484 0.241096
O O11 0.000000 0.605819 0.451433
O O12 0.339171 0.117917 0.275382
O O13 0.264777 0.000000 0.139108
O O14 0.648232 0.141447 0.535380
O O15 0.890073 0.500000 0.041016
O O16 0.000000 0.622926 0.035108
O O17 0.500000 0.145695 0.620234
O O18 0.574711 0.000000 0.573715
#
# Coordination Sequence:
#
# PCOD8180157 Si02
#       7
#     8   8   8   8   8   8   8
#     4  11  21  36  56  81 114 155 190 228 282 345
#     4  10  21  39  61  83 109 146 194 243 290 341
#     4   9  18  34  57  83 109 141 186 236 280 328
#     4  11  24  39  56  84 121 157 195 239 289 347
#     4  11  23  37  55  82 116 152 189 232 284 340
#     4   9  19  36  58  84 111 142 187 239 285 334
#     4  10  21  38  59  81 106 140 186 237 284 333
#
# _framework density 20.539656000000001
#
# number of rings (size 3 to 8) (size 9 to 14) (size 15 to 20)
#    0.000    1.857    0.000    5.571    0.000    5.429 
#    0.000    2.857    0.000    0.000    0.000    6.000 
#    0.000    0.000    0.000    0.000    0.000    0.000 
#
# Total GULP energy -346943.222040 kJ/mol
# GULP energy per Si atom -12390.829359 kJ/mol
# Density = 2.049291 g / cm^3
# Si number density = 20.539656 Si / 1000 Ang^3
#
#
#
# Elastic Constant Matrix: (Units=GPa)
#
#
# Indices 1 2 3 4 5 6 
#
# 1 83.8314 53.7092 42.5275 0.0000 0.0000 0.0000
# 2 53.7092 141.4438 40.7731 0.0000 0.0000 0.0000
# 3 42.5275 40.7731 93.7418 0.0000 0.0000 0.0000
# 4 0.0000 0.0000 0.0000 30.7360 0.0000 0.0000
# 5 0.0000 0.0000 0.0000 0.0000 24.7011 0.0000
# 6 0.0000 0.0000 0.0000 0.0000 0.0000 14.1276
#
#
#
# Elastic Compliance Matrix: (Units=1/GPa)
#
#
# Indices 1 2 3 4 5 6 
#
# 1 0.018343 -0.005221 -0.006051 0.000000 0.000000 0.000000
# 2 -0.005221 0.009570 -0.001794 0.000000 0.000000 0.000000
# 3 -0.006051 -0.001794 0.014193 0.000000 0.000000 0.000000
# 4 0.000000 0.000000 0.000000 0.032535 0.000000 0.000000
# 5 0.000000 0.000000 0.000000 0.000000 0.040484 0.000000
# 6 0.000000 0.000000 0.000000 0.000000 0.000000 0.070783
#
#
# Mechanical properties :
#
#
# Convention : Reuss Voigt Hill
#
# Bulk Modulus (GPa) = 62.59966 65.89294 64.24630
# Shear Modulus (GPa) = 23.00287 26.04676 24.52481
#
# Velocity S-wave (km/s) = 3.35016 3.56493 3.45921
# Velocity P-wave (km/s) = 6.74599 7.00682 6.87764
#
# Compressibility (1/GPa) = 0.01597453
#
# Stress axis : x y z
#
# Youngs Moduli (GPa) = 54.51563 104.49801 70.45824
#
# Poissons Ratio (x) = 0.54560 0.42633
# Poissons Ratio (y) = 0.28463 0.12638
# Poissons Ratio (z) = 0.32986 0.18743
#
# Static dielectric constant tensor:
#      x y z
#    x 3.883600 0.000000 0.000000 
#    y 0.000000 4.422070 0.000000 
#    z 0.000000 0.000000 3.498420 
# 
# 
# High freq. dielectric constant tensor:
#      x y z
#    x 1.798670 0.000000 0.000000 
#    y 0.000000 1.817060 0.000000 
#    z 0.000000 0.000000 1.787910 
# 
# From -- ./inp_files/10108.got.cif
#   From: 2010.03.12/outbox.cif.g09.slc.cpg/sg38_6_cif.got.tgz:10108.got - 2010.04.14 02:38:36.
