data_PCOD8180117
_publ_section_title
;
Structure prediction by ZEFSAII (Michael W. Deem and Ramdas Pophale) SiO2 
 PCOD8180117
Probable space group: A M M 2
;
_chemical_formula_sum "Si O2"
_cell_formula_units_Z 64
_cell_length_a 12.492148
_cell_length_b 27.412603
_cell_length_c 9.380211
_cell_angle_alpha 90.000000
_cell_angle_beta 90.000000
_cell_angle_gamma 90.000000
_cell_volume 3212.180971
_symmetry_space_group_name_H-M "A M M 2"
_symmetry_group_IT_number 38
_symmetry_cell_setting 'orthorhombic'
loop_
_space_group_symop_operation_xyz
x,y,z
-x,-y,z
-x,y,z
x,-y,z
x,1/2+y,1/2+z
-x,1/2-y,1/2+z
-x,1/2+y,1/2+z
x,1/2-y,1/2+z
loop_
_atom_site_type_symbol
_atom_site_label
_atom_site_fract_x
_atom_site_fract_y
_atom_site_fract_z
Si Si1 0.375634 0.055628 0.591120
Si Si2 0.877920 0.055894 0.052659
Si Si3 0.385371 0.653537 0.771453
Si Si4 0.775927 0.779299 0.394466
Si Si5 0.300328 0.554498 0.775639
Si Si6 0.382888 0.196063 0.974497
Si Si7 0.877203 0.206511 0.685396
Si Si8 0.750656 0.881726 0.821331
O O1 0.500000 0.072734 0.568758
O O2 0.305569 0.061585 0.446698
O O3 0.315632 0.085771 0.711774
O O4 0.375150 0.000000 0.641910
O O5 0.817527 0.061256 0.205620
O O6 0.000000 0.073882 0.076018
O O7 0.875351 0.000000 0.002082
O O8 0.824520 0.086581 0.925945
O O9 0.500000 0.656651 0.853836
O O10 0.282839 0.668891 0.865913
O O11 0.372846 0.597988 0.712719
O O12 0.389936 0.691537 0.643467
O O13 0.683588 0.743761 0.445129
O O14 0.863147 0.787796 0.516451
O O15 0.833522 0.756090 0.257687
O O16 0.344554 0.500000 0.737005
O O17 0.500000 0.203458 0.906562
O O18 0.334782 0.146451 0.915195
O O19 0.821425 0.157505 0.738122
O O20 0.000000 0.201269 0.724317
#
# Coordination Sequence:
#
# PCOD8180117 Si02
#       8
#     8   8   8   8   8   8   8   8
#     4  10  21  38  60  89 126 163 198 244 306 371
#     4  10  21  39  62  86 117 160 208 256 304 353
#     4  11  21  37  61  90 121 155 196 240 298 361
#     4  11  22  42  60  86 118 156 200 245 300 354
#     4  10  21  39  60  88 124 160 202 248 298 364
#     4  10  21  37  58  88 121 153 193 240 292 359
#     4  11  24  40  61  85 117 156 200 251 301 359
#     4  11  21  39  62  88 122 154 201 252 305 358
#
# _framework density 19.924157999999998
#
# number of rings (size 3 to 8) (size 9 to 14) (size 15 to 20)
#    0.000    1.500    2.500    3.000    0.000    0.750 
#    0.000    6.250    0.000    3.000    0.000    0.000 
#    0.000    0.000    0.000    0.000    0.000    0.000 
#
# Total GULP energy -396598.894195 kJ/mol
# GULP energy per Si atom -12393.715444 kJ/mol
# Density = 1.987881 g / cm^3
# Si number density = 19.924158 Si / 1000 Ang^3
#
#
#
# Elastic Constant Matrix: (Units=GPa)
#
#
# Indices 1 2 3 4 5 6 
#
# 1 116.6037 35.2620 45.6446 0.0000 0.0000 0.0000
# 2 35.2620 86.1653 35.7559 0.0000 0.0000 0.0000
# 3 45.6446 35.7559 79.7587 0.0000 0.0000 0.0000
# 4 0.0000 0.0000 0.0000 16.2580 0.0000 0.0000
# 5 0.0000 0.0000 0.0000 0.0000 22.4793 0.0000
# 6 0.0000 0.0000 0.0000 0.0000 0.0000 18.1925
#
#
#
# Elastic Compliance Matrix: (Units=1/GPa)
#
#
# Indices 1 2 3 4 5 6 
#
# 1 0.011447 -0.002415 -0.005468 0.000000 0.000000 0.000000
# 2 -0.002415 0.014768 -0.005238 0.000000 0.000000 0.000000
# 3 -0.005468 -0.005238 0.018015 0.000000 0.000000 0.000000
# 4 0.000000 0.000000 0.000000 0.061508 0.000000 0.000000
# 5 0.000000 0.000000 0.000000 0.000000 0.044485 0.000000
# 6 0.000000 0.000000 0.000000 0.000000 0.000000 0.054968
#
#
# Mechanical properties :
#
#
# Convention : Reuss Voigt Hill
#
# Bulk Modulus (GPa) = 55.59611 57.31698 56.45655
# Shear Modulus (GPa) = 21.05882 22.44363 21.75122
#
# Velocity S-wave (km/s) = 3.25460 3.35991 3.30767
# Velocity P-wave (km/s) = 6.48750 6.62435 6.55628
#
# Compressibility (1/GPa) = 0.01798687
#
# Stress axis : x y z
#
# Youngs Moduli (GPa) = 87.35919 67.71526 55.50816
#
# Poissons Ratio (x) = 0.16356 0.30352
# Poissons Ratio (y) = 0.21101 0.29076
# Poissons Ratio (z) = 0.47769 0.35470
#
# Static dielectric constant tensor:
#      x y z
#    x 3.801260 0.000000 0.000000 
#    y 0.000000 3.828560 0.000000 
#    z 0.000000 0.000000 3.558660 
# 
# 
# High freq. dielectric constant tensor:
#      x y z
#    x 1.777060 0.000000 0.000000 
#    y 0.000000 1.792020 0.000000 
#    z 0.000000 0.000000 1.770540 
# 
# From -- ./inp_files/4944.got.cif
#   From: 2010.03.12/outbox.cif.g09.slc.cpg/sg38_3_cif.got.tgz:4944.got - 2010.04.14 02:38:36.
