data_PCOD8180663
_publ_section_title
;
Structure prediction by ZEFSAII (Michael W. Deem and Ramdas Pophale) SiO2 
 PCOD8180663
Probable space group: A B M 2
;
_chemical_formula_sum "Si O2"
_cell_formula_units_Z 64
_cell_length_a 20.574138
_cell_length_b 8.732187
_cell_length_c 18.615317
_cell_angle_alpha 90.000000
_cell_angle_beta 90.000000
_cell_angle_gamma 90.000000
_cell_volume 3344.376109
_symmetry_space_group_name_H-M "A B M 2"
_symmetry_group_IT_number 39
_symmetry_cell_setting 'orthorhombic'
loop_
_space_group_symop_operation_xyz
x,y,z
-x,-y,z
-x,1/2+y,z
x,1/2-y,z
x,1/2+y,1/2+z
-x,1/2-y,1/2+z
-x,y,1/2+z
x,-y,1/2+z
loop_
_atom_site_type_symbol
_atom_site_label
_atom_site_fract_x
_atom_site_fract_y
_atom_site_fract_z
Si Si1 0.561718 0.572313 0.977400
Si Si2 0.294935 0.925865 0.469069
Si Si3 0.820340 0.926567 0.388080
Si Si4 0.930893 0.430593 0.478673
Si Si5 0.695444 0.929139 0.134823
Si Si6 0.435580 0.570740 0.133248
Si Si7 0.821605 0.428052 0.721011
Si Si8 0.931058 0.430563 0.129963
O O1 0.500000 0.500000 0.933096
O O2 0.549158 0.750000 0.994672
O O3 0.631381 0.552617 0.938216
O O4 0.565022 0.477875 0.050559
O O5 0.272283 0.750000 0.460672
O O6 0.291601 0.975746 0.552303
O O7 0.248175 0.034681 0.424338
O O8 0.837057 0.750000 0.402563
O O9 0.813749 0.962667 0.304506
O O10 0.877978 0.030008 0.418916
O O11 0.938154 0.250000 0.486312
O O12 0.907175 0.498739 0.554569
O O13 0.000000 0.500000 0.455314
O O14 0.682725 0.750000 0.140546
O O15 0.756285 0.983085 0.181835
O O16 0.631587 0.010427 0.167816
O O17 0.500000 0.500000 0.171320
O O18 0.438827 0.750000 0.142472
O O19 0.835610 0.250000 0.705233
O O20 0.880711 0.528690 0.692049
O O21 0.937788 0.250000 0.121258
O O22 0.000000 0.500000 0.152728
#
# Coordination Sequence:
#
# PCOD8180663 Si02
#       8
#     8   8   8   8   8   8   8   8
#     4   9  16  27  45  71 102 134 170 215 267 319
#     4   9  18  32  52  77 105 140 179 222 273 323
#     4  11  23  37  55  81 111 145 185 224 265 317
#     4  11  22  39  62  85 112 143 177 221 269 317
#     4   9  18  34  54  75 102 138 178 220 268 318
#     4  10  17  26  44  72 104 134 168 214 265 317
#     4  10  22  39  57  79 111 147 181 222 270 318
#     4  11  22  38  62  88 113 141 177 220 265 319
#
# _framework density 19.136604999999999
#
# number of rings (size 3 to 8) (size 9 to 14) (size 15 to 20)
#    0.000    2.000    0.000    7.125    0.000    5.500 
#    0.000    0.000    0.000    0.750    0.000    1.750 
#    0.000    0.000    0.000    0.000    0.000    0.000 
#
# Total GULP energy -396777.453176 kJ/mol
# GULP energy per Si atom -12399.295412 kJ/mol
# Density = 1.909305 g / cm^3
# Si number density = 19.136605 Si / 1000 Ang^3
#
#
#
# Elastic Constant Matrix: (Units=GPa)
#
#
# Indices 1 2 3 4 5 6 
#
# 1 152.2718 64.8557 62.2526 0.0000 0.0000 0.0000
# 2 64.8557 121.9573 40.7986 0.0000 0.0000 0.0000
# 3 62.2526 40.7986 73.0324 0.0000 0.0000 0.0000
# 4 0.0000 0.0000 0.0000 20.4799 0.0000 0.0000
# 5 0.0000 0.0000 0.0000 0.0000 1.5409 0.0000
# 6 0.0000 0.0000 0.0000 0.0000 0.0000 38.8842
#
#
#
# Elastic Compliance Matrix: (Units=1/GPa)
#
#
# Indices 1 2 3 4 5 6 
#
# 1 0.011101 -0.003367 -0.007581 0.000000 0.000000 0.000000
# 2 -0.003367 0.011105 -0.003334 0.000000 0.000000 0.000000
# 3 -0.007581 -0.003334 0.022017 0.000000 0.000000 0.000000
# 4 0.000000 0.000000 0.000000 0.048828 0.000000 0.000000
# 5 0.000000 0.000000 0.000000 0.000000 0.648956 0.000000
# 6 0.000000 0.000000 0.000000 0.000000 0.000000 0.025717
#
#
# Mechanical properties :
#
#
# Convention : Reuss Voigt Hill
#
# Bulk Modulus (GPa) = 63.86088 75.89727 69.87907
# Shear Modulus (GPa) = 6.23823 24.13799 15.18811
#
# Velocity S-wave (km/s) = 1.80746 3.55540 2.82027
# Velocity P-wave (km/s) = 6.14812 7.52339 6.87026
#
# Compressibility (1/GPa) = 0.01565904
#
# Stress axis : x y z
#
# Youngs Moduli (GPa) = 90.08424 90.04596 45.41910
#
# Poissons Ratio (x) = 0.30319 0.34433
# Poissons Ratio (y) = 0.30332 0.15142
# Poissons Ratio (z) = 0.68295 0.30020
#
# Static dielectric constant tensor:
#      x y z
#    x 4.037750 0.000000 0.000000 
#    y 0.000000 3.560450 0.000000 
#    z 0.000000 0.000000 3.138890 
# 
# 
# High freq. dielectric constant tensor:
#      x y z
#    x 1.768750 0.000000 0.000000 
#    y 0.000000 1.751450 0.000000 
#    z 0.000000 0.000000 1.697620 
# 
# From -- ./inp_files/13218.got.cif
#   From: 2010.03.12/outbox.cif.g09.slc.cpg/sg39_7_cif.got.tgz:13218.got - 2010.04.14 02:53:20.
