data_PCOD8180065
_publ_section_title
;
Structure prediction by ZEFSAII (Michael W. Deem and Ramdas Pophale) SiO2 
 PCOD8180065
Probable space group: A M M 2
;
_chemical_formula_sum "Si O2"
_cell_formula_units_Z 48
_cell_length_a 9.151930
_cell_length_b 14.920911
_cell_length_c 18.797968
_cell_angle_alpha 90.000000
_cell_angle_beta 90.000000
_cell_angle_gamma 90.000000
_cell_volume 2566.959021
_symmetry_space_group_name_H-M "A M M 2"
_symmetry_group_IT_number 38
_symmetry_cell_setting 'orthorhombic'
loop_
_space_group_symop_operation_xyz
x,y,z
-x,-y,z
-x,y,z
x,-y,z
x,1/2+y,1/2+z
-x,1/2-y,1/2+z
-x,1/2+y,1/2+z
x,1/2-y,1/2+z
loop_
_atom_site_type_symbol
_atom_site_label
_atom_site_fract_x
_atom_site_fract_y
_atom_site_fract_z
Si Si1 0.328766 0.755017 0.116570
Si Si2 0.669315 0.253093 0.453704
Si Si3 0.669203 0.102336 0.840068
Si Si4 0.168589 0.895638 0.212105
Si Si5 0.171402 0.100686 0.373925
Si Si6 0.828755 0.896506 0.696407
O O1 0.500000 0.742902 0.130442
O O2 0.271922 0.838660 0.161535
O O3 0.247929 0.662997 0.136560
O O4 0.292982 0.776094 0.034764
O O5 0.500000 0.232803 0.443236
O O6 0.718591 0.337915 0.406711
O O7 0.752706 0.164522 0.430198
O O8 0.500000 0.116994 0.820079
O O9 0.765566 0.131445 0.772902
O O10 0.700419 0.000000 0.861648
O O11 0.210707 0.871849 0.293188
O O12 0.000000 0.870888 0.197538
O O13 0.196342 0.000000 0.196741
O O14 0.000000 0.106692 0.385763
O O15 0.226568 0.000000 0.388817
O O16 0.000000 0.876564 0.696857
O O17 0.794155 0.000000 0.679270
#
# Coordination Sequence:
#
# PCOD8180065 Si02
#       6
#     8   8   8   8   8   8
#     4  11  23  36  52  78 112 146 178 215 261 314
#     4  10  22  36  51  77 110 142 175 213 259 310
#     4   9  18  35  58  80 104 136 173 215 264 315
#     4   9  19  37  59  82 108 138 175 220 266 312
#     4   9  19  36  57  79 103 134 173 218 266 312
#     4  10  21  37  57  80 105 136 178 225 268 313
#
# _framework density 18.699169000000001
#
# number of rings (size 3 to 8) (size 9 to 14) (size 15 to 20)
#    0.000    2.333    0.000    3.000    0.000    8.333 
#    0.000    6.667    0.000    2.000    0.000    0.000 
#    0.000    0.000    0.000    0.000    0.000    0.000 
#
# Total GULP energy -297675.722938 kJ/mol
# GULP energy per Si atom -12403.155122 kJ/mol
# Density = 1.865661 g / cm^3
# Si number density = 18.699169 Si / 1000 Ang^3
#
#
#
# Elastic Constant Matrix: (Units=GPa)
#
#
# Indices 1 2 3 4 5 6 
#
# 1 64.8054 30.9104 34.4930 0.0000 0.0000 0.0000
# 2 30.9104 75.0005 27.6522 0.0000 0.0000 0.0000
# 3 34.4930 27.6522 65.0878 0.0000 0.0000 0.0000
# 4 0.0000 0.0000 0.0000 17.3300 0.0000 0.0000
# 5 0.0000 0.0000 0.0000 0.0000 20.6266 0.0000
# 6 0.0000 0.0000 0.0000 0.0000 0.0000 33.7825
#
#
#
# Elastic Compliance Matrix: (Units=1/GPa)
#
#
# Indices 1 2 3 4 5 6 
#
# 1 0.023614 -0.006069 -0.009936 0.000000 0.000000 0.000000
# 2 -0.006069 0.017369 -0.004163 0.000000 0.000000 0.000000
# 3 -0.009936 -0.004163 0.022398 0.000000 0.000000 0.000000
# 4 0.000000 0.000000 0.000000 0.057704 0.000000 0.000000
# 5 0.000000 0.000000 0.000000 0.000000 0.048481 0.000000
# 6 0.000000 0.000000 0.000000 0.000000 0.000000 0.029601
#
#
# Mechanical properties :
#
#
# Convention : Reuss Voigt Hill
#
# Bulk Modulus (GPa) = 43.39200 43.44498 43.41849
# Shear Modulus (GPa) = 20.22784 21.80370 21.01577
#
# Velocity S-wave (km/s) = 3.29257 3.41842 3.35608
# Velocity P-wave (km/s) = 6.14087 6.23417 6.18770
#
# Compressibility (1/GPa) = 0.02304573
#
# Stress axis : x y z
#
# Youngs Moduli (GPa) = 42.34805 57.57272 44.64699
#
# Poissons Ratio (x) = 0.34940 0.44360
# Poissons Ratio (y) = 0.25700 0.18587
# Poissons Ratio (z) = 0.42076 0.23968
#
# Static dielectric constant tensor:
#      x y z
#    x 3.384940 0.000000 0.000000 
#    y 0.000000 3.506310 0.000000 
#    z 0.000000 0.000000 3.416170 
# 
# 
# High freq. dielectric constant tensor:
#      x y z
#    x 1.725030 0.000000 0.000000 
#    y 0.000000 1.737140 0.000000 
#    z 0.000000 0.000000 1.721890 
# 
# From -- ./inp_files/12046.got.cif
#   From: 2010.03.12/outbox.cif.g09.slc.cpg/sg38_7_cif.got.tgz:12046.got - 2010.04.14 02:38:36.
