data_PCOD8180144
_publ_section_title
;
Structure prediction by ZEFSAII (Michael W. Deem and Ramdas Pophale) SiO2 
 PCOD8180144
Probable space group: A M M 2
;
_chemical_formula_sum "Si O2"
_cell_formula_units_Z 64
_cell_length_a 19.345529
_cell_length_b 8.828971
_cell_length_c 20.640237
_cell_angle_alpha 90.000000
_cell_angle_beta 90.000000
_cell_angle_gamma 90.000000
_cell_volume 3525.375484
_symmetry_space_group_name_H-M "A M M 2"
_symmetry_group_IT_number 38
_symmetry_cell_setting 'orthorhombic'
loop_
_space_group_symop_operation_xyz
x,y,z
-x,-y,z
-x,y,z
x,-y,z
x,1/2+y,1/2+z
-x,1/2-y,1/2+z
-x,1/2+y,1/2+z
x,1/2-y,1/2+z
loop_
_atom_site_type_symbol
_atom_site_label
_atom_site_fract_x
_atom_site_fract_y
_atom_site_fract_z
Si Si1 0.278624 0.678742 0.927320
Si Si2 0.921221 0.324746 0.757276
Si Si3 0.788841 0.822506 0.562524
Si Si4 0.575088 0.679627 0.738000
Si Si5 0.792263 0.677656 0.304935
Si Si6 0.077840 0.823397 0.107046
Si Si7 0.715938 0.320662 0.684166
Si Si8 0.424776 0.179339 0.383427
O O1 0.271454 0.500000 0.913687
O O2 0.237852 0.769485 0.872925
O O3 0.359677 0.730027 0.927416
O O4 0.246060 0.726060 0.995418
O O5 0.905777 0.500000 0.772057
O O6 0.873490 0.219549 0.802202
O O7 0.906068 0.289622 0.682026
O O8 0.000000 0.284703 0.774347
O O9 0.868349 0.768220 0.562881
O O10 0.745344 0.746119 0.618802
O O11 0.786714 0.000000 0.573182
O O12 0.500000 0.736063 0.712012
O O13 0.576361 0.500000 0.741256
O O14 0.636260 0.735518 0.690935
O O15 0.587426 0.742570 0.810694
O O16 0.781383 0.500000 0.296382
O O17 0.756749 0.765985 0.246625
O O18 0.000000 0.770661 0.089643
O O19 0.086521 0.000000 0.092526
O O20 0.722635 0.500000 0.681003
O O21 0.500000 0.239273 0.409626
O O22 0.427752 0.000000 0.381015
#
# Coordination Sequence:
#
# PCOD8180144 Si02
#       8
#     8   8   8   8   8   8   8   8
#     4  10  21  38  56  77 110 149 186 225 273 326
#     4   9  18  34  57  83 109 140 179 222 271 325
#     4  11  23  36  53  82 115 145 183 227 269 322
#     4   8  14  26  50  82 105 130 180 233 269 315
#     4  12  23  34  54  84 113 139 178 226 270 321
#     4   9  18  34  57  81 105 140 184 224 267 324
#     4  11  20  34  57  79 108 146 181 220 272 327
#     4   8  13  26  52  80 101 131 183 233 267 314
#
# _framework density 18.154094000000001
#
# number of rings (size 3 to 8) (size 9 to 14) (size 15 to 20)
#    0.000    2.250    2.500    3.375    0.000    1.500 
#    0.000    2.500    0.000    4.125    0.000    0.000 
#    0.000    0.000    0.000    0.000    0.000    0.000 
#
# Total GULP energy -396665.938643 kJ/mol
# GULP energy per Si atom -12395.810583 kJ/mol
# Density = 1.811277 g / cm^3
# Si number density = 18.154094 Si / 1000 Ang^3
#
#
#
# Elastic Constant Matrix: (Units=GPa)
#
#
# Indices 1 2 3 4 5 6 
#
# 1 171.2533 44.8907 77.1016 0.0000 0.0000 0.0000
# 2 44.8907 48.2762 42.5668 0.0000 0.0000 0.0000
# 3 77.1016 42.5668 102.2149 0.0000 0.0000 0.0000
# 4 0.0000 0.0000 0.0000 24.0342 0.0000 0.0000
# 5 0.0000 0.0000 0.0000 0.0000 28.6355 0.0000
# 6 0.0000 0.0000 0.0000 0.0000 0.0000 14.0241
#
#
#
# Elastic Compliance Matrix: (Units=1/GPa)
#
#
# Indices 1 2 3 4 5 6 
#
# 1 0.009281 -0.003883 -0.005384 0.000000 0.000000 0.000000
# 2 -0.003883 0.034359 -0.011379 0.000000 0.000000 0.000000
# 3 -0.005384 -0.011379 0.018583 0.000000 0.000000 0.000000
# 4 0.000000 0.000000 0.000000 0.041607 0.000000 0.000000
# 5 0.000000 0.000000 0.000000 0.000000 0.034922 0.000000
# 6 0.000000 0.000000 0.000000 0.000000 0.000000 0.071306
#
#
# Mechanical properties :
#
#
# Convention : Reuss Voigt Hill
#
# Bulk Modulus (GPa) = 47.77744 72.31809 60.04777
# Shear Modulus (GPa) = 19.35536 23.81778 21.58657
#
# Velocity S-wave (km/s) = 3.26877 3.62605 3.45204
# Velocity P-wave (km/s) = 6.37349 7.57979 7.00266
#
# Compressibility (1/GPa) = 0.02093038
#
# Stress axis : x y z
#
# Youngs Moduli (GPa) = 107.74672 29.10486 53.81252
#
# Poissons Ratio (x) = 0.11302 0.28971
# Poissons Ratio (y) = 0.41841 0.61235
# Poissons Ratio (z) = 0.58007 0.33119
#
# Static dielectric constant tensor:
#      x y z
#    x 3.956830 0.000000 0.000000 
#    y 0.000000 3.080840 0.000000 
#    z 0.000000 0.000000 3.257900 
# 
# 
# High freq. dielectric constant tensor:
#      x y z
#    x 1.728870 0.000000 0.000000 
#    y 0.000000 1.678190 0.000000 
#    z 0.000000 0.000000 1.671690 
# 
# From -- ./inp_files/18899.got.cif
#   From: 2010.03.12/outbox.cif.g09.slc.cpg/sg38_10_cif.got.tgz:18899.got - 2010.04.14 02:38:36.
