data_PCOD8180722
_publ_section_title
;
Structure prediction by ZEFSAII (Michael W. Deem and Ramdas Pophale) SiO2 
 PCOD8180722
Probable space group: A B M 2
;
_chemical_formula_sum "Si O2"
_cell_formula_units_Z 48
_cell_length_a 5.013846
_cell_length_b 24.402064
_cell_length_c 21.097998
_cell_angle_alpha 90.000000
_cell_angle_beta 90.000000
_cell_angle_gamma 90.000000
_cell_volume 2581.301889
_symmetry_space_group_name_H-M "A B M 2"
_symmetry_group_IT_number 39
_symmetry_cell_setting 'orthorhombic'
loop_
_space_group_symop_operation_xyz
x,y,z
-x,-y,z
-x,1/2+y,z
x,1/2-y,z
x,1/2+y,1/2+z
-x,1/2-y,1/2+z
-x,y,1/2+z
x,-y,1/2+z
loop_
_atom_site_type_symbol
_atom_site_label
_atom_site_fract_x
_atom_site_fract_y
_atom_site_fract_z
Si Si1 0.035376 0.561792 0.858300
Si Si2 0.463347 0.938349 0.442117
Si Si3 0.078095 0.387962 0.730557
Si Si4 0.581033 0.059987 0.680140
Si Si5 0.985061 0.813837 0.119983
Si Si6 0.513355 0.372366 0.066233
O O1 0.332859 0.570521 0.884138
O O2 0.000000 0.500000 0.829918
O O3 0.834360 0.569512 0.916476
O O4 0.984073 0.608836 0.805439
O O5 0.502251 0.890729 0.493595
O O6 0.500000 0.000000 0.470077
O O7 0.391599 0.399178 0.720534
O O8 0.999173 0.331067 0.694866
O O9 0.891010 0.433401 0.696995
O O10 0.534622 0.072138 0.606215
O O11 0.500000 0.000000 0.699310
O O12 0.042939 0.750000 0.115562
O O13 0.197941 0.847368 0.079037
O O14 0.701652 0.827000 0.087793
#
# Coordination Sequence:
#
# PCOD8180722 Si02
#       6
#     8   8   8   8   8   8
#     4  10  19  31  49  74 109 146 170 194 237 302
#     4  10  20  33  51  77 110 142 167 196 241 305
#     4  10  20  32  50  76 102 134 172 208 252 302
#     4  10  18  29  48  74 105 132 162 209 256 304
#     4  10  21  37  57  76  97 130 172 224 269 296
#     4  10  20  34  53  77 101 132 171 209 257 307
#
# _framework density 18.595268000000001
#
# number of rings (size 3 to 8) (size 9 to 14) (size 15 to 20)
#    0.000    2.000    0.000    4.500    0.000    1.333 
#    0.000    5.000    0.000    6.000    0.000    0.000 
#    0.000    0.000    0.000    0.000    0.000    0.000 
#
# Total GULP energy -297512.295286 kJ/mol
# GULP energy per Si atom -12396.345637 kJ/mol
# Density = 1.855294 g / cm^3
# Si number density = 18.595268 Si / 1000 Ang^3
#
#
#
# Elastic Constant Matrix: (Units=GPa)
#
#
# Indices 1 2 3 4 5 6 
#
# 1 69.0203 -0.4067 2.2558 0.0000 0.0000 0.0000
# 2 -0.4067 62.5091 29.7007 0.0000 0.0000 0.0000
# 3 2.2558 29.7007 80.9941 0.0000 0.0000 0.0000
# 4 0.0000 0.0000 0.0000 17.7464 0.0000 0.0000
# 5 0.0000 0.0000 0.0000 0.0000 17.9813 0.0000
# 6 0.0000 0.0000 0.0000 0.0000 0.0000 15.7813
#
#
#
# Elastic Compliance Matrix: (Units=1/GPa)
#
#
# Indices 1 2 3 4 5 6 
#
# 1 0.014508 0.000347 -0.000531 0.000000 0.000000 0.000000
# 2 0.000347 0.019381 -0.007117 0.000000 0.000000 0.000000
# 3 -0.000531 -0.007117 0.014971 0.000000 0.000000 0.000000
# 4 0.000000 0.000000 0.000000 0.056349 0.000000 0.000000
# 5 0.000000 0.000000 0.000000 0.000000 0.055613 0.000000
# 6 0.000000 0.000000 0.000000 0.000000 0.000000 0.063366
#
#
# Mechanical properties :
#
#
# Convention : Reuss Voigt Hill
#
# Bulk Modulus (GPa) = 29.19035 30.62478 29.90756
# Shear Modulus (GPa) = 19.98310 22.36671 21.17491
#
# Velocity S-wave (km/s) = 3.28172 3.47193 3.37816
# Velocity P-wave (km/s) = 5.48556 5.70765 5.59771
#
# Compressibility (1/GPa) = 0.03425790
#
# Stress axis : x y z
#
# Youngs Moduli (GPa) = 68.92793 51.59573 66.79520
#
# Poissons Ratio (x) = -0.01789 0.03548
# Poissons Ratio (y) = -0.02391 0.47537
# Poissons Ratio (z) = 0.03662 0.36720
#
# Static dielectric constant tensor:
#      x y z
#    x 3.605210 0.000000 0.000000 
#    y 0.000000 3.123220 0.000000 
#    z 0.000000 0.000000 3.256150 
# 
# 
# High freq. dielectric constant tensor:
#      x y z
#    x 1.747260 0.000000 0.000000 
#    y 0.000000 1.680530 0.000000 
#    z 0.000000 0.000000 1.710650 
# 
# From -- ./inp_files/13575.got.cif
#   From: 2010.03.12/outbox.cif.g09.slc.cpg/sg39_7_cif.got.tgz:13575.got - 2010.04.14 02:53:20.
