data_PCOD8180329
_publ_section_title
;
Structure prediction by ZEFSAII (Michael W. Deem and Ramdas Pophale) SiO2 
 PCOD8180329
Probable space group: A M M 2
;
_chemical_formula_sum "Si O2"
_cell_formula_units_Z 40
_cell_length_a 11.287915
_cell_length_b 19.814586
_cell_length_c 8.679193
_cell_angle_alpha 90.000000
_cell_angle_beta 90.000000
_cell_angle_gamma 90.000000
_cell_volume 1941.234849
_symmetry_space_group_name_H-M "A M M 2"
_symmetry_group_IT_number 38
_symmetry_cell_setting 'orthorhombic'
loop_
_space_group_symop_operation_xyz
x,y,z
-x,-y,z
-x,y,z
x,-y,z
x,1/2+y,1/2+z
-x,1/2-y,1/2+z
-x,1/2+y,1/2+z
x,1/2-y,1/2+z
loop_
_atom_site_type_symbol
_atom_site_label
_atom_site_fract_x
_atom_site_fract_y
_atom_site_fract_z
Si Si1 0.863154 0.690686 0.132330
Si Si2 0.637348 0.423754 0.645312
Si Si3 0.500000 0.740182 0.321419
Si Si4 0.743221 0.189748 0.951324
Si Si5 0.500000 0.653234 0.043655
Si Si6 0.723657 0.923335 0.493104
O O1 0.835740 0.679738 0.312613
O O2 0.000000 0.708343 0.111985
O O3 0.786565 0.752621 0.068089
O O4 0.836633 0.622570 0.034912
O O5 0.500000 0.399932 0.640980
O O6 0.645695 0.500000 0.583950
O O7 0.726402 0.379713 0.542929
O O8 0.689809 0.419695 0.815923
O O9 0.616138 0.707331 0.388162
O O10 0.500000 0.724109 0.139066
O O11 0.500000 0.820435 0.364294
O O12 0.387285 0.607798 0.087254
O O13 0.747591 0.000000 0.546483
#
# Coordination Sequence:
#
# PCOD8180329 Si02
#       6
#     8   8   4   8   4   8
#     4  12  27  45  66  91 126 176 227 272 317 383
#     4  10  22  39  65 100 135 168 203 256 334 406
#     4  12  22  36  63 101 127 162 201 270 330 384
#     4  12  23  42  66  96 131 165 214 272 331 385
#     4  12  23  38  61 103 134 164 209 262 337 392
#     4  11  23  41  66  95 133 174 214 267 326 389
#
# _framework density 20.605443000000001
#
# number of rings (size 3 to 8) (size 9 to 14) (size 15 to 20)
#    0.000    0.600    6.000    2.100    2.800    1.200 
#    0.000    1.000    0.000    4.200    0.000    0.000 
#    0.000    0.000    0.000    0.000    0.000    0.000 
#
# Total GULP energy -247971.823593 kJ/mol
# GULP energy per Si atom -12398.591180 kJ/mol
# Density = 2.055854 g / cm^3
# Si number density = 20.605443 Si / 1000 Ang^3
#
#
#
# Elastic Constant Matrix: (Units=GPa)
#
#
# Indices 1 2 3 4 5 6 
#
# 1 82.9543 32.5688 31.1070 0.0000 0.0000 0.0000
# 2 32.5688 144.8707 56.5243 0.0000 0.0000 0.0000
# 3 31.1070 56.5243 86.6364 0.0000 0.0000 0.0000
# 4 0.0000 0.0000 0.0000 36.5216 0.0000 0.0000
# 5 0.0000 0.0000 0.0000 0.0000 -20.5467 0.0000
# 6 0.0000 0.0000 0.0000 0.0000 0.0000 19.9225
#
#
#
# Elastic Compliance Matrix: (Units=1/GPa)
#
#
# Indices 1 2 3 4 5 6 
#
# 1 0.014207 -0.001615 -0.004047 0.000000 0.000000 0.000000
# 2 -0.001615 0.009443 -0.005581 0.000000 0.000000 0.000000
# 3 -0.004047 -0.005581 0.016637 0.000000 0.000000 0.000000
# 4 0.000000 0.000000 0.000000 0.027381 0.000000 0.000000
# 5 0.000000 0.000000 0.000000 0.000000 -0.048670 0.000000
# 6 0.000000 0.000000 0.000000 0.000000 0.000000 0.050195
#
#
# Mechanical properties :
#
#
# Convention : Reuss Voigt Hill
#
# Bulk Modulus (GPa) = 56.17935 61.65130 58.91532
# Shear Modulus (GPa) = 51.22251 20.13025 35.67638
#
# Velocity S-wave (km/s) = 4.99126 3.12899 4.16553
# Velocity P-wave (km/s) = 7.78077 6.56041 7.19651
#
# Compressibility (1/GPa) = 0.01780014
#
# Stress axis : x y z
#
# Youngs Moduli (GPa) = 70.39027 105.89403 60.10612
#
# Poissons Ratio (x) = 0.17098 0.24328
# Poissons Ratio (y) = 0.11365 0.33548
# Poissons Ratio (z) = 0.28490 0.59104
#
# Static dielectric constant tensor:
#      x y z
#    x 7.943660 0.000000 0.000000 
#    y 0.000000 3.968140 0.000000 
#    z 0.000000 0.000000 3.925530 
# 
# 
# High freq. dielectric constant tensor:
#      x y z
#    x 1.789920 0.000000 0.000000 
#    y 0.000000 1.814090 0.000000 
#    z 0.000000 0.000000 1.809400 
# 
# From -- ./inp_files/4492.got.cif
#   From: 2010.03.12/outbox.cif.g09.slc.cpg/sg38_3_cif.got.tgz:4492.got - 2010.04.14 02:38:36.
