data_PCOD8180696
_publ_section_title
;
Structure prediction by ZEFSAII (Michael W. Deem and Ramdas Pophale) SiO2 
 PCOD8180696
Probable space group: A B M 2
;
_chemical_formula_sum "Si O2"
_cell_formula_units_Z 64
_cell_length_a 10.464772
_cell_length_b 17.572562
_cell_length_c 19.428947
_cell_angle_alpha 90.000000
_cell_angle_beta 90.000000
_cell_angle_gamma 90.000000
_cell_volume 3572.844529
_symmetry_space_group_name_H-M "A B M 2"
_symmetry_group_IT_number 39
_symmetry_cell_setting 'orthorhombic'
loop_
_space_group_symop_operation_xyz
x,y,z
-x,-y,z
-x,1/2+y,z
x,1/2-y,z
x,1/2+y,1/2+z
-x,1/2-y,1/2+z
-x,y,1/2+z
x,-y,1/2+z
loop_
_atom_site_type_symbol
_atom_site_label
_atom_site_fract_x
_atom_site_fract_y
_atom_site_fract_z
Si Si1 0.735888 0.159669 0.388930
Si Si2 0.117418 0.340395 0.675228
Si Si3 0.369553 0.658946 0.681457
Si Si4 0.371083 0.340278 0.746984
Si Si5 0.121613 0.840482 0.763061
Si Si6 0.980718 0.162535 0.031485
Si Si7 0.277768 0.662721 0.538820
Si Si8 0.009227 0.910644 0.890137
O O1 0.754895 0.250000 0.393502
O O2 0.638595 0.136875 0.327864
O O3 0.686910 0.127590 0.463317
O O4 0.874172 0.126769 0.371207
O O5 0.115235 0.250000 0.680005
O O6 0.249584 0.373631 0.705532
O O7 0.104832 0.365543 0.595643
O O8 0.997875 0.371647 0.718713
O O9 0.370254 0.750000 0.679658
O O10 0.499546 0.625607 0.714515
O O11 0.251734 0.630755 0.727694
O O12 0.354019 0.625852 0.603327
O O13 0.372379 0.250000 0.739892
O O14 0.119384 0.750000 0.770304
O O15 0.115462 0.878286 0.838173
O O16 0.952067 0.250000 0.012229
O O17 0.127828 0.153163 0.053280
O O18 0.945071 0.110377 0.966873
O O19 0.317738 0.750000 0.536595
O O20 0.000000 0.000000 0.882749
#
# Coordination Sequence:
#
# PCOD8180696 Si02
#       8
#     8   8   8   8   8   8   8   8
#     4   9  16  29  50  70  95 131 167 196 241 301
#     4   9  15  26  48  73  96 124 160 198 244 292
#     4   9  16  26  44  74 105 126 156 203 246 285
#     4   9  16  26  44  75 105 127 156 201 246 287
#     4  10  17  30  51  73  98 127 160 199 247 295
#     4   9  16  29  49  71  94 127 166 200 246 300
#     4   8  13  23  42  66  90 121 158 193 232 287
#     4  11  21  31  46  72 101 128 165 210 248 283
#
# _framework density 17.912897000000001
#
# number of rings (size 3 to 8) (size 9 to 14) (size 15 to 20)
#    0.000    2.750    2.500    1.875    0.000    0.000 
#    0.000    1.875    0.000    6.750    0.000    0.000 
#    0.000    0.000    0.000    0.000    0.000    0.000 
#
# Total GULP energy -396600.767703 kJ/mol
# GULP energy per Si atom -12393.773991 kJ/mol
# Density = 1.787213 g / cm^3
# Si number density = 17.912897 Si / 1000 Ang^3
#
#
#
# Elastic Constant Matrix: (Units=GPa)
#
#
# Indices 1 2 3 4 5 6 
#
# 1 118.5638 12.1058 82.6547 0.0000 0.0000 0.0000
# 2 12.1058 24.7051 21.4861 0.0000 0.0000 0.0000
# 3 82.6547 21.4861 167.1091 0.0000 0.0000 0.0000
# 4 0.0000 0.0000 0.0000 5.0200 0.0000 0.0000
# 5 0.0000 0.0000 0.0000 0.0000 30.2767 0.0000
# 6 0.0000 0.0000 0.0000 0.0000 0.0000 3.5111
#
#
#
# Elastic Compliance Matrix: (Units=1/GPa)
#
#
# Indices 1 2 3 4 5 6 
#
# 1 0.012890 -0.000869 -0.006264 0.000000 0.000000 0.000000
# 2 -0.000869 0.045632 -0.005438 0.000000 0.000000 0.000000
# 3 -0.006264 -0.005438 0.009781 0.000000 0.000000 0.000000
# 4 0.000000 0.000000 0.000000 0.199202 0.000000 0.000000
# 5 0.000000 0.000000 0.000000 0.000000 0.033029 0.000000
# 6 0.000000 0.000000 0.000000 0.000000 0.000000 0.284809
#
#
# Mechanical properties :
#
#
# Convention : Reuss Voigt Hill
#
# Bulk Modulus (GPa) = 23.16772 60.31904 41.74338
# Shear Modulus (GPa) = 8.00167 20.70366 14.35267
#
# Velocity S-wave (km/s) = 2.11582 3.40339 2.83370
# Velocity P-wave (km/s) = 4.35092 7.01361 5.83615
#
# Compressibility (1/GPa) = 0.04316350
#
# Stress axis : x y z
#
# Youngs Moduli (GPa) = 77.58191 21.91437 102.23492
#
# Poissons Ratio (x) = 0.01903 0.64037
# Poissons Ratio (y) = 0.06738 0.55591
# Poissons Ratio (z) = 0.48595 0.11916
#
# Static dielectric constant tensor:
#      x y z
#    x 3.289370 0.000000 0.000000 
#    y 0.000000 2.690100 0.000000 
#    z 0.000000 0.000000 3.750540 
# 
# 
# High freq. dielectric constant tensor:
#      x y z
#    x 1.667800 0.000000 0.000000 
#    y 0.000000 1.627080 0.000000 
#    z 0.000000 0.000000 1.717890 
# 
# From -- ./inp_files/12473.got.cif
#   From: 2010.03.12/outbox.cif.g09.slc.cpg/sg39_7_cif.got.tgz:12473.got - 2010.04.14 02:53:20.
