data_PCOD8180447
_publ_section_title
;
Structure prediction by ZEFSAII (Michael W. Deem and Ramdas Pophale) SiO2 
 PCOD8180447
Probable space group: A M M 2
;
_chemical_formula_sum "Si O2"
_cell_formula_units_Z 40
_cell_length_a 16.606352
_cell_length_b 9.127009
_cell_length_c 14.613265
_cell_angle_alpha 90.000000
_cell_angle_beta 90.000000
_cell_angle_gamma 90.000000
_cell_volume 2214.878860
_symmetry_space_group_name_H-M "A M M 2"
_symmetry_group_IT_number 38
_symmetry_cell_setting 'orthorhombic'
loop_
_space_group_symop_operation_xyz
x,y,z
-x,-y,z
-x,y,z
x,-y,z
x,1/2+y,1/2+z
-x,1/2-y,1/2+z
-x,1/2+y,1/2+z
x,1/2-y,1/2+z
loop_
_atom_site_type_symbol
_atom_site_label
_atom_site_fract_x
_atom_site_fract_y
_atom_site_fract_z
Si Si1 0.000000 0.828797 0.330801
Si Si2 0.873434 0.828172 0.483223
Si Si3 0.000000 0.671430 0.135414
Si Si4 0.407328 0.830683 0.347010
Si Si5 0.703942 0.326409 0.484948
Si Si6 0.587799 0.172740 0.138843
O O1 0.922173 0.785662 0.391238
O O2 0.000000 0.749695 0.233215
O O3 0.000000 0.000000 0.310033
O O4 0.922155 0.784732 0.575056
O O5 0.792087 0.738741 0.482291
O O6 0.854948 0.000000 0.483261
O O7 0.000000 0.500000 0.155110
O O8 0.500000 0.801024 0.374400
O O9 0.347876 0.723521 0.398958
O O10 0.391903 0.787513 0.242382
O O11 0.385151 0.000000 0.365617
O O12 0.711303 0.500000 0.484897
O O13 0.657859 0.263986 0.574433
O O14 0.500000 0.239059 0.111739
O O15 0.582856 0.000000 0.126554
#
# Coordination Sequence:
#
# PCOD8180447 Si02
#       6
#     4   8   4   8   8   8
#     4   9  19  37  60  78  98 135 173 205 250 310
#     4   9  20  38  54  74 106 139 169 202 251 316
#     4   9  19  37  60  80 102 133 167 211 260 300
#     4   9  18  34  54  73  98 138 180 212 252 310
#     4  11  21  32  51  79 107 134 168 216 262 295
#     4   8  16  32  51  70  97 135 174 208 248 301
#
# _framework density 18.059677000000001
#
# number of rings (size 3 to 8) (size 9 to 14) (size 15 to 20)
#    0.000    2.800    0.000    3.600    0.000    4.400 
#    0.000   10.000    0.000    2.400    0.000    0.000 
#    0.000    0.000    0.000    0.000    0.000    0.000 
#
# Total GULP energy -247915.365191 kJ/mol
# GULP energy per Si atom -12395.768260 kJ/mol
# Density = 1.801857 g / cm^3
# Si number density = 18.059677 Si / 1000 Ang^3
#
#
#
# Elastic Constant Matrix: (Units=GPa)
#
#
# Indices 1 2 3 4 5 6 
#
# 1 161.7931 62.7055 89.1330 0.0000 0.0000 0.0000
# 2 62.7055 55.7282 52.9729 0.0000 0.0000 0.0000
# 3 89.1330 52.9729 146.7310 0.0000 0.0000 0.0000
# 4 0.0000 0.0000 0.0000 32.6155 0.0000 0.0000
# 5 0.0000 0.0000 0.0000 0.0000 24.5700 0.0000
# 6 0.0000 0.0000 0.0000 0.0000 0.0000 24.4963
#
#
#
# Elastic Compliance Matrix: (Units=1/GPa)
#
#
# Indices 1 2 3 4 5 6 
#
# 1 0.012167 -0.010147 -0.003728 0.000000 0.000000 0.000000
# 2 -0.010147 0.035782 -0.006754 0.000000 0.000000 0.000000
# 3 -0.003728 -0.006754 0.011518 0.000000 0.000000 0.000000
# 4 0.000000 0.000000 0.000000 0.030660 0.000000 0.000000
# 5 0.000000 0.000000 0.000000 0.000000 0.040700 0.000000
# 6 0.000000 0.000000 0.000000 0.000000 0.000000 0.040822
#
#
# Mechanical properties :
#
#
# Convention : Reuss Voigt Hill
#
# Bulk Modulus (GPa) = 54.91710 85.98610 70.45160
# Shear Modulus (GPa) = 22.83350 26.96574 24.89962
#
# Velocity S-wave (km/s) = 3.55961 3.86832 3.71717
# Velocity P-wave (km/s) = 6.88252 8.22602 7.58408
#
# Compressibility (1/GPa) = 0.01820926
#
# Stress axis : x y z
#
# Youngs Moduli (GPa) = 82.19018 27.94724 86.82080
#
# Poissons Ratio (x) = 0.28358 0.32364
# Poissons Ratio (y) = 0.83397 0.58640
# Poissons Ratio (z) = 0.30638 0.18876
#
# Static dielectric constant tensor:
#      x y z
#    x 3.418380 0.000000 0.000000 
#    y 0.000000 3.066210 0.000000 
#    z 0.000000 0.000000 3.528730 
# 
# 
# High freq. dielectric constant tensor:
#      x y z
#    x 1.704900 0.000000 0.000000 
#    y 0.000000 1.678190 0.000000 
#    z 0.000000 0.000000 1.708370 
# 
# From -- ./inp_files/14280.got.cif
#   From: 2010.03.12/outbox.cif.g09.slc.cpg/sg38_8_cif.got.tgz:14280.got - 2010.04.14 02:38:36.
