data_PCOD8180090
_publ_section_title
;
Structure prediction by ZEFSAII (Michael W. Deem and Ramdas Pophale) SiO2 
 PCOD8180090
Probable space group: A M M 2
;
_chemical_formula_sum "Si O2"
_cell_formula_units_Z 64
_cell_length_a 13.857378
_cell_length_b 9.000783
_cell_length_c 25.840241
_cell_angle_alpha 90.000000
_cell_angle_beta 90.000000
_cell_angle_gamma 90.000000
_cell_volume 3222.982259
_symmetry_space_group_name_H-M "A M M 2"
_symmetry_group_IT_number 38
_symmetry_cell_setting 'orthorhombic'
loop_
_space_group_symop_operation_xyz
x,y,z
-x,-y,z
-x,y,z
x,-y,z
x,1/2+y,1/2+z
-x,1/2-y,1/2+z
-x,1/2+y,1/2+z
x,1/2-y,1/2+z
loop_
_atom_site_type_symbol
_atom_site_label
_atom_site_fract_x
_atom_site_fract_y
_atom_site_fract_z
Si Si1 0.885354 0.166807 0.895610
Si Si2 0.390936 0.675005 0.342904
Si Si3 0.278294 0.676129 0.241566
Si Si4 0.295139 0.328456 0.051857
Si Si5 0.108014 0.828649 0.498044
Si Si6 0.611447 0.827817 0.444164
Si Si7 0.888216 0.174419 0.291520
Si Si8 0.612676 0.174077 0.147920
O O1 0.850192 0.257964 0.845687
O O2 0.000000 0.166238 0.896901
O O3 0.843527 0.000000 0.891123
O O4 0.849321 0.240943 0.948751
O O5 0.500000 0.735418 0.337783
O O6 0.388440 0.500000 0.347010
O O7 0.335260 0.729915 0.292323
O O8 0.342644 0.740580 0.395162
O O9 0.267948 0.500000 0.237275
O O10 0.172166 0.750041 0.244922
O O11 0.335522 0.733747 0.192315
O O12 0.320585 0.500000 0.065121
O O13 0.179054 0.305103 0.047098
O O14 0.338797 0.219853 0.094139
O O15 0.338111 0.279553 0.996943
O O16 0.000000 0.775730 0.513772
O O17 0.107264 0.000000 0.481152
O O18 0.500000 0.784656 0.450081
O O19 0.627284 0.000000 0.433133
O O20 0.000000 0.212627 0.281756
O O21 0.869712 0.000000 0.292365
O O22 0.500000 0.216020 0.146860
O O23 0.628317 0.000000 0.157079
#
# Coordination Sequence:
#
# PCOD8180090 Si02
#       8
#     8   8   8   8   8   8   8   8
#     4   9  17  30  50  78 114 156 199 241 286 339
#     4   9  19  35  54  80 114 149 185 229 288 352
#     4  11  23  39  62  89 116 152 198 246 298 354
#     4  10  21  37  59  85 113 152 199 244 295 352
#     4   9  18  33  53  81 118 157 198 241 288 345
#     4   9  18  32  51  78 111 146 186 234 290 350
#     4  10  21  37  57  83 119 160 200 244 293 347
#     4  11  25  44  65  89 115 148 194 248 303 360
#
# _framework density 19.857385000000001
#
# number of rings (size 3 to 8) (size 9 to 14) (size 15 to 20)
#    0.000    2.250    0.000    2.250    1.750    6.250 
#    0.000    3.125    0.000    2.250    0.000    0.000 
#    0.000    0.000    0.000    0.000    0.000    0.000 
#
# Total GULP energy -396838.365222 kJ/mol
# GULP energy per Si atom -12401.198913 kJ/mol
# Density = 1.981219 g / cm^3
# Si number density = 19.857385 Si / 1000 Ang^3
#
#
#
# Elastic Constant Matrix: (Units=GPa)
#
#
# Indices 1 2 3 4 5 6 
#
# 1 87.3962 43.0158 53.8994 0.0000 0.0000 0.0000
# 2 43.0158 82.6650 46.8425 0.0000 0.0000 0.0000
# 3 53.8994 46.8425 101.8731 0.0000 0.0000 0.0000
# 4 0.0000 0.0000 0.0000 37.9540 0.0000 0.0000
# 5 0.0000 0.0000 0.0000 0.0000 34.0341 0.0000
# 6 0.0000 0.0000 0.0000 0.0000 0.0000 25.8408
#
#
#
# Elastic Compliance Matrix: (Units=1/GPa)
#
#
# Indices 1 2 3 4 5 6 
#
# 1 0.018712 -0.005581 -0.007334 0.000000 0.000000 0.000000
# 2 -0.005581 0.018024 -0.005335 0.000000 0.000000 0.000000
# 3 -0.007334 -0.005335 0.016149 0.000000 0.000000 0.000000
# 4 0.000000 0.000000 0.000000 0.026348 0.000000 0.000000
# 5 0.000000 0.000000 0.000000 0.000000 0.029382 0.000000
# 6 0.000000 0.000000 0.000000 0.000000 0.000000 0.038698
#
#
# Mechanical properties :
#
#
# Convention : Reuss Voigt Hill
#
# Bulk Modulus (GPa) = 61.02858 62.16108 61.59483
# Shear Modulus (GPa) = 26.41634 28.11089 27.26361
#
# Velocity S-wave (km/s) = 3.65129 3.76658 3.70938
# Velocity P-wave (km/s) = 6.96965 7.09139 7.03079
#
# Compressibility (1/GPa) = 0.01638577
#
# Stress axis : x y z
#
# Youngs Moduli (GPa) = 53.44075 55.48053 61.92159
#
# Poissons Ratio (x) = 0.30966 0.45413
# Poissons Ratio (y) = 0.29827 0.33034
# Poissons Ratio (z) = 0.39193 0.29598
#
# Static dielectric constant tensor:
#      x y z
#    x 3.874730 0.000000 0.000000 
#    y 0.000000 3.570440 0.000000 
#    z 0.000000 0.000000 3.583720 
# 
# 
# High freq. dielectric constant tensor:
#      x y z
#    x 1.788730 0.000000 0.000000 
#    y 0.000000 1.771520 0.000000 
#    z 0.000000 0.000000 1.757230 
# 
# From -- ./inp_files/22884.got.cif
#   From: 2010.03.12/outbox.cif.g09.slc.cpg/sg38_12_cif.got.tgz:22884.got - 2010.04.14 02:38:36.
