data_PCOD8180628
_publ_section_title
;
Structure prediction by ZEFSAII (Michael W. Deem and Ramdas Pophale) SiO2 
 PCOD8180628
Probable space group: A B M 2
;
_chemical_formula_sum "Si O2"
_cell_formula_units_Z 32
_cell_length_a 20.635792
_cell_length_b 13.758859
_cell_length_c 5.251674
_cell_angle_alpha 90.000000
_cell_angle_beta 90.000000
_cell_angle_gamma 90.000000
_cell_volume 1491.081291
_symmetry_space_group_name_H-M "A B M 2"
_symmetry_group_IT_number 39
_symmetry_cell_setting 'orthorhombic'
loop_
_space_group_symop_operation_xyz
x,y,z
-x,-y,z
-x,1/2+y,z
x,1/2-y,z
x,1/2+y,1/2+z
-x,1/2-y,1/2+z
-x,y,1/2+z
x,-y,1/2+z
loop_
_atom_site_type_symbol
_atom_site_label
_atom_site_fract_x
_atom_site_fract_y
_atom_site_fract_z
Si Si1 0.765536 0.750000 0.498590
Si Si2 0.527551 0.107209 0.011460
Si Si3 0.972697 0.641924 0.957856
Si Si4 0.324205 0.063789 0.488083
Si Si5 0.150755 0.750000 0.499117
O O1 0.723729 0.846424 0.466711
O O2 0.795976 0.750000 0.779406
O O3 0.819134 0.750000 0.279126
O O4 0.493146 0.161403 0.773427
O O5 0.604095 0.107703 0.975642
O O6 0.500000 0.000000 0.058402
O O7 0.005732 0.750000 0.948411
O O8 0.894400 0.653024 0.971853
O O9 0.997166 0.586278 0.703429
O O10 0.312122 0.007588 0.751313
#
# Coordination Sequence:
#
# PCOD8180628 Si02
#       5
#     4   8   8   8   4
#     4  12  26  37  56  91 116 166 196 220 304 356
#     4  10  16  32  60  81  97 143 184 235 309 330
#     4   8  13  24  48  78 109 148 187 238 287 314
#     4  12  23  41  62  81 120 151 195 247 289 353
#     4  10  18  35  50  79 134 146 188 256 266 342
#
# _framework density 21.460936
#
# number of rings (size 3 to 8) (size 9 to 14) (size 15 to 20)
#    0.750    1.000    5.000    3.000    0.000    0.000 
#    0.000    1.250    0.000    0.000    0.000    0.000 
#    0.000  280.000    0.000    0.000    0.000    0.000 
#
# Total GULP energy -198240.487767 kJ/mol
# GULP energy per Si atom -12390.030485 kJ/mol
# Density = 2.141209 g / cm^3
# Si number density = 21.460936 Si / 1000 Ang^3
#
#
#
# Elastic Constant Matrix: (Units=GPa)
#
#
# Indices 1 2 3 4 5 6 
#
# 1 107.1213 25.9936 17.6295 0.0000 0.0000 0.0000
# 2 25.9936 59.2808 7.5037 0.0000 0.0000 0.0000
# 3 17.6295 7.5037 172.5938 0.0000 0.0000 0.0000
# 4 0.0000 0.0000 0.0000 -20.7368 0.0000 0.0000
# 5 0.0000 0.0000 0.0000 0.0000 43.5780 0.0000
# 6 0.0000 0.0000 0.0000 0.0000 0.0000 -4.0128
#
#
#
# Elastic Compliance Matrix: (Units=1/GPa)
#
#
# Indices 1 2 3 4 5 6 
#
# 1 0.010579 -0.004527 -0.000884 0.000000 0.000000 0.000000
# 2 -0.004527 0.018899 -0.000359 0.000000 0.000000 0.000000
# 3 -0.000884 -0.000359 0.005900 0.000000 0.000000 0.000000
# 4 0.000000 0.000000 0.000000 -0.048223 0.000000 0.000000
# 5 0.000000 0.000000 0.000000 0.000000 0.022947 0.000000
# 6 0.000000 0.000000 0.000000 0.000000 0.000000 -0.249204
#
#
# Mechanical properties :
#
#
# Convention : Reuss Voigt Hill
#
# Bulk Modulus (GPa) = 41.94915 49.02770 45.48842
# Shear Modulus (GPa) = -22.76704 22.95696 0.09496
#
# Velocity S-wave (km/s) = -3.26062 3.27419 0.21058
# Velocity P-wave (km/s) = 2.32673 6.09823 4.61531
#
# Compressibility (1/GPa) = 0.02383839
#
# Stress axis : x y z
#
# Youngs Moduli (GPa) = 94.52562 52.91201 169.49595
#
# Poissons Ratio (x) = 0.23953 0.14980
# Poissons Ratio (y) = 0.42791 0.06089
# Poissons Ratio (z) = 0.08354 0.01901
#
# Static dielectric constant tensor:
#      x y z
#    x 3.758170 0.000000 0.000000 
#    y 0.000000 3.326150 0.000000 
#    z 0.000000 0.000000 5.117710 
# 
# 
# High freq. dielectric constant tensor:
#      x y z
#    x 1.833830 0.000000 0.000000 
#    y 0.000000 1.805840 0.000000 
#    z 0.000000 0.000000 1.880250 
# 
# From -- ./inp_files/948.got.cif
#   From: 2010.03.12/outbox.cif.g09.slc.cpg/sg39_1_cif.got.tgz:948.got - 2010.04.14 02:53:20.
