data_PCOD8180935
_publ_section_title
;
Structure prediction by ZEFSAII (Michael W. Deem and Ramdas Pophale) SiO2 
 PCOD8180935
Probable space group: A B M 2
;
_chemical_formula_sum "Si O2"
_cell_formula_units_Z 64
_cell_length_a 20.577301
_cell_length_b 9.138012
_cell_length_c 18.271581
_cell_angle_alpha 90.000000
_cell_angle_beta 90.000000
_cell_angle_gamma 90.000000
_cell_volume 3435.708125
_symmetry_space_group_name_H-M "A B M 2"
_symmetry_group_IT_number 39
_symmetry_cell_setting 'orthorhombic'
loop_
_space_group_symop_operation_xyz
x,y,z
-x,-y,z
-x,1/2+y,z
x,1/2-y,z
x,1/2+y,1/2+z
-x,1/2-y,1/2+z
-x,y,1/2+z
x,-y,1/2+z
loop_
_atom_site_type_symbol
_atom_site_label
_atom_site_fract_x
_atom_site_fract_y
_atom_site_fract_z
Si Si1 0.064473 0.079607 0.264560
Si Si2 0.562662 0.415532 0.775299
Si Si3 0.691323 0.921428 0.773847
Si Si4 0.807891 0.081790 0.848798
Si Si5 0.689976 0.079972 0.104559
Si Si6 0.065389 0.578161 0.596400
Si Si7 0.181195 0.417754 0.520812
Si Si8 0.562471 0.414758 0.600987
O O1 0.051492 0.250000 0.273824
O O2 0.124854 0.027357 0.313256
O O3 0.079350 0.037492 0.180683
O O4 0.000000 0.000000 0.293486
O O5 0.500000 0.500000 0.807090
O O6 0.562911 0.250000 0.805501
O O7 0.626953 0.497847 0.803034
O O8 0.560226 0.416670 0.688155
O O9 0.682194 0.750000 0.786945
O O10 0.703908 0.957984 0.688963
O O11 0.751606 0.978514 0.819781
O O12 0.793630 0.250000 0.826609
O O13 0.812217 0.062679 0.934892
O O14 0.674006 0.250000 0.094269
O O15 0.752126 0.030465 0.058254
O O16 0.628247 0.991948 0.073635
O O17 0.057191 0.750000 0.584615
O O18 0.124413 0.521702 0.548108
O O19 0.000000 0.500000 0.568929
O O20 0.165617 0.250000 0.542213
O O21 0.500000 0.500000 0.569178
O O22 0.561044 0.250000 0.570559
#
# Coordination Sequence:
#
# PCOD8180935 Si02
#       8
#     8   8   8   8   8   8   8   8
#     4   9  19  35  55  78 102 130 165 205 249 297
#     4   9  16  27  45  71 102 132 164 206 255 303
#     4  10  19  31  50  75 101 132 171 211 251 299
#     4  10  21  36  52  73 103 136 169 207 252 299
#     4   9  18  32  50  73 101 133 169 209 253 300
#     4  10  20  35  56  79 103 131 165 206 249 297
#     4  10  21  36  53  74 103 137 170 208 253 299
#     4   9  16  26  44  71 101 131 164 206 254 302
#
# _framework density 18.627891999999999
#
# number of rings (size 3 to 8) (size 9 to 14) (size 15 to 20)
#    0.000    2.500    0.000    2.250    0.000    6.000 
#    0.000    1.250    0.000    0.750    0.000    3.500 
#    0.000    0.000    0.000    0.000    0.000    0.000 
#
# Total GULP energy -396895.713993 kJ/mol
# GULP energy per Si atom -12402.991062 kJ/mol
# Density = 1.858549 g / cm^3
# Si number density = 18.627892 Si / 1000 Ang^3
#
#
#
# Elastic Constant Matrix: (Units=GPa)
#
#
# Indices 1 2 3 4 5 6 
#
# 1 175.2596 84.6107 50.5487 0.0000 0.0000 0.0000
# 2 84.6107 110.6622 34.7224 0.0000 0.0000 0.0000
# 3 50.5487 34.7224 47.8220 0.0000 0.0000 0.0000
# 4 0.0000 0.0000 0.0000 20.9201 0.0000 0.0000
# 5 0.0000 0.0000 0.0000 0.0000 -2.8170 0.0000
# 6 0.0000 0.0000 0.0000 0.0000 0.0000 43.0768
#
#
#
# Elastic Compliance Matrix: (Units=1/GPa)
#
#
# Indices 1 2 3 4 5 6 
#
# 1 0.010530 -0.005904 -0.006844 0.000000 0.000000 0.000000
# 2 -0.005904 0.015012 -0.004660 0.000000 0.000000 0.000000
# 3 -0.006844 -0.004660 0.031528 0.000000 0.000000 0.000000
# 4 0.000000 0.000000 0.000000 0.047801 0.000000 0.000000
# 5 0.000000 0.000000 0.000000 0.000000 -0.354988 0.000000
# 6 0.000000 0.000000 0.000000 0.000000 0.000000 0.023214
#
#
# Mechanical properties :
#
#
# Convention : Reuss Voigt Hill
#
# Bulk Modulus (GPa) = 44.93172 74.83417 59.88295
# Shear Modulus (GPa) = -27.07558 23.16012 -1.95773
#
# Velocity S-wave (km/s) = -3.81661 3.52988 -1.02628
# Velocity P-wave (km/s) = 2.17968 7.54147 5.55089
#
# Compressibility (1/GPa) = 0.02225599
#
# Stress axis : x y z
#
# Youngs Moduli (GPa) = 94.96855 66.61134 31.71744
#
# Poissons Ratio (x) = 0.39325 0.21707
# Poissons Ratio (y) = 0.56065 0.14780
# Poissons Ratio (z) = 0.64994 0.31041
#
# Static dielectric constant tensor:
#      x y z
#    x 3.599680 0.000000 0.000000 
#    y 0.000000 3.490570 0.000000 
#    z 0.000000 0.000000 3.085130 
# 
# 
# High freq. dielectric constant tensor:
#      x y z
#    x 1.738060 0.000000 0.000000 
#    y 0.000000 1.728620 0.000000 
#    z 0.000000 0.000000 1.685810 
# 
# From -- ./inp_files/13103.got.cif
#   From: 2010.03.12/outbox.cif.g09.slc.cpg/sg39_7_cif.got.tgz:13103.got - 2010.04.14 02:53:20.
