data_PCOD8180434
_publ_section_title
;
Structure prediction by ZEFSAII (Michael W. Deem and Ramdas Pophale) SiO2 
 PCOD8180434
Probable space group: A M M 2
;
_chemical_formula_sum "Si O2"
_cell_formula_units_Z 48
_cell_length_a 12.443148
_cell_length_b 10.123384
_cell_length_c 19.895376
_cell_angle_alpha 90.000000
_cell_angle_beta 90.000000
_cell_angle_gamma 90.000000
_cell_volume 2506.156161
_symmetry_space_group_name_H-M "A M M 2"
_symmetry_group_IT_number 38
_symmetry_cell_setting 'orthorhombic'
loop_
_space_group_symop_operation_xyz
x,y,z
-x,-y,z
-x,y,z
x,-y,z
x,1/2+y,1/2+z
-x,1/2-y,1/2+z
-x,1/2+y,1/2+z
x,1/2-y,1/2+z
loop_
_atom_site_type_symbol
_atom_site_label
_atom_site_fract_x
_atom_site_fract_y
_atom_site_fract_z
Si Si1 0.624473 0.650706 0.081250
Si Si2 0.875253 0.500000 0.974454
Si Si3 0.872756 0.000000 0.163938
Si Si4 0.375733 0.343254 0.326618
Si Si5 0.751024 0.260103 0.197153
Si Si6 0.124521 0.000000 0.634245
Si Si7 0.874201 0.000000 0.005578
Si Si8 0.251928 0.248442 0.954852
O O1 0.500000 0.645696 0.068192
O O2 0.668236 0.500000 0.092364
O O3 0.649910 0.739953 0.146234
O O4 0.676150 0.721063 0.018538
O O5 0.853172 0.500000 0.054305
O O6 0.000000 0.500000 0.957633
O O7 0.823164 0.626903 0.938607
O O8 0.816777 0.875117 0.198493
O O9 0.849548 0.000000 0.084632
O O10 0.000000 0.000000 0.178942
O O11 0.500000 0.301165 0.314466
O O12 0.366216 0.500000 0.328994
O O13 0.296587 0.287747 0.270079
O O14 0.334616 0.280992 0.395529
O O15 0.831597 0.370283 0.169982
O O16 0.000000 0.000000 0.648437
O O17 0.825244 0.126807 0.969945
O O18 0.000000 0.000000 0.991688
#
# Coordination Sequence:
#
# PCOD8180434 Si02
#       8
#     8   4   4   8   8   4   4   8
#     4  11  21  37  64  94 123 160 215 266 307 361
#     4  11  22  39  66  97 129 163 207 261 314 363
#     4  11  24  41  64  95 133 165 197 259 328 367
#     4  11  25  44  66  90 125 168 207 257 318 372
#     4  12  21  42  63  95 122 165 208 256 313 366
#     4  11  20  37  68  97 121 161 217 259 300 361
#     4  11  22  39  66  95 129 167 207 257 312 367
#     4  12  21  42  62  96 125 168 209 254 311 369
#
# _framework density 19.152836000000001
#
# number of rings (size 3 to 8) (size 9 to 14) (size 15 to 20)
#    0.000    0.667    6.667    2.000    0.000    4.667 
#    0.000    8.333    0.000    0.000    0.000    0.000 
#    0.000    0.000    0.000    0.000    0.000    0.000 
#
# Total GULP energy -297630.955102 kJ/mol
# GULP energy per Si atom -12401.289796 kJ/mol
# Density = 1.910924 g / cm^3
# Si number density = 19.152836 Si / 1000 Ang^3
#
#
#
# Elastic Constant Matrix: (Units=GPa)
#
#
# Indices 1 2 3 4 5 6 
#
# 1 86.6413 49.0578 4.9318 0.0000 0.0000 0.0000
# 2 49.0578 142.2956 22.1171 0.0000 0.0000 0.0000
# 3 4.9318 22.1171 57.0525 0.0000 0.0000 0.0000
# 4 0.0000 0.0000 0.0000 23.5999 0.0000 0.0000
# 5 0.0000 0.0000 0.0000 0.0000 19.4557 0.0000
# 6 0.0000 0.0000 0.0000 0.0000 0.0000 -509.0580
#
#
#
# Elastic Compliance Matrix: (Units=1/GPa)
#
#
# Indices 1 2 3 4 5 6 
#
# 1 0.014369 -0.005066 0.000722 0.000000 0.000000 0.000000
# 2 -0.005066 0.009264 -0.003154 0.000000 0.000000 0.000000
# 3 0.000722 -0.003154 0.018688 0.000000 0.000000 0.000000
# 4 0.000000 0.000000 0.000000 0.042373 0.000000 0.000000
# 5 0.000000 0.000000 0.000000 0.000000 0.051399 0.000000
# 6 0.000000 0.000000 0.000000 0.000000 0.000000 -0.001964
#
#
# Mechanical properties :
#
#
# Convention : Reuss Voigt Hill
#
# Bulk Modulus (GPa) = 36.59541 48.68920 42.64230
# Shear Modulus (GPa) = 31.59890 -79.20831 -23.80470
#
# Velocity S-wave (km/s) = 4.06622 -6.43783 -3.52928
# Velocity P-wave (km/s) = 6.41826 5.45750 2.38848
#
# Compressibility (1/GPa) = 0.02732583
#
# Stress axis : x y z
#
# Youngs Moduli (GPa) = 69.59280 107.94023 53.51079
#
# Poissons Ratio (x) = 0.54684 -0.03863
# Poissons Ratio (y) = 0.35257 0.16875
# Poissons Ratio (z) = -0.05024 0.34039
#
# Static dielectric constant tensor:
#      x y z
#    x 3.795460 0.000000 0.000000 
#    y 0.000000 3.655960 0.000000 
#    z 0.000000 0.000000 3.415870 
# 
# 
# High freq. dielectric constant tensor:
#      x y z
#    x 1.768140 0.000000 0.000000 
#    y 0.000000 1.750230 0.000000 
#    z 0.000000 0.000000 1.735280 
# 
# From -- ./inp_files/18298.got.cif
#   From: 2010.03.12/outbox.cif.g09.slc.cpg/sg38_10_cif.got.tgz:18298.got - 2010.04.14 02:38:36.
