data_PCOD8180233
_publ_section_title
;
Structure prediction by ZEFSAII (Michael W. Deem and Ramdas Pophale) SiO2 
 PCOD8180233
Probable space group: A M M 2
;
_chemical_formula_sum "Si O2"
_cell_formula_units_Z 64
_cell_length_a 9.069027
_cell_length_b 30.336822
_cell_length_c 11.824135
_cell_angle_alpha 90.000000
_cell_angle_beta 90.000000
_cell_angle_gamma 90.000000
_cell_volume 3253.120555
_symmetry_space_group_name_H-M "A M M 2"
_symmetry_group_IT_number 38
_symmetry_cell_setting 'orthorhombic'
loop_
_space_group_symop_operation_xyz
x,y,z
-x,-y,z
-x,y,z
x,-y,z
x,1/2+y,1/2+z
-x,1/2-y,1/2+z
-x,1/2+y,1/2+z
x,1/2-y,1/2+z
loop_
_atom_site_type_symbol
_atom_site_label
_atom_site_fract_x
_atom_site_fract_y
_atom_site_fract_z
Si Si1 0.167160 0.930216 0.940840
Si Si2 0.671545 0.374728 0.037429
Si Si3 0.668593 0.050162 0.711716
Si Si4 0.165652 0.828710 0.922667
Si Si5 0.667751 0.049315 0.160741
Si Si6 0.175032 0.623698 0.799797
Si Si7 0.670976 0.201883 0.709161
Si Si8 0.172831 0.207898 0.159907
O O1 0.227505 0.941973 0.818012
O O2 0.171738 0.878479 0.965524
O O3 0.000000 0.947832 0.948983
O O4 0.266149 0.953264 0.034989
O O5 0.500000 0.377188 0.003242
O O6 0.717100 0.417195 0.111449
O O7 0.707527 0.329973 0.104843
O O8 0.772351 0.373878 0.928007
O O9 0.500000 0.060428 0.747154
O O10 0.685706 0.000000 0.668276
O O11 0.281010 0.822460 0.823092
O O12 0.000000 0.816835 0.881448
O O13 0.212538 0.798633 0.028474
O O14 0.500000 0.066593 0.154249
O O15 0.760922 0.080279 0.242186
O O16 0.672920 0.000000 0.211660
O O17 0.232361 0.667068 0.734182
O O18 0.000000 0.620331 0.795385
O O19 0.500000 0.212150 0.716981
O O20 0.753638 0.247699 0.701306
O O21 0.000000 0.212534 0.178028
#
# Coordination Sequence:
#
# PCOD8180233 Si02
#       8
#     8   8   8   8   8   8   8   8
#     4  11  21  37  62  93 126 157 199 251 301 356
#     4  10  23  42  60  87 124 161 203 251 304 364
#     4  10  21  39  62  87 120 162 203 245 301 366
#     4  10  21  40  64  89 121 160 199 245 304 362
#     4  11  24  41  63  91 124 163 202 244 303 367
#     4  11  24  43  65  90 120 159 206 255 303 357
#     4  11  24  40  62  93 124 157 202 252 300 356
#     4  10  23  43  63  88 122 161 202 246 304 364
#
# _framework density 19.673418999999999
#
# number of rings (size 3 to 8) (size 9 to 14) (size 15 to 20)
#    0.000    1.500    2.500    1.875    1.750    6.750 
#    0.000    1.250    0.000    0.000    0.000    0.000 
#    0.000    0.000    0.000    0.000    0.000    0.000 
#
# Total GULP energy -396946.020839 kJ/mol
# GULP energy per Si atom -12404.563151 kJ/mol
# Density = 1.962864 g / cm^3
# Si number density = 19.673419 Si / 1000 Ang^3
#
#
#
# Elastic Constant Matrix: (Units=GPa)
#
#
# Indices 1 2 3 4 5 6 
#
# 1 77.7480 38.9508 52.3826 0.0000 0.0000 0.0000
# 2 38.9508 101.9279 36.6389 0.0000 0.0000 0.0000
# 3 52.3826 36.6389 103.9363 0.0000 0.0000 0.0000
# 4 0.0000 0.0000 0.0000 23.4835 0.0000 0.0000
# 5 0.0000 0.0000 0.0000 0.0000 39.7434 0.0000
# 6 0.0000 0.0000 0.0000 0.0000 0.0000 29.9502
#
#
#
# Elastic Compliance Matrix: (Units=1/GPa)
#
#
# Indices 1 2 3 4 5 6 
#
# 1 0.021444 -0.004935 -0.009068 0.000000 0.000000 0.000000
# 2 -0.004935 0.012370 -0.001873 0.000000 0.000000 0.000000
# 3 -0.009068 -0.001873 0.014852 0.000000 0.000000 0.000000
# 4 0.000000 0.000000 0.000000 0.042583 0.000000 0.000000
# 5 0.000000 0.000000 0.000000 0.000000 0.025161 0.000000
# 6 0.000000 0.000000 0.000000 0.000000 0.000000 0.033389
#
#
# Mechanical properties :
#
#
# Convention : Reuss Voigt Hill
#
# Bulk Modulus (GPa) = 59.12535 59.95076 59.53805
# Shear Modulus (GPa) = 26.71091 29.01140 27.86116
#
# Velocity S-wave (km/s) = 3.68872 3.84428 3.76730
# Velocity P-wave (km/s) = 6.94700 7.08829 7.01800
#
# Compressibility (1/GPa) = 0.01691322
#
# Stress axis : x y z
#
# Youngs Moduli (GPa) = 46.63337 80.83967 67.33225
#
# Poissons Ratio (x) = 0.39895 0.61055
# Poissons Ratio (y) = 0.23014 0.12614
# Poissons Ratio (z) = 0.42286 0.15145
#
# Static dielectric constant tensor:
#      x y z
#    x 3.643250 0.000000 0.000000 
#    y 0.000000 3.765520 0.000000 
#    z 0.000000 0.000000 3.514500 
# 
# 
# High freq. dielectric constant tensor:
#      x y z
#    x 1.769210 0.000000 0.000000 
#    y 0.000000 1.781110 0.000000 
#    z 0.000000 0.000000 1.766030 
# 
# From -- ./inp_files/8631.got.cif
#   From: 2010.03.12/outbox.cif.g09.slc.cpg/sg38_5_cif.got.tgz:8631.got - 2010.04.14 02:38:36.
