data_PCOD8180197
_publ_section_title
;
Structure prediction by ZEFSAII (Michael W. Deem and Ramdas Pophale) SiO2 
 PCOD8180197
Probable space group: A M M 2
;
_chemical_formula_sum "Si O2"
_cell_formula_units_Z 64
_cell_length_a 8.883882
_cell_length_b 15.294904
_cell_length_c 23.779400
_cell_angle_alpha 90.000000
_cell_angle_beta 90.000000
_cell_angle_gamma 90.000000
_cell_volume 3231.100222
_symmetry_space_group_name_H-M "A M M 2"
_symmetry_group_IT_number 38
_symmetry_cell_setting 'orthorhombic'
loop_
_space_group_symop_operation_xyz
x,y,z
-x,-y,z
-x,y,z
x,-y,z
x,1/2+y,1/2+z
-x,1/2-y,1/2+z
-x,1/2+y,1/2+z
x,1/2-y,1/2+z
loop_
_atom_site_type_symbol
_atom_site_label
_atom_site_fract_x
_atom_site_fract_y
_atom_site_fract_z
Si Si1 0.822408 0.348611 0.822520
Si Si2 0.672558 0.401021 0.446061
Si Si3 0.672594 0.901115 0.208669
Si Si4 0.673404 0.663418 0.323279
Si Si5 0.823716 0.755301 0.136859
Si Si6 0.172524 0.097612 0.716382
Si Si7 0.672129 0.098119 0.434460
Si Si8 0.176249 0.744831 0.007863
O O1 0.765296 0.392228 0.765693
O O2 0.776980 0.248074 0.825328
O O3 0.755131 0.400076 0.874994
O O4 0.000000 0.356520 0.824543
O O5 0.500000 0.379116 0.460993
O O6 0.713383 0.500000 0.463278
O O7 0.699719 0.391527 0.379618
O O8 0.778890 0.336833 0.480682
O O9 0.500000 0.876895 0.221200
O O10 0.735016 0.837722 0.160892
O O11 0.688410 0.000000 0.186164
O O12 0.500000 0.691313 0.316346
O O13 0.722705 0.604584 0.270904
O O14 0.776474 0.667217 0.169518
O O15 0.775239 0.743670 0.072611
O O16 0.000000 0.774400 0.142936
O O17 0.000000 0.115044 0.734156
O O18 0.191722 0.000000 0.691209
O O19 0.500000 0.125899 0.424422
O O20 0.742516 0.164262 0.478587
O O21 0.685061 0.000000 0.458936
O O22 0.000000 0.731266 0.000035
#
# Coordination Sequence:
#
# PCOD8180197 Si02
#       8
#     8   8   8   8   8   8   8   8
#     4  12  23  37  62  94 126 160 198 245 307 368
#     4  10  22  40  62  88 122 163 202 246 305 366
#     4  11  24  41  63  92 124 161 203 249 303 361
#     4  11  21  36  61  91 123 159 197 242 300 363
#     4  10  23  42  62  87 121 162 206 252 302 357
#     4  10  21  38  61  89 121 158 199 247 301 357
#     4  11  24  42  64  91 124 162 204 251 304 365
#     4  11  24  41  63  90 121 161 208 257 307 359
#
# _framework density 19.807494999999999
#
# number of rings (size 3 to 8) (size 9 to 14) (size 15 to 20)
#    0.000    1.250    2.500    3.375    0.000    7.000 
#    0.000    3.750    0.000    0.000    0.000    0.000 
#    0.000    0.000    0.000    0.000    0.000    0.000 
#
# Total GULP energy -396963.405820 kJ/mol
# GULP energy per Si atom -12405.106432 kJ/mol
# Density = 1.976241 g / cm^3
# Si number density = 19.807495 Si / 1000 Ang^3
#
#
#
# Elastic Constant Matrix: (Units=GPa)
#
#
# Indices 1 2 3 4 5 6 
#
# 1 119.7558 54.5795 69.3512 0.0000 0.0000 0.0000
# 2 54.5795 134.2616 57.0215 0.0000 0.0000 0.0000
# 3 69.3512 57.0215 129.4851 0.0000 0.0000 0.0000
# 4 0.0000 0.0000 0.0000 -4.0562 0.0000 0.0000
# 5 0.0000 0.0000 0.0000 0.0000 152.2693 0.0000
# 6 0.0000 0.0000 0.0000 0.0000 0.0000 26.7196
#
#
#
# Elastic Compliance Matrix: (Units=1/GPa)
#
#
# Indices 1 2 3 4 5 6 
#
# 1 0.012934 -0.002848 -0.005673 0.000000 0.000000 0.000000
# 2 -0.002848 0.009789 -0.002785 0.000000 0.000000 0.000000
# 3 -0.005673 -0.002785 0.011988 0.000000 0.000000 0.000000
# 4 0.000000 0.000000 0.000000 -0.246539 0.000000 0.000000
# 5 0.000000 0.000000 0.000000 0.000000 0.006567 0.000000
# 6 0.000000 0.000000 0.000000 0.000000 0.000000 0.037426
#
#
# Mechanical properties :
#
#
# Convention : Reuss Voigt Hill
#
# Bulk Modulus (GPa) = 82.66175 82.82299 82.74237
# Shear Modulus (GPa) = -35.41333 48.48989 6.53828
#
# Velocity S-wave (km/s) = -4.23291 4.95315 1.81881
# Velocity P-wave (km/s) = 4.23475 8.63808 6.80255
#
# Compressibility (1/GPa) = 0.01209749
#
# Stress axis : x y z
#
# Youngs Moduli (GPa) = 77.31756 102.15581 83.41886
#
# Poissons Ratio (x) = 0.29099 0.47322
# Poissons Ratio (y) = 0.22024 0.23233
# Poissons Ratio (z) = 0.43861 0.28452
#
# Static dielectric constant tensor:
#      x y z
#    x 3.571230 0.000000 0.000000 
#    y 0.000000 4.999830 0.000000 
#    z 0.000000 0.000000 3.614560 
# 
# 
# High freq. dielectric constant tensor:
#      x y z
#    x 1.779170 0.000000 0.000000 
#    y 0.000000 1.786790 0.000000 
#    z 0.000000 0.000000 1.766860 
# 
# From -- ./inp_files/22154.got.cif
#   From: 2010.03.12/outbox.cif.g09.slc.cpg/sg38_12_cif.got.tgz:22154.got - 2010.04.14 02:38:36.
