data_PCOD8180433
_publ_section_title
;
Structure prediction by ZEFSAII (Michael W. Deem and Ramdas Pophale) SiO2 
 PCOD8180433
Probable space group: A M M 2
;
_chemical_formula_sum "Si O2"
_cell_formula_units_Z 64
_cell_length_a 8.851695
_cell_length_b 20.733920
_cell_length_c 19.668913
_cell_angle_alpha 90.000000
_cell_angle_beta 90.000000
_cell_angle_gamma 90.000000
_cell_volume 3609.842212
_symmetry_space_group_name_H-M "A M M 2"
_symmetry_group_IT_number 38
_symmetry_cell_setting 'orthorhombic'
loop_
_space_group_symop_operation_xyz
x,y,z
-x,-y,z
-x,y,z
x,-y,z
x,1/2+y,1/2+z
-x,1/2-y,1/2+z
-x,1/2+y,1/2+z
x,1/2-y,1/2+z
loop_
_atom_site_type_symbol
_atom_site_label
_atom_site_fract_x
_atom_site_fract_y
_atom_site_fract_z
Si Si1 0.177815 0.429902 0.063870
Si Si2 0.173486 0.271510 0.289021
Si Si3 0.178986 0.815714 0.060508
Si Si4 0.322460 0.269237 0.427854
Si Si5 0.171336 0.379641 0.776327
Si Si6 0.674358 0.425946 0.646103
Si Si7 0.175210 0.132548 0.425975
Si Si8 0.820046 0.308182 0.143405
O O1 0.246357 0.500000 0.083767
O O2 0.248986 0.372854 0.109396
O O3 0.000000 0.430676 0.076107
O O4 0.213115 0.418361 0.984492
O O5 0.271394 0.293775 0.353416
O O6 0.193682 0.196690 0.271609
O O7 0.231420 0.308936 0.222002
O O8 0.000000 0.287452 0.305625
O O9 0.226580 0.881583 0.097003
O O10 0.241534 0.754638 0.103664
O O11 0.000000 0.813911 0.055040
O O12 0.247860 0.814248 0.985083
O O13 0.500000 0.275671 0.433917
O O14 0.273879 0.195673 0.438914
O O15 0.282009 0.415484 0.724879
O O16 0.211253 0.400928 0.853579
O O17 0.000000 0.398671 0.757284
O O18 0.500000 0.407677 0.636982
O O19 0.704862 0.500000 0.626299
O O20 0.000000 0.155009 0.427639
O O21 0.000000 0.306840 0.138449
#
# Coordination Sequence:
#
# PCOD8180433 Si02
#       8
#     8   8   8   8   8   8   8   8
#     4   9  16  27  48  79 109 136 170 216 264 302
#     4   9  17  32  52  76 103 136 176 219 263 309
#     4  11  20  36  59  79 101 136 180 227 266 309
#     4  11  21  32  50  80 109 136 171 217 271 321
#     4   9  17  30  50  74 100 138 186 223 253 300
#     4  11  24  38  51  74 110 145 175 216 272 329
#     4   9  17  31  50  73 105 144 182 216 253 306
#     4   9  16  29  52  78 103 133 173 220 264 301
#
# _framework density 17.729306000000001
#
# number of rings (size 3 to 8) (size 9 to 14) (size 15 to 20)
#    0.000    2.250    2.500    2.625    0.000    3.500 
#    0.000    1.250    0.000    1.125    0.000    1.750 
#    0.000    0.000    0.000    0.000    0.000    0.000 
#
# Total GULP energy -396743.168637 kJ/mol
# GULP energy per Si atom -12398.224020 kJ/mol
# Density = 1.768895 g / cm^3
# Si number density = 17.729306 Si / 1000 Ang^3
#
#
#
# Elastic Constant Matrix: (Units=GPa)
#
#
# Indices 1 2 3 4 5 6 
#
# 1 69.5944 30.3343 40.5358 0.0000 0.0000 0.0000
# 2 30.3343 93.8639 61.7588 0.0000 0.0000 0.0000
# 3 40.5358 61.7588 122.5405 0.0000 0.0000 0.0000
# 4 0.0000 0.0000 0.0000 21.9582 0.0000 0.0000
# 5 0.0000 0.0000 0.0000 0.0000 13.1523 0.0000
# 6 0.0000 0.0000 0.0000 0.0000 0.0000 17.6300
#
#
#
# Elastic Compliance Matrix: (Units=1/GPa)
#
#
# Indices 1 2 3 4 5 6 
#
# 1 0.018308 -0.002890 -0.004599 0.000000 0.000000 0.000000
# 2 -0.002890 0.016396 -0.007307 0.000000 0.000000 0.000000
# 3 -0.004599 -0.007307 0.013365 0.000000 0.000000 0.000000
# 4 0.000000 0.000000 0.000000 0.045541 0.000000 0.000000
# 5 0.000000 0.000000 0.000000 0.000000 0.076033 0.000000
# 6 0.000000 0.000000 0.000000 0.000000 0.000000 0.056722
#
#
# Mechanical properties :
#
#
# Convention : Reuss Voigt Hill
#
# Bulk Modulus (GPa) = 54.12896 61.25075 57.68986
# Shear Modulus (GPa) = 19.07561 20.77276 19.92418
#
# Velocity S-wave (km/s) = 3.28371 3.42667 3.35595
# Velocity P-wave (km/s) = 6.70627 7.09076 6.90119
#
# Compressibility (1/GPa) = 0.01847440
#
# Stress axis : x y z
#
# Youngs Moduli (GPa) = 54.62168 60.99218 74.82412
#
# Poissons Ratio (x) = 0.17629 0.34415
# Poissons Ratio (y) = 0.15788 0.54674
# Poissons Ratio (z) = 0.25123 0.44567
#
# Static dielectric constant tensor:
#      x y z
#    x 3.006080 0.000000 0.000000 
#    y 0.000000 3.203750 0.000000 
#    z 0.000000 0.000000 3.544270 
# 
# 
# High freq. dielectric constant tensor:
#      x y z
#    x 1.658020 0.000000 0.000000 
#    y 0.000000 1.659130 0.000000 
#    z 0.000000 0.000000 1.696230 
# 
# From -- ./inp_files/20246.got.cif
#   From: 2010.03.12/outbox.cif.g09.slc.cpg/sg38_11_cif.got.tgz:20246.got - 2010.04.14 02:38:36.
