data_PCOD8180729
_publ_section_title
;
Structure prediction by ZEFSAII (Michael W. Deem and Ramdas Pophale) SiO2 
 PCOD8180729
Probable space group: A B M 2
;
_chemical_formula_sum "Si O2"
_cell_formula_units_Z 60
_cell_length_a 14.548959
_cell_length_b 26.683836
_cell_length_c 9.284362
_cell_angle_alpha 90.000000
_cell_angle_beta 90.000000
_cell_angle_gamma 90.000000
_cell_volume 3604.393918
_symmetry_space_group_name_H-M "A B M 2"
_symmetry_group_IT_number 39
_symmetry_cell_setting 'orthorhombic'
loop_
_space_group_symop_operation_xyz
x,y,z
-x,-y,z
-x,1/2+y,z
x,1/2-y,z
x,1/2+y,1/2+z
-x,1/2-y,1/2+z
-x,y,1/2+z
x,-y,1/2+z
loop_
_atom_site_type_symbol
_atom_site_label
_atom_site_fract_x
_atom_site_fract_y
_atom_site_fract_z
Si Si1 0.427444 0.149754 0.266060
Si Si2 0.431370 0.695342 0.465151
Si Si3 0.705502 0.654041 0.752244
Si Si4 0.934281 0.306482 0.969325
Si Si5 0.100125 0.307827 0.792641
Si Si6 0.500000 0.000000 0.513815
Si Si7 0.270138 0.809758 0.937011
Si Si8 0.567036 0.935198 0.768259
O O1 0.482237 0.190718 0.358933
O O2 0.322429 0.156755 0.317353
O O3 0.472600 0.095829 0.295071
O O4 0.436022 0.156246 0.095093
O O5 0.431394 0.750000 0.535815
O O6 0.340262 0.689059 0.371415
O O7 0.813104 0.654463 0.792993
O O8 0.689365 0.677885 0.594854
O O9 0.658314 0.599180 0.760911
O O10 0.935504 0.250000 0.910524
O O11 0.835158 0.329113 0.925380
O O12 0.023957 0.332206 0.898742
O O13 0.948139 0.308723 0.138642
O O14 0.129762 0.250000 0.829719
O O15 0.561032 0.964627 0.617385
O O16 0.428079 0.970980 0.408727
O O17 0.278164 0.750000 0.910123
#
# Coordination Sequence:
#
# PCOD8180729 Si02
#       8
#     8   8   8   8   8   4   8   8
#     4  11  21  31  45  65  95 121 160 196 226 262
#     4  11  20  29  41  63  93 132 161 184 219 266
#     4  10  19  31  48  68  95 119 159 197 233 269
#     4   8  16  27  42  62  90 129 170 191 217 250
#     4   9  16  29  45  65  95 131 158 190 220 255
#     4  10  20  36  54  64  90 114 146 184 252 300
#     4  10  18  30  45  66  98 138 166 192 220 257
#     4  10  20  34  50  71  88 117 146 194 237 291
#
# _framework density 16.646350000000002
#
# number of rings (size 3 to 8) (size 9 to 14) (size 15 to 20)
#    0.000    2.133    0.000    7.200    0.000    1.067 
#    0.000    2.667    0.000    0.000    0.000    0.000 
#    0.000   36.267    0.000    0.000    0.000    0.000 
#
# Total GULP energy -371780.337891 kJ/mol
# GULP energy per Si atom -12392.677930 kJ/mol
# Density = 1.660846 g / cm^3
# Si number density = 16.646350 Si / 1000 Ang^3
#
#
#
# Elastic Constant Matrix: (Units=GPa)
#
#
# Indices 1 2 3 4 5 6 
#
# 1 90.4640 32.8782 37.0245 0.0000 0.0000 0.0000
# 2 32.8782 69.3282 24.8114 0.0000 0.0000 0.0000
# 3 37.0245 24.8114 79.2453 0.0000 0.0000 0.0000
# 4 0.0000 0.0000 0.0000 25.7710 0.0000 0.0000
# 5 0.0000 0.0000 0.0000 0.0000 30.7968 0.0000
# 6 0.0000 0.0000 0.0000 0.0000 0.0000 18.1756
#
#
#
# Elastic Compliance Matrix: (Units=1/GPa)
#
#
# Indices 1 2 3 4 5 6 
#
# 1 0.015196 -0.005255 -0.005455 0.000000 0.000000 0.000000
# 2 -0.005255 0.018061 -0.003200 0.000000 0.000000 0.000000
# 3 -0.005455 -0.003200 0.016169 0.000000 0.000000 0.000000
# 4 0.000000 0.000000 0.000000 0.038803 0.000000 0.000000
# 5 0.000000 0.000000 0.000000 0.000000 0.032471 0.000000
# 6 0.000000 0.000000 0.000000 0.000000 0.000000 0.055019
#
#
# Mechanical properties :
#
#
# Convention : Reuss Voigt Hill
#
# Bulk Modulus (GPa) = 46.27784 47.60731 46.94257
# Shear Modulus (GPa) = 23.72579 24.57025 24.14802
#
# Velocity S-wave (km/s) = 3.77939 3.84606 3.81287
# Velocity P-wave (km/s) = 6.84880 6.95588 6.90254
#
# Compressibility (1/GPa) = 0.02160862
#
# Stress axis : x y z
#
# Youngs Moduli (GPa) = 65.80547 55.36708 61.84502
#
# Poissons Ratio (x) = 0.29093 0.33735
# Poissons Ratio (y) = 0.34578 0.19790
# Poissons Ratio (z) = 0.35895 0.17717
#
# Static dielectric constant tensor:
#      x y z
#    x 3.174690 0.000000 0.000000 
#    y 0.000000 2.872450 0.000000 
#    z 0.000000 0.000000 3.217890 
# 
# 
# High freq. dielectric constant tensor:
#      x y z
#    x 1.631120 0.000000 0.000000 
#    y 0.000000 1.599260 0.000000 
#    z 0.000000 0.000000 1.656890 
# 
# From -- ./inp_files/3553.got.cif
#   From: 2010.03.12/outbox.cif.g09.slc.cpg/sg39_2_cif.got.tgz:3553.got - 2010.04.14 02:53:20.
