data_PCOD8180166
_publ_section_title
;
Structure prediction by ZEFSAII (Michael W. Deem and Ramdas Pophale) SiO2 
 PCOD8180166
Probable space group: A M M 2
;
_chemical_formula_sum "Si O2"
_cell_formula_units_Z 48
_cell_length_a 16.839197
_cell_length_b 8.952523
_cell_length_c 15.717251
_cell_angle_alpha 90.000000
_cell_angle_beta 90.000000
_cell_angle_gamma 90.000000
_cell_volume 2369.427431
_symmetry_space_group_name_H-M "A M M 2"
_symmetry_group_IT_number 38
_symmetry_cell_setting 'orthorhombic'
loop_
_space_group_symop_operation_xyz
x,y,z
-x,-y,z
-x,y,z
x,-y,z
x,1/2+y,1/2+z
-x,1/2-y,1/2+z
-x,1/2+y,1/2+z
x,1/2-y,1/2+z
loop_
_atom_site_type_symbol
_atom_site_label
_atom_site_fract_x
_atom_site_fract_y
_atom_site_fract_z
Si Si1 0.000000 0.174884 0.543800
Si Si2 0.000000 0.323421 0.362736
Si Si3 0.849862 0.331896 0.609484
Si Si4 0.410681 0.323053 0.200184
Si Si5 0.319509 0.671743 0.549172
Si Si6 0.308215 0.326021 0.359430
Si Si7 0.844466 0.830603 0.303618
O O1 0.921313 0.216632 0.596111
O O2 0.000000 0.268084 0.458390
O O3 0.000000 0.000000 0.524704
O O4 0.076557 0.264593 0.314160
O O5 0.000000 0.500000 0.360566
O O6 0.879479 0.500000 0.587855
O O7 0.774150 0.287561 0.552385
O O8 0.819083 0.322686 0.705705
O O9 0.500000 0.259068 0.203053
O O10 0.411239 0.500000 0.199980
O O11 0.369636 0.271292 0.113418
O O12 0.365844 0.265104 0.285035
O O13 0.331935 0.500000 0.575816
O O14 0.348370 0.700370 0.452061
O O15 0.288775 0.500000 0.345812
O O16 0.226027 0.236857 0.359251
O O17 0.860507 0.000000 0.333633
#
# Coordination Sequence:
#
# PCOD8180166 Si02
#       7
#     4   4   8   8   8   8   8
#     4  12  25  38  57  87 119 157 209 257 302 357
#     4  12  25  40  57  81 119 163 207 253 306 361
#     4  10  21  38  59  85 122 161 200 250 306 359
#     4  10  22  40  61  89 125 160 198 250 307 365
#     4  10  21  39  63  91 119 159 206 249 302 365
#     4  10  21  38  63  91 123 163 205 248 304 370
#     4  11  22  38  61  89 121 158 205 254 301 358
#
# _framework density 20.258058999999999
#
# number of rings (size 3 to 8) (size 9 to 14) (size 15 to 20)
#    0.000    1.500    1.667    3.500    0.000    7.000 
#    0.000    1.667    0.000    0.000    0.000    0.000 
#    0.000    0.000    0.000    0.000    0.000    0.000 
#
# Total GULP energy -297681.565070 kJ/mol
# GULP energy per Si atom -12403.398545 kJ/mol
# Density = 2.021195 g / cm^3
# Si number density = 20.258059 Si / 1000 Ang^3
#
#
#
# Elastic Constant Matrix: (Units=GPa)
#
#
# Indices 1 2 3 4 5 6 
#
# 1 115.9030 40.7662 44.0872 0.0000 0.0000 0.0000
# 2 40.7662 87.7447 30.1998 0.0000 0.0000 0.0000
# 3 44.0872 30.1998 115.5005 0.0000 0.0000 0.0000
# 4 0.0000 0.0000 0.0000 31.2783 0.0000 0.0000
# 5 0.0000 0.0000 0.0000 0.0000 19.3092 0.0000
# 6 0.0000 0.0000 0.0000 0.0000 0.0000 33.6891
#
#
#
# Elastic Compliance Matrix: (Units=1/GPa)
#
#
# Indices 1 2 3 4 5 6 
#
# 1 0.011316 -0.004144 -0.003236 0.000000 0.000000 0.000000
# 2 -0.004144 0.014041 -0.002090 0.000000 0.000000 0.000000
# 3 -0.003236 -0.002090 0.010440 0.000000 0.000000 0.000000
# 4 0.000000 0.000000 0.000000 0.031971 0.000000 0.000000
# 5 0.000000 0.000000 0.000000 0.000000 0.051789 0.000000
# 6 0.000000 0.000000 0.000000 0.000000 0.000000 0.029683
#
#
# Mechanical properties :
#
#
# Convention : Reuss Voigt Hill
#
# Bulk Modulus (GPa) = 59.31860 61.02828 60.17344
# Shear Modulus (GPa) = 28.76900 30.46165 29.61532
#
# Velocity S-wave (km/s) = 3.77254 3.88194 3.82763
# Velocity P-wave (km/s) = 6.95134 7.09108 7.02156
#
# Compressibility (1/GPa) = 0.01685812
#
# Stress axis : x y z
#
# Youngs Moduli (GPa) = 88.36807 71.21945 95.78966
#
# Poissons Ratio (x) = 0.29512 0.30998
# Poissons Ratio (y) = 0.36618 0.20016
# Poissons Ratio (z) = 0.28596 0.14882
#
# Static dielectric constant tensor:
#      x y z
#    x 3.722570 0.000000 0.000000 
#    y 0.000000 3.627180 0.000000 
#    z 0.000000 0.000000 3.766050 
# 
# 
# High freq. dielectric constant tensor:
#      x y z
#    x 1.786470 0.000000 0.000000 
#    y 0.000000 1.783440 0.000000 
#    z 0.000000 0.000000 1.804720 
# 
# From -- ./inp_files/15005.got.cif
#   From: 2010.03.12/outbox.cif.g09.slc.cpg/sg38_8_cif.got.tgz:15005.got - 2010.04.14 02:38:36.
