data_PCOD8180971
_publ_section_title
;
Structure prediction by ZEFSAII (Michael W. Deem and Ramdas Pophale) SiO2 
 PCOD8180971
Probable space group: A B M 2
;
_chemical_formula_sum "Si O2"
_cell_formula_units_Z 64
_cell_length_a 14.249272
_cell_length_b 8.697590
_cell_length_c 31.306510
_cell_angle_alpha 90.000000
_cell_angle_beta 90.000000
_cell_angle_gamma 90.000000
_cell_volume 3879.951205
_symmetry_space_group_name_H-M "A B M 2"
_symmetry_group_IT_number 39
_symmetry_cell_setting 'orthorhombic'
loop_
_space_group_symop_operation_xyz
x,y,z
-x,-y,z
-x,1/2+y,z
x,1/2-y,z
x,1/2+y,1/2+z
-x,1/2-y,1/2+z
-x,y,1/2+z
x,-y,1/2+z
loop_
_atom_site_type_symbol
_atom_site_label
_atom_site_fract_x
_atom_site_fract_y
_atom_site_fract_z
Si Si1 0.897226 0.931058 0.537700
Si Si2 0.207878 0.571813 0.214084
Si Si3 0.783076 0.068494 0.370124
Si Si4 0.598143 0.432071 0.840767
Si Si5 0.594472 0.428417 0.248777
Si Si6 0.102784 0.568913 0.792011
Si Si7 0.102886 0.930677 0.453260
Si Si8 0.101448 0.570014 0.131019
O O1 0.899563 0.750000 0.530907
O O2 0.855327 0.976103 0.584389
O O3 0.845956 0.006980 0.496704
O O4 0.000000 0.000000 0.536750
O O5 0.182314 0.750000 0.223016
O O6 0.319963 0.546984 0.216066
O O7 0.156436 0.466193 0.248292
O O8 0.174856 0.517747 0.167173
O O9 0.773307 0.250000 0.365138
O O10 0.832684 0.019258 0.413877
O O11 0.680340 0.993335 0.371157
O O12 0.843061 0.006310 0.331012
O O13 0.500000 0.500000 0.857618
O O14 0.594646 0.250000 0.842237
O O15 0.619062 0.486433 0.792692
O O16 0.500000 0.500000 0.228206
O O17 0.577510 0.250000 0.259146
O O18 0.097231 0.750000 0.799155
O O19 0.000000 0.500000 0.789210
O O20 0.092273 0.750000 0.456362
O O21 0.000000 0.000000 0.446253
O O22 0.085063 0.750000 0.132220
O O23 0.000000 0.500000 0.140247
#
# Coordination Sequence:
#
# PCOD8180971 Si02
#       8
#     8   8   8   8   8   8   8   8
#     4   9  16  28  47  68  94 123 159 201 242 289
#     4  10  20  34  50  69  97 130 164 202 243 288
#     4  11  22  36  51  71  98 129 165 204 244 290
#     4  11  21  34  53  74  97 126 162 204 247 293
#     4  10  19  32  51  70  95 126 161 205 248 288
#     4  12  24  35  48  67  96 133 169 201 237 286
#     4  10  20  32  49  71  98 129 163 201 243 290
#     4   9  18  31  47  70  96 128 163 198 241 287
#
# _framework density 16.495052000000001
#
# number of rings (size 3 to 8) (size 9 to 14) (size 15 to 20)
#    0.000    1.750    1.250    6.000    0.000    5.500 
#    0.000    0.000    0.000    0.000    0.000    0.875 
#    0.000    4.000    0.000    0.000    0.000    0.000 
#
# Total GULP energy -396720.729574 kJ/mol
# GULP energy per Si atom -12397.522799 kJ/mol
# Density = 1.645751 g / cm^3
# Si number density = 16.495052 Si / 1000 Ang^3
#
#
#
# Elastic Constant Matrix: (Units=GPa)
#
#
# Indices 1 2 3 4 5 6 
#
# 1 109.3007 41.0401 65.7949 0.0000 0.0000 0.0000
# 2 41.0401 81.1393 46.4151 0.0000 0.0000 0.0000
# 3 65.7949 46.4151 139.9920 0.0000 0.0000 0.0000
# 4 0.0000 0.0000 0.0000 20.3844 0.0000 0.0000
# 5 0.0000 0.0000 0.0000 0.0000 -11.7239 0.0000
# 6 0.0000 0.0000 0.0000 0.0000 0.0000 25.9697
#
#
#
# Elastic Compliance Matrix: (Units=1/GPa)
#
#
# Indices 1 2 3 4 5 6 
#
# 1 0.013745 -0.004019 -0.005127 0.000000 0.000000 0.000000
# 2 -0.004019 0.016384 -0.003543 0.000000 0.000000 0.000000
# 3 -0.005127 -0.003543 0.010728 0.000000 0.000000 0.000000
# 4 0.000000 0.000000 0.000000 0.049057 0.000000 0.000000
# 5 0.000000 0.000000 0.000000 0.000000 -0.085296 0.000000
# 6 0.000000 0.000000 0.000000 0.000000 0.000000 0.038506
#
#
# Mechanical properties :
#
#
# Convention : Reuss Voigt Hill
#
# Bulk Modulus (GPa) = 64.61056 70.77027 67.69041
# Shear Modulus (GPa) = 67.87711 18.73817 43.30764
#
# Velocity S-wave (km/s) = 6.42178 3.37410 5.12952
# Velocity P-wave (km/s) = 9.70775 7.62735 8.72975
#
# Compressibility (1/GPa) = 0.01547735
#
# Stress axis : x y z
#
# Youngs Moduli (GPa) = 72.75617 61.03432 93.21499
#
# Poissons Ratio (x) = 0.24529 0.47794
# Poissons Ratio (y) = 0.29240 0.33030
# Poissons Ratio (z) = 0.37304 0.21627
#
# Static dielectric constant tensor:
#      x y z
#    x 3.209920 0.000000 0.000000 
#    y 0.000000 3.259550 0.000000 
#    z 0.000000 0.000000 3.661170 
# 
# 
# High freq. dielectric constant tensor:
#      x y z
#    x 1.615100 0.000000 0.000000 
#    y 0.000000 1.651770 0.000000 
#    z 0.000000 0.000000 1.627900 
# 
# From -- ./inp_files/17996.got.cif
#   From: 2010.03.12/outbox.cif.g09.slc.cpg/sg39_9_cif.got.tgz:17996.got - 2010.04.14 02:53:20.
