data_PCOD8180234
_publ_section_title
;
Structure prediction by ZEFSAII (Michael W. Deem and Ramdas Pophale) SiO2 
 PCOD8180234
Probable space group: A M M 2
;
_chemical_formula_sum "Si O2"
_cell_formula_units_Z 56
_cell_length_a 8.776193
_cell_length_b 20.385797
_cell_length_c 15.235603
_cell_angle_alpha 90.000000
_cell_angle_beta 90.000000
_cell_angle_gamma 90.000000
_cell_volume 2725.796993
_symmetry_space_group_name_H-M "A M M 2"
_symmetry_group_IT_number 38
_symmetry_cell_setting 'orthorhombic'
loop_
_space_group_symop_operation_xyz
x,y,z
-x,-y,z
-x,y,z
x,-y,z
x,1/2+y,1/2+z
-x,1/2-y,1/2+z
-x,1/2+y,1/2+z
x,1/2-y,1/2+z
loop_
_atom_site_type_symbol
_atom_site_label
_atom_site_fract_x
_atom_site_fract_y
_atom_site_fract_z
Si Si1 0.671406 0.575680 0.574680
Si Si2 0.675966 0.000000 0.502413
Si Si3 0.180315 0.573270 0.234951
Si Si4 0.178228 0.132549 0.559164
Si Si5 0.326156 0.619254 0.761742
Si Si6 0.172120 0.500000 0.831770
Si Si7 0.178733 0.137855 0.910917
Si Si8 0.322155 0.720333 0.912244
O O1 0.500000 0.579534 0.537524
O O2 0.708387 0.500000 0.602486
O O3 0.685784 0.627297 0.656178
O O4 0.784950 0.598846 0.499334
O O5 0.774489 0.061258 0.529572
O O6 0.500000 0.000000 0.534396
O O7 0.685395 0.000000 0.398118
O O8 0.248331 0.500000 0.213317
O O9 0.223164 0.629589 0.162812
O O10 0.244905 0.596948 0.328485
O O11 0.000000 0.566435 0.238264
O O12 0.267905 0.185304 0.501756
O O13 0.000000 0.144978 0.544294
O O14 0.500000 0.597879 0.785462
O O15 0.196979 0.565153 0.776338
O O16 0.281117 0.681862 0.821763
O O17 0.000000 0.500000 0.870421
O O18 0.247729 0.209483 0.908430
O O19 0.000000 0.145741 0.902620
O O20 0.500000 0.729251 0.921646
#
# Coordination Sequence:
#
# PCOD8180234 Si02
#       8
#     8   4   8   8   8   4   8   8
#     4  10  21  40  66  93 123 159 199 253 313 365
#     4  12  22  34  54  87 128 165 198 243 304 366
#     4   9  19  38  64  92 121 154 195 254 318 356
#     4  11  21  37  63  93 122 156 201 253 307 365
#     4  10  21  39  62  88 123 162 198 249 311 367
#     4  12  22  32  56  91 124 159 200 251 298 360
#     4  11  24  42  63  86 121 165 210 257 301 360
#     4  11  24  41  61  87 125 167 204 245 303 375
#
# _framework density 20.544450999999999
#
# number of rings (size 3 to 8) (size 9 to 14) (size 15 to 20)
#    0.000    1.429    2.857    3.000    0.000    3.143 
#    0.000    5.714    0.000    0.000    0.000    0.000 
#    0.000    0.000    0.000    0.000    0.000    0.000 
#
# Total GULP energy -346927.871927 kJ/mol
# GULP energy per Si atom -12390.281140 kJ/mol
# Density = 2.049769 g / cm^3
# Si number density = 20.544451 Si / 1000 Ang^3
#
#
#
# Elastic Constant Matrix: (Units=GPa)
#
#
# Indices 1 2 3 4 5 6 
#
# 1 50.6300 19.0849 27.0893 0.0000 0.0000 0.0000
# 2 19.0849 100.9014 47.3228 0.0000 0.0000 0.0000
# 3 27.0893 47.3228 136.9222 0.0000 0.0000 0.0000
# 4 0.0000 0.0000 0.0000 30.4637 0.0000 0.0000
# 5 0.0000 0.0000 0.0000 0.0000 26.8793 0.0000
# 6 0.0000 0.0000 0.0000 0.0000 0.0000 -30.3947
#
#
#
# Elastic Compliance Matrix: (Units=1/GPa)
#
#
# Indices 1 2 3 4 5 6 
#
# 1 0.022649 -0.002605 -0.003581 0.000000 0.000000 0.000000
# 2 -0.002605 0.012127 -0.003676 0.000000 0.000000 0.000000
# 3 -0.003581 -0.003676 0.009282 0.000000 0.000000 0.000000
# 4 0.000000 0.000000 0.000000 0.032826 0.000000 0.000000
# 5 0.000000 0.000000 0.000000 0.000000 0.037203 0.000000
# 6 0.000000 0.000000 0.000000 0.000000 0.000000 -0.032901
#
#
# Mechanical properties :
#
#
# Convention : Reuss Voigt Hill
#
# Bulk Modulus (GPa) = 41.09189 52.82751 46.95970
# Shear Modulus (GPa) = 45.86225 18.38678 32.12451
#
# Velocity S-wave (km/s) = 4.72989 2.99486 3.95860
# Velocity P-wave (km/s) = 7.06216 6.14235 6.61825
#
# Compressibility (1/GPa) = 0.02433570
#
# Stress axis : x y z
#
# Youngs Moduli (GPa) = 44.15255 82.45780 107.73071
#
# Poissons Ratio (x) = 0.21476 0.38576
# Poissons Ratio (y) = 0.11500 0.39604
# Poissons Ratio (z) = 0.15810 0.30313
#
# Static dielectric constant tensor:
#      x y z
#    x 3.538740 0.000000 0.000000 
#    y 0.000000 3.579120 0.000000 
#    z 0.000000 0.000000 4.180070 
# 
# 
# High freq. dielectric constant tensor:
#      x y z
#    x 1.792650 0.000000 0.000000 
#    y 0.000000 1.791340 0.000000 
#    z 0.000000 0.000000 1.816560 
# 
# From -- ./inp_files/12526.got.cif
#   From: 2010.03.12/outbox.cif.g09.slc.cpg/sg38_7_cif.got.tgz:12526.got - 2010.04.14 02:38:36.
