data_PCOD8180054
_publ_section_title
;
Structure prediction by ZEFSAII (Michael W. Deem and Ramdas Pophale) SiO2 
 PCOD8180054
Probable space group: A M M 2
;
_chemical_formula_sum "Si O2"
_cell_formula_units_Z 64
_cell_length_a 13.980333
_cell_length_b 8.893461
_cell_length_c 26.070799
_cell_angle_alpha 90.000000
_cell_angle_beta 90.000000
_cell_angle_gamma 90.000000
_cell_volume 3241.474895
_symmetry_space_group_name_H-M "A M M 2"
_symmetry_group_IT_number 38
_symmetry_cell_setting 'orthorhombic'
loop_
_space_group_symop_operation_xyz
x,y,z
-x,-y,z
-x,y,z
x,-y,z
x,1/2+y,1/2+z
-x,1/2-y,1/2+z
-x,1/2+y,1/2+z
x,1/2-y,1/2+z
loop_
_atom_site_type_symbol
_atom_site_label
_atom_site_fract_x
_atom_site_fract_y
_atom_site_fract_z
Si Si1 0.287649 0.322592 0.545630
Si Si2 0.113271 0.333407 0.686027
Si Si3 0.707031 0.678305 0.846669
Si Si4 0.612024 0.324091 0.949936
Si Si5 0.104898 0.178257 0.298156
Si Si6 0.386992 0.671044 0.743849
Si Si7 0.613462 0.672598 0.141111
Si Si8 0.109207 0.823591 0.583818
O O1 0.282328 0.500000 0.543815
O O2 0.347359 0.265031 0.497710
O O3 0.340272 0.270855 0.596832
O O4 0.179425 0.257094 0.543456
O O5 0.154528 0.500000 0.673417
O O6 0.147279 0.274168 0.742078
O O7 0.144584 0.219510 0.641214
O O8 0.000000 0.342644 0.689617
O O9 0.694697 0.500000 0.847632
O O10 0.663144 0.742681 0.899079
O O11 0.818786 0.727456 0.841548
O O12 0.651305 0.741502 0.797019
O O13 0.500000 0.293204 0.944739
O O14 0.633512 0.500000 0.957698
O O15 0.000000 0.250201 0.309819
O O16 0.094381 0.000000 0.297202
O O17 0.500000 0.678761 0.746045
O O18 0.350712 0.500000 0.736946
O O19 0.347897 0.766516 0.695673
O O20 0.500000 0.690957 0.137492
O O21 0.644745 0.500000 0.134380
O O22 0.000000 0.769462 0.574120
O O23 0.118236 0.000000 0.576642
#
# Coordination Sequence:
#
# PCOD8180054 Si02
#       8
#     8   8   8   8   8   8   8   8
#     4  12  25  39  59  83 110 147 193 241 290 346
#     4   8  14  26  46  74 110 151 190 227 269 319
#     4   9  17  30  52  79 108 146 192 235 284 341
#     4  10  21  39  61  83 110 146 191 247 302 348
#     4   8  14  25  44  75 113 147 184 229 271 321
#     4   9  17  30  50  79 112 144 182 227 277 339
#     4  10  21  37  56  81 115 150 184 231 293 354
#     4  10  21  37  57  83 116 151 189 233 282 339
#
# _framework density 19.744098999999999
#
# number of rings (size 3 to 8) (size 9 to 14) (size 15 to 20)
#    0.000    2.500    0.000    3.375    1.750    4.750 
#    0.000    1.250    0.000    4.500    0.000    0.000 
#    0.000    0.000    0.000    0.000    0.000    0.000 
#
# Total GULP energy -396702.814327 kJ/mol
# GULP energy per Si atom -12396.962948 kJ/mol
# Density = 1.969916 g / cm^3
# Si number density = 19.744099 Si / 1000 Ang^3
#
#
#
# Elastic Constant Matrix: (Units=GPa)
#
#
# Indices 1 2 3 4 5 6 
#
# 1 70.2244 37.7359 55.1614 0.0000 0.0000 0.0000
# 2 37.7359 70.7764 33.5032 0.0000 0.0000 0.0000
# 3 55.1614 33.5032 109.6743 0.0000 0.0000 0.0000
# 4 0.0000 0.0000 0.0000 24.4060 0.0000 0.0000
# 5 0.0000 0.0000 0.0000 0.0000 37.6142 0.0000
# 6 0.0000 0.0000 0.0000 0.0000 0.0000 20.1100
#
#
#
# Elastic Compliance Matrix: (Units=1/GPa)
#
#
# Indices 1 2 3 4 5 6 
#
# 1 0.028348 -0.009779 -0.011270 0.000000 0.000000 0.000000
# 2 -0.009779 0.019891 -0.001158 0.000000 0.000000 0.000000
# 3 -0.011270 -0.001158 0.015140 0.000000 0.000000 0.000000
# 4 0.000000 0.000000 0.000000 0.040973 0.000000 0.000000
# 5 0.000000 0.000000 0.000000 0.000000 0.026586 0.000000
# 6 0.000000 0.000000 0.000000 0.000000 0.000000 0.049726
#
#
# Mechanical properties :
#
#
# Convention : Reuss Voigt Hill
#
# Bulk Modulus (GPa) = 52.73081 55.94178 54.33629
# Shear Modulus (GPa) = 21.60749 24.71103 23.15926
#
# Velocity S-wave (km/s) = 3.31173 3.54158 3.42858
# Velocity P-wave (km/s) = 6.43339 6.71704 6.57675
#
# Compressibility (1/GPa) = 0.01896425
#
# Stress axis : x y z
#
# Youngs Moduli (GPa) = 35.27580 50.27380 66.04971
#
# Poissons Ratio (x) = 0.49164 0.74441
# Poissons Ratio (y) = 0.34497 0.07647
# Poissons Ratio (z) = 0.39757 0.05820
#
# Static dielectric constant tensor:
#      x y z
#    x 3.872900 0.000000 0.000000 
#    y 0.000000 3.306660 0.000000 
#    z 0.000000 0.000000 3.721760 
# 
# 
# High freq. dielectric constant tensor:
#      x y z
#    x 1.787400 0.000000 0.000000 
#    y 0.000000 1.731770 0.000000 
#    z 0.000000 0.000000 1.757940 
# 
# From -- ./inp_files/23009.got.cif
#   From: 2010.03.12/outbox.cif.g09.slc.cpg/sg38_12_cif.got.tgz:23009.got - 2010.04.14 02:38:36.
