data_PCOD8180739
_publ_section_title
;
Structure prediction by ZEFSAII (Michael W. Deem and Ramdas Pophale) SiO2 
 PCOD8180739
Probable space group: A B M 2
;
_chemical_formula_sum "Si O2"
_cell_formula_units_Z 64
_cell_length_a 20.703307
_cell_length_b 9.087766
_cell_length_c 18.643824
_cell_angle_alpha 90.000000
_cell_angle_beta 90.000000
_cell_angle_gamma 90.000000
_cell_volume 3507.776001
_symmetry_space_group_name_H-M "A B M 2"
_symmetry_group_IT_number 39
_symmetry_cell_setting 'orthorhombic'
loop_
_space_group_symop_operation_xyz
x,y,z
-x,-y,z
-x,1/2+y,z
x,1/2-y,z
x,1/2+y,1/2+z
-x,1/2-y,1/2+z
-x,y,1/2+z
x,-y,1/2+z
loop_
_atom_site_type_symbol
_atom_site_label
_atom_site_fract_x
_atom_site_fract_y
_atom_site_fract_z
Si Si1 0.678539 0.921880 0.992760
Si Si2 0.940380 0.911032 0.074559
Si Si3 0.061832 0.584684 0.744838
Si Si4 0.686508 0.075983 0.329809
Si Si5 0.800384 0.422789 0.589181
Si Si6 0.565098 0.077344 0.241374
Si Si7 0.434600 0.577332 0.076001
Si Si8 0.192884 0.074664 0.737546
O O1 0.660436 0.750000 0.997267
O O2 0.684879 0.978216 0.911504
O O3 0.746333 0.954581 0.030657
O O4 0.623767 0.016550 0.029791
O O5 0.947193 0.750000 0.041072
O O6 0.945882 0.907430 0.159899
O O7 0.869316 0.975187 0.055497
O O8 0.000000 0.000000 0.040413
O O9 0.065306 0.750000 0.776681
O O10 0.126251 0.495527 0.765154
O O11 0.000000 0.500000 0.778069
O O12 0.683964 0.250000 0.325510
O O13 0.624407 0.012672 0.287561
O O14 0.752333 0.021748 0.292985
O O15 0.804944 0.250000 0.610174
O O16 0.785238 0.515865 0.660009
O O17 0.556015 0.250000 0.252743
O O18 0.579234 0.038647 0.158715
O O19 0.500000 0.000000 0.268578
O O20 0.500000 0.500000 0.049563
O O21 0.441690 0.750000 0.063270
O O22 0.185298 0.250000 0.733824
#
# Coordination Sequence:
#
# PCOD8180739 Si02
#       8
#     8   8   8   8   8   8   8   8
#     4  10  20  35  53  72  99 134 169 206 248 294
#     4   8  14  24  39  63  92 119 151 193 240 286
#     4   9  16  27  44  70 101 129 162 205 252 300
#     4   9  19  34  51  72  99 132 167 203 246 294
#     4   9  18  31  48  71  98 129 165 206 252 300
#     4   9  18  34  54  75  99 126 160 201 243 291
#     4  10  20  35  55  78 102 128 160 200 245 295
#     4  10  18  30  50  73  98 131 169 208 250 296
#
# _framework density 18.245177999999999
#
# number of rings (size 3 to 8) (size 9 to 14) (size 15 to 20)
#    0.000    2.750    0.000    2.625    0.000    5.500 
#    0.000    4.375    0.000    0.750    0.000    1.750 
#    0.000    0.000    0.000    0.000    0.000    0.000 
#
# Total GULP energy -396737.242400 kJ/mol
# GULP energy per Si atom -12398.038825 kJ/mol
# Density = 1.820365 g / cm^3
# Si number density = 18.245178 Si / 1000 Ang^3
#
#
#
# Elastic Constant Matrix: (Units=GPa)
#
#
# Indices 1 2 3 4 5 6 
#
# 1 182.4789 63.7021 76.4741 0.0000 0.0000 0.0000
# 2 63.7021 76.8354 38.9791 0.0000 0.0000 0.0000
# 3 76.4741 38.9791 81.0575 0.0000 0.0000 0.0000
# 4 0.0000 0.0000 0.0000 15.2170 0.0000 0.0000
# 5 0.0000 0.0000 0.0000 0.0000 0.2164 0.0000
# 6 0.0000 0.0000 0.0000 0.0000 0.0000 34.3599
#
#
#
# Elastic Compliance Matrix: (Units=1/GPa)
#
#
# Indices 1 2 3 4 5 6 
#
# 1 0.010220 -0.004737 -0.007364 0.000000 0.000000 0.000000
# 2 -0.004737 0.019410 -0.004865 0.000000 0.000000 0.000000
# 3 -0.007364 -0.004865 0.021624 0.000000 0.000000 0.000000
# 4 0.000000 0.000000 0.000000 0.065716 0.000000 0.000000
# 5 0.000000 0.000000 0.000000 0.000000 4.621913 0.000000
# 6 0.000000 0.000000 0.000000 0.000000 0.000000 0.029104
#
#
# Mechanical properties :
#
#
# Convention : Reuss Voigt Hill
#
# Bulk Modulus (GPa) = 57.72930 77.63136 67.68033
# Shear Modulus (GPa) = 1.04000 20.70642 10.87321
#
# Velocity S-wave (km/s) = 0.75581 3.37248 2.44386
# Velocity P-wave (km/s) = 5.69835 7.60304 6.71853
#
# Compressibility (1/GPa) = 0.01732223
#
# Stress axis : x y z
#
# Youngs Moduli (GPa) = 97.84750 51.51923 46.24532
#
# Poissons Ratio (x) = 0.24406 0.34055
# Poissons Ratio (y) = 0.46353 0.22496
# Poissons Ratio (z) = 0.72055 0.25062
#
# Static dielectric constant tensor:
#      x y z
#    x 3.739410 0.000000 0.000000 
#    y 0.000000 3.343700 0.000000 
#    z 0.000000 0.000000 3.116540 
# 
# 
# High freq. dielectric constant tensor:
#      x y z
#    x 1.727990 0.000000 0.000000 
#    y 0.000000 1.697840 0.000000 
#    z 0.000000 0.000000 1.668520 
# 
# From -- ./inp_files/13129.got.cif
#   From: 2010.03.12/outbox.cif.g09.slc.cpg/sg39_7_cif.got.tgz:13129.got - 2010.04.14 02:53:20.
