data_PCOD8180732
_publ_section_title
;
Structure prediction by ZEFSAII (Michael W. Deem and Ramdas Pophale) SiO2 
 PCOD8180732
Probable space group: A B M 2
;
_chemical_formula_sum "Si O2"
_cell_formula_units_Z 64
_cell_length_a 14.295907
_cell_length_b 8.812894
_cell_length_c 30.944448
_cell_angle_alpha 90.000000
_cell_angle_beta 90.000000
_cell_angle_gamma 90.000000
_cell_volume 3898.638801
_symmetry_space_group_name_H-M "A B M 2"
_symmetry_group_IT_number 39
_symmetry_cell_setting 'orthorhombic'
loop_
_space_group_symop_operation_xyz
x,y,z
-x,-y,z
-x,1/2+y,z
x,1/2-y,z
x,1/2+y,1/2+z
-x,1/2-y,1/2+z
-x,y,1/2+z
x,-y,1/2+z
loop_
_atom_site_type_symbol
_atom_site_label
_atom_site_fract_x
_atom_site_fract_y
_atom_site_fract_z
Si Si1 0.896843 0.569098 0.425540
Si Si2 0.222001 0.427821 0.756413
Si Si3 0.404882 0.071418 0.228776
Si Si4 0.898583 0.570778 0.839402
Si Si5 0.594464 0.572441 0.130230
Si Si6 0.100308 0.571328 0.175788
Si Si7 0.899404 0.072332 0.511574
Si Si8 0.793122 0.073925 0.598511
O O1 0.896563 0.750000 0.424832
O O2 0.849459 0.503028 0.381994
O O3 0.850564 0.506462 0.469731
O O4 0.000000 0.500000 0.426040
O O5 0.240771 0.250000 0.753380
O O6 0.320515 0.513046 0.758281
O O7 0.166122 0.471879 0.799280
O O8 0.165123 0.486567 0.714832
O O9 0.411703 0.250000 0.232215
O O10 0.389137 0.016402 0.179369
O O11 0.500000 0.000000 0.247279
O O12 0.909528 0.750000 0.845811
O O13 0.000000 0.500000 0.830785
O O14 0.500000 0.500000 0.110590
O O15 0.579307 0.750000 0.128771
O O16 0.684662 0.522767 0.102193
O O17 0.088724 0.750000 0.176656
O O18 0.143268 0.522840 0.130354
O O19 0.000000 0.500000 0.182620
O O20 0.914585 0.250000 0.502849
O O21 0.827542 0.042075 0.550251
O O22 0.000000 0.000000 0.522822
O O23 0.803777 0.250000 0.611379
#
# Coordination Sequence:
#
# PCOD8180732 Si02
#       8
#     8   8   8   8   8   8   8   8
#     4  10  18  30  48  69  94 122 158 199 241 287
#     4  10  21  34  48  70  97 128 165 200 238 286
#     4  10  19  32  52  71  95 125 160 204 246 287
#     4  10  19  32  49  70  98 129 163 201 240 286
#     4   9  18  32  49  70  93 122 158 200 243 282
#     4  11  22  33  46  65  95 132 166 197 232 276
#     4  10  19  31  48  68  95 127 160 198 237 283
#     4  10  20  34  49  69  96 127 164 199 238 285
#
# _framework density 16.415987000000001
#
# number of rings (size 3 to 8) (size 9 to 14) (size 15 to 20)
#    0.000    2.000    1.250    4.875    0.000    4.500 
#    0.000    0.000    0.000    0.000    0.000    0.875 
#    0.000    2.000    0.000    0.000    0.000    0.000 
#
# Total GULP energy -396802.330100 kJ/mol
# GULP energy per Si atom -12400.072816 kJ/mol
# Density = 1.637862 g / cm^3
# Si number density = 16.415987 Si / 1000 Ang^3
#
#
#
# Elastic Constant Matrix: (Units=GPa)
#
#
# Indices 1 2 3 4 5 6 
#
# 1 113.1595 44.7465 52.8365 0.0000 0.0000 0.0000
# 2 44.7465 80.6578 50.2918 0.0000 0.0000 0.0000
# 3 52.8365 50.2918 111.0426 0.0000 0.0000 0.0000
# 4 0.0000 0.0000 0.0000 24.9815 0.0000 0.0000
# 5 0.0000 0.0000 0.0000 0.0000 8.3826 0.0000
# 6 0.0000 0.0000 0.0000 0.0000 0.0000 27.1650
#
#
#
# Elastic Compliance Matrix: (Units=1/GPa)
#
#
# Indices 1 2 3 4 5 6 
#
# 1 0.012417 -0.004466 -0.003886 0.000000 0.000000 0.000000
# 2 -0.004466 0.018883 -0.006427 0.000000 0.000000 0.000000
# 3 -0.003886 -0.006427 0.013765 0.000000 0.000000 0.000000
# 4 0.000000 0.000000 0.000000 0.040030 0.000000 0.000000
# 5 0.000000 0.000000 0.000000 0.000000 0.119295 0.000000
# 6 0.000000 0.000000 0.000000 0.000000 0.000000 0.036812
#
#
# Mechanical properties :
#
#
# Convention : Reuss Voigt Hill
#
# Bulk Modulus (GPa) = 64.48306 66.73438 65.60872
# Shear Modulus (GPa) = 18.12051 22.57148 20.34599
#
# Velocity S-wave (km/s) = 3.32600 3.71208 3.52433
# Velocity P-wave (km/s) = 7.35633 7.68850 7.52425
#
# Compressibility (1/GPa) = 0.01550795
#
# Stress axis : x y z
#
# Youngs Moduli (GPa) = 80.53208 52.95719 72.64539
#
# Poissons Ratio (x) = 0.23650 0.28229
# Poissons Ratio (y) = 0.35965 0.46692
# Poissons Ratio (z) = 0.31294 0.34037
#
# Static dielectric constant tensor:
#      x y z
#    x 3.043540 0.000000 0.000000 
#    y 0.000000 3.147830 0.000000 
#    z 0.000000 0.000000 3.429700 
# 
# 
# High freq. dielectric constant tensor:
#      x y z
#    x 1.610320 0.000000 0.000000 
#    y 0.000000 1.644230 0.000000 
#    z 0.000000 0.000000 1.623990 
# 
# From -- ./inp_files/17979.got.cif
#   From: 2010.03.12/outbox.cif.g09.slc.cpg/sg39_9_cif.got.tgz:17979.got - 2010.04.14 02:53:20.
