data_PCOD8180085
_publ_section_title
;
Structure prediction by ZEFSAII (Michael W. Deem and Ramdas Pophale) SiO2 
 PCOD8180085
Probable space group: A M M 2
;
_chemical_formula_sum "Si O2"
_cell_formula_units_Z 48
_cell_length_a 9.234742
_cell_length_b 23.042149
_cell_length_c 11.698804
_cell_angle_alpha 90.000000
_cell_angle_beta 90.000000
_cell_angle_gamma 90.000000
_cell_volume 2489.368629
_symmetry_space_group_name_H-M "A M M 2"
_symmetry_group_IT_number 38
_symmetry_cell_setting 'orthorhombic'
loop_
_space_group_symop_operation_xyz
x,y,z
-x,-y,z
-x,y,z
x,-y,z
x,1/2+y,1/2+z
-x,1/2-y,1/2+z
-x,1/2+y,1/2+z
x,1/2-y,1/2+z
loop_
_atom_site_type_symbol
_atom_site_label
_atom_site_fract_x
_atom_site_fract_y
_atom_site_fract_z
Si Si1 0.666097 0.342797 0.014860
Si Si2 0.159236 0.566175 0.401436
Si Si3 0.668726 0.566429 0.826957
Si Si4 0.828699 0.728707 0.457166
Si Si5 0.835634 0.127231 0.126856
Si Si6 0.332948 0.156397 0.779526
O O1 0.500000 0.323620 0.995300
O O2 0.771058 0.293150 0.969971
O O3 0.701612 0.350436 0.147011
O O4 0.697752 0.403569 0.949983
O O5 0.166978 0.500000 0.369250
O O6 0.178578 0.574832 0.536852
O O7 0.289572 0.595257 0.333871
O O8 0.000000 0.591998 0.367362
O O9 0.500000 0.564010 0.798718
O O10 0.731120 0.500000 0.827563
O O11 0.739254 0.609293 0.734154
O O12 0.782221 0.686726 0.563409
O O13 0.763390 0.706187 0.337579
O O14 0.000000 0.729716 0.445350
O O15 0.000000 0.135213 0.169954
O O16 0.500000 0.169983 0.803849
#
# Coordination Sequence:
#
# PCOD8180085 Si02
#       6
#     8   8   8   8   8   8
#     4  10  23  40  58  82 114 153 192 238 290 345
#     4   9  18  34  56  82 114 150 188 234 286 337
#     4  10  22  39  58  83 117 156 195 236 286 343
#     4  10  22  39  60  85 115 148 189 241 297 352
#     4   9  19  36  57  84 114 147 187 236 287 336
#     4  10  21  37  57  83 113 146 189 237 288 348
#
# _framework density 19.281998000000002
#
# number of rings (size 3 to 8) (size 9 to 14) (size 15 to 20)
#    0.000    2.333    0.000    2.500    2.333    7.333 
#    0.000    1.667    0.000    0.000    0.000    0.000 
#    0.000    0.000    0.000    0.000    0.000    0.000 
#
# Total GULP energy -297511.539106 kJ/mol
# GULP energy per Si atom -12396.314129 kJ/mol
# Density = 1.923811 g / cm^3
# Si number density = 19.281998 Si / 1000 Ang^3
#
#
#
# Elastic Constant Matrix: (Units=GPa)
#
#
# Indices 1 2 3 4 5 6 
#
# 1 65.6571 35.2106 48.2065 0.0000 0.0000 0.0000
# 2 35.2106 89.9510 36.6201 0.0000 0.0000 0.0000
# 3 48.2065 36.6201 108.9110 0.0000 0.0000 0.0000
# 4 0.0000 0.0000 0.0000 17.0274 0.0000 0.0000
# 5 0.0000 0.0000 0.0000 0.0000 4.3344 0.0000
# 6 0.0000 0.0000 0.0000 0.0000 0.0000 30.5668
#
#
#
# Elastic Compliance Matrix: (Units=1/GPa)
#
#
# Indices 1 2 3 4 5 6 
#
# 1 0.025209 -0.006170 -0.009083 0.000000 0.000000 0.000000
# 2 -0.006170 0.014390 -0.002108 0.000000 0.000000 0.000000
# 3 -0.009083 -0.002108 0.013911 0.000000 0.000000 0.000000
# 4 0.000000 0.000000 0.000000 0.058729 0.000000 0.000000
# 5 0.000000 0.000000 0.000000 0.000000 0.230712 0.000000
# 6 0.000000 0.000000 0.000000 0.000000 0.000000 0.032715
#
#
# Mechanical properties :
#
#
# Convention : Reuss Voigt Hill
#
# Bulk Modulus (GPa) = 53.22481 56.06593 54.64537
# Shear Modulus (GPa) = 12.00047 20.01786 16.00917
#
# Velocity S-wave (km/s) = 2.49743 3.22555 2.88456
# Velocity P-wave (km/s) = 5.99829 6.55837 6.28457
#
# Compressibility (1/GPa) = 0.01878823
#
# Stress axis : x y z
#
# Youngs Moduli (GPa) = 39.66915 69.49113 71.88555
#
# Poissons Ratio (x) = 0.42874 0.65296
# Poissons Ratio (y) = 0.24475 0.15151
# Poissons Ratio (z) = 0.36033 0.14647
#
# Static dielectric constant tensor:
#      x y z
#    x 3.569590 0.000000 0.000000 
#    y 0.000000 3.632770 0.000000 
#    z 0.000000 0.000000 3.477200 
# 
# 
# High freq. dielectric constant tensor:
#      x y z
#    x 1.749170 0.000000 0.000000 
#    y 0.000000 1.752240 0.000000 
#    z 0.000000 0.000000 1.746480 
# 
# From -- ./inp_files/8111.got.cif
#   From: 2010.03.12/outbox.cif.g09.slc.cpg/sg38_5_cif.got.tgz:8111.got - 2010.04.14 02:38:36.
