data_PCOD8180948
_publ_section_title
;
Structure prediction by ZEFSAII (Michael W. Deem and Ramdas Pophale) SiO2 
 PCOD8180948
Probable space group: A B M 2
;
_chemical_formula_sum "Si O2"
_cell_formula_units_Z 64
_cell_length_a 14.031350
_cell_length_b 9.524365
_cell_length_c 25.079794
_cell_angle_alpha 90.000000
_cell_angle_beta 90.000000
_cell_angle_gamma 90.000000
_cell_volume 3351.656117
_symmetry_space_group_name_H-M "A B M 2"
_symmetry_group_IT_number 39
_symmetry_cell_setting 'orthorhombic'
loop_
_space_group_symop_operation_xyz
x,y,z
-x,-y,z
-x,1/2+y,z
x,1/2-y,z
x,1/2+y,1/2+z
-x,1/2-y,1/2+z
-x,y,1/2+z
x,-y,1/2+z
loop_
_atom_site_type_symbol
_atom_site_label
_atom_site_fract_x
_atom_site_fract_y
_atom_site_fract_z
Si Si1 0.093024 0.594583 0.599270
Si Si2 0.287542 0.915948 0.643114
Si Si3 0.707552 0.097326 0.962347
Si Si4 0.402313 0.915256 0.745879
Si Si5 0.733559 0.090372 0.841560
Si Si6 0.108764 0.963596 0.482524
Si Si7 0.403365 0.083287 0.041063
Si Si8 0.906516 0.904815 0.866087
O O1 0.065927 0.750000 0.619600
O O2 0.179198 0.527740 0.634638
O O3 0.133485 0.611286 0.538519
O O4 0.000000 0.500000 0.605463
O O5 0.280900 0.750000 0.640519
O O6 0.332296 0.967334 0.698613
O O7 0.355547 0.968270 0.595744
O O8 0.668472 0.250000 0.981187
O O9 0.687448 0.078475 0.899835
O O10 0.821378 0.097121 0.974657
O O11 0.660822 0.965385 0.991510
O O12 0.425069 0.750000 0.740530
O O13 0.349332 0.952260 0.800676
O O14 0.500000 0.000000 0.742781
O O15 0.768941 0.250000 0.830487
O O16 0.822274 0.984854 0.834948
O O17 0.120677 0.875146 0.428150
O O18 0.000000 0.000000 0.489045
O O19 0.419411 0.250000 0.037977
O O20 0.500000 0.000000 0.035657
O O21 0.922211 0.750000 0.840409
O O22 0.000000 0.000000 0.861004
#
# Coordination Sequence:
#
# PCOD8180948 Si02
#       8
#     8   8   8   8   8   8   8   8
#     4  10  19  33  52  79 113 147 182 219 266 323
#     4   9  19  37  59  81 110 144 180 226 277 330
#     4  10  20  35  54  80 113 148 184 224 273 331
#     4  10  21  40  64  84 105 139 184 237 289 331
#     4   9  20  37  56  80 111 145 184 230 279 332
#     4   9  18  30  49  78 113 149 185 222 264 318
#     4  11  22  37  55  79 109 143 181 224 278 338
#     4  10  19  31  52  81 114 152 190 229 272 324
#
# _framework density 19.095037000000001
#
# number of rings (size 3 to 8) (size 9 to 14) (size 15 to 20)
#    0.000    2.250    1.250    1.500    0.000    8.000 
#    0.000    3.125    0.000    1.500    0.000    0.000 
#    0.000    0.000    0.000    0.000    0.000    0.000 
#
# Total GULP energy -396523.303450 kJ/mol
# GULP energy per Si atom -12391.353233 kJ/mol
# Density = 1.905158 g / cm^3
# Si number density = 19.095037 Si / 1000 Ang^3
#
#
#
# Elastic Constant Matrix: (Units=GPa)
#
#
# Indices 1 2 3 4 5 6 
#
# 1 130.6340 53.0499 65.4918 0.0000 0.0000 0.0000
# 2 53.0499 102.4582 34.9827 0.0000 0.0000 0.0000
# 3 65.4918 34.9827 102.3616 0.0000 0.0000 0.0000
# 4 0.0000 0.0000 0.0000 18.1008 0.0000 0.0000
# 5 0.0000 0.0000 0.0000 0.0000 24.3772 0.0000
# 6 0.0000 0.0000 0.0000 0.0000 0.0000 32.9136
#
#
#
# Elastic Compliance Matrix: (Units=1/GPa)
#
#
# Indices 1 2 3 4 5 6 
#
# 1 0.012765 -0.004326 -0.006689 0.000000 0.000000 0.000000
# 2 -0.004326 0.012515 -0.001510 0.000000 0.000000 0.000000
# 3 -0.006689 -0.001510 0.014565 0.000000 0.000000 0.000000
# 4 0.000000 0.000000 0.000000 0.055246 0.000000 0.000000
# 5 0.000000 0.000000 0.000000 0.000000 0.041022 0.000000
# 6 0.000000 0.000000 0.000000 0.000000 0.000000 0.030383
#
#
# Mechanical properties :
#
#
# Convention : Reuss Voigt Hill
#
# Bulk Modulus (GPa) = 67.58173 71.38918 69.48545
# Shear Modulus (GPa) = 25.44845 27.20695 26.32770
#
# Velocity S-wave (km/s) = 3.65461 3.77877 3.71721
# Velocity P-wave (km/s) = 7.29914 7.51706 7.40890
#
# Compressibility (1/GPa) = 0.01479690
#
# Stress axis : x y z
#
# Youngs Moduli (GPa) = 78.33974 79.90323 68.65878
#
# Poissons Ratio (x) = 0.34562 0.45925
# Poissons Ratio (y) = 0.33886 0.10365
# Poissons Ratio (z) = 0.52400 0.12062
#
# Static dielectric constant tensor:
#      x y z
#    x 3.567550 0.000000 0.000000 
#    y 0.000000 3.332550 0.000000 
#    z 0.000000 0.000000 3.609320 
# 
# 
# High freq. dielectric constant tensor:
#      x y z
#    x 1.746610 0.000000 0.000000 
#    y 0.000000 1.728740 0.000000 
#    z 0.000000 0.000000 1.728320 
# 
# From -- ./inp_files/16275.got.cif
#   From: 2010.03.12/outbox.cif.g09.slc.cpg/sg39_9_cif.got.tgz:16275.got - 2010.04.14 02:53:20.
