data_PCOD8180428
_publ_section_title
;
Structure prediction by ZEFSAII (Michael W. Deem and Ramdas Pophale) SiO2 
 PCOD8180428
Probable space group: A M M 2
;
_chemical_formula_sum "Si O2"
_cell_formula_units_Z 64
_cell_length_a 8.948042
_cell_length_b 19.512235
_cell_length_c 20.770766
_cell_angle_alpha 90.000000
_cell_angle_beta 90.000000
_cell_angle_gamma 90.000000
_cell_volume 3626.498856
_symmetry_space_group_name_H-M "A M M 2"
_symmetry_group_IT_number 38
_symmetry_cell_setting 'orthorhombic'
loop_
_space_group_symop_operation_xyz
x,y,z
-x,-y,z
-x,y,z
x,-y,z
x,1/2+y,1/2+z
-x,1/2-y,1/2+z
-x,1/2+y,1/2+z
x,1/2-y,1/2+z
loop_
_atom_site_type_symbol
_atom_site_label
_atom_site_fract_x
_atom_site_fract_y
_atom_site_fract_z
Si Si1 0.322647 0.215998 0.542640
Si Si2 0.676751 0.703956 0.666551
Si Si3 0.826521 0.577799 0.462416
Si Si4 0.174412 0.714483 0.797841
Si Si5 0.829516 0.576108 0.862456
Si Si6 0.676875 0.707083 0.414872
Si Si7 0.172288 0.922047 0.111301
Si Si8 0.323257 0.074657 0.495523
O O1 0.500000 0.220406 0.542922
O O2 0.259746 0.251034 0.607008
O O3 0.263477 0.254767 0.479062
O O4 0.266872 0.136576 0.541119
O O5 0.500000 0.708723 0.673061
O O6 0.750109 0.734626 0.730603
O O7 0.724303 0.625487 0.655363
O O8 0.792350 0.500000 0.440848
O O9 0.725690 0.627745 0.419189
O O10 0.783171 0.587474 0.536974
O O11 0.000000 0.595132 0.451789
O O12 0.204971 0.633455 0.809131
O O13 0.246759 0.759476 0.853449
O O14 0.000000 0.731291 0.794719
O O15 0.798777 0.500000 0.833478
O O16 0.725219 0.590482 0.923092
O O17 0.000000 0.582246 0.886344
O O18 0.500000 0.712433 0.407138
O O19 0.000000 0.901964 0.122492
O O20 0.200605 0.000000 0.132908
O O21 0.500000 0.073344 0.495477
O O22 0.260763 0.000000 0.518629
#
# Coordination Sequence:
#
# PCOD8180428 Si02
#       8
#     8   8   8   8   8   8   8   8
#     4   9  18  32  51  78 107 133 169 217 270 314
#     4  11  22  36  52  74 106 143 179 223 271 320
#     4   9  18  33  54  81 111 141 176 219 266 319
#     4  11  23  37  52  75 106 144 184 222 267 323
#     4   9  18  32  49  71 101 135 170 209 253 303
#     4  11  20  34  56  81 108 139 177 226 272 318
#     4   9  18  33  52  75 106 142 178 216 260 316
#     4   9  16  29  52  78 103 131 165 207 256 310
#
# _framework density 17.647874999999999
#
# number of rings (size 3 to 8) (size 9 to 14) (size 15 to 20)
#    0.000    2.250    2.500    1.875    0.000    1.500 
#    0.000    3.750    0.000    0.750    0.000    1.750 
#    0.000    0.000    0.000    0.000    0.000    0.000 
#
# Total GULP energy -396741.605189 kJ/mol
# GULP energy per Si atom -12398.175162 kJ/mol
# Density = 1.760771 g / cm^3
# Si number density = 17.647875 Si / 1000 Ang^3
#
#
#
# Elastic Constant Matrix: (Units=GPa)
#
#
# Indices 1 2 3 4 5 6 
#
# 1 59.2878 39.1119 41.9158 0.0000 0.0000 0.0000
# 2 39.1119 108.7566 62.6287 0.0000 0.0000 0.0000
# 3 41.9158 62.6287 118.7350 0.0000 0.0000 0.0000
# 4 0.0000 0.0000 0.0000 23.8192 0.0000 0.0000
# 5 0.0000 0.0000 0.0000 0.0000 25.0824 0.0000
# 6 0.0000 0.0000 0.0000 0.0000 0.0000 25.9607
#
#
#
# Elastic Compliance Matrix: (Units=1/GPa)
#
#
# Indices 1 2 3 4 5 6 
#
# 1 0.024586 -0.005521 -0.005768 0.000000 0.000000 0.000000
# 2 -0.005521 0.014446 -0.005671 0.000000 0.000000 0.000000
# 3 -0.005768 -0.005671 0.013449 0.000000 0.000000 0.000000
# 4 0.000000 0.000000 0.000000 0.041983 0.000000 0.000000
# 5 0.000000 0.000000 0.000000 0.000000 0.039869 0.000000
# 6 0.000000 0.000000 0.000000 0.000000 0.000000 0.038520
#
#
# Mechanical properties :
#
#
# Convention : Reuss Voigt Hill
#
# Bulk Modulus (GPa) = 53.86885 63.78803 58.82844
# Shear Modulus (GPa) = 23.47873 24.51399 23.99636
#
# Velocity S-wave (km/s) = 3.65142 3.73106 3.69145
# Velocity P-wave (km/s) = 6.95469 7.40165 7.18165
#
# Compressibility (1/GPa) = 0.01856361
#
# Stress axis : x y z
#
# Youngs Moduli (GPa) = 40.67282 69.22423 74.35323
#
# Poissons Ratio (x) = 0.38216 0.42883
# Poissons Ratio (y) = 0.22454 0.42164
# Poissons Ratio (z) = 0.23458 0.39255
#
# Static dielectric constant tensor:
#      x y z
#    x 3.141640 0.000000 0.000000 
#    y 0.000000 3.596560 0.000000 
#    z 0.000000 0.000000 3.098860 
# 
# 
# High freq. dielectric constant tensor:
#      x y z
#    x 1.673990 0.000000 0.000000 
#    y 0.000000 1.689520 0.000000 
#    z 0.000000 0.000000 1.655860 
# 
# From -- ./inp_files/17193.got.cif
#   From: 2010.03.12/outbox.cif.g09.slc.cpg/sg38_9_cif.got.tgz:17193.got - 2010.04.14 02:38:36.
