data_PCOD8180318
_publ_section_title
;
Structure prediction by ZEFSAII (Michael W. Deem and Ramdas Pophale) SiO2 
 PCOD8180318
Probable space group: A M M 2
;
_chemical_formula_sum "Si O2"
_cell_formula_units_Z 48
_cell_length_a 14.209639
_cell_length_b 17.552522
_cell_length_c 9.945319
_cell_angle_alpha 90.000000
_cell_angle_beta 90.000000
_cell_angle_gamma 90.000000
_cell_volume 2480.511750
_symmetry_space_group_name_H-M "A M M 2"
_symmetry_group_IT_number 38
_symmetry_cell_setting 'orthorhombic'
loop_
_space_group_symop_operation_xyz
x,y,z
-x,-y,z
-x,y,z
x,-y,z
x,1/2+y,1/2+z
-x,1/2-y,1/2+z
-x,1/2+y,1/2+z
x,1/2-y,1/2+z
loop_
_atom_site_type_symbol
_atom_site_label
_atom_site_fract_x
_atom_site_fract_y
_atom_site_fract_z
Si Si1 0.605015 0.162848 0.482500
Si Si2 0.395497 0.790050 0.191015
Si Si3 0.205929 0.643673 0.652906
Si Si4 0.205277 0.414038 0.942929
Si Si5 0.889054 0.307832 0.153078
Si Si6 0.107778 0.085823 0.896480
O O1 0.500000 0.126157 0.483413
O O2 0.615179 0.219190 0.352887
O O3 0.622328 0.209111 0.619815
O O4 0.683722 0.097668 0.473231
O O5 0.500000 0.820394 0.153711
O O6 0.318961 0.850380 0.138198
O O7 0.180320 0.598119 0.787161
O O8 0.162374 0.727640 0.657159
O O9 0.169477 0.595445 0.528666
O O10 0.178685 0.500000 0.983819
O O11 0.141196 0.354497 0.022282
O O12 0.857855 0.355454 0.283644
O O13 0.000000 0.294215 0.147248
O O14 0.000000 0.102355 0.934923
O O15 0.120411 0.000000 0.841395
#
# Coordination Sequence:
#
# PCOD8180318 Si02
#       6
#     8   8   8   8   8   8
#     4   9  18  34  55  82 113 145 182 225 273 326
#     4   9  18  32  54  84 112 141 180 228 276 322
#     4  11  21  36  60  85 111 143 189 234 269 325
#     4  11  23  37  56  86 118 148 182 227 285 334
#     4  11  23  39  58  81 110 146 189 235 277 327
#     4  10  22  39  57  79 111 150 185 224 281 336
#
# _framework density 19.350845
#
# number of rings (size 3 to 8) (size 9 to 14) (size 15 to 20)
#    0.000    1.833    1.667    2.500    2.333    4.000 
#    0.000    0.000    0.000    1.500    0.000    0.000 
#    0.000    0.000    0.000    0.000    0.000    0.000 
#
# Total GULP energy -297590.759953 kJ/mol
# GULP energy per Si atom -12399.614998 kJ/mol
# Density = 1.930680 g / cm^3
# Si number density = 19.350845 Si / 1000 Ang^3
#
#
#
# Elastic Constant Matrix: (Units=GPa)
#
#
# Indices 1 2 3 4 5 6 
#
# 1 71.7239 15.3366 24.0523 0.0000 0.0000 0.0000
# 2 15.3366 76.1082 12.0331 0.0000 0.0000 0.0000
# 3 24.0523 12.0331 68.8916 0.0000 0.0000 0.0000
# 4 0.0000 0.0000 0.0000 28.3007 0.0000 0.0000
# 5 0.0000 0.0000 0.0000 0.0000 30.0860 0.0000
# 6 0.0000 0.0000 0.0000 0.0000 0.0000 1.3779
#
#
#
# Elastic Compliance Matrix: (Units=1/GPa)
#
#
# Indices 1 2 3 4 5 6 
#
# 1 0.016220 -0.002441 -0.005237 0.000000 0.000000 0.000000
# 2 -0.002441 0.013880 -0.001572 0.000000 0.000000 0.000000
# 3 -0.005237 -0.001572 0.016618 0.000000 0.000000 0.000000
# 4 0.000000 0.000000 0.000000 0.035335 0.000000 0.000000
# 5 0.000000 0.000000 0.000000 0.000000 0.033238 0.000000
# 6 0.000000 0.000000 0.000000 0.000000 0.000000 0.725729
#
#
# Mechanical properties :
#
#
# Convention : Reuss Voigt Hill
#
# Bulk Modulus (GPa) = 35.43680 35.50753 35.47217
# Shear Modulus (GPa) = 5.75423 22.97303 14.36363
#
# Velocity S-wave (km/s) = 1.72629 3.44929 2.72743
# Velocity P-wave (km/s) = 4.72504 5.85258 5.31877
#
# Compressibility (1/GPa) = 0.02821925
#
# Stress axis : x y z
#
# Youngs Moduli (GPa) = 61.65096 72.04836 60.17394
#
# Poissons Ratio (x) = 0.17584 0.31512
# Poissons Ratio (y) = 0.15047 0.09461
# Poissons Ratio (z) = 0.32285 0.11328
#
# Static dielectric constant tensor:
#      x y z
#    x 3.822670 0.000000 0.000000 
#    y 0.000000 3.263850 0.000000 
#    z 0.000000 0.000000 3.652460 
# 
# 
# High freq. dielectric constant tensor:
#      x y z
#    x 1.766010 0.000000 0.000000 
#    y 0.000000 1.727520 0.000000 
#    z 0.000000 0.000000 1.761680 
# 
# From -- ./inp_files/5455.got.cif
#   From: 2010.03.12/outbox.cif.g09.slc.cpg/sg38_3_cif.got.tgz:5455.got - 2010.04.14 02:38:36.
