data_PCOD8180104
_publ_section_title
;
Structure prediction by ZEFSAII (Michael W. Deem and Ramdas Pophale) SiO2 
 PCOD8180104
Probable space group: A M M 2
;
_chemical_formula_sum "Si O2"
_cell_formula_units_Z 64
_cell_length_a 21.155786
_cell_length_b 15.926518
_cell_length_c 9.793102
_cell_angle_alpha 90.000000
_cell_angle_beta 90.000000
_cell_angle_gamma 90.000000
_cell_volume 3299.668266
_symmetry_space_group_name_H-M "A M M 2"
_symmetry_group_IT_number 38
_symmetry_cell_setting 'orthorhombic'
loop_
_space_group_symop_operation_xyz
x,y,z
-x,-y,z
-x,y,z
x,-y,z
x,1/2+y,1/2+z
-x,1/2-y,1/2+z
-x,1/2+y,1/2+z
x,1/2-y,1/2+z
loop_
_atom_site_type_symbol
_atom_site_label
_atom_site_fract_x
_atom_site_fract_y
_atom_site_fract_z
Si Si1 0.346461 0.320506 0.585500
Si Si2 0.430926 0.094691 0.301492
Si Si3 0.850074 0.258582 0.957318
Si Si4 0.331863 0.096898 0.800160
Si Si5 0.926666 0.907531 0.336940
Si Si6 0.426912 0.838882 0.588503
Si Si7 0.073525 0.596036 0.518609
Si Si8 0.233146 0.771171 0.707841
O O1 0.377439 0.358072 0.720109
O O2 0.340664 0.383911 0.459892
O O3 0.389379 0.243108 0.538011
O O4 0.276499 0.297830 0.634641
O O5 0.500000 0.134890 0.269910
O O6 0.418836 0.096706 0.463694
O O7 0.429983 0.000000 0.251154
O O8 0.897323 0.333649 0.924813
O O9 0.791019 0.261088 0.854048
O O10 0.884134 0.167158 0.944484
O O11 0.826541 0.282567 0.108560
O O12 0.396692 0.121828 0.724471
O O13 0.272925 0.144305 0.731501
O O14 0.317029 0.000000 0.782163
O O15 0.914241 0.891155 0.178117
O O16 0.000000 0.906981 0.369879
O O17 0.899067 0.000000 0.376249
O O18 0.500000 0.818488 0.620306
O O19 0.092800 0.500000 0.475593
O O20 0.000000 0.610782 0.482241
#
# Coordination Sequence:
#
# PCOD8180104 Si02
#       8
#     8   8   8   8   8   8   8   8
#     4  11  22  40  59  82 113 154 198 239 290 353
#     4  10  21  37  58  85 113 143 185 236 290 350
#     4  12  21  41  63  89 122 162 206 250 298 362
#     4  11  24  41  60  85 120 155 197 257 309 351
#     4   9  19  37  62  93 125 158 200 247 300 362
#     4  10  21  38  61  87 116 150 190 238 299 363
#     4   9  19  37  63  94 125 160 201 245 302 366
#     4  11  25  40  59  85 119 158 205 245 294 355
#
# _framework density 19.395889
#
# number of rings (size 3 to 8) (size 9 to 14) (size 15 to 20)
#    0.000    1.625    2.500    3.750    1.750    3.750 
#    0.000    1.250    0.000    1.500    0.000    0.000 
#    0.000    0.000    0.000    0.000    0.000    0.000 
#
# Total GULP energy -396765.237767 kJ/mol
# GULP energy per Si atom -12398.913680 kJ/mol
# Density = 1.935174 g / cm^3
# Si number density = 19.395889 Si / 1000 Ang^3
#
#
#
# Elastic Constant Matrix: (Units=GPa)
#
#
# Indices 1 2 3 4 5 6 
#
# 1 77.3842 40.2973 32.5772 0.0000 0.0000 0.0000
# 2 40.2973 104.7441 27.8956 0.0000 0.0000 0.0000
# 3 32.5772 27.8956 77.6849 0.0000 0.0000 0.0000
# 4 0.0000 0.0000 0.0000 -8.1073 0.0000 0.0000
# 5 0.0000 0.0000 0.0000 0.0000 25.8627 0.0000
# 6 0.0000 0.0000 0.0000 0.0000 0.0000 19.4175
#
#
#
# Elastic Compliance Matrix: (Units=1/GPa)
#
#
# Indices 1 2 3 4 5 6 
#
# 1 0.018153 -0.005480 -0.005644 0.000000 0.000000 0.000000
# 2 -0.005480 0.012211 -0.002087 0.000000 0.000000 0.000000
# 3 -0.005644 -0.002087 0.015989 0.000000 0.000000 0.000000
# 4 0.000000 0.000000 0.000000 -0.123346 0.000000 0.000000
# 5 0.000000 0.000000 0.000000 0.000000 0.038666 0.000000
# 6 0.000000 0.000000 0.000000 0.000000 0.000000 0.051500
#
#
# Mechanical properties :
#
#
# Convention : Reuss Voigt Hill
#
# Bulk Modulus (GPa) = 50.17643 51.26149 50.71896
# Shear Modulus (GPa) = 108.13530 18.03745 63.08638
#
# Velocity S-wave (km/s) = 7.47480 3.05284 5.70931
# Velocity P-wave (km/s) = 10.02111 6.23802 8.34672
#
# Compressibility (1/GPa) = 0.01992968
#
# Stress axis : x y z
#
# Youngs Moduli (GPa) = 55.08853 81.89161 62.54393
#
# Poissons Ratio (x) = 0.44881 0.35302
# Poissons Ratio (y) = 0.30191 0.13051
# Poissons Ratio (z) = 0.31094 0.17088
#
# Static dielectric constant tensor:
#      x y z
#    x 3.673120 0.000000 0.000000 
#    y 0.000000 3.629360 0.000000 
#    z 0.000000 0.000000 3.434040 
# 
# 
# High freq. dielectric constant tensor:
#      x y z
#    x 1.757670 0.000000 0.000000 
#    y 0.000000 1.755870 0.000000 
#    z 0.000000 0.000000 1.753300 
# 
# From -- ./inp_files/6842.got.cif
#   From: 2010.03.12/outbox.cif.g09.slc.cpg/sg38_4_cif.got.tgz:6842.got - 2010.04.14 02:38:36.
