data_PCOD8180697
_publ_section_title
;
Structure prediction by ZEFSAII (Michael W. Deem and Ramdas Pophale) SiO2 
 PCOD8180697
Probable space group: A B M 2
;
_chemical_formula_sum "Si O2"
_cell_formula_units_Z 64
_cell_length_a 12.341497
_cell_length_b 15.579926
_cell_length_c 17.663945
_cell_angle_alpha 90.000000
_cell_angle_beta 90.000000
_cell_angle_gamma 90.000000
_cell_volume 3396.416455
_symmetry_space_group_name_H-M "A B M 2"
_symmetry_group_IT_number 39
_symmetry_cell_setting 'orthorhombic'
loop_
_space_group_symop_operation_xyz
x,y,z
-x,-y,z
-x,1/2+y,z
x,1/2-y,z
x,1/2+y,1/2+z
-x,1/2-y,1/2+z
-x,y,1/2+z
x,-y,1/2+z
loop_
_atom_site_type_symbol
_atom_site_label
_atom_site_fract_x
_atom_site_fract_y
_atom_site_fract_z
Si Si1 0.887778 0.466894 0.429380
Si Si2 0.386645 0.462121 0.732826
Si Si3 0.281368 0.148671 0.859677
Si Si4 0.601644 0.655379 0.590091
Si Si5 0.620343 0.846968 0.021004
Si Si6 0.942437 0.653950 0.068508
Si Si7 0.822710 0.097129 0.046437
Si Si8 0.231757 0.558634 0.639982
O O1 0.824807 0.412237 0.366164
O O2 0.904284 0.405020 0.500347
O O3 0.829389 0.551560 0.463832
O O4 0.000000 0.500000 0.392689
O O5 0.500000 0.500000 0.763614
O O6 0.346931 0.388251 0.789130
O O7 0.408080 0.417145 0.652959
O O8 0.298386 0.540114 0.718496
O O9 0.253216 0.250000 0.847151
O O10 0.351878 0.133350 0.934333
O O11 0.586217 0.750000 0.626363
O O12 0.507614 0.636910 0.529207
O O13 0.715538 0.655248 0.545110
O O14 0.652540 0.750000 0.042479
O O15 0.685233 0.908733 0.076356
O O16 0.904796 0.750000 0.051530
O O17 0.874341 0.621894 0.143654
O O18 0.072167 0.651625 0.071902
O O19 0.815035 0.032301 0.115802
#
# Coordination Sequence:
#
# PCOD8180697 Si02
#       8
#     8   8   8   8   8   8   8   8
#     4   9  18  33  53  82 112 148 186 234 290 340
#     4  11  23  38  53  80 118 155 187 230 297 351
#     4  11  22  38  58  87 115 150 195 242 289 345
#     4  10  20  35  54  80 113 152 189 233 285 342
#     4  10  19  33  59  84 106 139 189 238 279 330
#     4  10  17  30  54  86 114 141 186 242 284 327
#     4   9  18  29  52  82 115 144 183 237 287 326
#     4  10  18  34  54  79 110 143 188 227 279 336
#
# _framework density 18.843389999999999
#
# number of rings (size 3 to 8) (size 9 to 14) (size 15 to 20)
#    0.000    2.000    3.750    2.625    0.000    1.000 
#    0.000    2.500    0.000    0.000    0.000   11.375 
#    0.000    0.000    0.000    0.000    0.000    0.000 
#
# Total GULP energy -396463.868328 kJ/mol
# GULP energy per Si atom -12389.495885 kJ/mol
# Density = 1.880050 g / cm^3
# Si number density = 18.843390 Si / 1000 Ang^3
#
#
#
# Elastic Constant Matrix: (Units=GPa)
#
#
# Indices 1 2 3 4 5 6 
#
# 1 129.2037 43.4421 26.8879 0.0000 0.0000 0.0000
# 2 43.4421 88.0090 27.5233 0.0000 0.0000 0.0000
# 3 26.8879 27.5233 53.9603 0.0000 0.0000 0.0000
# 4 0.0000 0.0000 0.0000 21.0368 0.0000 0.0000
# 5 0.0000 0.0000 0.0000 0.0000 21.0431 0.0000
# 6 0.0000 0.0000 0.0000 0.0000 0.0000 21.9797
#
#
#
# Elastic Compliance Matrix: (Units=1/GPa)
#
#
# Indices 1 2 3 4 5 6 
#
# 1 0.009628 -0.003870 -0.002824 0.000000 0.000000 0.000000
# 2 -0.003870 0.015074 -0.005761 0.000000 0.000000 0.000000
# 3 -0.002824 -0.005761 0.022878 0.000000 0.000000 0.000000
# 4 0.000000 0.000000 0.000000 0.047536 0.000000 0.000000
# 5 0.000000 0.000000 0.000000 0.000000 0.047521 0.000000
# 6 0.000000 0.000000 0.000000 0.000000 0.000000 0.045497
#
#
# Mechanical properties :
#
#
# Convention : Reuss Voigt Hill
#
# Bulk Modulus (GPa) = 44.10774 51.87551 47.99163
# Shear Modulus (GPa) = 22.66551 24.36657 23.51604
#
# Velocity S-wave (km/s) = 3.47195 3.59988 3.53650
# Velocity P-wave (km/s) = 6.28737 6.69839 6.49613
#
# Compressibility (1/GPa) = 0.02267176
#
# Stress axis : x y z
#
# Youngs Moduli (GPa) = 103.85875 66.33925 43.71081
#
# Poissons Ratio (x) = 0.25670 0.12344
# Poissons Ratio (y) = 0.40188 0.25180
# Poissons Ratio (z) = 0.29330 0.38215
#
# Static dielectric constant tensor:
#      x y z
#    x 4.050230 0.000000 0.000000 
#    y 0.000000 3.750200 0.000000 
#    z 0.000000 0.000000 3.024280 
# 
# 
# High freq. dielectric constant tensor:
#      x y z
#    x 1.750510 0.000000 0.000000 
#    y 0.000000 1.741310 0.000000 
#    z 0.000000 0.000000 1.675490 
# 
# From -- ./inp_files/12335.got.cif
#   From: 2010.03.12/outbox.cif.g09.slc.cpg/sg39_7_cif.got.tgz:12335.got - 2010.04.14 02:53:20.
