data_PCOD8180762
_publ_section_title
;
Structure prediction by ZEFSAII (Michael W. Deem and Ramdas Pophale) SiO2 
 PCOD8180762
Probable space group: A B M 2
;
_chemical_formula_sum "Si O2"
_cell_formula_units_Z 56
_cell_length_a 17.917287
_cell_length_b 8.817855
_cell_length_c 19.218962
_cell_angle_alpha 90.000000
_cell_angle_beta 90.000000
_cell_angle_gamma 90.000000
_cell_volume 3036.442989
_symmetry_space_group_name_H-M "A B M 2"
_symmetry_group_IT_number 39
_symmetry_cell_setting 'orthorhombic'
loop_
_space_group_symop_operation_xyz
x,y,z
-x,-y,z
-x,1/2+y,z
x,1/2-y,z
x,1/2+y,1/2+z
-x,1/2-y,1/2+z
-x,y,1/2+z
x,-y,1/2+z
loop_
_atom_site_type_symbol
_atom_site_label
_atom_site_fract_x
_atom_site_fract_y
_atom_site_fract_z
Si Si1 0.078765 0.078038 0.887450
Si Si2 0.812472 0.578149 0.280339
Si Si3 0.580533 0.568718 0.605751
Si Si4 0.305518 0.582303 0.892289
Si Si5 0.572311 0.075382 0.457728
Si Si6 0.796903 0.922320 0.993332
Si Si7 0.264508 0.572435 0.642974
O O1 0.063598 0.250000 0.868489
O O2 0.119139 0.062087 0.962963
O O3 0.126058 0.016634 0.821860
O O4 0.000000 0.000000 0.894424
O O5 0.842517 0.750000 0.276432
O O6 0.732931 0.569886 0.318313
O O7 0.791379 0.514477 0.203964
O O8 0.500000 0.500000 0.632086
O O9 0.575348 0.750000 0.610475
O O10 0.595085 0.514424 0.527148
O O11 0.654623 0.511610 0.646644
O O12 0.339763 0.750000 0.903403
O O13 0.367303 0.451070 0.897630
O O14 0.247375 0.551700 0.953482
O O15 0.561347 0.250000 0.476443
O O16 0.500000 0.000000 0.424946
O O17 0.767604 0.750000 0.977981
O O18 0.785661 0.958560 0.074480
O O19 0.282262 0.750000 0.652010
#
# Coordination Sequence:
#
# PCOD8180762 Si02
#       7
#     8   8   8   8   8   8   8
#     4  10  20  36  58  83 109 141 179 221 269 326
#     4   9  20  36  56  80 110 146 179 217 266 325
#     4  11  21  33  51  77 107 143 185 229 277 323
#     4  10  18  31  50  75 103 134 175 219 265 316
#     4  11  20  31  48  72 101 135 177 226 278 323
#     4   9  18  32  54  79 104 136 175 217 264 317
#     4  10  19  35  56  80 111 145 182 223 273 324
#
# _framework density 18.442632
#
# number of rings (size 3 to 8) (size 9 to 14) (size 15 to 20)
#    0.000    2.000    1.429    4.286    0.000    1.714 
#    0.000    1.429    0.000    1.714    0.000    0.000 
#    0.000    0.000    0.000    0.000    0.000    0.000 
#
# Total GULP energy -346897.756736 kJ/mol
# GULP energy per Si atom -12389.205598 kJ/mol
# Density = 1.840066 g / cm^3
# Si number density = 18.442632 Si / 1000 Ang^3
#
#
#
# Elastic Constant Matrix: (Units=GPa)
#
#
# Indices 1 2 3 4 5 6 
#
# 1 115.4419 50.5795 45.6480 0.0000 0.0000 0.0000
# 2 50.5795 108.7414 36.0681 0.0000 0.0000 0.0000
# 3 45.6480 36.0681 100.9867 0.0000 0.0000 0.0000
# 4 0.0000 0.0000 0.0000 18.2477 0.0000 0.0000
# 5 0.0000 0.0000 0.0000 0.0000 22.4860 0.0000
# 6 0.0000 0.0000 0.0000 0.0000 0.0000 33.3151
#
#
#
# Elastic Compliance Matrix: (Units=1/GPa)
#
#
# Indices 1 2 3 4 5 6 
#
# 1 0.012114 -0.004331 -0.003929 0.000000 0.000000 0.000000
# 2 -0.004331 0.011981 -0.002321 0.000000 0.000000 0.000000
# 3 -0.003929 -0.002321 0.012507 0.000000 0.000000 0.000000
# 4 0.000000 0.000000 0.000000 0.054802 0.000000 0.000000
# 5 0.000000 0.000000 0.000000 0.000000 0.044472 0.000000
# 6 0.000000 0.000000 0.000000 0.000000 0.000000 0.030016
#
#
# Mechanical properties :
#
#
# Convention : Reuss Voigt Hill
#
# Bulk Modulus (GPa) = 64.77031 65.52902 65.14966
# Shear Modulus (GPa) = 26.01457 27.66805 26.84131
#
# Velocity S-wave (km/s) = 3.75983 3.87747 3.81910
# Velocity P-wave (km/s) = 7.35150 7.46021 7.40606
#
# Compressibility (1/GPa) = 0.01543917
#
# Stress axis : x y z
#
# Youngs Moduli (GPa) = 82.55221 83.46762 79.95460
#
# Poissons Ratio (x) = 0.36153 0.31411
# Poissons Ratio (y) = 0.35757 0.18558
# Poissons Ratio (z) = 0.32431 0.19374
#
# Static dielectric constant tensor:
#      x y z
#    x 3.265120 0.000000 0.000000 
#    y 0.000000 3.493160 0.000000 
#    z 0.000000 0.000000 3.334760 
# 
# 
# High freq. dielectric constant tensor:
#      x y z
#    x 1.710070 0.000000 0.000000 
#    y 0.000000 1.722750 0.000000 
#    z 0.000000 0.000000 1.693210 
# 
# From -- ./inp_files/14935.got.cif
#   From: 2010.03.12/outbox.cif.g09.slc.cpg/sg39_8_cif.got.tgz:14935.got - 2010.04.14 02:53:20.
