data_PCOD8180805
_publ_section_title
;
Structure prediction by ZEFSAII (Michael W. Deem and Ramdas Pophale) SiO2 
 PCOD8180805
Probable space group: A B M 2
;
_chemical_formula_sum "Si O2"
_cell_formula_units_Z 40
_cell_length_a 9.804188
_cell_length_b 8.336489
_cell_length_c 25.364723
_cell_angle_alpha 90.000000
_cell_angle_beta 90.000000
_cell_angle_gamma 90.000000
_cell_volume 2073.122360
_symmetry_space_group_name_H-M "A B M 2"
_symmetry_group_IT_number 39
_symmetry_cell_setting 'orthorhombic'
loop_
_space_group_symop_operation_xyz
x,y,z
-x,-y,z
-x,1/2+y,z
x,1/2-y,z
x,1/2+y,1/2+z
-x,1/2-y,1/2+z
-x,y,1/2+z
x,-y,1/2+z
loop_
_atom_site_type_symbol
_atom_site_label
_atom_site_fract_x
_atom_site_fract_y
_atom_site_fract_z
Si Si1 0.348175 0.937348 0.931640
Si Si2 0.149299 0.437076 0.239616
Si Si3 0.144265 0.436901 0.625645
Si Si4 0.654058 0.562783 0.040345
Si Si5 0.650137 0.936150 0.824428
O O1 0.343787 0.750000 0.943767
O O2 0.500000 0.000000 0.923288
O O3 0.277870 0.979493 0.875665
O O4 0.283150 0.027685 0.982159
O O5 0.160855 0.250000 0.252107
O O6 0.183104 0.468408 0.178548
O O7 0.257703 0.533218 0.273869
O O8 0.000000 0.500000 0.254195
O O9 0.132190 0.250000 0.639138
O O10 0.260154 0.465478 0.582808
O O11 0.000000 0.500000 0.603165
O O12 0.500000 0.500000 0.042276
O O13 0.660696 0.750000 0.053122
O O14 0.639532 0.750000 0.837028
O O15 0.500000 0.000000 0.811327
#
# Coordination Sequence:
#
# PCOD8180805 Si02
#       5
#     8   8   8   8   8
#     4  10  18  32  53  80 111 146 181 222 272 326
#     4  11  22  39  59  82 110 146 184 225 274 329
#     4  11  22  39  59  82 110 146 184 225 274 329
#     4  11  21  36  57  84 113 146 184 228 273 323
#     4  11  21  36  57  84 113 146 184 228 273 323
#
# _framework density 19.294568000000002
#
# number of rings (size 3 to 8) (size 9 to 14) (size 15 to 20)
#    0.000    1.200    0.000   12.600    0.000    0.800 
#    0.000    5.000    0.000    0.000    0.000    0.000 
#    0.000    0.000    0.000    0.000    0.000    0.000 
#
# Total GULP energy -248035.271712 kJ/mol
# GULP energy per Si atom -12401.763586 kJ/mol
# Density = 1.925065 g / cm^3
# Si number density = 19.294568 Si / 1000 Ang^3
#
#
#
# Elastic Constant Matrix: (Units=GPa)
#
#
# Indices 1 2 3 4 5 6 
#
# 1 72.2192 9.4242 57.7464 0.0000 0.0000 0.0000
# 2 9.4242 106.7479 4.9066 0.0000 0.0000 0.0000
# 3 57.7464 4.9066 102.5638 0.0000 0.0000 0.0000
# 4 0.0000 0.0000 0.0000 36.8592 0.0000 0.0000
# 5 0.0000 0.0000 0.0000 0.0000 10.5164 0.0000
# 6 0.0000 0.0000 0.0000 0.0000 0.0000 28.7131
#
#
#
# Elastic Compliance Matrix: (Units=1/GPa)
#
#
# Indices 1 2 3 4 5 6 
#
# 1 0.025452 -0.001592 -0.014254 0.000000 0.000000 0.000000
# 2 -0.001592 0.009488 0.000442 0.000000 0.000000 0.000000
# 3 -0.014254 0.000442 0.017754 0.000000 0.000000 0.000000
# 4 0.000000 0.000000 0.000000 0.027130 0.000000 0.000000
# 5 0.000000 0.000000 0.000000 0.000000 0.095090 0.000000
# 6 0.000000 0.000000 0.000000 0.000000 0.000000 0.034827
#
#
# Mechanical properties :
#
#
# Convention : Reuss Voigt Hill
#
# Bulk Modulus (GPa) = 45.68866 47.29838 46.49352
# Shear Modulus (GPa) = 20.17393 29.18131 24.67762
#
# Velocity S-wave (km/s) = 3.23704 3.89319 3.58018
# Velocity P-wave (km/s) = 6.14021 6.69151 6.42178
#
# Compressibility (1/GPa) = 0.02188727
#
# Stress axis : x y z
#
# Youngs Moduli (GPa) = 39.28960 105.39556 56.32428
#
# Poissons Ratio (x) = 0.16777 0.80285
# Poissons Ratio (y) = 0.06254 -0.02492
# Poissons Ratio (z) = 0.56004 -0.04662
#
# Static dielectric constant tensor:
#      x y z
#    x 3.285560 0.000000 0.000000 
#    y 0.000000 3.660780 0.000000 
#    z 0.000000 0.000000 3.885350 
# 
# 
# High freq. dielectric constant tensor:
#      x y z
#    x 1.718390 0.000000 0.000000 
#    y 0.000000 1.775730 0.000000 
#    z 0.000000 0.000000 1.766760 
# 
# From -- ./inp_files/14362.got.cif
#   From: 2010.03.12/outbox.cif.g09.slc.cpg/sg39_8_cif.got.tgz:14362.got - 2010.04.14 02:53:20.
