data_PCOD8180879
_publ_section_title
;
Structure prediction by ZEFSAII (Michael W. Deem and Ramdas Pophale) SiO2 
 PCOD8180879
Probable space group: A B M 2
;
_chemical_formula_sum "Si O2"
_cell_formula_units_Z 56
_cell_length_a 15.263667
_cell_length_b 9.071496
_cell_length_c 25.252899
_cell_angle_alpha 90.000000
_cell_angle_beta 90.000000
_cell_angle_gamma 90.000000
_cell_volume 3496.624835
_symmetry_space_group_name_H-M "A B M 2"
_symmetry_group_IT_number 39
_symmetry_cell_setting 'orthorhombic'
loop_
_space_group_symop_operation_xyz
x,y,z
-x,-y,z
-x,1/2+y,z
x,1/2-y,z
x,1/2+y,1/2+z
-x,1/2-y,1/2+z
-x,y,1/2+z
x,-y,1/2+z
loop_
_atom_site_type_symbol
_atom_site_label
_atom_site_fract_x
_atom_site_fract_y
_atom_site_fract_z
Si Si1 0.905291 0.424299 0.368490
Si Si2 0.585614 0.082891 0.300267
Si Si3 0.238323 0.077371 0.298603
Si Si4 0.910290 0.418560 0.483316
Si Si5 0.415755 0.915273 0.174245
Si Si6 0.093023 0.422789 0.098034
Si Si7 0.242844 0.421172 0.175052
O O1 0.913957 0.250000 0.356720
O O2 0.842654 0.498979 0.326224
O O3 0.861986 0.453334 0.427369
O O4 0.000000 0.500000 0.363723
O O5 0.588566 0.250000 0.322344
O O6 0.581092 0.084159 0.237325
O O7 0.500000 0.000000 0.323256
O O8 0.671601 0.995154 0.319242
O O9 0.240408 0.250000 0.312176
O O10 0.225123 0.048646 0.236498
O O11 0.936608 0.250000 0.483903
O O12 0.863788 0.457706 0.539526
O O13 0.000000 0.500000 0.482300
O O14 0.417124 0.750000 0.151858
O O15 0.500000 0.000000 0.151158
O O16 0.328198 0.994306 0.154173
O O17 0.077256 0.250000 0.105832
O O18 0.160245 0.482218 0.142043
O O19 0.000000 0.500000 0.106192
O O20 0.259383 0.250000 0.163840
#
# Coordination Sequence:
#
# PCOD8180879 Si02
#       7
#     8   8   8   8   8   8   8
#     4  10  19  31  46  64  86 114 147 183 220 259
#     4   9  16  27  43  63  86 114 146 181 217 254
#     4  10  19  30  43  63  91 121 149 177 211 257
#     4   8  15  28  46  64  81 104 140 183 223 256
#     4   9  16  26  42  62  85 113 145 179 214 251
#     4   9  17  30  46  64  86 113 144 180 218 255
#     4   9  18  30  43  62  90 119 146 175 211 256
#
# _framework density 16.015443999999999
#
# number of rings (size 3 to 8) (size 9 to 14) (size 15 to 20)
#    0.000    2.857    0.000    1.714    0.000    5.714 
#    0.000    1.429    0.000    0.000    0.000    1.000 
#    0.000    4.571    0.000    0.000    0.000    0.000 
#
# Total GULP energy -346937.333983 kJ/mol
# GULP energy per Si atom -12390.619071 kJ/mol
# Density = 1.597899 g / cm^3
# Si number density = 16.015444 Si / 1000 Ang^3
#
#
#
# Elastic Constant Matrix: (Units=GPa)
#
#
# Indices 1 2 3 4 5 6 
#
# 1 125.9887 63.0404 53.5467 0.0000 0.0000 0.0000
# 2 63.0404 97.2130 41.2026 0.0000 0.0000 0.0000
# 3 53.5467 41.2026 59.9597 0.0000 0.0000 0.0000
# 4 0.0000 0.0000 0.0000 17.1119 0.0000 0.0000
# 5 0.0000 0.0000 0.0000 0.0000 1.1674 0.0000
# 6 0.0000 0.0000 0.0000 0.0000 0.0000 32.1317
#
#
#
# Elastic Compliance Matrix: (Units=1/GPa)
#
#
# Indices 1 2 3 4 5 6 
#
# 1 0.014669 -0.005587 -0.009260 0.000000 0.000000 0.000000
# 2 -0.005587 0.016642 -0.006446 0.000000 0.000000 0.000000
# 3 -0.009260 -0.006446 0.029377 0.000000 0.000000 0.000000
# 4 0.000000 0.000000 0.000000 0.058439 0.000000 0.000000
# 5 0.000000 0.000000 0.000000 0.000000 0.856594 0.000000
# 6 0.000000 0.000000 0.000000 0.000000 0.000000 0.031122
#
#
# Mechanical properties :
#
#
# Convention : Reuss Voigt Hill
#
# Bulk Modulus (GPa) = 55.24738 66.52675 60.88707
# Shear Modulus (GPa) = 4.73725 18.44032 11.58878
#
# Velocity S-wave (km/s) = 1.72173 3.39692 2.69290
# Velocity P-wave (km/s) = 6.20674 7.55081 6.91153
#
# Compressibility (1/GPa) = 0.01810040
#
# Stress axis : x y z
#
# Youngs Moduli (GPa) = 68.17218 60.08837 34.03988
#
# Poissons Ratio (x) = 0.33574 0.31522
# Poissons Ratio (y) = 0.38091 0.21943
# Poissons Ratio (z) = 0.63129 0.38734
#
# Static dielectric constant tensor:
#      x y z
#    x 2.974750 0.000000 0.000000 
#    y 0.000000 3.175960 0.000000 
#    z 0.000000 0.000000 3.276690 
# 
# 
# High freq. dielectric constant tensor:
#      x y z
#    x 1.602080 0.000000 0.000000 
#    y 0.000000 1.630070 0.000000 
#    z 0.000000 0.000000 1.584610 
# 
# From -- ./inp_files/14727.got.cif
#   From: 2010.03.12/outbox.cif.g09.slc.cpg/sg39_8_cif.got.tgz:14727.got - 2010.04.14 02:53:20.
