data_PCOD8180782
_publ_section_title
;
Structure prediction by ZEFSAII (Michael W. Deem and Ramdas Pophale) SiO2 
 PCOD8180782
Probable space group: A B M 2
;
_chemical_formula_sum "Si O2"
_cell_formula_units_Z 52
_cell_length_a 9.360007
_cell_length_b 13.929000
_cell_length_c 21.419950
_cell_angle_alpha 90.000000
_cell_angle_beta 90.000000
_cell_angle_gamma 90.000000
_cell_volume 2792.637495
_symmetry_space_group_name_H-M "A B M 2"
_symmetry_group_IT_number 39
_symmetry_cell_setting 'orthorhombic'
loop_
_space_group_symop_operation_xyz
x,y,z
-x,-y,z
-x,1/2+y,z
x,1/2-y,z
x,1/2+y,1/2+z
-x,1/2-y,1/2+z
-x,y,1/2+z
x,-y,1/2+z
loop_
_atom_site_type_symbol
_atom_site_label
_atom_site_fract_x
_atom_site_fract_y
_atom_site_fract_z
Si Si1 0.159574 0.027560 0.809340
Si Si2 0.366140 0.146650 0.163737
Si Si3 0.415736 0.595900 0.796923
Si Si4 0.640984 0.856451 0.893031
Si Si5 0.500000 0.000000 0.485879
Si Si6 0.362647 0.861552 0.082327
Si Si7 0.158479 0.472823 0.663948
O O1 0.220159 0.113549 0.852338
O O2 0.165209 0.059733 0.736453
O O3 0.258008 0.933889 0.820916
O O4 0.000000 0.000000 0.829989
O O5 0.310425 0.250000 0.138984
O O6 0.401772 0.161089 0.236414
O O7 0.510391 0.117085 0.129866
O O8 0.248242 0.068095 0.150837
O O9 0.500000 0.500000 0.777351
O O10 0.499888 0.652125 0.850211
O O11 0.669659 0.750000 0.921198
O O12 0.609064 0.934772 0.946023
O O13 0.393663 0.070101 0.523477
O O14 0.353475 0.750000 0.061491
O O15 0.216527 0.889212 0.118495
O O16 0.000000 0.500000 0.643481
#
# Coordination Sequence:
#
# PCOD8180782 Si02
#       7
#     8   8   8   8   4   8   8
#     4   9  18  35  58  83 119 152 176 227 297 350
#     4  10  18  31  55  84 110 142 183 233 291 349
#     4   9  16  31  54  82 112 142 178 234 291 341
#     4  11  21  36  60  85 110 151 196 240 287 337
#     4  12  22  40  58  82 114 150 200 256 282 318
#     4  11  22  37  61  84 110 150 196 241 287 338
#     4  10  20  36  58  85 120 150 179 231 292 356
#
# _framework density 18.62039
#
# number of rings (size 3 to 8) (size 9 to 14) (size 15 to 20)
#    0.000    1.846    3.846    3.692    0.000    2.462 
#    0.000    7.692    0.000    1.846    0.000    0.000 
#    0.000    0.000    0.000    0.000    0.000    0.000 
#
# Total GULP energy -322299.891822 kJ/mol
# GULP energy per Si atom -12396.149685 kJ/mol
# Density = 1.857801 g / cm^3
# Si number density = 18.620390 Si / 1000 Ang^3
#
#
#
# Elastic Constant Matrix: (Units=GPa)
#
#
# Indices 1 2 3 4 5 6 
#
# 1 130.6928 47.9986 38.1660 0.0000 0.0000 0.0000
# 2 47.9986 127.7723 48.7160 0.0000 0.0000 0.0000
# 3 38.1660 48.7160 73.2390 0.0000 0.0000 0.0000
# 4 0.0000 0.0000 0.0000 49.4441 0.0000 0.0000
# 5 0.0000 0.0000 0.0000 0.0000 17.2841 0.0000
# 6 0.0000 0.0000 0.0000 0.0000 0.0000 17.1451
#
#
#
# Elastic Compliance Matrix: (Units=1/GPa)
#
#
# Indices 1 2 3 4 5 6 
#
# 1 0.009484 -0.002249 -0.003446 0.000000 0.000000 0.000000
# 2 -0.002249 0.011019 -0.006158 0.000000 0.000000 0.000000
# 3 -0.003446 -0.006158 0.019546 0.000000 0.000000 0.000000
# 4 0.000000 0.000000 0.000000 0.020225 0.000000 0.000000
# 5 0.000000 0.000000 0.000000 0.000000 0.057857 0.000000
# 6 0.000000 0.000000 0.000000 0.000000 0.000000 0.058326
#
#
# Mechanical properties :
#
#
# Convention : Reuss Voigt Hill
#
# Bulk Modulus (GPa) = 61.18789 66.82949 64.00869
# Shear Modulus (GPa) = 24.31804 29.89621 27.10712
#
# Velocity S-wave (km/s) = 3.61777 4.01130 3.81960
# Velocity P-wave (km/s) = 7.09810 7.57776 7.34185
#
# Compressibility (1/GPa) = 0.01634310
#
# Stress axis : x y z
#
# Youngs Moduli (GPa) = 105.44257 90.75376 51.16209
#
# Poissons Ratio (x) = 0.20407 0.17633
# Poissons Ratio (y) = 0.23710 0.31503
# Poissons Ratio (z) = 0.36341 0.55882
#
# Static dielectric constant tensor:
#      x y z
#    x 3.579480 0.000000 0.000000 
#    y 0.000000 3.349290 0.000000 
#    z 0.000000 0.000000 3.356170 
# 
# 
# High freq. dielectric constant tensor:
#      x y z
#    x 1.708250 0.000000 0.000000 
#    y 0.000000 1.725660 0.000000 
#    z 0.000000 0.000000 1.707720 
# 
# From -- ./inp_files/14026.got.cif
#   From: 2010.03.12/outbox.cif.g09.slc.cpg/sg39_8_cif.got.tgz:14026.got - 2010.04.14 02:53:20.
