data_PCOD8180216
_publ_section_title
;
Structure prediction by ZEFSAII (Michael W. Deem and Ramdas Pophale) SiO2 
 PCOD8180216
Probable space group: A M M 2
;
_chemical_formula_sum "Si O2"
_cell_formula_units_Z 48
_cell_length_a 14.116195
_cell_length_b 17.689887
_cell_length_c 9.046865
_cell_angle_alpha 90.000000
_cell_angle_beta 90.000000
_cell_angle_gamma 90.000000
_cell_volume 2259.127891
_symmetry_space_group_name_H-M "A M M 2"
_symmetry_group_IT_number 38
_symmetry_cell_setting 'orthorhombic'
loop_
_space_group_symop_operation_xyz
x,y,z
-x,-y,z
-x,y,z
x,-y,z
x,1/2+y,1/2+z
-x,1/2-y,1/2+z
-x,1/2+y,1/2+z
x,1/2-y,1/2+z
loop_
_atom_site_type_symbol
_atom_site_label
_atom_site_fract_x
_atom_site_fract_y
_atom_site_fract_z
Si Si1 0.105863 0.847843 0.376780
Si Si2 0.728466 0.152397 0.907952
Si Si3 0.611407 0.806759 0.415244
Si Si4 0.390591 0.417501 0.174837
Si Si5 0.894167 0.197429 0.707301
Si Si6 0.274715 0.086631 0.223367
O O1 0.132909 0.810595 0.534559
O O2 0.110949 0.785258 0.248735
O O3 0.184355 0.909915 0.334385
O O4 0.000000 0.883624 0.382451
O O5 0.677264 0.233626 0.911954
O O6 0.658939 0.092851 0.831800
O O7 0.823458 0.151461 0.810788
O O8 0.755643 0.120764 0.066831
O O9 0.500000 0.785775 0.404375
O O10 0.638075 0.850413 0.565056
O O11 0.637486 0.862725 0.280814
O O12 0.500000 0.413760 0.209106
O O13 0.363357 0.500000 0.107615
O O14 0.000000 0.165755 0.735710
O O15 0.307742 0.000000 0.210716
#
# Coordination Sequence:
#
# PCOD8180216 Si02
#       6
#     8   8   8   8   8   8
#     4  10  21  40  64  94 128 166 213 262 318 381
#     4  12  23  39  65  96 127 164 214 264 312 376
#     4  11  24  42  64  91 123 166 217 267 315 375
#     4  10  22  41  63  87 122 168 211 256 315 376
#     4  10  21  38  66  97 126 163 212 268 319 375
#     4  12  26  41  62  96 135 172 210 262 326 381
#
# _framework density 21.247136000000001
#
# number of rings (size 3 to 8) (size 9 to 14) (size 15 to 20)
#    0.000    1.167    1.667    4.500    0.000    6.000 
#    0.000    0.833    0.000    3.500    0.000    0.000 
#    0.000    0.000    0.000    0.000    0.000    0.000 
#
# Total GULP energy -297607.039683 kJ/mol
# GULP energy per Si atom -12400.293320 kJ/mol
# Density = 2.119878 g / cm^3
# Si number density = 21.247136 Si / 1000 Ang^3
#
#
#
# Elastic Constant Matrix: (Units=GPa)
#
#
# Indices 1 2 3 4 5 6 
#
# 1 86.2584 44.0597 51.7366 0.0000 0.0000 0.0000
# 2 44.0597 92.5831 31.6842 0.0000 0.0000 0.0000
# 3 51.7366 31.6842 121.8443 0.0000 0.0000 0.0000
# 4 0.0000 0.0000 0.0000 8.3006 0.0000 0.0000
# 5 0.0000 0.0000 0.0000 0.0000 33.9155 0.0000
# 6 0.0000 0.0000 0.0000 0.0000 0.0000 16.5762
#
#
#
# Elastic Compliance Matrix: (Units=1/GPa)
#
#
# Indices 1 2 3 4 5 6 
#
# 1 0.018803 -0.006823 -0.006210 0.000000 0.000000 0.000000
# 2 -0.006823 0.014332 -0.000830 0.000000 0.000000 0.000000
# 3 -0.006210 -0.000830 0.011060 0.000000 0.000000 0.000000
# 4 0.000000 0.000000 0.000000 0.120473 0.000000 0.000000
# 5 0.000000 0.000000 0.000000 0.000000 0.029485 0.000000
# 6 0.000000 0.000000 0.000000 0.000000 0.000000 0.060328
#
#
# Mechanical properties :
#
#
# Convention : Reuss Voigt Hill
#
# Bulk Modulus (GPa) = 60.71770 61.73853 61.22811
# Shear Modulus (GPa) = 17.37956 23.30547 20.34252
#
# Velocity S-wave (km/s) = 2.86312 3.31550 3.09758
# Velocity P-wave (km/s) = 6.29038 6.61643 6.45547
#
# Compressibility (1/GPa) = 0.01646966
#
# Stress axis : x y z
#
# Youngs Moduli (GPa) = 53.18413 69.77354 90.41884
#
# Poissons Ratio (x) = 0.47606 0.56146
# Poissons Ratio (y) = 0.36287 0.07503
# Poissons Ratio (z) = 0.33025 0.05790
#
# Static dielectric constant tensor:
#      x y z
#    x 4.033620 0.000000 0.000000 
#    y 0.000000 3.806430 0.000000 
#    z 0.000000 0.000000 3.940990 
# 
# 
# High freq. dielectric constant tensor:
#      x y z
#    x 1.846610 0.000000 0.000000 
#    y 0.000000 1.813460 0.000000 
#    z 0.000000 0.000000 1.842170 
# 
# From -- ./inp_files/5447.got.cif
#   From: 2010.03.12/outbox.cif.g09.slc.cpg/sg38_3_cif.got.tgz:5447.got - 2010.04.14 02:38:36.
