data_PCOD8180217
_publ_section_title
;
Structure prediction by ZEFSAII (Michael W. Deem and Ramdas Pophale) SiO2 
 PCOD8180217
Probable space group: A M M 2
;
_chemical_formula_sum "Si O2"
_cell_formula_units_Z 64
_cell_length_a 8.516852
_cell_length_b 33.084543
_cell_length_c 11.707460
_cell_angle_alpha 90.000000
_cell_angle_beta 90.000000
_cell_angle_gamma 90.000000
_cell_volume 3298.883078
_symmetry_space_group_name_H-M "A M M 2"
_symmetry_group_IT_number 38
_symmetry_cell_setting 'orthorhombic'
loop_
_space_group_symop_operation_xyz
x,y,z
-x,-y,z
-x,y,z
x,-y,z
x,1/2+y,1/2+z
-x,1/2-y,1/2+z
-x,1/2+y,1/2+z
x,1/2-y,1/2+z
loop_
_atom_site_type_symbol
_atom_site_label
_atom_site_fract_x
_atom_site_fract_y
_atom_site_fract_z
Si Si1 0.672416 0.396104 0.333000
Si Si2 0.183156 0.124206 0.277374
Si Si3 0.313435 0.045492 0.651197
Si Si4 0.326122 0.814905 0.705634
Si Si5 0.314245 0.847212 0.040316
Si Si6 0.185152 0.045770 0.409768
Si Si7 0.683466 0.188038 0.448588
Si Si8 0.181167 0.726521 0.412430
O O1 0.500000 0.412006 0.368791
O O2 0.761081 0.431251 0.261359
O O3 0.657048 0.360840 0.241433
O O4 0.756066 0.380174 0.449209
O O5 0.279876 0.137627 0.166630
O O6 0.235714 0.078643 0.313857
O O7 0.217398 0.155678 0.377632
O O8 0.000000 0.125293 0.247316
O O9 0.500000 0.050474 0.651581
O O10 0.252625 0.061831 0.529879
O O11 0.256179 0.000000 0.665403
O O12 0.500000 0.794352 0.710784
O O13 0.257833 0.814187 0.578579
O O14 0.203711 0.792829 0.788052
O O15 0.500000 0.842481 0.020338
O O16 0.238447 0.803550 0.013619
O O17 0.000000 0.045025 0.420745
O O18 0.247080 0.000000 0.379913
O O19 0.500000 0.177866 0.435363
O O20 0.716418 0.233210 0.407628
O O21 0.000000 0.736813 0.433262
#
# Coordination Sequence:
#
# PCOD8180217 Si02
#       8
#     8   8   8   8   8   8   8   8
#     4   8  15  31  53  76 103 136 176 220 267 323
#     4  11  23  38  57  84 114 148 194 243 289 339
#     4   9  16  28  52  84 113 140 176 227 281 333
#     4   9  19  36  56  76 101 139 184 222 267 328
#     4  10  21  39  59  77 107 152 195 233 283 345
#     4   9  19  36  56  80 115 154 187 228 286 346
#     4  11  23  38  59  83 111 146 185 229 280 341
#     4  11  23  38  57  81 112 144 182 233 283 332
#
# _framework density 19.400504999999999
#
# number of rings (size 3 to 8) (size 9 to 14) (size 15 to 20)
#    0.000    2.250    0.000    3.750    1.750    3.000 
#    0.000    5.000    0.000    0.750    0.000    0.000 
#    0.000    0.000    0.000    0.000    0.000    0.000 
#
# Total GULP energy -396629.314531 kJ/mol
# GULP energy per Si atom -12394.666079 kJ/mol
# Density = 1.935635 g / cm^3
# Si number density = 19.400505 Si / 1000 Ang^3
#
#
#
# Elastic Constant Matrix: (Units=GPa)
#
#
# Indices 1 2 3 4 5 6 
#
# 1 34.3936 9.3026 14.2727 0.0000 0.0000 0.0000
# 2 9.3026 86.1306 45.9074 0.0000 0.0000 0.0000
# 3 14.2727 45.9074 102.6024 0.0000 0.0000 0.0000
# 4 0.0000 0.0000 0.0000 25.9680 0.0000 0.0000
# 5 0.0000 0.0000 0.0000 0.0000 22.7879 0.0000
# 6 0.0000 0.0000 0.0000 0.0000 0.0000 21.7018
#
#
#
# Elastic Compliance Matrix: (Units=1/GPa)
#
#
# Indices 1 2 3 4 5 6 
#
# 1 0.030980 -0.001378 -0.003693 0.000000 0.000000 0.000000
# 2 -0.001378 0.015307 -0.006657 0.000000 0.000000 0.000000
# 3 -0.003693 -0.006657 0.013239 0.000000 0.000000 0.000000
# 4 0.000000 0.000000 0.000000 0.038509 0.000000 0.000000
# 5 0.000000 0.000000 0.000000 0.000000 0.043883 0.000000
# 6 0.000000 0.000000 0.000000 0.000000 0.000000 0.046079
#
#
# Mechanical properties :
#
#
# Convention : Reuss Voigt Hill
#
# Bulk Modulus (GPa) = 27.72361 40.23242 33.97802
# Shear Modulus (GPa) = 22.37361 24.33445 23.35403
#
# Velocity S-wave (km/s) = 3.39964 3.54548 3.47332
# Velocity P-wave (km/s) = 5.45263 6.12727 5.79977
#
# Compressibility (1/GPa) = 0.03607034
#
# Stress axis : x y z
#
# Youngs Moduli (GPa) = 32.27845 65.32776 75.53544
#
# Poissons Ratio (x) = 0.08999 0.27897
# Poissons Ratio (y) = 0.04447 0.50287
# Poissons Ratio (z) = 0.11921 0.43491
#
# Static dielectric constant tensor:
#      x y z
#    x 3.333600 0.000000 0.000000 
#    y 0.000000 3.748250 0.000000 
#    z 0.000000 0.000000 3.576350 
# 
# 
# High freq. dielectric constant tensor:
#      x y z
#    x 1.737000 0.000000 0.000000 
#    y 0.000000 1.755480 0.000000 
#    z 0.000000 0.000000 1.755410 
# 
# From -- ./inp_files/8676.got.cif
#   From: 2010.03.12/outbox.cif.g09.slc.cpg/sg38_5_cif.got.tgz:8676.got - 2010.04.14 02:38:36.
