data_PCOD8180363
_publ_section_title
;
Structure prediction by ZEFSAII (Michael W. Deem and Ramdas Pophale) SiO2 
 PCOD8180363
Probable space group: A M M 2
;
_chemical_formula_sum "Si O2"
_cell_formula_units_Z 26
_cell_length_a 7.455009
_cell_length_b 7.776475
_cell_length_c 22.150497
_cell_angle_alpha 90.000000
_cell_angle_beta 90.000000
_cell_angle_gamma 90.000000
_cell_volume 1284.146071
_symmetry_space_group_name_H-M "A M M 2"
_symmetry_group_IT_number 38
_symmetry_cell_setting 'orthorhombic'
loop_
_space_group_symop_operation_xyz
x,y,z
-x,-y,z
-x,y,z
x,-y,z
x,1/2+y,1/2+z
-x,1/2-y,1/2+z
-x,1/2+y,1/2+z
x,1/2-y,1/2+z
loop_
_atom_site_type_symbol
_atom_site_label
_atom_site_fract_x
_atom_site_fract_y
_atom_site_fract_z
Si Si1 0.796624 0.298565 0.688210
Si Si2 0.213714 0.500000 0.406924
Si Si3 0.787440 0.810169 0.323055
Si Si4 0.500000 0.000000 0.008068
Si Si5 0.500000 0.311344 0.099291
O O1 0.784764 0.500000 0.674766
O O2 0.722944 0.260513 0.755721
O O3 0.676032 0.200574 0.640379
O O4 0.000000 0.231856 0.680944
O O5 0.278878 0.331721 0.370374
O O6 0.317253 0.500000 0.469776
O O7 0.000000 0.500000 0.418628
O O8 0.000000 0.816840 0.321640
O O9 0.713182 0.000000 0.341310
O O10 0.500000 0.170494 0.047574
O O11 0.500000 0.500000 0.068825
#
# Coordination Sequence:
#
# PCOD8180363 Si02
#       5
#     8   4   8   2   4
#     4   9  18  37  65  93 126 157 186 246 317 367
#     4  10  22  40  64  86 118 160 197 250 300 352
#     4   8  16  33  60  95 122 145 187 241 306 372
#     4  12  28  46  54  82 122 164 226 248 276 356
#     4  12  26  41  59  85 121 164 212 255 290 352
#
# _framework density 20.246917
#
# number of rings (size 3 to 8) (size 9 to 14) (size 15 to 20)
#    0.000    2.462    1.538    1.846    2.154    4.308 
#    0.000    1.538    0.000    0.000    0.000    0.000 
#    0.000    0.000    0.000    0.000    0.000    0.000 
#
# Total GULP energy -161164.482536 kJ/mol
# GULP energy per Si atom -12397.267887 kJ/mol
# Density = 2.020083 g / cm^3
# Si number density = 20.246917 Si / 1000 Ang^3
#
#
#
# Elastic Constant Matrix: (Units=GPa)
#
#
# Indices 1 2 3 4 5 6 
#
# 1 86.2357 39.4003 47.6473 0.0000 0.0000 0.0000
# 2 39.4003 159.5841 90.8549 0.0000 0.0000 0.0000
# 3 47.6473 90.8549 131.5320 0.0000 0.0000 0.0000
# 4 0.0000 0.0000 0.0000 3.1495 0.0000 0.0000
# 5 0.0000 0.0000 0.0000 0.0000 36.9282 0.0000
# 6 0.0000 0.0000 0.0000 0.0000 0.0000 14.0622
#
#
#
# Elastic Compliance Matrix: (Units=1/GPa)
#
#
# Indices 1 2 3 4 5 6 
#
# 1 0.014590 -0.000978 -0.004610 0.000000 0.000000 0.000000
# 2 -0.000978 0.010393 -0.006825 0.000000 0.000000 0.000000
# 3 -0.004610 -0.006825 0.013987 0.000000 0.000000 0.000000
# 4 0.000000 0.000000 0.000000 0.317507 0.000000 0.000000
# 5 0.000000 0.000000 0.000000 0.000000 0.027080 0.000000
# 6 0.000000 0.000000 0.000000 0.000000 0.000000 0.071112
#
#
# Mechanical properties :
#
#
# Convention : Reuss Voigt Hill
#
# Bulk Modulus (GPa) = 70.69554 81.46187 76.07870
# Shear Modulus (GPa) = 10.32611 24.12461 17.22536
#
# Velocity S-wave (km/s) = 2.26079 3.45559 2.91995
# Velocity P-wave (km/s) = 6.46586 7.49953 7.00180
#
# Compressibility (1/GPa) = 0.01414516
#
# Stress axis : x y z
#
# Youngs Moduli (GPa) = 68.54071 96.21626 71.49545
#
# Poissons Ratio (x) = 0.09407 0.32958
# Poissons Ratio (y) = 0.06701 0.48795
# Poissons Ratio (z) = 0.31596 0.65667
#
# Static dielectric constant tensor:
#      x y z
#    x 3.523370 0.000000 0.000000 
#    y 0.000000 4.189340 0.000000 
#    z 0.000000 0.000000 3.539480 
# 
# 
# High freq. dielectric constant tensor:
#      x y z
#    x 1.787600 0.000000 0.000000 
#    y 0.000000 1.797140 0.000000 
#    z 0.000000 0.000000 1.768290 
# 
# From -- ./inp_files/16096.got.cif
#   From: 2010.03.12/outbox.cif.g09.slc.cpg/sg38_9_cif.got.tgz:16096.got - 2010.04.14 02:38:36.
