data_PCOD8180790
_publ_section_title
;
Structure prediction by ZEFSAII (Michael W. Deem and Ramdas Pophale) SiO2 
 PCOD8180790
Probable space group: A B M 2
;
_chemical_formula_sum "Si O2"
_cell_formula_units_Z 52
_cell_length_a 10.566712
_cell_length_b 9.595745
_cell_length_c 27.124325
_cell_angle_alpha 90.000000
_cell_angle_beta 90.000000
_cell_angle_gamma 90.000000
_cell_volume 2750.283786
_symmetry_space_group_name_H-M "A B M 2"
_symmetry_group_IT_number 39
_symmetry_cell_setting 'orthorhombic'
loop_
_space_group_symop_operation_xyz
x,y,z
-x,-y,z
-x,1/2+y,z
x,1/2-y,z
x,1/2+y,1/2+z
-x,1/2-y,1/2+z
-x,y,1/2+z
x,-y,1/2+z
loop_
_atom_site_type_symbol
_atom_site_label
_atom_site_fract_x
_atom_site_fract_y
_atom_site_fract_z
Si Si1 0.377051 0.416324 0.030230
Si Si2 0.172880 0.400998 0.489488
Si Si3 0.760147 0.909165 0.125107
Si Si4 0.375018 0.413102 0.330835
Si Si5 0.621810 0.587177 0.218548
Si Si6 0.885835 0.907770 0.379168
Si Si7 0.000000 0.000000 0.070890
O O1 0.500000 0.500000 0.013920
O O2 0.393978 0.250000 0.025284
O O3 0.336592 0.471798 0.084541
O O4 0.266695 0.467739 0.993586
O O5 0.243735 0.250000 0.490564
O O6 0.101138 0.416640 0.437957
O O7 0.072485 0.394294 0.534555
O O8 0.725258 0.750000 0.125474
O O9 0.732053 0.964603 0.180518
O O10 0.904344 0.926135 0.108521
O O11 0.500000 0.500000 0.346689
O O12 0.405581 0.250000 0.339090
O O13 0.337213 0.446186 0.274307
O O14 0.253517 0.461499 0.362637
O O15 0.500000 0.500000 0.203348
O O16 0.589947 0.750000 0.212980
O O17 0.903888 0.750000 0.359814
O O18 0.000000 0.000000 0.356232
#
# Coordination Sequence:
#
# PCOD8180790 Si02
#       7
#     8   8   8   8   8   8   4
#     4  10  20  33  50  74 104 135 172 217 264 313
#     4  10  20  34  53  73 101 138 177 216 260 316
#     4   9  18  31  49  73 101 135 174 212 257 308
#     4   9  19  36  58  81 109 141 178 223 272 324
#     4   9  17  33  55  77 103 135 169 211 261 313
#     4  10  21  37  56  82 109 141 182 224 271 322
#     4  10  18  32  50  72 104 138 178 212 258 304
#
# _framework density 18.907139999999998
#
# number of rings (size 3 to 8) (size 9 to 14) (size 15 to 20)
#    0.000    2.462    0.769    1.385    0.000    2.462 
#    1.385    5.385    0.000    0.000    0.000    0.000 
#    0.000    0.000    0.000    0.000    0.000    0.000 
#
# Total GULP energy -322152.005712 kJ/mol
# GULP energy per Si atom -12390.461758 kJ/mol
# Density = 1.886411 g / cm^3
# Si number density = 18.907140 Si / 1000 Ang^3
#
#
#
# Elastic Constant Matrix: (Units=GPa)
#
#
# Indices 1 2 3 4 5 6 
#
# 1 129.6659 51.6932 43.3031 0.0000 0.0000 0.0000
# 2 51.6932 81.8188 22.7009 0.0000 0.0000 0.0000
# 3 43.3031 22.7009 68.7277 0.0000 0.0000 0.0000
# 4 0.0000 0.0000 0.0000 20.3869 0.0000 0.0000
# 5 0.0000 0.0000 0.0000 0.0000 26.8801 0.0000
# 6 0.0000 0.0000 0.0000 0.0000 0.0000 35.2771
#
#
#
# Elastic Compliance Matrix: (Units=1/GPa)
#
#
# Indices 1 2 3 4 5 6 
#
# 1 0.011966 -0.006020 -0.005551 0.000000 0.000000 0.000000
# 2 -0.006020 0.016484 -0.001652 0.000000 0.000000 0.000000
# 3 -0.005551 -0.001652 0.018593 0.000000 0.000000 0.000000
# 4 0.000000 0.000000 0.000000 0.049051 0.000000 0.000000
# 5 0.000000 0.000000 0.000000 0.000000 0.037202 0.000000
# 6 0.000000 0.000000 0.000000 0.000000 0.000000 0.028347
#
#
# Mechanical properties :
#
#
# Convention : Reuss Voigt Hill
#
# Bulk Modulus (GPa) = 48.54883 57.28965 52.91924
# Shear Modulus (GPa) = 25.64708 27.34317 26.49513
#
# Velocity S-wave (km/s) = 3.68703 3.80700 3.74749
# Velocity P-wave (km/s) = 6.62260 7.04916 6.83921
#
# Compressibility (1/GPa) = 0.02059782
#
# Stress axis : x y z
#
# Youngs Moduli (GPa) = 83.57133 60.66569 53.78321
#
# Poissons Ratio (x) = 0.36520 0.29855
# Poissons Ratio (y) = 0.50309 0.08883
# Poissons Ratio (z) = 0.46390 0.10020
#
# Static dielectric constant tensor:
#      x y z
#    x 3.517130 0.000000 0.000000 
#    y 0.000000 3.428390 0.000000 
#    z 0.000000 0.000000 3.655700 
# 
# 
# High freq. dielectric constant tensor:
#      x y z
#    x 1.726540 0.000000 0.000000 
#    y 0.000000 1.725160 0.000000 
#    z 0.000000 0.000000 1.729640 
# 
# From -- ./inp_files/16998.got.cif
#   From: 2010.03.12/outbox.cif.g09.slc.cpg/sg39_9_cif.got.tgz:16998.got - 2010.04.14 02:53:20.
