data_PCOD8180223
_publ_section_title
;
Structure prediction by ZEFSAII (Michael W. Deem and Ramdas Pophale) SiO2 
 PCOD8180223
Probable space group: A M M 2
;
_chemical_formula_sum "Si O2"
_cell_formula_units_Z 48
_cell_length_a 15.503598
_cell_length_b 8.471535
_cell_length_c 17.884333
_cell_angle_alpha 90.000000
_cell_angle_beta 90.000000
_cell_angle_gamma 90.000000
_cell_volume 2348.915296
_symmetry_space_group_name_H-M "A M M 2"
_symmetry_group_IT_number 38
_symmetry_cell_setting 'orthorhombic'
loop_
_space_group_symop_operation_xyz
x,y,z
-x,-y,z
-x,y,z
x,-y,z
x,1/2+y,1/2+z
-x,1/2-y,1/2+z
-x,1/2+y,1/2+z
x,1/2-y,1/2+z
loop_
_atom_site_type_symbol
_atom_site_label
_atom_site_fract_x
_atom_site_fract_y
_atom_site_fract_z
Si Si1 0.500000 0.186949 0.819790
Si Si2 0.163060 0.182707 0.151443
Si Si3 0.333335 0.815329 0.909650
Si Si4 0.327388 0.184437 0.572199
Si Si5 0.826548 0.186588 0.323133
Si Si6 0.000000 0.187256 0.403337
Si Si7 0.500000 0.687509 0.152175
Si Si8 0.000000 0.683296 0.069534
O O1 0.584522 0.246215 0.863037
O O2 0.500000 0.258271 0.736009
O O3 0.500000 0.000000 0.813966
O O4 0.250317 0.217447 0.107785
O O5 0.172729 0.236220 0.236791
O O6 0.084754 0.274454 0.114781
O O7 0.140227 0.000000 0.146363
O O8 0.248938 0.784608 0.861315
O O9 0.340899 0.000000 0.929161
O O10 0.329763 0.713080 0.984255
O O11 0.415644 0.248451 0.608735
O O12 0.312923 0.000000 0.588309
O O13 0.915529 0.245762 0.359641
O O14 0.811567 0.000000 0.334116
O O15 0.000000 0.261978 0.486814
O O16 0.000000 0.000000 0.405110
O O17 0.500000 0.500000 0.153534
O O18 0.000000 0.500000 0.055379
#
# Coordination Sequence:
#
# PCOD8180223 Si02
#       8
#     4   8   8   8   8   4   4   4
#     4   9  19  36  57  83 116 151 188 237 296 350
#     4  11  23  39  60  87 119 155 197 245 294 345
#     4  11  22  37  59  86 117 152 192 240 293 351
#     4  11  22  38  60  85 117 156 198 243 293 351
#     4  10  21  39  61  84 114 152 192 237 290 345
#     4   9  19  37  59  81 108 147 188 227 279 336
#     4   9  19  36  59  85 114 153 198 243 292 348
#     4  11  22  37  61  89 118 157 200 239 285 348
#
# _framework density 20.434964999999998
#
# number of rings (size 3 to 8) (size 9 to 14) (size 15 to 20)
#    0.000    1.667    0.000    4.750    0.000    5.333 
#    0.000    3.750    0.000    6.000    0.000    0.000 
#    0.000    0.000    0.000    0.000    0.000    0.000 
#
# Total GULP energy -297720.690299 kJ/mol
# GULP energy per Si atom -12405.028762 kJ/mol
# Density = 2.038845 g / cm^3
# Si number density = 20.434965 Si / 1000 Ang^3
#
#
#
# Elastic Constant Matrix: (Units=GPa)
#
#
# Indices 1 2 3 4 5 6 
#
# 1 171.3660 7.4772 70.0101 0.0000 0.0000 0.0000
# 2 7.4772 26.3750 11.4283 0.0000 0.0000 0.0000
# 3 70.0101 11.4283 164.5429 0.0000 0.0000 0.0000
# 4 0.0000 0.0000 0.0000 20.1077 0.0000 0.0000
# 5 0.0000 0.0000 0.0000 0.0000 20.9023 0.0000
# 6 0.0000 0.0000 0.0000 0.0000 0.0000 38.3304
#
#
#
# Elastic Compliance Matrix: (Units=1/GPa)
#
#
# Indices 1 2 3 4 5 6 
#
# 1 0.007077 -0.000723 -0.002961 0.000000 0.000000 0.000000
# 2 -0.000723 0.039165 -0.002412 0.000000 0.000000 0.000000
# 3 -0.002961 -0.002412 0.007505 0.000000 0.000000 0.000000
# 4 0.000000 0.000000 0.000000 0.049732 0.000000 0.000000
# 5 0.000000 0.000000 0.000000 0.000000 0.047842 0.000000
# 6 0.000000 0.000000 0.000000 0.000000 0.000000 0.026089
#
#
# Mechanical properties :
#
#
# Convention : Reuss Voigt Hill
#
# Bulk Modulus (GPa) = 24.06540 60.01279 42.03909
# Shear Modulus (GPa) = 24.57568 34.09264 29.33416
#
# Velocity S-wave (km/s) = 3.47166 4.08897 3.79289
# Velocity P-wave (km/s) = 5.27939 7.19197 6.30858
#
# Compressibility (1/GPa) = 0.04155344
#
# Stress axis : x y z
#
# Youngs Moduli (GPa) = 141.31063 25.53296 133.24911
#
# Poissons Ratio (x) = 0.01847 0.39452
# Poissons Ratio (y) = 0.10221 0.32146
# Poissons Ratio (z) = 0.41838 0.06160
#
# Static dielectric constant tensor:
#      x y z
#    x 3.860910 0.000000 0.000000 
#    y 0.000000 3.382260 0.000000 
#    z 0.000000 0.000000 3.954070 
# 
# 
# High freq. dielectric constant tensor:
#      x y z
#    x 1.817140 0.000000 0.000000 
#    y 0.000000 1.775460 0.000000 
#    z 0.000000 0.000000 1.818810 
# 
# From -- ./inp_files/18237.got.cif
#   From: 2010.03.12/outbox.cif.g09.slc.cpg/sg38_10_cif.got.tgz:18237.got - 2010.04.14 02:38:36.
