data_PCOD8180076
_publ_section_title
;
Structure prediction by ZEFSAII (Michael W. Deem and Ramdas Pophale) SiO2 
 PCOD8180076
Probable space group: A M M 2
;
_chemical_formula_sum "Si O2"
_cell_formula_units_Z 48
_cell_length_a 9.102111
_cell_length_b 30.213899
_cell_length_c 9.115134
_cell_angle_alpha 90.000000
_cell_angle_beta 90.000000
_cell_angle_gamma 90.000000
_cell_volume 2506.755394
_symmetry_space_group_name_H-M "A M M 2"
_symmetry_group_IT_number 38
_symmetry_cell_setting 'orthorhombic'
loop_
_space_group_symop_operation_xyz
x,y,z
-x,-y,z
-x,y,z
x,-y,z
x,1/2+y,1/2+z
-x,1/2-y,1/2+z
-x,1/2+y,1/2+z
x,1/2-y,1/2+z
loop_
_atom_site_type_symbol
_atom_site_label
_atom_site_fract_x
_atom_site_fract_y
_atom_site_fract_z
Si Si1 0.329495 0.208239 0.030900
Si Si2 0.669892 0.051515 0.704485
Si Si3 0.828995 0.369231 0.698823
Si Si4 0.671512 0.203213 0.689898
Si Si5 0.830691 0.949840 0.000668
Si Si6 0.825541 0.375974 0.031239
O O1 0.500000 0.201933 0.063671
O O2 0.249416 0.166906 0.100877
O O3 0.273368 0.253608 0.103374
O O4 0.294307 0.210861 0.859752
O O5 0.500000 0.065256 0.700544
O O6 0.731500 0.064537 0.863750
O O7 0.757771 0.077357 0.579490
O O8 0.693660 0.000000 0.672349
O O9 0.792991 0.418014 0.636443
O O10 0.000000 0.358881 0.690960
O O11 0.772660 0.366743 0.865517
O O12 0.500000 0.193635 0.660967
O O13 0.766104 0.162023 0.636778
O O14 0.000000 0.945096 0.952106
O O15 0.795116 0.000000 0.050492
O O16 0.000000 0.378738 0.043001
#
# Coordination Sequence:
#
# PCOD8180076 Si02
#       6
#     8   8   8   8   8   8
#     4  10  21  37  59  83 108 142 181 223 273 326
#     4  10  21  37  57  82 111 143 181 225 272 323
#     4  10  22  37  54  80 112 145 183 226 271 321
#     4  10  21  38  59  83 110 142 182 225 271 324
#     4   9  18  35  58  81 107 142 183 227 275 325
#     4  11  23  37  55  81 112 147 184 223 270 321
#
# _framework density 19.148257999999998
#
# number of rings (size 3 to 8) (size 9 to 14) (size 15 to 20)
#    0.000    2.000    0.000    3.000    0.000    9.000 
#    0.000    1.667    0.000    2.000    0.000    0.000 
#    0.000    0.000    0.000    0.000    0.000    0.000 
#
# Total GULP energy -297717.653411 kJ/mol
# GULP energy per Si atom -12404.902225 kJ/mol
# Density = 1.910468 g / cm^3
# Si number density = 19.148258 Si / 1000 Ang^3
#
#
#
# Elastic Constant Matrix: (Units=GPa)
#
#
# Indices 1 2 3 4 5 6 
#
# 1 69.1614 45.6947 49.4527 0.0000 0.0000 0.0000
# 2 45.6947 105.7015 58.3061 0.0000 0.0000 0.0000
# 3 49.4527 58.3061 118.3781 0.0000 0.0000 0.0000
# 4 0.0000 0.0000 0.0000 41.2151 0.0000 0.0000
# 5 0.0000 0.0000 0.0000 0.0000 29.0721 0.0000
# 6 0.0000 0.0000 0.0000 0.0000 0.0000 33.6014
#
#
#
# Elastic Compliance Matrix: (Units=1/GPa)
#
#
# Indices 1 2 3 4 5 6 
#
# 1 0.023481 -0.006508 -0.006604 0.000000 0.000000 0.000000
# 2 -0.006508 0.014794 -0.004568 0.000000 0.000000 0.000000
# 3 -0.006604 -0.004568 0.013456 0.000000 0.000000 0.000000
# 4 0.000000 0.000000 0.000000 0.024263 0.000000 0.000000
# 5 0.000000 0.000000 0.000000 0.000000 0.034397 0.000000
# 6 0.000000 0.000000 0.000000 0.000000 0.000000 0.029761
#
#
# Mechanical properties :
#
#
# Convention : Reuss Voigt Hill
#
# Bulk Modulus (GPa) = 61.08184 66.68311 63.88248
# Shear Modulus (GPa) = 27.62938 30.09689 28.86313
#
# Velocity S-wave (km/s) = 3.80270 3.96887 3.88667
# Velocity P-wave (km/s) = 7.15887 7.47682 7.31957
#
# Compressibility (1/GPa) = 0.01637148
#
# Stress axis : x y z
#
# Youngs Moduli (GPa) = 42.58843 67.59665 74.31652
#
# Poissons Ratio (x) = 0.43992 0.49075
# Poissons Ratio (y) = 0.27717 0.33946
# Poissons Ratio (z) = 0.28124 0.30876
#
# Static dielectric constant tensor:
#      x y z
#    x 3.484060 0.000000 0.000000 
#    y 0.000000 3.648740 0.000000 
#    z 0.000000 0.000000 3.598200 
# 
# 
# High freq. dielectric constant tensor:
#      x y z
#    x 1.742020 0.000000 0.000000 
#    y 0.000000 1.757960 0.000000 
#    z 0.000000 0.000000 1.749990 
# 
# From -- ./inp_files/3733.got.cif
#   From: 2010.03.12/outbox.cif.g09.slc.cpg/sg38_2_cif.got.tgz:3733.got - 2010.04.14 02:38:36.
