data_PCOD8180752
_publ_section_title
;
Structure prediction by ZEFSAII (Michael W. Deem and Ramdas Pophale) SiO2 
 PCOD8180752
Probable space group: A B M 2
;
_chemical_formula_sum "Si O2"
_cell_formula_units_Z 64
_cell_length_a 12.243334
_cell_length_b 16.317663
_cell_length_c 16.603734
_cell_angle_alpha 90.000000
_cell_angle_beta 90.000000
_cell_angle_gamma 90.000000
_cell_volume 3317.137118
_symmetry_space_group_name_H-M "A B M 2"
_symmetry_group_IT_number 39
_symmetry_cell_setting 'orthorhombic'
loop_
_space_group_symop_operation_xyz
x,y,z
-x,-y,z
-x,1/2+y,z
x,1/2-y,z
x,1/2+y,1/2+z
-x,1/2-y,1/2+z
-x,y,1/2+z
x,-y,1/2+z
loop_
_atom_site_type_symbol
_atom_site_label
_atom_site_fract_x
_atom_site_fract_y
_atom_site_fract_z
Si Si1 0.375291 0.495165 0.461370
Si Si2 0.257445 0.089412 0.221961
Si Si3 0.251054 0.653935 0.894689
Si Si4 0.132576 0.156114 0.554465
Si Si5 0.544914 0.840366 0.133438
Si Si6 0.303995 0.340114 0.980265
Si Si7 0.894984 0.156944 0.594339
Si Si8 0.325649 0.059108 0.631821
O O1 0.500000 0.500000 0.441803
O O2 0.345488 0.406349 0.426069
O O3 0.318904 0.578482 0.423651
O O4 0.345028 0.501455 0.556228
O O5 0.215052 0.115822 0.309720
O O6 0.361822 0.144662 0.200010
O O7 0.153600 0.102230 0.165077
O O8 0.294398 0.994480 0.210764
O O9 0.288604 0.750000 0.889029
O O10 0.153229 0.645038 0.958893
O O11 0.132508 0.250000 0.578582
O O12 0.225622 0.118214 0.610913
O O13 0.012926 0.118789 0.571770
O O14 0.498822 0.750000 0.147072
O O15 0.440743 0.897506 0.147258
O O16 0.598099 0.847420 0.045303
O O17 0.314874 0.250000 0.936933
O O18 0.183458 0.345570 0.017255
O O19 0.905081 0.250000 0.625568
#
# Coordination Sequence:
#
# PCOD8180752 Si02
#       8
#     8   8   8   8   8   8   8   8
#     4  11  19  34  53  83 118 153 191 237 285 337
#     4  11  20  35  57  84 114 144 188 238 286 343
#     4  10  23  39  56  83 117 154 191 233 292 357
#     4   9  20  37  58  82 109 146 191 239 290 339
#     4  10  18  30  54  84 112 147 193 240 282 327
#     4   9  17  30  53  84 110 141 190 241 285 327
#     4   9  17  33  59  82 103 141 192 241 280 327
#     4  11  19  32  54  82 117 149 193 238 281 331
#
# _framework density 19.293745000000001
#
# number of rings (size 3 to 8) (size 9 to 14) (size 15 to 20)
#    0.000    2.000    3.750    2.625    0.000    2.500 
#    0.000    0.000    5.500    1.500    0.000    0.000 
#    0.000    0.000    0.000    0.000    0.000    0.000 
#
# Total GULP energy -396423.741838 kJ/mol
# GULP energy per Si atom -12388.241932 kJ/mol
# Density = 1.924983 g / cm^3
# Si number density = 19.293745 Si / 1000 Ang^3
#
#
#
# Elastic Constant Matrix: (Units=GPa)
#
#
# Indices 1 2 3 4 5 6 
#
# 1 136.9345 48.3697 27.0955 0.0000 0.0000 0.0000
# 2 48.3697 123.1945 35.3214 0.0000 0.0000 0.0000
# 3 27.0955 35.3214 54.2627 0.0000 0.0000 0.0000
# 4 0.0000 0.0000 0.0000 22.3100 0.0000 0.0000
# 5 0.0000 0.0000 0.0000 0.0000 4.7822 0.0000
# 6 0.0000 0.0000 0.0000 0.0000 0.0000 23.5132
#
#
#
# Elastic Compliance Matrix: (Units=1/GPa)
#
#
# Indices 1 2 3 4 5 6 
#
# 1 0.008774 -0.002691 -0.002629 0.000000 0.000000 0.000000
# 2 -0.002691 0.010805 -0.005690 0.000000 0.000000 0.000000
# 3 -0.002629 -0.005690 0.023445 0.000000 0.000000 0.000000
# 4 0.000000 0.000000 0.000000 0.044823 0.000000 0.000000
# 5 0.000000 0.000000 0.000000 0.000000 0.209107 0.000000
# 6 0.000000 0.000000 0.000000 0.000000 0.000000 0.042529
#
#
# Mechanical properties :
#
#
# Convention : Reuss Voigt Hill
#
# Bulk Modulus (GPa) = 47.60979 59.55165 53.58072
# Shear Modulus (GPa) = 13.56837 23.69477 18.63157
#
# Velocity S-wave (km/s) = 2.65477 3.50824 3.11091
# Velocity P-wave (km/s) = 5.84182 6.88063 6.38240
#
# Compressibility (1/GPa) = 0.02100409
#
# Stress axis : x y z
#
# Youngs Moduli (GPa) = 113.97899 92.54909 42.65223
#
# Poissons Ratio (x) = 0.24904 0.11215
# Poissons Ratio (y) = 0.30670 0.24268
# Poissons Ratio (z) = 0.29970 0.52658
#
# Static dielectric constant tensor:
#      x y z
#    x 3.517620 0.000000 0.000000 
#    y 0.000000 3.948830 0.000000 
#    z 0.000000 0.000000 3.177740 
# 
# 
# High freq. dielectric constant tensor:
#      x y z
#    x 1.746660 0.000000 0.000000 
#    y 0.000000 1.776090 0.000000 
#    z 0.000000 0.000000 1.695090 
# 
# From -- ./inp_files/12425.got.cif
#   From: 2010.03.12/outbox.cif.g09.slc.cpg/sg39_7_cif.got.tgz:12425.got - 2010.04.14 02:53:20.
