data_PCOD8180266
_publ_section_title
;
Structure prediction by ZEFSAII (Michael W. Deem and Ramdas Pophale) SiO2 
 PCOD8180266
Probable space group: A M M 2
;
_chemical_formula_sum "Si O2"
_cell_formula_units_Z 48
_cell_length_a 8.566665
_cell_length_b 10.015240
_cell_length_c 27.565714
_cell_angle_alpha 90.000000
_cell_angle_beta 90.000000
_cell_angle_gamma 90.000000
_cell_volume 2365.061242
_symmetry_space_group_name_H-M "A M M 2"
_symmetry_group_IT_number 38
_symmetry_cell_setting 'orthorhombic'
loop_
_space_group_symop_operation_xyz
x,y,z
-x,-y,z
-x,y,z
x,-y,z
x,1/2+y,1/2+z
-x,1/2-y,1/2+z
-x,1/2+y,1/2+z
x,1/2-y,1/2+z
loop_
_atom_site_type_symbol
_atom_site_label
_atom_site_fract_x
_atom_site_fract_y
_atom_site_fract_z
Si Si1 0.185011 0.655343 0.629540
Si Si2 0.814456 0.000000 0.472188
Si Si3 0.683031 0.155533 0.711149
Si Si4 0.182075 0.250591 0.810884
Si Si5 0.681291 0.000000 0.364390
Si Si6 0.183723 0.761993 0.023555
Si Si7 0.328377 0.000000 0.971034
Si Si8 0.326380 0.500000 0.358067
O O1 0.229865 0.500000 0.639059
O O2 0.272939 0.755480 0.665138
O O3 0.247172 0.699199 0.576600
O O4 0.000000 0.674508 0.634745
O O5 0.765952 0.000000 0.416155
O O6 0.745985 0.874911 0.502261
O O7 0.000000 0.000000 0.472668
O O8 0.500000 0.165700 0.721179
O O9 0.775115 0.220068 0.755614
O O10 0.732353 0.000000 0.703553
O O11 0.277128 0.374083 0.831625
O O12 0.225205 0.125875 0.843538
O O13 0.000000 0.283008 0.814614
O O14 0.500000 0.000000 0.376041
O O15 0.000000 0.752438 0.026569
O O16 0.230536 0.872177 0.985211
O O17 0.500000 0.000000 0.995749
O O18 0.350566 0.000000 0.914425
O O19 0.500000 0.500000 0.333039
#
# Coordination Sequence:
#
# PCOD8180266 Si02
#       8
#     8   4   8   8   4   8   4   4
#     4  10  22  41  66  95 127 165 213 264 318 380
#     4  10  22  40  65  96 127 166 217 265 312 378
#     4  11  25  44  66  94 130 168 209 260 323 387
#     4  12  25  43  68  96 126 166 217 266 315 380
#     4  12  26  44  65  92 133 176 212 265 327 380
#     4  10  21  40  64  91 126 165 209 263 316 369
#     4  11  23  37  60  91 124 165 207 253 310 377
#     4  11  23  41  64  95 132 167 208 259 323 383
#
# _framework density 20.295458
#
# number of rings (size 3 to 8) (size 9 to 14) (size 15 to 20)
#    0.000    1.167    1.667    4.250    2.333    6.667 
#    0.000    0.000    0.000    0.000    0.000    0.000 
#    0.000    0.000    0.000    0.000    0.000    0.000 
#
# Total GULP energy -297625.506314 kJ/mol
# GULP energy per Si atom -12401.062763 kJ/mol
# Density = 2.024926 g / cm^3
# Si number density = 20.295458 Si / 1000 Ang^3
#
#
#
# Elastic Constant Matrix: (Units=GPa)
#
#
# Indices 1 2 3 4 5 6 
#
# 1 39.0794 14.6259 16.3750 0.0000 0.0000 0.0000
# 2 14.6259 161.4240 53.0494 0.0000 0.0000 0.0000
# 3 16.3750 53.0494 109.4746 0.0000 0.0000 0.0000
# 4 0.0000 0.0000 0.0000 56.8422 0.0000 0.0000
# 5 0.0000 0.0000 0.0000 0.0000 13.6385 0.0000
# 6 0.0000 0.0000 0.0000 0.0000 0.0000 3.3934
#
#
#
# Elastic Compliance Matrix: (Units=1/GPa)
#
#
# Indices 1 2 3 4 5 6 
#
# 1 0.027548 -0.001358 -0.003462 0.000000 0.000000 0.000000
# 2 -0.001358 0.007435 -0.003400 0.000000 0.000000 0.000000
# 3 -0.003462 -0.003400 0.011300 0.000000 0.000000 0.000000
# 4 0.000000 0.000000 0.000000 0.017593 0.000000 0.000000
# 5 0.000000 0.000000 0.000000 0.000000 0.073322 0.000000
# 6 0.000000 0.000000 0.000000 0.000000 0.000000 0.294690
#
#
# Mechanical properties :
#
#
# Convention : Reuss Voigt Hill
#
# Bulk Modulus (GPa) = 33.50939 53.11984 43.31462
# Shear Modulus (GPa) = 10.91046 29.83667 20.37357
#
# Velocity S-wave (km/s) = 2.32110 3.83837 3.17179
# Velocity P-wave (km/s) = 4.87134 6.77305 5.89933
#
# Compressibility (1/GPa) = 0.02984238
#
# Stress axis : x y z
#
# Youngs Moduli (GPa) = 36.30025 134.49513 88.49609
#
# Poissons Ratio (x) = 0.18266 0.30641
# Poissons Ratio (y) = 0.04930 0.30087
# Poissons Ratio (z) = 0.12569 0.45726
#
# Static dielectric constant tensor:
#      x y z
#    x 3.688360 0.000000 0.000000 
#    y 0.000000 3.702490 0.000000 
#    z 0.000000 0.000000 3.850350 
# 
# 
# High freq. dielectric constant tensor:
#      x y z
#    x 1.791530 0.000000 0.000000 
#    y 0.000000 1.810560 0.000000 
#    z 0.000000 0.000000 1.805420 
# 
# From -- ./inp_files/24495.got.cif
#   From: 2010.03.12/outbox.cif.g09.slc.cpg/sg38_13_cif.got.tgz:24495.got - 2010.04.14 02:38:36.
