data_PCOD8180128
_publ_section_title
;
Structure prediction by ZEFSAII (Michael W. Deem and Ramdas Pophale) SiO2 
 PCOD8180128
Probable space group: A M M 2
;
_chemical_formula_sum "Si O2"
_cell_formula_units_Z 48
_cell_length_a 7.804437
_cell_length_b 33.814243
_cell_length_c 9.065030
_cell_angle_alpha 90.000000
_cell_angle_beta 90.000000
_cell_angle_gamma 90.000000
_cell_volume 2392.271653
_symmetry_space_group_name_H-M "A M M 2"
_symmetry_group_IT_number 38
_symmetry_cell_setting 'orthorhombic'
loop_
_space_group_symop_operation_xyz
x,y,z
-x,-y,z
-x,y,z
x,-y,z
x,1/2+y,1/2+z
-x,1/2-y,1/2+z
-x,1/2+y,1/2+z
x,1/2-y,1/2+z
loop_
_atom_site_type_symbol
_atom_site_label
_atom_site_fract_x
_atom_site_fract_y
_atom_site_fract_z
Si Si1 0.500000 0.207309 0.321391
Si Si2 0.808022 0.653604 0.168503
Si Si3 0.500000 0.708929 0.168817
Si Si4 0.701337 0.923192 0.829201
Si Si5 0.304890 0.921772 0.165783
Si Si6 0.702306 0.500000 0.149808
Si Si7 0.809396 0.347395 0.830591
Si Si8 0.195105 0.000000 0.319522
O O1 0.500000 0.248660 0.241089
O O2 0.500000 0.214848 0.494648
O O3 0.329989 0.183702 0.270744
O O4 0.669994 0.685821 0.222790
O O5 0.798843 0.614641 0.266961
O O6 0.000000 0.671425 0.183867
O O7 0.767133 0.641695 0.999886
O O8 0.500000 0.916326 0.810821
O O9 0.761661 0.961761 0.741063
O O10 0.754989 0.929290 0.998721
O O11 0.500000 0.907211 0.171178
O O12 0.191240 0.887589 0.237591
O O13 0.289820 0.961758 0.257629
O O14 0.500000 0.500000 0.122655
O O15 0.799154 0.500000 0.995543
O O16 0.000000 0.328772 0.816032
O O17 0.000000 0.000000 0.265723
#
# Coordination Sequence:
#
# PCOD8180128 Si02
#       8
#     4   8   4   8   8   4   8   4
#     4  10  22  40  62  89 118 159 188 244 293 348
#     4  10  21  38  62  88 118 157 198 242 291 350
#     4  10  22  40  62  87 122 151 198 236 293 354
#     4  10  21  37  59  87 118 152 198 248 295 350
#     4  11  22  38  60  86 117 156 198 245 299 347
#     4  10  21  38  60  82 112 158 203 245 293 347
#     4  10  21  39  62  90 119 155 201 240 289 355
#     4  12  25  38  54  82 118 158 203 248 292 346
#
# _framework density 20.064609999999998
#
# number of rings (size 3 to 8) (size 9 to 14) (size 15 to 20)
#    0.000    1.667    1.667    2.750    0.000    8.000 
#    0.000    0.833    0.000    0.000    0.000    0.000 
#    0.000    0.000    0.000    0.000    0.000    0.000 
#
# Total GULP energy -297710.058400 kJ/mol
# GULP energy per Si atom -12404.585767 kJ/mol
# Density = 2.001894 g / cm^3
# Si number density = 20.064610 Si / 1000 Ang^3
#
#
#
# Elastic Constant Matrix: (Units=GPa)
#
#
# Indices 1 2 3 4 5 6 
#
# 1 112.3838 55.4198 34.8186 0.0000 0.0000 0.0000
# 2 55.4198 148.1275 54.4506 0.0000 0.0000 0.0000
# 3 34.8186 54.4506 99.3349 0.0000 0.0000 0.0000
# 4 0.0000 0.0000 0.0000 41.1934 0.0000 0.0000
# 5 0.0000 0.0000 0.0000 0.0000 20.4336 0.0000
# 6 0.0000 0.0000 0.0000 0.0000 0.0000 15.6012
#
#
#
# Elastic Compliance Matrix: (Units=1/GPa)
#
#
# Indices 1 2 3 4 5 6 
#
# 1 0.011234 -0.003451 -0.002046 0.000000 0.000000 0.000000
# 2 -0.003451 0.009515 -0.004006 0.000000 0.000000 0.000000
# 3 -0.002046 -0.004006 0.012980 0.000000 0.000000 0.000000
# 4 0.000000 0.000000 0.000000 0.024276 0.000000 0.000000
# 5 0.000000 0.000000 0.000000 0.000000 0.048939 0.000000
# 6 0.000000 0.000000 0.000000 0.000000 0.000000 0.064098
#
#
# Mechanical properties :
#
#
# Convention : Reuss Voigt Hill
#
# Bulk Modulus (GPa) = 67.92196 72.13602 70.02899
# Shear Modulus (GPa) = 25.64716 29.78947 27.71832
#
# Velocity S-wave (km/s) = 3.57911 3.85733 3.72082
# Velocity P-wave (km/s) = 7.14179 7.47453 7.31005
#
# Compressibility (1/GPa) = 0.01472278
#
# Stress axis : x y z
#
# Youngs Moduli (GPa) = 89.01803 105.10239 77.04206
#
# Poissons Ratio (x) = 0.36269 0.15763
# Poissons Ratio (y) = 0.30719 0.30862
# Poissons Ratio (z) = 0.18213 0.42102
#
# Static dielectric constant tensor:
#      x y z
#    x 3.739850 0.000000 0.000000 
#    y 0.000000 3.471300 0.000000 
#    z 0.000000 0.000000 3.628670 
# 
# 
# High freq. dielectric constant tensor:
#      x y z
#    x 1.792980 0.000000 0.000000 
#    y 0.000000 1.773120 0.000000 
#    z 0.000000 0.000000 1.782980 
# 
# From -- ./inp_files/3893.got.cif
#   From: 2010.03.12/outbox.cif.g09.slc.cpg/sg38_2_cif.got.tgz:3893.got - 2010.04.14 02:38:36.
