data_PCOD8180781
_publ_section_title
;
Structure prediction by ZEFSAII (Michael W. Deem and Ramdas Pophale) SiO2 
 PCOD8180781
Probable space group: A B M 2
;
_chemical_formula_sum "Si O2"
_cell_formula_units_Z 64
_cell_length_a 11.664849
_cell_length_b 23.108667
_cell_length_c 12.499545
_cell_angle_alpha 90.000000
_cell_angle_beta 90.000000
_cell_angle_gamma 90.000000
_cell_volume 3369.366240
_symmetry_space_group_name_H-M "A B M 2"
_symmetry_group_IT_number 39
_symmetry_cell_setting 'orthorhombic'
loop_
_space_group_symop_operation_xyz
x,y,z
-x,-y,z
-x,1/2+y,z
x,1/2-y,z
x,1/2+y,1/2+z
-x,1/2-y,1/2+z
-x,y,1/2+z
x,-y,1/2+z
loop_
_atom_site_type_symbol
_atom_site_label
_atom_site_fract_x
_atom_site_fract_y
_atom_site_fract_z
Si Si1 0.404306 0.817411 0.141440
Si Si2 0.059576 0.813779 0.064618
Si Si3 0.195011 0.185165 0.782445
Si Si4 0.274637 0.644922 0.940313
Si Si5 0.654361 0.684014 0.213904
Si Si6 0.148503 0.892674 0.621007
Si Si7 0.864517 0.550539 0.344134
Si Si8 0.114335 0.572936 0.405288
O O1 0.398626 0.750000 0.107459
O O2 0.324256 0.828199 0.244344
O O3 0.529466 0.837910 0.177590
O O4 0.363396 0.855128 0.039149
O O5 0.011712 0.750000 0.040463
O O6 0.114823 0.816472 0.180327
O O7 0.953622 0.856667 0.065669
O O8 0.153635 0.826854 0.973504
O O9 0.188328 0.250000 0.834888
O O10 0.153793 0.135343 0.861917
O O11 0.330038 0.679410 0.841433
O O12 0.246767 0.580027 0.898626
O O13 0.671213 0.750000 0.179805
O O14 0.744616 0.647320 0.147271
O O15 0.110207 0.927752 0.724389
O O16 0.173430 0.936032 0.522405
O O17 0.841184 0.481714 0.335966
O O18 0.976333 0.567687 0.412659
#
# Coordination Sequence:
#
# PCOD8180781 Si02
#       8
#     8   8   8   8   8   8   8   8
#     4   9  19  36  60  85 113 158 205 241 287 349
#     4  10  18  31  54  84 117 152 185 231 293 357
#     4   9  19  35  56  85 116 145 188 239 288 345
#     4  10  19  37  58  83 115 158 199 241 297 351
#     4  10  21  36  56  86 122 157 198 246 291 347
#     4  11  22  36  54  86 117 146 194 241 289 348
#     4  10  23  38  57  82 116 156 197 234 290 359
#     4  11  22  38  58  85 116 154 187 241 296 352
#
# _framework density 18.994669999999999
#
# number of rings (size 3 to 8) (size 9 to 14) (size 15 to 20)
#    0.000    2.000    2.500    2.250    0.000    6.000 
#    0.000    2.500    0.000    9.750    0.000    0.000 
#    0.000    0.000    0.000    0.000    0.000    0.000 
#
# Total GULP energy -396641.989506 kJ/mol
# GULP energy per Si atom -12395.062172 kJ/mol
# Density = 1.895144 g / cm^3
# Si number density = 18.994670 Si / 1000 Ang^3
#
#
#
# Elastic Constant Matrix: (Units=GPa)
#
#
# Indices 1 2 3 4 5 6 
#
# 1 100.0820 38.3433 43.4910 0.0000 0.0000 0.0000
# 2 38.3433 106.9415 49.3172 0.0000 0.0000 0.0000
# 3 43.4910 49.3172 101.4001 0.0000 0.0000 0.0000
# 4 0.0000 0.0000 0.0000 21.2544 0.0000 0.0000
# 5 0.0000 0.0000 0.0000 0.0000 27.1671 0.0000
# 6 0.0000 0.0000 0.0000 0.0000 0.0000 20.5358
#
#
#
# Elastic Compliance Matrix: (Units=1/GPa)
#
#
# Indices 1 2 3 4 5 6 
#
# 1 0.012843 -0.002661 -0.004214 0.000000 0.000000 0.000000
# 2 -0.002661 0.012606 -0.004990 0.000000 0.000000 0.000000
# 3 -0.004214 -0.004990 0.014096 0.000000 0.000000 0.000000
# 4 0.000000 0.000000 0.000000 0.047049 0.000000 0.000000
# 5 0.000000 0.000000 0.000000 0.000000 0.036809 0.000000
# 6 0.000000 0.000000 0.000000 0.000000 0.000000 0.048696
#
#
# Mechanical properties :
#
#
# Convention : Reuss Voigt Hill
#
# Bulk Modulus (GPa) = 63.23120 63.41406 63.32263
# Shear Modulus (GPa) = 24.86323 25.60959 25.23641
#
# Velocity S-wave (km/s) = 3.62188 3.67584 3.64896
# Velocity P-wave (km/s) = 7.13105 7.17449 7.15280
#
# Compressibility (1/GPa) = 0.01581498
#
# Stress axis : x y z
#
# Youngs Moduli (GPa) = 77.86601 79.32615 70.94177
#
# Poissons Ratio (x) = 0.21112 0.29894
# Poissons Ratio (y) = 0.20723 0.35398
# Poissons Ratio (z) = 0.32812 0.39581
#
# Static dielectric constant tensor:
#      x y z
#    x 3.445070 0.000000 0.000000 
#    y 0.000000 3.521300 0.000000 
#    z 0.000000 0.000000 3.462830 
# 
# 
# High freq. dielectric constant tensor:
#      x y z
#    x 1.722480 0.000000 0.000000 
#    y 0.000000 1.730250 0.000000 
#    z 0.000000 0.000000 1.744000 
# 
# From -- ./inp_files/6088.got.cif
#   From: 2010.03.12/outbox.cif.g09.slc.cpg/sg39_4_cif.got.tgz:6088.got - 2010.04.14 02:53:20.
