data_PCOD8180992
_publ_section_title
;
Structure prediction by ZEFSAII (Michael W. Deem and Ramdas Pophale) SiO2 
 PCOD8180992
Probable space group: A B M 2
;
_chemical_formula_sum "Si O2"
_cell_formula_units_Z 64
_cell_length_a 38.385976
_cell_length_b 17.174546
_cell_length_c 5.037767
_cell_angle_alpha 90.000000
_cell_angle_beta 90.000000
_cell_angle_gamma 90.000000
_cell_volume 3321.206890
_symmetry_space_group_name_H-M "A B M 2"
_symmetry_group_IT_number 39
_symmetry_cell_setting 'orthorhombic'
loop_
_space_group_symop_operation_xyz
x,y,z
-x,-y,z
-x,1/2+y,z
x,1/2-y,z
x,1/2+y,1/2+z
-x,1/2-y,1/2+z
-x,y,1/2+z
x,-y,1/2+z
loop_
_atom_site_type_symbol
_atom_site_label
_atom_site_fract_x
_atom_site_fract_y
_atom_site_fract_z
Si Si1 0.522010 0.158749 0.711060
Si Si2 0.735719 0.052133 0.798327
Si Si3 0.661617 0.049434 0.688351
Si Si4 0.977132 0.661389 0.797592
Si Si5 0.845339 0.840510 0.795680
Si Si6 0.199503 0.160039 0.296044
Si Si7 0.587118 0.447413 0.793304
Si Si8 0.911624 0.947383 0.713785
O O1 0.529253 0.250000 0.727018
O O2 0.505410 0.132493 0.434069
O O3 0.558826 0.118297 0.747049
O O4 0.697780 0.094364 0.756963
O O5 0.765305 0.114311 0.740029
O O6 0.739186 0.979956 0.595926
O O7 0.625333 0.093691 0.756093
O O8 0.661722 0.027536 0.377592
O O9 0.963312 0.750000 0.768768
O O10 0.946296 0.602098 0.748127
O O11 0.008114 0.645860 0.590214
O O12 0.855846 0.750000 0.773150
O O13 0.816098 0.862323 0.580472
O O14 0.879289 0.890965 0.753048
O O15 0.829685 0.861942 0.080761
O O16 0.209457 0.250000 0.275741
O O17 0.582938 0.518591 0.587863
O O18 0.910573 0.981483 0.418585
#
# Coordination Sequence:
#
# PCOD8180992 Si02
#       8
#     8   8   8   8   8   8   8   8
#     4  10  21  35  49  69 100 132 161 201 256 309
#     4  10  19  32  53  77 103 136 170 207 255 310
#     4   8  16  30  47  71 100 129 162 203 253 300
#     4  10  22  41  63  84 110 148 186 215 256 319
#     4  10  22  40  57  75 108 148 179 211 259 316
#     4  10  21  36  55  79 106 138 176 219 260 299
#     4  10  19  32  52  74  97 127 168 212 246 293
#     4  12  25  38  58  87 115 141 176 226 270 305
#
# _framework density 19.270104
#
# number of rings (size 3 to 8) (size 9 to 14) (size 15 to 20)
#    0.000    2.000    0.000    3.375    0.000    6.000 
#    0.000    5.625    0.000    0.000    0.000   15.750 
#    0.000    0.000    0.000    0.000    0.000    0.000 
#
# Total GULP energy -396775.087592 kJ/mol
# GULP energy per Si atom -12399.221487 kJ/mol
# Density = 1.922624 g / cm^3
# Si number density = 19.270104 Si / 1000 Ang^3
#
#
#
# Elastic Constant Matrix: (Units=GPa)
#
#
# Indices 1 2 3 4 5 6 
#
# 1 128.6998 59.4428 -1.5703 0.0000 0.0000 0.0000
# 2 59.4428 52.6491 14.2382 0.0000 0.0000 0.0000
# 3 -1.5703 14.2382 69.4757 0.0000 0.0000 0.0000
# 4 0.0000 0.0000 0.0000 21.6176 0.0000 0.0000
# 5 0.0000 0.0000 0.0000 0.0000 17.9454 0.0000
# 6 0.0000 0.0000 0.0000 0.0000 0.0000 120.8295
#
#
#
# Elastic Compliance Matrix: (Units=1/GPa)
#
#
# Indices 1 2 3 4 5 6 
#
# 1 0.017593 -0.021142 0.004730 0.000000 0.000000 0.000000
# 2 -0.021142 0.045516 -0.009806 0.000000 0.000000 0.000000
# 3 0.004730 -0.009806 0.016510 0.000000 0.000000 0.000000
# 4 0.000000 0.000000 0.000000 0.046259 0.000000 0.000000
# 5 0.000000 0.000000 0.000000 0.000000 0.055725 0.000000
# 6 0.000000 0.000000 0.000000 0.000000 0.000000 0.008276
#
#
# Mechanical properties :
#
#
# Convention : Reuss Voigt Hill
#
# Bulk Modulus (GPa) = 36.78683 43.89400 40.34042
# Shear Modulus (GPa) = 19.89073 43.99276 31.94174
#
# Velocity S-wave (km/s) = 3.21628 4.78321 4.07576
# Velocity P-wave (km/s) = 5.73796 7.30296 6.56724
#
# Compressibility (1/GPa) = 0.02718364
#
# Stress axis : x y z
#
# Youngs Moduli (GPa) = 56.84206 21.97049 60.56936
#
# Poissons Ratio (x) = 0.46450 -0.28652
# Poissons Ratio (y) = 1.20175 0.59393
# Poissons Ratio (z) = -0.26889 0.21544
#
# Static dielectric constant tensor:
#      x y z
#    x 3.716510 0.000000 0.000000 
#    y 0.000000 3.204640 0.000000 
#    z 0.000000 0.000000 3.882330 
# 
# 
# High freq. dielectric constant tensor:
#      x y z
#    x 1.767980 0.000000 0.000000 
#    y 0.000000 1.711510 0.000000 
#    z 0.000000 0.000000 1.773600 
# 
# From -- ./inp_files/1529.got.cif
#   From: 2010.03.12/outbox.cif.g09.slc.cpg/sg39_1_cif.got.tgz:1529.got - 2010.04.14 02:53:20.
