data_PCOD8180379
_publ_section_title
;
Structure prediction by ZEFSAII (Michael W. Deem and Ramdas Pophale) SiO2 
 PCOD8180379
Probable space group: A M M 2
;
_chemical_formula_sum "Si O2"
_cell_formula_units_Z 48
_cell_length_a 8.383424
_cell_length_b 18.328183
_cell_length_c 14.892154
_cell_angle_alpha 90.000000
_cell_angle_beta 90.000000
_cell_angle_gamma 90.000000
_cell_volume 2288.223085
_symmetry_space_group_name_H-M "A M M 2"
_symmetry_group_IT_number 38
_symmetry_cell_setting 'orthorhombic'
loop_
_space_group_symop_operation_xyz
x,y,z
-x,-y,z
-x,y,z
x,-y,z
x,1/2+y,1/2+z
-x,1/2-y,1/2+z
-x,1/2+y,1/2+z
x,1/2-y,1/2+z
loop_
_atom_site_type_symbol
_atom_site_label
_atom_site_fract_x
_atom_site_fract_y
_atom_site_fract_z
Si Si1 0.818049 0.420653 0.926520
Si Si2 0.686162 0.723709 0.851353
Si Si3 0.683777 0.500000 0.432437
Si Si4 0.684916 0.386544 0.108939
Si Si5 0.182656 0.000000 0.741742
Si Si6 0.813439 0.238335 0.156303
Si Si7 0.309722 0.344619 0.495362
O O1 0.798258 0.500000 0.877514
O O2 0.771491 0.354315 0.862180
O O3 0.000000 0.410006 0.958135
O O4 0.704581 0.424425 0.013148
O O5 0.500000 0.712713 0.867897
O O6 0.718987 0.746410 0.749371
O O7 0.750616 0.785818 0.920323
O O8 0.500000 0.500000 0.457816
O O9 0.702305 0.500000 0.326165
O O10 0.759000 0.574933 0.471336
O O11 0.500000 0.383497 0.135766
O O12 0.781749 0.428108 0.185182
O O13 0.762587 0.307488 0.097212
O O14 0.000000 0.000000 0.773180
O O15 0.000000 0.234415 0.176497
O O16 0.759872 0.170655 0.094528
O O17 0.500000 0.343506 0.497950
#
# Coordination Sequence:
#
# PCOD8180379 Si02
#       7
#     8   8   4   8   4   8   8
#     4  11  23  40  63  93 131 166 207 262 322 381
#     4  11  23  41  67  95 128 169 219 267 319 387
#     4  10  22  42  66  93 128 169 214 264 318 378
#     4  12  23  38  62  91 127 167 212 259 318 388
#     4  12  24  38  60  95 132 165 208 262 326 388
#     4  12  25  41  65  94 128 169 216 271 327 380
#     4  10  22  42  67  94 127 168 215 268 321 383
#
# _framework density 20.976976000000001
#
# number of rings (size 3 to 8) (size 9 to 14) (size 15 to 20)
#    0.000    0.833    2.500    5.750    0.000    3.667 
#    1.500    0.000    0.000    0.000    0.000    0.000 
#    0.000    0.000    0.000    0.000    0.000    0.000 
#
# Total GULP energy -297631.840721 kJ/mol
# GULP energy per Si atom -12401.326697 kJ/mol
# Density = 2.092923 g / cm^3
# Si number density = 20.976976 Si / 1000 Ang^3
#
#
#
# Elastic Constant Matrix: (Units=GPa)
#
#
# Indices 1 2 3 4 5 6 
#
# 1 61.1982 34.8669 10.9813 0.0000 0.0000 0.0000
# 2 34.8669 150.6525 31.8340 0.0000 0.0000 0.0000
# 3 10.9813 31.8340 84.1934 0.0000 0.0000 0.0000
# 4 0.0000 0.0000 0.0000 14.8054 0.0000 0.0000
# 5 0.0000 0.0000 0.0000 0.0000 28.2678 0.0000
# 6 0.0000 0.0000 0.0000 0.0000 0.0000 21.1716
#
#
#
# Elastic Compliance Matrix: (Units=1/GPa)
#
#
# Indices 1 2 3 4 5 6 
#
# 1 0.018882 -0.004184 -0.000881 0.000000 0.000000 0.000000
# 2 -0.004184 0.008141 -0.002533 0.000000 0.000000 0.000000
# 3 -0.000881 -0.002533 0.012950 0.000000 0.000000 0.000000
# 4 0.000000 0.000000 0.000000 0.067543 0.000000 0.000000
# 5 0.000000 0.000000 0.000000 0.000000 0.035376 0.000000
# 6 0.000000 0.000000 0.000000 0.000000 0.000000 0.047233
#
#
# Mechanical properties :
#
#
# Convention : Reuss Voigt Hill
#
# Bulk Modulus (GPa) = 40.35727 50.15650 45.25689
# Shear Modulus (GPa) = 23.41050 27.40642 25.40846
#
# Velocity S-wave (km/s) = 3.34430 3.61848 3.48408
# Velocity P-wave (km/s) = 5.84748 6.43584 6.14870
#
# Compressibility (1/GPa) = 0.02477868
#
# Stress axis : x y z
#
# Youngs Moduli (GPa) = 52.96004 122.83096 77.22081
#
# Poissons Ratio (x) = 0.51392 0.06802
# Poissons Ratio (y) = 0.22158 0.19557
# Poissons Ratio (z) = 0.04665 0.31108
#
# Static dielectric constant tensor:
#      x y z
#    x 3.635660 0.000000 0.000000 
#    y 0.000000 4.159670 0.000000 
#    z 0.000000 0.000000 3.587020 
# 
# 
# High freq. dielectric constant tensor:
#      x y z
#    x 1.819100 0.000000 0.000000 
#    y 0.000000 1.836300 0.000000 
#    z 0.000000 0.000000 1.809110 
# 
# From -- ./inp_files/12100.got.cif
#   From: 2010.03.12/outbox.cif.g09.slc.cpg/sg38_7_cif.got.tgz:12100.got - 2010.04.14 02:38:36.
