data_PCOD8180357
_publ_section_title
;
Structure prediction by ZEFSAII (Michael W. Deem and Ramdas Pophale) SiO2 
 PCOD8180357
Probable space group: A M M 2
;
_chemical_formula_sum "Si O2"
_cell_formula_units_Z 64
_cell_length_a 15.261774
_cell_length_b 8.936602
_cell_length_c 23.650865
_cell_angle_alpha 90.000000
_cell_angle_beta 90.000000
_cell_angle_gamma 90.000000
_cell_volume 3225.703637
_symmetry_space_group_name_H-M "A M M 2"
_symmetry_group_IT_number 38
_symmetry_cell_setting 'orthorhombic'
loop_
_space_group_symop_operation_xyz
x,y,z
-x,-y,z
-x,y,z
x,-y,z
x,1/2+y,1/2+z
-x,1/2-y,1/2+z
-x,1/2+y,1/2+z
x,1/2-y,1/2+z
loop_
_atom_site_type_symbol
_atom_site_label
_atom_site_fract_x
_atom_site_fract_y
_atom_site_fract_z
Si Si1 0.099228 0.828308 0.643450
Si Si2 0.098582 0.171066 0.378740
Si Si3 0.753361 0.675189 0.450247
Si Si4 0.844929 0.674042 0.268454
Si Si5 0.401035 0.670890 0.886825
Si Si6 0.341378 0.326786 0.762317
Si Si7 0.254191 0.324409 0.580283
Si Si8 0.401410 0.671723 0.153038
O O1 0.105635 0.795052 0.709985
O O2 0.163132 0.720532 0.609215
O O3 0.000000 0.795485 0.623855
O O4 0.125361 0.000000 0.631098
O O5 0.163258 0.245939 0.423069
O O6 0.100723 0.248195 0.317834
O O7 0.000000 0.183794 0.402776
O O8 0.127981 0.000000 0.371087
O O9 0.766493 0.500000 0.442953
O O10 0.663615 0.720725 0.419997
O O11 0.748969 0.723529 0.515222
O O12 0.838492 0.500000 0.282583
O O13 0.748669 0.739560 0.265805
O O14 0.500000 0.708480 0.905665
O O15 0.376705 0.500000 0.901755
O O16 0.394524 0.696674 0.819849
O O17 0.322098 0.500000 0.749977
O O18 0.398540 0.260019 0.711830
O O19 0.268465 0.500000 0.588125
O O20 0.335752 0.240105 0.607632
O O21 0.500000 0.684184 0.128835
O O22 0.374593 0.500000 0.163913
#
# Coordination Sequence:
#
# PCOD8180357 Si02
#       8
#     8   8   8   8   8   8   8   8
#     4  10  22  40  63  91 123 160 200 244 300 363
#     4  11  24  41  63  92 124 162 206 250 301 362
#     4  11  25  43  63  88 119 159 206 256 309 362
#     4  11  21  36  62  94 127 162 199 243 302 364
#     4  10  22  40  63  91 123 160 200 244 300 363
#     4  11  21  36  62  94 127 162 199 243 302 364
#     4  11  25  43  63  88 119 159 206 256 309 362
#     4  11  24  41  63  92 124 162 206 250 301 362
#
# _framework density 19.840631999999999
#
# number of rings (size 3 to 8) (size 9 to 14) (size 15 to 20)
#    0.000    1.250    2.500    3.000    0.000    7.500 
#    0.000    5.000    0.000    0.000    0.000    0.000 
#    0.000    0.000    0.000    0.000    0.000    0.000 
#
# Total GULP energy -396963.690458 kJ/mol
# GULP energy per Si atom -12405.115327 kJ/mol
# Density = 1.979547 g / cm^3
# Si number density = 19.840632 Si / 1000 Ang^3
#
#
#
# Elastic Constant Matrix: (Units=GPa)
#
#
# Indices 1 2 3 4 5 6 
#
# 1 121.9727 43.1556 52.8461 0.0000 0.0000 0.0000
# 2 43.1556 89.5112 72.0168 0.0000 0.0000 0.0000
# 3 52.8461 72.0168 128.7970 0.0000 0.0000 0.0000
# 4 0.0000 0.0000 0.0000 31.8193 0.0000 0.0000
# 5 0.0000 0.0000 0.0000 0.0000 -4.7855 0.0000
# 6 0.0000 0.0000 0.0000 0.0000 0.0000 26.1160
#
#
#
# Elastic Compliance Matrix: (Units=1/GPa)
#
#
# Indices 1 2 3 4 5 6 
#
# 1 0.010359 -0.002863 -0.002650 0.000000 0.000000 0.000000
# 2 -0.002863 0.021098 -0.010623 0.000000 0.000000 0.000000
# 3 -0.002650 -0.010623 0.014791 0.000000 0.000000 0.000000
# 4 0.000000 0.000000 0.000000 0.031427 0.000000 0.000000
# 5 0.000000 0.000000 0.000000 0.000000 -0.208966 0.000000
# 6 0.000000 0.000000 0.000000 0.000000 0.000000 0.038291
#
#
# Mechanical properties :
#
#
# Convention : Reuss Voigt Hill
#
# Bulk Modulus (GPa) = 71.53738 75.14640 73.34189
# Shear Modulus (GPa) = -89.17510 22.11414 -33.53048
#
# Velocity S-wave (km/s) = -6.71143 3.34217 -4.11541
# Velocity P-wave (km/s) = 4.89116 7.26985 3.80311
#
# Compressibility (1/GPa) = 0.01397871
#
# Stress axis : x y z
#
# Youngs Moduli (GPa) = 96.52987 47.39698 67.60821
#
# Poissons Ratio (x) = 0.13567 0.17916
# Poissons Ratio (y) = 0.27632 0.71818
# Poissons Ratio (z) = 0.25580 0.50348
#
# Static dielectric constant tensor:
#      x y z
#    x 5.559490 0.000000 0.000000 
#    y 0.000000 3.858860 0.000000 
#    z 0.000000 0.000000 3.721260 
# 
# 
# High freq. dielectric constant tensor:
#      x y z
#    x 1.787330 0.000000 0.000000 
#    y 0.000000 1.784820 0.000000 
#    z 0.000000 0.000000 1.770830 
# 
# From -- ./inp_files/22910.got.cif
#   From: 2010.03.12/outbox.cif.g09.slc.cpg/sg38_12_cif.got.tgz:22910.got - 2010.04.14 02:38:36.
