data_PCOD8180016
_publ_section_title
;
Structure prediction by ZEFSAII (Michael W. Deem and Ramdas Pophale) SiO2 
 PCOD8180016
Probable space group: A M M 2
;
_chemical_formula_sum "Si O2"
_cell_formula_units_Z 64
_cell_length_a 13.732600
_cell_length_b 9.060372
_cell_length_c 26.072902
_cell_angle_alpha 90.000000
_cell_angle_beta 90.000000
_cell_angle_gamma 90.000000
_cell_volume 3244.054724
_symmetry_space_group_name_H-M "A M M 2"
_symmetry_group_IT_number 38
_symmetry_cell_setting 'orthorhombic'
loop_
_space_group_symop_operation_xyz
x,y,z
-x,-y,z
-x,y,z
x,-y,z
x,1/2+y,1/2+z
-x,1/2-y,1/2+z
-x,1/2+y,1/2+z
x,1/2-y,1/2+z
loop_
_atom_site_type_symbol
_atom_site_label
_atom_site_fract_x
_atom_site_fract_y
_atom_site_fract_z
Si Si1 0.386815 0.827443 0.877800
Si Si2 0.606895 0.826423 0.989453
Si Si3 0.612863 0.673037 0.600308
Si Si4 0.115931 0.332221 0.435666
Si Si5 0.115131 0.669347 0.036641
Si Si6 0.790120 0.674644 0.839723
Si Si7 0.885378 0.170208 0.745168
Si Si8 0.786302 0.326294 0.140468
O O1 0.500000 0.781266 0.873020
O O2 0.321562 0.733192 0.838815
O O3 0.375444 0.000000 0.865635
O O4 0.341593 0.789685 0.935017
O O5 0.500000 0.754387 0.985727
O O6 0.653079 0.773216 0.043559
O O7 0.593302 0.000000 0.994009
O O8 0.500000 0.717311 0.607374
O O9 0.626775 0.500000 0.608175
O O10 0.678137 0.756593 0.642145
O O11 0.154501 0.500000 0.431538
O O12 0.156948 0.264329 0.488920
O O13 0.151281 0.240426 0.387246
O O14 0.000000 0.326687 0.435699
O O15 0.145779 0.500000 0.027467
O O16 0.157115 0.731350 0.090112
O O17 0.000000 0.685595 0.040010
O O18 0.791043 0.500000 0.843328
O O19 0.840518 0.724845 0.787746
O O20 0.844429 0.224181 0.690620
O O21 0.000000 0.191855 0.744317
O O22 0.857798 0.000000 0.756591
O O23 0.776179 0.500000 0.139237
#
# Coordination Sequence:
#
# PCOD8180016 Si02
#       8
#     8   8   8   8   8   8   8   8
#     4   9  18  35  59  85 115 154 199 240 280 335
#     4   7  12  26  49  76 106 144 188 229 268 315
#     4   9  18  33  53  80 116 156 195 233 278 333
#     4  10  21  37  57  82 113 151 194 236 281 343
#     4   9  18  34  55  82 118 151 178 222 290 356
#     4  12  25  38  57  86 119 151 188 239 299 351
#     4  10  22  43  67  86 108 146 197 246 290 346
#     4  10  21  36  58  87 115 145 188 238 291 343
#
# _framework density 19.728397999999999
#
# number of rings (size 3 to 8) (size 9 to 14) (size 15 to 20)
#    0.000    2.500    0.000    3.750    1.750    5.500 
#    0.000    0.625    0.000    5.250    0.000    0.000 
#    0.000    0.000    0.000    0.000    0.000    0.000 
#
# Total GULP energy -396632.751785 kJ/mol
# GULP energy per Si atom -12394.773493 kJ/mol
# Density = 1.968350 g / cm^3
# Si number density = 19.728398 Si / 1000 Ang^3
#
#
#
# Elastic Constant Matrix: (Units=GPa)
#
#
# Indices 1 2 3 4 5 6 
#
# 1 65.0346 41.5436 59.0794 0.0000 0.0000 0.0000
# 2 41.5436 82.6087 67.8160 0.0000 0.0000 0.0000
# 3 59.0794 67.8160 134.6697 0.0000 0.0000 0.0000
# 4 0.0000 0.0000 0.0000 29.6989 0.0000 0.0000
# 5 0.0000 0.0000 0.0000 0.0000 34.2853 0.0000
# 6 0.0000 0.0000 0.0000 0.0000 0.0000 27.9091
#
#
#
# Elastic Compliance Matrix: (Units=1/GPa)
#
#
# Indices 1 2 3 4 5 6 
#
# 1 0.027589 -0.006714 -0.008722 0.000000 0.000000 0.000000
# 2 -0.006714 0.022270 -0.008269 0.000000 0.000000 0.000000
# 3 -0.008722 -0.008269 0.015416 0.000000 0.000000 0.000000
# 4 0.000000 0.000000 0.000000 0.033671 0.000000 0.000000
# 5 0.000000 0.000000 0.000000 0.000000 0.029167 0.000000
# 6 0.000000 0.000000 0.000000 0.000000 0.000000 0.035831
#
#
# Mechanical properties :
#
#
# Convention : Reuss Voigt Hill
#
# Bulk Modulus (GPa) = 55.97764 68.79902 62.38833
# Shear Modulus (GPa) = 23.00864 25.97024 24.48944
#
# Velocity S-wave (km/s) = 3.41877 3.63214 3.52707
# Velocity P-wave (km/s) = 6.63474 7.24836 6.94833
#
# Compressibility (1/GPa) = 0.01786428
#
# Stress axis : x y z
#
# Youngs Moduli (GPa) = 36.24666 44.90305 64.86708
#
# Poissons Ratio (x) = 0.30148 0.56578
# Poissons Ratio (y) = 0.24336 0.53640
# Poissons Ratio (z) = 0.31615 0.37131
#
# Static dielectric constant tensor:
#      x y z
#    x 3.611530 0.000000 0.000000 
#    y 0.000000 3.352160 0.000000 
#    z 0.000000 0.000000 3.720040 
# 
# 
# High freq. dielectric constant tensor:
#      x y z
#    x 1.779490 0.000000 0.000000 
#    y 0.000000 1.744210 0.000000 
#    z 0.000000 0.000000 1.762600 
# 
# From -- ./inp_files/22983.got.cif
#   From: 2010.03.12/outbox.cif.g09.slc.cpg/sg38_12_cif.got.tgz:22983.got - 2010.04.14 02:38:36.
