data_PCOD8180422
_publ_section_title
;
Structure prediction by ZEFSAII (Michael W. Deem and Ramdas Pophale) SiO2 
 PCOD8180422
Probable space group: A M M 2
;
_chemical_formula_sum "Si O2"
_cell_formula_units_Z 64
_cell_length_a 14.112888
_cell_length_b 9.071448
_cell_length_c 31.248811
_cell_angle_alpha 90.000000
_cell_angle_beta 90.000000
_cell_angle_gamma 90.000000
_cell_volume 4000.608080
_symmetry_space_group_name_H-M "A M M 2"
_symmetry_group_IT_number 38
_symmetry_cell_setting 'orthorhombic'
loop_
_space_group_symop_operation_xyz
x,y,z
-x,-y,z
-x,y,z
x,-y,z
x,1/2+y,1/2+z
-x,1/2-y,1/2+z
-x,1/2+y,1/2+z
x,1/2-y,1/2+z
loop_
_atom_site_type_symbol
_atom_site_label
_atom_site_fract_x
_atom_site_fract_y
_atom_site_fract_z
Si Si1 0.387126 0.836106 0.100470
Si Si2 0.607363 0.326984 0.183284
Si Si3 0.394553 0.324700 0.507510
Si Si4 0.107520 0.169345 0.295483
Si Si5 0.611759 0.828881 0.346615
Si Si6 0.713499 0.325719 0.268382
Si Si7 0.892570 0.830831 0.395364
Si Si8 0.285238 0.325374 0.424404
O O1 0.500000 0.839090 0.100728
O O2 0.348425 0.738733 0.139671
O O3 0.345893 0.000000 0.106798
O O4 0.355869 0.770191 0.054043
O O5 0.500000 0.270257 0.190951
O O6 0.608848 0.500000 0.177985
O O7 0.670781 0.276061 0.223051
O O8 0.500000 0.261191 0.498261
O O9 0.400491 0.500000 0.509188
O O10 0.324257 0.271971 0.470295
O O11 0.177292 0.274460 0.268967
O O12 0.129596 0.190324 0.345441
O O13 0.000000 0.217041 0.285147
O O14 0.123911 0.000000 0.282299
O O15 0.500000 0.806578 0.346052
O O16 0.654039 0.754780 0.304687
O O17 0.652414 0.751844 0.388444
O O18 0.641065 0.000000 0.347178
O O19 0.706717 0.500000 0.275566
O O20 0.823711 0.725369 0.422122
O O21 0.000000 0.783538 0.405685
O O22 0.875649 0.000000 0.408525
O O23 0.292384 0.500000 0.418379
#
# Coordination Sequence:
#
# PCOD8180422 Si02
#       8
#     8   8   8   8   8   8   8   8
#     4   8  14  27  47  67  87 117 157 193 224 265
#     4   9  18  31  45  65  96 126 151 186 231 274
#     4   8  15  28  45  67  96 125 152 186 228 272
#     4   9  18  33  51  68  90 121 154 193 238 278
#     4  11  23  35  45  61  92 131 165 193 221 263
#     4  11  21  32  48  70  94 123 156 192 234 278
#     4   9  18  33  50  66  90 123 155 193 238 278
#     4  11  20  30  48  72  95 122 155 193 235 277
#
# _framework density 15.997569
#
# number of rings (size 3 to 8) (size 9 to 14) (size 15 to 20)
#    0.000    2.500    1.250    3.375    0.000    3.500 
#    0.000    3.750    0.000    3.000    0.000    0.875 
#    0.000    1.000    0.000    0.000    0.000    0.000 
#
# Total GULP energy -396724.805056 kJ/mol
# GULP energy per Si atom -12397.650158 kJ/mol
# Density = 1.596116 g / cm^3
# Si number density = 15.997569 Si / 1000 Ang^3
#
#
#
# Elastic Constant Matrix: (Units=GPa)
#
#
# Indices 1 2 3 4 5 6 
#
# 1 90.8782 41.5456 61.8959 0.0000 0.0000 0.0000
# 2 41.5456 63.0412 52.3293 0.0000 0.0000 0.0000
# 3 61.8959 52.3293 141.7130 0.0000 0.0000 0.0000
# 4 0.0000 0.0000 0.0000 23.7942 0.0000 0.0000
# 5 0.0000 0.0000 0.0000 0.0000 12.2037 0.0000
# 6 0.0000 0.0000 0.0000 0.0000 0.0000 25.5432
#
#
#
# Elastic Compliance Matrix: (Units=1/GPa)
#
#
# Indices 1 2 3 4 5 6 
#
# 1 0.017904 -0.007654 -0.004994 0.000000 0.000000 0.000000
# 2 -0.007654 0.026146 -0.006312 0.000000 0.000000 0.000000
# 3 -0.004994 -0.006312 0.011568 0.000000 0.000000 0.000000
# 4 0.000000 0.000000 0.000000 0.042027 0.000000 0.000000
# 5 0.000000 0.000000 0.000000 0.000000 0.081942 0.000000
# 6 0.000000 0.000000 0.000000 0.000000 0.000000 0.039149
#
#
# Mechanical properties :
#
#
# Convention : Reuss Voigt Hill
#
# Bulk Modulus (GPa) = 56.49839 67.46377 61.98108
# Shear Modulus (GPa) = 19.04364 21.63235 20.33799
#
# Velocity S-wave (km/s) = 3.45397 3.68125 3.56942
# Velocity P-wave (km/s) = 7.16241 7.76735 7.47100
#
# Compressibility (1/GPa) = 0.01769962
#
# Stress axis : x y z
#
# Youngs Moduli (GPa) = 55.85394 38.24668 86.44386
#
# Poissons Ratio (x) = 0.29274 0.43166
# Poissons Ratio (y) = 0.42751 0.54561
# Poissons Ratio (z) = 0.27891 0.24140
#
# Static dielectric constant tensor:
#      x y z
#    x 3.012780 0.000000 0.000000 
#    y 0.000000 2.981840 0.000000 
#    z 0.000000 0.000000 3.219860 
# 
# 
# High freq. dielectric constant tensor:
#      x y z
#    x 1.598360 0.000000 0.000000 
#    y 0.000000 1.609430 0.000000 
#    z 0.000000 0.000000 1.606640 
# 
# From -- ./inp_files/25089.got.cif
#   From: 2010.03.12/outbox.cif.g09.slc.cpg/sg38_13_cif.got.tgz:25089.got - 2010.04.14 02:38:36.
