data_PCOD8180204
_publ_section_title
;
Structure prediction by ZEFSAII (Michael W. Deem and Ramdas Pophale) SiO2 
 PCOD8180204
Probable space group: A M M 2
;
_chemical_formula_sum "Si O2"
_cell_formula_units_Z 48
_cell_length_a 16.917286
_cell_length_b 8.942784
_cell_length_c 15.950191
_cell_angle_alpha 90.000000
_cell_angle_beta 90.000000
_cell_angle_gamma 90.000000
_cell_volume 2413.066667
_symmetry_space_group_name_H-M "A M M 2"
_symmetry_group_IT_number 38
_symmetry_cell_setting 'orthorhombic'
loop_
_space_group_symop_operation_xyz
x,y,z
-x,-y,z
-x,y,z
x,-y,z
x,1/2+y,1/2+z
-x,1/2-y,1/2+z
-x,1/2+y,1/2+z
x,1/2-y,1/2+z
loop_
_atom_site_type_symbol
_atom_site_label
_atom_site_fract_x
_atom_site_fract_y
_atom_site_fract_z
Si Si1 0.590038 0.322559 0.451440
Si Si2 0.000000 0.669018 0.603857
Si Si3 0.843768 0.676043 0.364414
Si Si4 0.000000 0.332145 0.801256
Si Si5 0.681327 0.823435 0.789754
Si Si6 0.154664 0.328038 0.036074
Si Si7 0.677254 0.671880 0.104751
O O1 0.500000 0.267134 0.453869
O O2 0.596421 0.500000 0.451334
O O3 0.629039 0.255884 0.366000
O O4 0.633833 0.266604 0.534254
O O5 0.000000 0.666645 0.702597
O O6 0.077178 0.754656 0.574255
O O7 0.000000 0.500000 0.567504
O O8 0.855686 0.500000 0.371557
O O9 0.924082 0.747513 0.333907
O O10 0.773147 0.719756 0.301623
O O11 0.818920 0.740616 0.453697
O O12 0.000000 0.500000 0.837596
O O13 0.653458 0.766561 0.697709
O O14 0.671928 0.000000 0.791606
O O15 0.135866 0.500000 0.015006
O O16 0.227775 0.313794 0.099729
O O17 0.651364 0.500000 0.093417
#
# Coordination Sequence:
#
# PCOD8180204 Si02
#       7
#     8   4   8   4   8   8   8
#     4  10  21  39  62  88 120 155 193 242 298 356
#     4  11  24  39  56  81 115 159 204 244 295 356
#     4  11  21  37  61  84 113 155 203 244 292 357
#     4  11  24  39  54  81 119 153 196 250 301 348
#     4   9  19  37  61  88 117 155 199 240 288 352
#     4  11  22  37  58  85 119 154 197 251 300 345
#     4  10  21  38  62  90 119 155 198 244 296 352
#
# _framework density 19.891701000000001
#
# number of rings (size 3 to 8) (size 9 to 14) (size 15 to 20)
#    0.000    1.667    1.667    3.000    0.000    4.333 
#    0.000    4.167    0.000    0.000    0.000    0.000 
#    0.000    0.000    0.000    0.000    0.000    0.000 
#
# Total GULP energy -297582.988075 kJ/mol
# GULP energy per Si atom -12399.291170 kJ/mol
# Density = 1.984643 g / cm^3
# Si number density = 19.891701 Si / 1000 Ang^3
#
#
#
# Elastic Constant Matrix: (Units=GPa)
#
#
# Indices 1 2 3 4 5 6 
#
# 1 124.7865 43.5987 61.6513 0.0000 0.0000 0.0000
# 2 43.5987 70.0426 21.1924 0.0000 0.0000 0.0000
# 3 61.6513 21.1924 138.4968 0.0000 0.0000 0.0000
# 4 0.0000 0.0000 0.0000 28.0151 0.0000 0.0000
# 5 0.0000 0.0000 0.0000 0.0000 21.5732 0.0000
# 6 0.0000 0.0000 0.0000 0.0000 0.0000 24.6028
#
#
#
# Elastic Compliance Matrix: (Units=1/GPa)
#
#
# Indices 1 2 3 4 5 6 
#
# 1 0.012521 -0.006404 -0.004594 0.000000 0.000000 0.000000
# 2 -0.006404 0.018245 0.000059 0.000000 0.000000 0.000000
# 3 -0.004594 0.000059 0.009256 0.000000 0.000000 0.000000
# 4 0.000000 0.000000 0.000000 0.035695 0.000000 0.000000
# 5 0.000000 0.000000 0.000000 0.000000 0.046354 0.000000
# 6 0.000000 0.000000 0.000000 0.000000 0.000000 0.040646
#
#
# Mechanical properties :
#
#
# Convention : Reuss Voigt Hill
#
# Bulk Modulus (GPa) = 55.11172 65.13452 60.12312
# Shear Modulus (GPa) = 26.22716 28.63045 27.42880
#
# Velocity S-wave (km/s) = 3.63505 3.79795 3.71739
# Velocity P-wave (km/s) = 6.73678 7.21444 6.97970
#
# Compressibility (1/GPa) = 0.01814496
#
# Stress axis : x y z
#
# Youngs Moduli (GPa) = 79.86891 54.80872 108.03548
#
# Poissons Ratio (x) = 0.35098 0.49627
# Poissons Ratio (y) = 0.51145 -0.00634
# Poissons Ratio (z) = 0.36689 -0.00322
#
# Static dielectric constant tensor:
#      x y z
#    x 3.646800 0.000000 0.000000 
#    y 0.000000 3.570570 0.000000 
#    z 0.000000 0.000000 3.990670 
# 
# 
# High freq. dielectric constant tensor:
#      x y z
#    x 1.780640 0.000000 0.000000 
#    y 0.000000 1.760770 0.000000 
#    z 0.000000 0.000000 1.791710 
# 
# From -- ./inp_files/14998.got.cif
#   From: 2010.03.12/outbox.cif.g09.slc.cpg/sg38_8_cif.got.tgz:14998.got - 2010.04.14 02:38:36.
