data_PCOD8180327
_publ_section_title
;
Structure prediction by ZEFSAII (Michael W. Deem and Ramdas Pophale) SiO2 
 PCOD8180327
Probable space group: A M M 2
;
_chemical_formula_sum "Si O2"
_cell_formula_units_Z 64
_cell_length_a 18.950190
_cell_length_b 17.355308
_cell_length_c 9.592424
_cell_angle_alpha 90.000000
_cell_angle_beta 90.000000
_cell_angle_gamma 90.000000
_cell_volume 3154.817644
_symmetry_space_group_name_H-M "A M M 2"
_symmetry_group_IT_number 38
_symmetry_cell_setting 'orthorhombic'
loop_
_space_group_symop_operation_xyz
x,y,z
-x,-y,z
-x,y,z
x,-y,z
x,1/2+y,1/2+z
-x,1/2-y,1/2+z
-x,1/2+y,1/2+z
x,1/2-y,1/2+z
loop_
_atom_site_type_symbol
_atom_site_label
_atom_site_fract_x
_atom_site_fract_y
_atom_site_fract_z
Si Si1 0.313045 0.183361 0.150220
Si Si2 0.691674 0.834981 0.827776
Si Si3 0.082737 0.301074 0.157290
Si Si4 0.841551 0.362137 0.658919
Si Si5 0.422276 0.090636 0.645006
Si Si6 0.842141 0.911700 0.856123
Si Si7 0.416918 0.088551 0.334752
Si Si8 0.919585 0.915077 0.417515
O O1 0.302358 0.265496 0.220393
O O2 0.242271 0.135753 0.177873
O O3 0.378400 0.139458 0.218807
O O4 0.325872 0.193039 0.984360
O O5 0.628628 0.887653 0.771381
O O6 0.763519 0.883278 0.822215
O O7 0.128498 0.224363 0.162319
O O8 0.100177 0.357037 0.284833
O O9 0.000000 0.280716 0.160549
O O10 0.105570 0.347712 0.019728
O O11 0.861130 0.405311 0.517764
O O12 0.872720 0.413200 0.780931
O O13 0.500000 0.126464 0.674372
O O14 0.395607 0.117347 0.490937
O O15 0.429439 0.000000 0.638608
O O16 0.850298 0.000000 0.806629
O O17 0.500000 0.099124 0.312580
O O18 0.394628 0.000000 0.312275
O O19 0.000000 0.900272 0.374157
O O20 0.910768 0.000000 0.486590
#
# Coordination Sequence:
#
# PCOD8180327 Si02
#       8
#     8   8   8   8   8   8   8   8
#     4  11  24  38  62  87 123 162 208 256 311 373
#     4  11  23  40  59  89 124 161 207 261 312 377
#     4  11  23  41  64  89 120 163 207 252 310 378
#     4  11  23  40  62  88 123 162 206 254 310 375
#     4   9  19  38  64  90 120 160 203 248 304 371
#     4  11  24  41  63  91 125 163 206 262 319 372
#     4   9  20  40  64  92 126 164 208 256 311 374
#     4  10  22  39  60  88 120 155 202 255 305 365
#
# _framework density 20.286435000000001
#
# number of rings (size 3 to 8) (size 9 to 14) (size 15 to 20)
#    0.000    1.625    1.250    3.750    1.750    7.750 
#    0.000    2.500    0.000    0.000    0.000    0.000 
#    0.000    0.000    0.000    0.000    0.000    0.000 
#
# Total GULP energy -396811.085267 kJ/mol
# GULP energy per Si atom -12400.346415 kJ/mol
# Density = 2.024026 g / cm^3
# Si number density = 20.286435 Si / 1000 Ang^3
#
#
#
# Elastic Constant Matrix: (Units=GPa)
#
#
# Indices 1 2 3 4 5 6 
#
# 1 54.9629 6.4184 34.8881 0.0000 0.0000 0.0000
# 2 6.4184 69.1039 12.1323 0.0000 0.0000 0.0000
# 3 34.8881 12.1323 95.3457 0.0000 0.0000 0.0000
# 4 0.0000 0.0000 0.0000 34.8269 0.0000 0.0000
# 5 0.0000 0.0000 0.0000 0.0000 58.4767 0.0000
# 6 0.0000 0.0000 0.0000 0.0000 0.000030972.8361
#
#
#
# Elastic Compliance Matrix: (Units=1/GPa)
#
#
# Indices 1 2 3 4 5 6 
#
# 1 0.023731 -0.000695 -0.008595 0.000000 0.000000 0.000000
# 2 -0.000695 0.014822 -0.001632 0.000000 0.000000 0.000000
# 3 -0.008595 -0.001632 0.013841 0.000000 0.000000 0.000000
# 4 0.000000 0.000000 0.000000 0.028713 0.000000 0.000000
# 5 0.000000 0.000000 0.000000 0.000000 0.017101 0.000000
# 6 0.000000 0.000000 0.000000 0.000000 0.000000 0.000032
#
#
# Mechanical properties :
#
#
# Convention : Reuss Voigt Hill
#
# Bulk Modulus (GPa) = 32.73306 36.25447 34.49376
# Shear Modulus (GPa) = 38.38261 6224.29287 3131.33774
#
# Velocity S-wave (km/s) = 4.35447 55.45147 39.33082
# Velocity P-wave (km/s) = 6.43835 64.16954 45.60254
#
# Compressibility (1/GPa) = 0.03055016
#
# Stress axis : x y z
#
# Youngs Moduli (GPa) = 42.13894 67.46734 72.25027
#
# Poissons Ratio (x) = 0.04690 0.62099
# Poissons Ratio (y) = 0.02929 0.11789
# Poissons Ratio (z) = 0.36218 0.11008
#
# Static dielectric constant tensor:
#      x y z
#    x 2.871340 0.000000 0.000000 
#    y 0.000000 3.576580 0.000000 
#    z 0.000000 0.000000 3.851830 
# 
# 
# High freq. dielectric constant tensor:
#      x y z
#    x 1.794590 0.000000 0.000000 
#    y 0.000000 1.795660 0.000000 
#    z 0.000000 0.000000 1.799520 
# 
# From -- ./inp_files/6839.got.cif
#   From: 2010.03.12/outbox.cif.g09.slc.cpg/sg38_4_cif.got.tgz:6839.got - 2010.04.14 02:38:36.
