data_PCOD8180595
_publ_section_title
;
Structure prediction by ZEFSAII (Michael W. Deem and Ramdas Pophale) SiO2 
 PCOD8180595
Probable space group: A B M 2
;
_chemical_formula_sum "Si O2"
_cell_formula_units_Z 64
_cell_length_a 35.348307
_cell_length_b 14.632747
_cell_length_c 5.285990
_cell_angle_alpha 90.000000
_cell_angle_beta 90.000000
_cell_angle_gamma 90.000000
_cell_volume 2734.140444
_symmetry_space_group_name_H-M "A B M 2"
_symmetry_group_IT_number 39
_symmetry_cell_setting 'orthorhombic'
loop_
_space_group_symop_operation_xyz
x,y,z
-x,-y,z
-x,1/2+y,z
x,1/2-y,z
x,1/2+y,1/2+z
-x,1/2-y,1/2+z
-x,y,1/2+z
x,-y,1/2+z
loop_
_atom_site_type_symbol
_atom_site_label
_atom_site_fract_x
_atom_site_fract_y
_atom_site_fract_z
Si Si1 0.515875 0.897892 0.596600
Si Si2 0.148729 0.140930 0.618462
Si Si3 0.978999 0.358969 0.618409
Si Si4 0.722684 0.641254 0.117760
Si Si5 0.394824 0.602290 0.099495
Si Si6 0.362935 0.100873 0.099296
Si Si7 0.106633 0.358940 0.118466
Si Si8 0.765960 0.858548 0.617921
O O1 0.503108 0.847429 0.337757
O O2 0.560507 0.895517 0.627715
O O3 0.500000 0.000000 0.567548
O O4 0.148488 0.250000 0.618406
O O5 0.127630 0.103485 0.368574
O O6 0.191445 0.102948 0.618476
O O7 0.127639 0.103491 0.868382
O O8 0.979603 0.250000 0.618408
O O9 0.936180 0.395705 0.618430
O O10 0.999997 0.396675 0.368399
O O11 0.717881 0.750000 0.116904
O O12 0.681962 0.594480 0.121393
O O13 0.744949 0.606475 0.365634
O O14 0.744727 0.606203 0.869162
O O15 0.380403 0.499295 0.070439
O O16 0.375583 0.652433 0.340868
O O17 0.380858 0.652675 0.842644
O O18 0.107190 0.250000 0.118459
O O19 0.766939 0.750000 0.618485
#
# Coordination Sequence:
#
# PCOD8180595 Si02
#       8
#     8   8   8   8   8   8   8   8
#     4  10  16  25  41  63  91 110 129 161 199 243
#     4   9  15  23  34  46  61  80 107 147 190 233
#     4   9  15  21  27  36  53  75  99 131 172 224
#     4  10  19  30  44  61  81 107 138 168 202 247
#     4  10  19  30  45  67  92 114 136 165 203 242
#     4  10  18  30  44  61  88 114 137 166 200 243
#     4   9  15  21  30  43  56  76 106 138 181 235
#     4   9  17  28  40  55  74  96 125 164 206 243
#
# _framework density 23.407722
#
# number of rings (size 3 to 8) (size 9 to 14) (size 15 to 20)
#    0.000    2.500    0.000    6.000    0.000    6.000 
#    0.000    0.000    0.000    0.000    0.000    0.000 
#    0.000   37.000    0.000    0.000    0.000    0.000 
#
# Total GULP energy -396688.654470 kJ/mol
# GULP energy per Si atom -12396.520452 kJ/mol
# Density = 2.335444 g / cm^3
# Si number density = 23.407722 Si / 1000 Ang^3
#
#
#
# Elastic Constant Matrix: (Units=GPa)
#
#
# Indices 1 2 3 4 5 6 
#
# 1 216.7519 2.4253 86.9795 0.0000 0.0000 0.0000
# 2 2.4253 16.0768 -6.2220 0.0000 0.0000 0.0000
# 3 86.9795 -6.2220 246.6368 0.0000 0.0000 0.0000
# 4 0.0000 0.0000 0.0000 -9.7591 0.0000 0.0000
# 5 0.0000 0.0000 0.0000 0.0000 57.9935 0.0000
# 6 0.0000 0.0000 0.0000 0.0000 0.0000 38.8154
#
#
#
# Elastic Compliance Matrix: (Units=1/GPa)
#
#
# Indices 1 2 3 4 5 6 
#
# 1 0.005413 -0.001571 -0.001949 0.000000 0.000000 0.000000
# 2 -0.001571 0.063270 0.002150 0.000000 0.000000 0.000000
# 3 -0.001949 0.002150 0.004796 0.000000 0.000000 0.000000
# 4 0.000000 0.000000 0.000000 -0.102469 0.000000 0.000000
# 5 0.000000 0.000000 0.000000 0.000000 0.017243 0.000000
# 6 0.000000 0.000000 0.000000 0.000000 0.000000 0.025763
#
#
# Mechanical properties :
#
#
# Convention : Reuss Voigt Hill
#
# Bulk Modulus (GPa) = 14.13607 71.75902 42.94754
# Shear Modulus (GPa) = 123.95935 43.82883 83.89409
#
# Velocity S-wave (km/s) = 7.28502 4.33183 5.99318
# Velocity P-wave (km/s) = 8.76437 7.46608 8.14115
#
# Compressibility (1/GPa) = 0.07074103
#
# Stress axis : x y z
#
# Youngs Moduli (GPa) = 184.73704 15.80515 208.50741
#
# Poissons Ratio (x) = 0.02483 0.40630
# Poissons Ratio (y) = 0.29018 -0.44831
# Poissons Ratio (z) = 0.35998 -0.03398
#
# Static dielectric constant tensor:
#      x y z
#    x 4.238220 0.000000 0.000000 
#    y 0.000000 3.280660 0.000000 
#    z 0.000000 0.000000 6.373010 
# 
# 
# High freq. dielectric constant tensor:
#      x y z
#    x 1.936110 0.000000 0.000000 
#    y 0.000000 1.864030 0.000000 
#    z 0.000000 0.000000 1.958260 
# 
# From -- ./inp_files/1459.got.cif
#   From: 2010.03.12/outbox.cif.g09.slc.cpg/sg39_1_cif.got.tgz:1459.got - 2010.04.14 02:53:20.
