data_PCOD8180629
_publ_section_title
;
Structure prediction by ZEFSAII (Michael W. Deem and Ramdas Pophale) SiO2 
 PCOD8180629
Probable space group: A B M 2
;
_chemical_formula_sum "Si O2"
_cell_formula_units_Z 56
_cell_length_a 17.189648
_cell_length_b 30.371901
_cell_length_c 5.146371
_cell_angle_alpha 90.000000
_cell_angle_beta 90.000000
_cell_angle_gamma 90.000000
_cell_volume 2686.829143
_symmetry_space_group_name_H-M "A B M 2"
_symmetry_group_IT_number 39
_symmetry_cell_setting 'orthorhombic'
loop_
_space_group_symop_operation_xyz
x,y,z
-x,-y,z
-x,1/2+y,z
x,1/2-y,z
x,1/2+y,1/2+z
-x,1/2-y,1/2+z
-x,y,1/2+z
x,-y,1/2+z
loop_
_atom_site_type_symbol
_atom_site_label
_atom_site_fract_x
_atom_site_fract_y
_atom_site_fract_z
Si Si1 0.598116 0.750000 0.042490
Si Si2 0.787765 0.971506 0.136465
Si Si3 0.302830 0.750000 0.044432
Si Si4 0.049301 0.300556 0.614705
Si Si5 0.787305 0.161396 0.048836
Si Si6 0.965450 0.048751 0.650153
Si Si7 0.280126 0.618802 0.545050
Si Si8 0.454051 0.846170 0.582476
O O1 0.669530 0.750000 0.246125
O O2 0.625881 0.750000 0.744810
O O3 0.546703 0.706845 0.089945
O O4 0.873573 0.950931 0.108141
O O5 0.724557 0.933278 0.098129
O O6 0.775439 0.991094 0.421850
O O7 0.252497 0.792393 0.106142
O O8 0.077767 0.250000 0.590012
O O9 0.120551 0.333482 0.570123
O O10 0.984202 0.310235 0.399219
O O11 0.756193 0.127146 0.261982
O O12 0.768344 0.144953 0.760847
O O13 0.009377 0.073780 0.414601
O O14 0.000000 0.000000 0.699959
O O15 0.369039 0.633642 0.552867
O O16 0.492424 0.863321 0.847661
#
# Coordination Sequence:
#
# PCOD8180629 Si02
#       8
#     4   8   4   8   8   8   8   8
#     4  12  22  39  64 101 130 170 220 246 314 413
#     4  12  23  42  68  93 122 169 213 260 320 397
#     4  12  20  37  66  91 132 174 208 268 310 385
#     4  10  21  36  59  84 117 174 231 268 305 361
#     4  12  22  43  62  92 131 173 215 267 325 370
#     4  10  16  32  60  90 122 150 196 242 320 392
#     4  12  27  43  66  97 130 163 217 269 327 395
#     4  12  24  42  65  95 138 171 203 264 324 386
#
# _framework density 20.842411999999999
#
# number of rings (size 3 to 8) (size 9 to 14) (size 15 to 20)
#    0.000    0.571    6.429    3.857    0.000    0.000 
#    0.000    4.286    0.000    2.571    0.000    0.000 
#    0.000    0.000    0.000    0.000    0.000    0.000 
#
# Total GULP energy -347322.241033 kJ/mol
# GULP energy per Si atom -12404.365751 kJ/mol
# Density = 2.079497 g / cm^3
# Si number density = 20.842412 Si / 1000 Ang^3
#
#
#
# Elastic Constant Matrix: (Units=GPa)
#
#
# Indices 1 2 3 4 5 6 
#
# 1 102.0881 26.2272 17.9631 0.0000 0.0000 0.0000
# 2 26.2272 52.5896 4.5252 0.0000 0.0000 0.0000
# 3 17.9631 4.5252 106.4839 0.0000 0.0000 0.0000
# 4 0.0000 0.0000 0.0000 -5.8324 0.0000 0.0000
# 5 0.0000 0.0000 0.0000 0.0000 33.5907 0.0000
# 6 0.0000 0.0000 0.0000 0.0000 0.0000 17.3219
#
#
#
# Elastic Compliance Matrix: (Units=1/GPa)
#
#
# Indices 1 2 3 4 5 6 
#
# 1 0.011536 -0.005606 -0.001708 0.000000 0.000000 0.000000
# 2 -0.005606 0.021810 0.000019 0.000000 0.000000 0.000000
# 3 -0.001708 0.000019 0.009678 0.000000 0.000000 0.000000
# 4 0.000000 0.000000 0.000000 -0.171455 0.000000 0.000000
# 5 0.000000 0.000000 0.000000 0.000000 0.029770 0.000000
# 6 0.000000 0.000000 0.000000 0.000000 0.000000 0.057730
#
#
# Mechanical properties :
#
#
# Convention : Reuss Voigt Hill
#
# Bulk Modulus (GPa) = 35.16962 39.84363 37.50662
# Shear Modulus (GPa) = -296.51929 23.17911 -136.67009
#
# Velocity S-wave (km/s) = -11.94052 3.33845 -8.10650
# Velocity P-wave (km/s) = 13.16020 5.83254 8.34183
#
# Compressibility (1/GPa) = 0.02843363
#
# Stress axis : x y z
#
# Youngs Moduli (GPa) = 86.68307 45.85155 103.32296
#
# Poissons Ratio (x) = 0.25706 0.17646
# Poissons Ratio (y) = 0.48598 -0.00195
# Poissons Ratio (z) = 0.14804 -0.00087
#
# Static dielectric constant tensor:
#      x y z
#    x 3.651500 0.000000 0.000000 
#    y 0.000000 3.620350 0.000000 
#    z 0.000000 0.000000 4.373090 
# 
# 
# High freq. dielectric constant tensor:
#      x y z
#    x 1.808340 0.000000 0.000000 
#    y 0.000000 1.786850 0.000000 
#    z 0.000000 0.000000 1.845520 
# 
# From -- ./inp_files/668.got.cif
#   From: 2010.03.12/outbox.cif.g09.slc.cpg/sg39_1_cif.got.tgz:668.got - 2010.04.14 02:53:20.
