data_PCOD8180754
_publ_section_title
;
Structure prediction by ZEFSAII (Michael W. Deem and Ramdas Pophale) SiO2 
 PCOD8180754
Probable space group: A B M 2
;
_chemical_formula_sum "Si O2"
_cell_formula_units_Z 64
_cell_length_a 14.350028
_cell_length_b 8.836648
_cell_length_c 31.642873
_cell_angle_alpha 90.000000
_cell_angle_beta 90.000000
_cell_angle_gamma 90.000000
_cell_volume 4012.510781
_symmetry_space_group_name_H-M "A B M 2"
_symmetry_group_IT_number 39
_symmetry_cell_setting 'orthorhombic'
loop_
_space_group_symop_operation_xyz
x,y,z
-x,-y,z
-x,1/2+y,z
x,1/2-y,z
x,1/2+y,1/2+z
-x,1/2-y,1/2+z
-x,y,1/2+z
x,-y,1/2+z
loop_
_atom_site_type_symbol
_atom_site_label
_atom_site_fract_x
_atom_site_fract_y
_atom_site_fract_z
Si Si1 0.899107 0.571853 0.695130
Si Si2 0.788696 0.070543 0.457389
Si Si3 0.405356 0.070342 0.991327
Si Si4 0.900828 0.426646 0.286257
Si Si5 0.591920 0.425861 0.082106
Si Si6 0.101540 0.429100 0.877344
Si Si7 0.100607 0.071184 0.038551
Si Si8 0.209711 0.074682 0.613772
O O1 0.913846 0.750000 0.692623
O O2 0.854216 0.525014 0.741287
O O3 0.827292 0.517955 0.659237
O O4 0.000000 0.500000 0.687348
O O5 0.792666 0.250000 0.458175
O O6 0.681514 0.017745 0.462351
O O7 0.829403 0.006284 0.413323
O O8 0.850896 0.007795 0.496050
O O9 0.414297 0.250000 0.993222
O O10 0.500000 0.000000 0.971934
O O11 0.387219 0.008812 0.038149
O O12 0.916606 0.250000 0.285973
O O13 0.852492 0.471775 0.331134
O O14 0.000000 0.500000 0.287129
O O15 0.500000 0.500000 0.103394
O O16 0.573415 0.250000 0.072872
O O17 0.678944 0.449757 0.113386
O O18 0.090121 0.250000 0.882203
O O19 0.000000 0.500000 0.883452
O O20 0.090468 0.250000 0.037324
O O21 0.163160 0.026544 0.078159
O O22 0.000000 0.000000 0.043489
O O23 0.184501 0.250000 0.605454
#
# Coordination Sequence:
#
# PCOD8180754 Si02
#       8
#     8   8   8   8   8   8   8   8
#     4   9  17  29  43  63  88 114 143 177 213 250
#     4   9  18  30  44  62  87 115 143 176 213 253
#     4  10  18  31  47  64  84 110 142 180 220 257
#     4   8  14  25  43  62  83 109 140 176 213 250
#     4  10  19  31  47  65  84 109 142 182 222 259
#     4   9  16  28  44  64  87 114 144 175 211 252
#     4  11  21  32  43  59  87 121 151 177 208 248
#     4  10  20  32  45  63  87 115 147 180 214 256
#
# _framework density 15.950113999999999
#
# number of rings (size 3 to 8) (size 9 to 14) (size 15 to 20)
#    0.000    2.500    1.250    2.625    0.000    2.000 
#    0.000    1.875    0.000    0.000    0.000    0.875 
#    0.000    0.000    0.000    0.000    0.000    0.000 
#
# Total GULP energy -396479.884921 kJ/mol
# GULP energy per Si atom -12389.996404 kJ/mol
# Density = 1.591381 g / cm^3
# Si number density = 15.950114 Si / 1000 Ang^3
#
#
#
# Elastic Constant Matrix: (Units=GPa)
#
#
# Indices 1 2 3 4 5 6 
#
# 1 108.0331 26.6969 63.8010 0.0000 0.0000 0.0000
# 2 26.6969 41.0401 25.5556 0.0000 0.0000 0.0000
# 3 63.8010 25.5556 142.3144 0.0000 0.0000 0.0000
# 4 0.0000 0.0000 0.0000 15.4267 0.0000 0.0000
# 5 0.0000 0.0000 0.0000 0.0000 11.8059 0.0000
# 6 0.0000 0.0000 0.0000 0.0000 0.0000 21.0977
#
#
#
# Elastic Compliance Matrix: (Units=1/GPa)
#
#
# Indices 1 2 3 4 5 6 
#
# 1 0.013688 -0.005723 -0.005109 0.000000 0.000000 0.000000
# 2 -0.005723 0.029827 -0.002790 0.000000 0.000000 0.000000
# 3 -0.005109 -0.002790 0.009818 0.000000 0.000000 0.000000
# 4 0.000000 0.000000 0.000000 0.064823 0.000000 0.000000
# 5 0.000000 0.000000 0.000000 0.000000 0.084703 0.000000
# 6 0.000000 0.000000 0.000000 0.000000 0.000000 0.047399
#
#
# Mechanical properties :
#
#
# Convention : Reuss Voigt Hill
#
# Bulk Modulus (GPa) = 38.33086 58.16607 48.24846
# Shear Modulus (GPa) = 17.47050 21.35500 19.41275
#
# Velocity S-wave (km/s) = 3.31315 3.66302 3.49247
# Velocity P-wave (km/s) = 6.22253 7.37814 6.82484
#
# Compressibility (1/GPa) = 0.02608864
#
# Stress axis : x y z
#
# Youngs Moduli (GPa) = 73.05861 33.52702 101.85315
#
# Poissons Ratio (x) = 0.19187 0.52033
# Poissons Ratio (y) = 0.41810 0.28422
# Poissons Ratio (z) = 0.37323 0.09356
#
# Static dielectric constant tensor:
#      x y z
#    x 3.177830 0.000000 0.000000 
#    y 0.000000 3.104870 0.000000 
#    z 0.000000 0.000000 3.578540 
# 
# 
# High freq. dielectric constant tensor:
#      x y z
#    x 1.592690 0.000000 0.000000 
#    y 0.000000 1.610180 0.000000 
#    z 0.000000 0.000000 1.608910 
# 
# From -- ./inp_files/17950.got.cif
#   From: 2010.03.12/outbox.cif.g09.slc.cpg/sg39_9_cif.got.tgz:17950.got - 2010.04.14 02:53:20.
