data_PCOD8180360
_publ_section_title
;
Structure prediction by ZEFSAII (Michael W. Deem and Ramdas Pophale) SiO2 
 PCOD8180360
Probable space group: A M M 2
;
_chemical_formula_sum "Si O2"
_cell_formula_units_Z 48
_cell_length_a 16.935327
_cell_length_b 8.663885
_cell_length_c 15.760595
_cell_angle_alpha 90.000000
_cell_angle_beta 90.000000
_cell_angle_gamma 90.000000
_cell_volume 2312.484737
_symmetry_space_group_name_H-M "A M M 2"
_symmetry_group_IT_number 38
_symmetry_cell_setting 'orthorhombic'
loop_
_space_group_symop_operation_xyz
x,y,z
-x,-y,z
-x,y,z
x,-y,z
x,1/2+y,1/2+z
-x,1/2-y,1/2+z
-x,1/2+y,1/2+z
x,1/2-y,1/2+z
loop_
_atom_site_type_symbol
_atom_site_label
_atom_site_fract_x
_atom_site_fract_y
_atom_site_fract_z
Si Si1 0.808667 0.179761 0.817980
Si Si2 0.500000 0.179866 0.628356
Si Si3 0.500000 0.177190 0.306533
Si Si4 0.664309 0.821752 0.392982
Si Si5 0.337902 0.180268 0.069208
Si Si6 0.183861 0.821794 0.628821
Si Si7 0.911665 0.317518 0.475761
O O1 0.727217 0.276453 0.820922
O O2 0.847493 0.205658 0.724998
O O3 0.867048 0.242996 0.891388
O O4 0.789046 0.000000 0.831263
O O5 0.500000 0.207200 0.728282
O O6 0.575849 0.255063 0.586134
O O7 0.500000 0.000000 0.607429
O O8 0.423759 0.213358 0.362297
O O9 0.500000 0.000000 0.273960
O O10 0.684865 0.713074 0.472168
O O11 0.673311 0.000000 0.418900
O O12 0.274266 0.264772 0.128197
O O13 0.335264 0.000000 0.088936
O O14 0.130924 0.729719 0.562428
O O15 0.180390 0.000000 0.603286
O O16 0.914843 0.500000 0.472958
O O17 0.000000 0.247726 0.475277
#
# Coordination Sequence:
#
# PCOD8180360 Si02
#       7
#     8   4   4   8   8   8   8
#     4  10  22  40  63  92 127 167 210 257 316 381
#     4  12  25  40  59  87 123 163 215 267 310 365
#     4  10  23  40  57  85 123 163 207 257 316 373
#     4  11  22  38  62  90 123 163 211 262 311 368
#     4  12  24  40  62  88 124 168 212 258 318 377
#     4  11  23  40  65  97 129 165 214 264 314 373
#     4  10  22  42  66  92 126 168 210 258 319 384
#
# _framework density 20.756893999999999
#
# number of rings (size 3 to 8) (size 9 to 14) (size 15 to 20)
#    0.000    1.167    1.667    4.750    0.000    7.000 
#    0.000    1.667    0.000    0.000    0.000    0.000 
#    0.000    0.000    0.000    0.000    0.000    0.000 
#
# Total GULP energy -297706.597589 kJ/mol
# GULP energy per Si atom -12404.441566 kJ/mol
# Density = 2.070965 g / cm^3
# Si number density = 20.756894 Si / 1000 Ang^3
#
#
#
# Elastic Constant Matrix: (Units=GPa)
#
#
# Indices 1 2 3 4 5 6 
#
# 1 132.3952 10.5781 43.9420 0.0000 0.0000 0.0000
# 2 10.5781 26.9571 14.5758 0.0000 0.0000 0.0000
# 3 43.9420 14.5758 122.8854 0.0000 0.0000 0.0000
# 4 0.0000 0.0000 0.0000 35.1973 0.0000 0.0000
# 5 0.0000 0.0000 0.0000 0.0000 19.9270 0.0000
# 6 0.0000 0.0000 0.0000 0.0000 0.0000 13.3455
#
#
#
# Elastic Compliance Matrix: (Units=1/GPa)
#
#
# Indices 1 2 3 4 5 6 
#
# 1 0.008655 -0.001841 -0.002877 0.000000 0.000000 0.000000
# 2 -0.001841 0.040030 -0.004090 0.000000 0.000000 0.000000
# 3 -0.002877 -0.004090 0.009651 0.000000 0.000000 0.000000
# 4 0.000000 0.000000 0.000000 0.028411 0.000000 0.000000
# 5 0.000000 0.000000 0.000000 0.000000 0.050183 0.000000
# 6 0.000000 0.000000 0.000000 0.000000 0.000000 0.074932
#
#
# Mechanical properties :
#
#
# Convention : Reuss Voigt Hill
#
# Bulk Modulus (GPa) = 24.55695 46.71437 35.63566
# Shear Modulus (GPa) = 20.57185 27.90341 24.23763
#
# Velocity S-wave (km/s) = 3.15157 3.67044 3.42086
# Velocity P-wave (km/s) = 5.00995 6.36531 5.72786
#
# Compressibility (1/GPa) = 0.04072168
#
# Stress axis : x y z
#
# Youngs Moduli (GPa) = 115.54082 24.98144 103.61236
#
# Poissons Ratio (x) = 0.04599 0.29804
# Poissons Ratio (y) = 0.21270 0.42375
# Poissons Ratio (z) = 0.33236 0.10217
#
# Static dielectric constant tensor:
#      x y z
#    x 3.946530 0.000000 0.000000 
#    y 0.000000 3.695800 0.000000 
#    z 0.000000 0.000000 3.853250 
# 
# 
# High freq. dielectric constant tensor:
#      x y z
#    x 1.813730 0.000000 0.000000 
#    y 0.000000 1.809130 0.000000 
#    z 0.000000 0.000000 1.823730 
# 
# From -- ./inp_files/15007.got.cif
#   From: 2010.03.12/outbox.cif.g09.slc.cpg/sg38_8_cif.got.tgz:15007.got - 2010.04.14 02:38:36.
