data_PCOD8180272
_publ_section_title
;
Structure prediction by ZEFSAII (Michael W. Deem and Ramdas Pophale) SiO2 
 PCOD8180272
Probable space group: A M M 2
;
_chemical_formula_sum "Si O2"
_cell_formula_units_Z 48
_cell_length_a 8.509516
_cell_length_b 27.862811
_cell_length_c 9.760393
_cell_angle_alpha 90.000000
_cell_angle_beta 90.000000
_cell_angle_gamma 90.000000
_cell_volume 2314.179771
_symmetry_space_group_name_H-M "A M M 2"
_symmetry_group_IT_number 38
_symmetry_cell_setting 'orthorhombic'
loop_
_space_group_symop_operation_xyz
x,y,z
-x,-y,z
-x,y,z
x,-y,z
x,1/2+y,1/2+z
-x,1/2-y,1/2+z
-x,1/2+y,1/2+z
x,1/2-y,1/2+z
loop_
_atom_site_type_symbol
_atom_site_label
_atom_site_fract_x
_atom_site_fract_y
_atom_site_fract_z
Si Si1 0.316101 0.618604 0.512620
Si Si2 0.684041 0.293852 0.906513
Si Si3 0.319573 0.398403 0.016907
Si Si4 0.181664 0.444321 0.276622
Si Si5 0.682819 0.948403 0.242698
Si Si6 0.817371 0.785734 0.102172
O O1 0.500000 0.630088 0.523438
O O2 0.285831 0.583725 0.386079
O O3 0.244439 0.592501 0.646837
O O4 0.226842 0.669101 0.505873
O O5 0.500000 0.283752 0.920344
O O6 0.728573 0.285736 0.747811
O O7 0.728321 0.347287 0.954272
O O8 0.775708 0.260171 0.011470
O O9 0.500000 0.397904 0.068027
O O10 0.205535 0.415155 0.136897
O O11 0.291784 0.437743 0.900870
O O12 0.237291 0.500000 0.265189
O O13 0.000000 0.441864 0.318230
O O14 0.500000 0.950618 0.205943
O O15 0.761470 0.000000 0.210433
O O16 0.000000 0.785556 0.135675
#
# Coordination Sequence:
#
# PCOD8180272 Si02
#       6
#     8   8   8   8   8   8
#     4  11  22  41  66  93 126 168 217 266 317 381
#     4  11  24  45  70  97 128 168 217 268 321 388
#     4  10  21  40  66  93 124 164 212 263 316 377
#     4  11  25  42  60  91 135 176 215 264 325 387
#     4   9  17  33  61  94 122 151 199 260 312 365
#     4  12  26  44  67  98 133 170 210 265 333 394
#
# _framework density 20.741689000000001
#
# number of rings (size 3 to 8) (size 9 to 14) (size 15 to 20)
#    0.000    1.333    1.667    4.000    2.333    4.000 
#    0.000    0.000    0.000    3.000    0.000    0.000 
#    0.000    0.000    0.000    0.000    0.000    0.000 
#
# Total GULP energy -297599.295245 kJ/mol
# GULP energy per Si atom -12399.970635 kJ/mol
# Density = 2.069448 g / cm^3
# Si number density = 20.741689 Si / 1000 Ang^3
#
#
#
# Elastic Constant Matrix: (Units=GPa)
#
#
# Indices 1 2 3 4 5 6 
#
# 1 59.6238 20.9876 11.9562 0.0000 0.0000 0.0000
# 2 20.9876 106.7175 27.0008 0.0000 0.0000 0.0000
# 3 11.9562 27.0008 88.5427 0.0000 0.0000 0.0000
# 4 0.0000 0.0000 0.0000 16.3956 0.0000 0.0000
# 5 0.0000 0.0000 0.0000 0.0000 26.1583 0.0000
# 6 0.0000 0.0000 0.0000 0.0000 0.0000 23.5737
#
#
#
# Elastic Compliance Matrix: (Units=1/GPa)
#
#
# Indices 1 2 3 4 5 6 
#
# 1 0.018196 -0.003204 -0.001480 0.000000 0.000000 0.000000
# 2 -0.003204 0.010718 -0.002836 0.000000 0.000000 0.000000
# 3 -0.001480 -0.002836 0.012359 0.000000 0.000000 0.000000
# 4 0.000000 0.000000 0.000000 0.060992 0.000000 0.000000
# 5 0.000000 0.000000 0.000000 0.000000 0.038229 0.000000
# 6 0.000000 0.000000 0.000000 0.000000 0.000000 0.042420
#
#
# Mechanical properties :
#
#
# Convention : Reuss Voigt Hill
#
# Bulk Modulus (GPa) = 38.11949 41.64145 39.88047
# Shear Modulus (GPa) = 24.18982 26.22149 25.20566
#
# Velocity S-wave (km/s) = 3.41873 3.55941 3.48978
# Velocity P-wave (km/s) = 5.83110 6.08377 5.95878
#
# Compressibility (1/GPa) = 0.02623330
#
# Stress axis : x y z
#
# Youngs Moduli (GPa) = 54.95576 93.29953 80.91525
#
# Poissons Ratio (x) = 0.29894 0.11976
# Poissons Ratio (y) = 0.17609 0.22946
# Poissons Ratio (z) = 0.08134 0.26458
#
# Static dielectric constant tensor:
#      x y z
#    x 3.561740 0.000000 0.000000 
#    y 0.000000 3.981110 0.000000 
#    z 0.000000 0.000000 3.824240 
# 
# 
# High freq. dielectric constant tensor:
#      x y z
#    x 1.794580 0.000000 0.000000 
#    y 0.000000 1.830730 0.000000 
#    z 0.000000 0.000000 1.819840 
# 
# From -- ./inp_files/3779.got.cif
#   From: 2010.03.12/outbox.cif.g09.slc.cpg/sg38_2_cif.got.tgz:3779.got - 2010.04.14 02:38:36.
