data_PCOD8180262
_publ_section_title
;
Structure prediction by ZEFSAII (Michael W. Deem and Ramdas Pophale) SiO2 
 PCOD8180262
Probable space group: A M M 2
;
_chemical_formula_sum "Si O2"
_cell_formula_units_Z 48
_cell_length_a 17.090565
_cell_length_b 8.722050
_cell_length_c 15.511790
_cell_angle_alpha 90.000000
_cell_angle_beta 90.000000
_cell_angle_gamma 90.000000
_cell_volume 2312.261292
_symmetry_space_group_name_H-M "A M M 2"
_symmetry_group_IT_number 38
_symmetry_cell_setting 'orthorhombic'
loop_
_space_group_symop_operation_xyz
x,y,z
-x,-y,z
-x,y,z
x,-y,z
x,1/2+y,1/2+z
-x,1/2-y,1/2+z
-x,1/2+y,1/2+z
x,1/2-y,1/2+z
loop_
_atom_site_type_symbol
_atom_site_label
_atom_site_fract_x
_atom_site_fract_y
_atom_site_fract_z
Si Si1 0.342307 0.331981 0.888070
Si Si2 0.645796 0.333070 0.688319
Si Si3 0.500000 0.176296 0.946104
Si Si4 0.500000 0.824822 0.622660
Si Si5 0.816139 0.818872 0.875923
Si Si6 0.817510 0.818358 0.186837
Si Si7 0.092388 0.324497 0.029540
O O1 0.339627 0.500000 0.933484
O O2 0.337945 0.356623 0.787555
O O3 0.422726 0.250418 0.908806
O O4 0.267748 0.231856 0.915842
O O5 0.621127 0.500000 0.649103
O O6 0.578772 0.206030 0.676389
O O7 0.729705 0.278378 0.651284
O O8 0.500000 0.000000 0.921167
O O9 0.500000 0.202192 0.047276
O O10 0.500000 0.000000 0.590986
O O11 0.834121 0.749281 0.781849
O O12 0.817367 0.000000 0.867101
O O13 0.880575 0.765476 0.944345
O O14 0.876400 0.748107 0.117978
O O15 0.829318 0.000000 0.192446
O O16 0.120674 0.500000 0.022950
O O17 0.000000 0.311855 0.033513
#
# Coordination Sequence:
#
# PCOD8180262 Si02
#       7
#     8   8   4   4   8   8   8
#     4  10  21  40  63  87 119 159 205 254 309 367
#     4   9  20  39  61  84 116 156 198 249 305 363
#     4  12  25  38  55  83 121 161 207 256 307 364
#     4  12  25  36  53  83 119 161 205 252 303 358
#     4  11  23  41  67  97 130 169 213 261 318 381
#     4  10  22  42  68  96 128 167 212 263 321 379
#     4  11  25  44  67  96 130 168 210 260 319 383
#
# _framework density 20.758900000000001
#
# number of rings (size 3 to 8) (size 9 to 14) (size 15 to 20)
#    0.000    1.500    0.000    6.000    2.333    8.000 
#    0.000    0.000    0.000    0.000    0.000    0.000 
#    0.000    0.000    0.000    0.000    0.000    0.000 
#
# Total GULP energy -297551.305144 kJ/mol
# GULP energy per Si atom -12397.971048 kJ/mol
# Density = 2.071165 g / cm^3
# Si number density = 20.758900 Si / 1000 Ang^3
#
#
#
# Elastic Constant Matrix: (Units=GPa)
#
#
# Indices 1 2 3 4 5 6 
#
# 1 116.8887 60.3102 43.3131 0.0000 0.0000 0.0000
# 2 60.3102 154.7529 43.2296 0.0000 0.0000 0.0000
# 3 43.3131 43.2296 79.3655 0.0000 0.0000 0.0000
# 4 0.0000 0.0000 0.0000 36.0266 0.0000 0.0000
# 5 0.0000 0.0000 0.0000 0.0000 31.6957 0.0000
# 6 0.0000 0.0000 0.0000 0.0000 0.0000 34.2360
#
#
#
# Elastic Compliance Matrix: (Units=1/GPa)
#
#
# Indices 1 2 3 4 5 6 
#
# 1 0.012052 -0.003373 -0.004740 0.000000 0.000000 0.000000
# 2 -0.003373 0.008565 -0.002825 0.000000 0.000000 0.000000
# 3 -0.004740 -0.002825 0.016725 0.000000 0.000000 0.000000
# 4 0.000000 0.000000 0.000000 0.027757 0.000000 0.000000
# 5 0.000000 0.000000 0.000000 0.000000 0.031550 0.000000
# 6 0.000000 0.000000 0.000000 0.000000 0.000000 0.029209
#
#
# Mechanical properties :
#
#
# Convention : Reuss Voigt Hill
#
# Bulk Modulus (GPa) = 64.65227 71.63478 68.14353
# Shear Modulus (GPa) = 32.70322 34.00194 33.35258
#
# Velocity S-wave (km/s) = 3.97342 4.05154 4.01267
# Velocity P-wave (km/s) = 7.22929 7.51462 7.37334
#
# Compressibility (1/GPa) = 0.01546736
#
# Stress axis : x y z
#
# Youngs Moduli (GPa) = 82.97535 116.74825 59.78896
#
# Poissons Ratio (x) = 0.39376 0.28341
# Poissons Ratio (y) = 0.27985 0.16890
# Poissons Ratio (z) = 0.39331 0.32980
#
# Static dielectric constant tensor:
#      x y z
#    x 3.951430 0.000000 0.000000 
#    y 0.000000 3.939210 0.000000 
#    z 0.000000 0.000000 3.718700 
# 
# 
# High freq. dielectric constant tensor:
#      x y z
#    x 1.818670 0.000000 0.000000 
#    y 0.000000 1.825980 0.000000 
#    z 0.000000 0.000000 1.809020 
# 
# From -- ./inp_files/15068.got.cif
#   From: 2010.03.12/outbox.cif.g09.slc.cpg/sg38_8_cif.got.tgz:15068.got - 2010.04.14 02:38:36.
