data_PCOD8180280
_publ_section_title
;
Structure prediction by ZEFSAII (Michael W. Deem and Ramdas Pophale) SiO2 
 PCOD8180280
Probable space group: A M M 2
;
_chemical_formula_sum "Si O2"
_cell_formula_units_Z 40
_cell_length_a 7.708854
_cell_length_b 7.665330
_cell_length_c 32.845289
_cell_angle_alpha 90.000000
_cell_angle_beta 90.000000
_cell_angle_gamma 90.000000
_cell_volume 1940.858011
_symmetry_space_group_name_H-M "A M M 2"
_symmetry_group_IT_number 38
_symmetry_cell_setting 'orthorhombic'
loop_
_space_group_symop_operation_xyz
x,y,z
-x,-y,z
-x,y,z
x,-y,z
x,1/2+y,1/2+z
-x,1/2-y,1/2+z
-x,1/2+y,1/2+z
x,1/2-y,1/2+z
loop_
_atom_site_type_symbol
_atom_site_label
_atom_site_fract_x
_atom_site_fract_y
_atom_site_fract_z
Si Si1 0.197174 0.000000 0.423800
Si Si2 0.205711 0.805951 0.977746
Si Si3 0.000000 0.706760 0.713860
Si Si4 0.307925 0.292947 0.566509
Si Si5 0.698297 0.697392 0.272255
Si Si6 0.701692 0.500000 0.832735
Si Si7 0.000000 0.208068 0.121687
O O1 0.280881 0.824011 0.442884
O O2 0.201651 0.000000 0.375339
O O3 0.000000 0.000000 0.438447
O O4 0.000000 0.818650 0.976968
O O5 0.284057 0.000000 0.970159
O O6 0.264747 0.727933 0.021125
O O7 0.825252 0.779840 0.734173
O O8 0.000000 0.776501 0.667811
O O9 0.000000 0.500000 0.716655
O O10 0.500000 0.228459 0.579139
O O11 0.295499 0.500000 0.566701
O O12 0.170169 0.216993 0.598852
O O13 0.500000 0.740078 0.258617
O O14 0.712242 0.500000 0.288937
O O15 0.757817 0.827741 0.307973
O O16 0.500000 0.500000 0.842254
O O17 0.000000 0.000000 0.121097
#
# Coordination Sequence:
#
# PCOD8180280 Si02
#       7
#     4   8   4   8   8   4   4
#     4  10  22  34  54  86 118 150 194 244 290 347
#     4   9  17  33  54  76 111 155 194 238 286 337
#     4  11  21  35  63  92 120 157 200 246 306 370
#     4   9  16  29  52  80 112 152 196 236 284 344
#     4  10  22  41  64  88 119 159 200 246 302 364
#     4  10  22  40  60  86 120 156 196 251 301 354
#     4   9  18  31  51  85 117 147 189 243 292 347
#
# _framework density 20.609444
#
# number of rings (size 3 to 8) (size 9 to 14) (size 15 to 20)
#    0.000    2.400    2.000    0.300    1.400    2.400 
#    0.000    2.000    4.400    0.000    0.000    0.000 
#    0.000    0.000    0.000    0.000    0.000    0.000 
#
# Total GULP energy -247943.903381 kJ/mol
# GULP energy per Si atom -12397.195169 kJ/mol
# Density = 2.056254 g / cm^3
# Si number density = 20.609444 Si / 1000 Ang^3
#
#
#
# Elastic Constant Matrix: (Units=GPa)
#
#
# Indices 1 2 3 4 5 6 
#
# 1 97.6726 29.0933 62.6721 0.0000 0.0000 0.0000
# 2 29.0933 109.4596 62.9561 0.0000 0.0000 0.0000
# 3 62.6721 62.9561 173.0347 0.0000 0.0000 0.0000
# 4 0.0000 0.0000 0.0000 9.3939 0.0000 0.0000
# 5 0.0000 0.0000 0.0000 0.0000 13.8885 0.0000
# 6 0.0000 0.0000 0.0000 0.0000 0.0000 11.8068
#
#
#
# Elastic Compliance Matrix: (Units=1/GPa)
#
#
# Indices 1 2 3 4 5 6 
#
# 1 0.013420 -0.000975 -0.004506 0.000000 0.000000 0.000000
# 2 -0.000975 0.011624 -0.003876 0.000000 0.000000 0.000000
# 3 -0.004506 -0.003876 0.008821 0.000000 0.000000 0.000000
# 4 0.000000 0.000000 0.000000 0.106452 0.000000 0.000000
# 5 0.000000 0.000000 0.000000 0.000000 0.072002 0.000000
# 6 0.000000 0.000000 0.000000 0.000000 0.000000 0.084697
#
#
# Mechanical properties :
#
#
# Convention : Reuss Voigt Hill
#
# Bulk Modulus (GPa) = 66.00094 76.62332 71.31213
# Shear Modulus (GPa) = 15.58692 22.04753 18.81722
#
# Velocity S-wave (km/s) = 2.75307 3.27429 3.02493
# Velocity P-wave (km/s) = 6.49615 7.18012 6.84668
#
# Compressibility (1/GPa) = 0.01515130
#
# Stress axis : x y z
#
# Youngs Moduli (GPa) = 74.51592 86.02606 113.36076
#
# Poissons Ratio (x) = 0.08391 0.51077
# Poissons Ratio (y) = 0.07268 0.43939
# Poissons Ratio (z) = 0.33575 0.33344
#
# Static dielectric constant tensor:
#      x y z
#    x 3.764790 0.000000 0.000000 
#    y 0.000000 3.837490 0.000000 
#    z 0.000000 0.000000 3.616240 
# 
# 
# High freq. dielectric constant tensor:
#      x y z
#    x 1.806560 0.000000 0.000000 
#    y 0.000000 1.800040 0.000000 
#    z 0.000000 0.000000 1.789510 
# 
# From -- ./inp_files/23302.got.cif
#   From: 2010.03.12/outbox.cif.g09.slc.cpg/sg38_12_cif.got.tgz:23302.got - 2010.04.14 02:38:36.
