data_PCOD8180915
_publ_section_title
;
Structure prediction by ZEFSAII (Michael W. Deem and Ramdas Pophale) SiO2 
 PCOD8180915
Probable space group: A B M 2
;
_chemical_formula_sum "Si O2"
_cell_formula_units_Z 64
_cell_length_a 14.252667
_cell_length_b 8.845594
_cell_length_c 30.935469
_cell_angle_alpha 90.000000
_cell_angle_beta 90.000000
_cell_angle_gamma 90.000000
_cell_volume 3900.136840
_symmetry_space_group_name_H-M "A B M 2"
_symmetry_group_IT_number 39
_symmetry_cell_setting 'orthorhombic'
loop_
_space_group_symop_operation_xyz
x,y,z
-x,-y,z
-x,1/2+y,z
x,1/2-y,z
x,1/2+y,1/2+z
-x,1/2-y,1/2+z
-x,y,1/2+z
x,-y,1/2+z
loop_
_atom_site_type_symbol
_atom_site_label
_atom_site_fract_x
_atom_site_fract_y
_atom_site_fract_z
Si Si1 0.905002 0.427969 0.877060
Si Si2 0.278177 0.572810 0.404741
Si Si3 0.706851 0.429344 0.743298
Si Si4 0.399698 0.075121 0.570703
Si Si5 0.599769 0.428645 0.322367
Si Si6 0.094771 0.927364 0.778441
Si Si7 0.602267 0.073605 0.166554
Si Si8 0.397526 0.571293 0.486880
O O1 0.912144 0.250000 0.880543
O O2 0.819954 0.486043 0.906196
O O3 0.889632 0.482535 0.827642
O O4 0.000000 0.500000 0.895737
O O5 0.258371 0.750000 0.405699
O O6 0.333471 0.525138 0.361779
O O7 0.335974 0.519035 0.446366
O O8 0.695538 0.250000 0.745894
O O9 0.639424 0.503049 0.778466
O O10 0.814732 0.478902 0.751002
O O11 0.676987 0.490426 0.696739
O O12 0.409593 0.250000 0.558604
O O13 0.354349 0.053679 0.618164
O O14 0.500000 0.000000 0.574118
O O15 0.347041 0.990634 0.530971
O O16 0.500000 0.500000 0.332737
O O17 0.589631 0.250000 0.317359
O O18 0.081117 0.750000 0.776602
O O19 0.000000 0.000000 0.758829
O O20 0.593106 0.250000 0.178606
O O21 0.500000 0.000000 0.171958
O O22 0.500000 0.500000 0.481626
O O23 0.406871 0.750000 0.489054
#
# Coordination Sequence:
#
# PCOD8180915 Si02
#       8
#     8   8   8   8   8   8   8   8
#     4  10  19  33  52  72  95 124 160 203 246 287
#     4  10  21  34  48  70  97 129 165 200 239 286
#     4  11  21  34  49  70  97 126 163 199 238 287
#     4   9  17  30  48  69  94 123 160 200 242 287
#     4  11  22  34  47  64  94 133 167 198 233 275
#     4   9  19  33  50  71  93 121 157 199 242 283
#     4  10  20  33  49  71  97 129 164 200 241 285
#     4  10  19  31  48  71  99 129 164 201 241 286
#
# _framework density 16.409680000000002
#
# number of rings (size 3 to 8) (size 9 to 14) (size 15 to 20)
#    0.000    2.000    1.250    3.750    0.000    4.500 
#    0.000    0.000    0.000    0.000    0.000    0.875 
#    0.000    4.000    0.000    0.000    0.000    0.000 
#
# Total GULP energy -396766.839211 kJ/mol
# GULP energy per Si atom -12398.963725 kJ/mol
# Density = 1.637233 g / cm^3
# Si number density = 16.409680 Si / 1000 Ang^3
#
#
#
# Elastic Constant Matrix: (Units=GPa)
#
#
# Indices 1 2 3 4 5 6 
#
# 1 105.4011 42.6720 45.3932 0.0000 0.0000 0.0000
# 2 42.6720 72.2261 37.8346 0.0000 0.0000 0.0000
# 3 45.3932 37.8346 103.5001 0.0000 0.0000 0.0000
# 4 0.0000 0.0000 0.0000 26.4477 0.0000 0.0000
# 5 0.0000 0.0000 0.0000 0.0000 11.1309 0.0000
# 6 0.0000 0.0000 0.0000 0.0000 0.0000 29.0968
#
#
#
# Elastic Compliance Matrix: (Units=1/GPa)
#
#
# Indices 1 2 3 4 5 6 
#
# 1 0.013542 -0.006047 -0.003728 0.000000 0.000000 0.000000
# 2 -0.006047 0.019825 -0.004595 0.000000 0.000000 0.000000
# 3 -0.003728 -0.004595 0.012977 0.000000 0.000000 0.000000
# 4 0.000000 0.000000 0.000000 0.037811 0.000000 0.000000
# 5 0.000000 0.000000 0.000000 0.000000 0.089840 0.000000
# 6 0.000000 0.000000 0.000000 0.000000 0.000000 0.034368
#
#
# Mechanical properties :
#
#
# Convention : Reuss Voigt Hill
#
# Bulk Modulus (GPa) = 56.81143 59.21409 58.01276
# Shear Modulus (GPa) = 20.57858 23.68356 22.13107
#
# Velocity S-wave (km/s) = 3.54510 3.80316 3.67639
# Velocity P-wave (km/s) = 7.17306 7.44638 7.31100
#
# Compressibility (1/GPa) = 0.01760209
#
# Stress axis : x y z
#
# Youngs Moduli (GPa) = 73.84634 50.44070 77.06112
#
# Poissons Ratio (x) = 0.30504 0.28732
# Poissons Ratio (y) = 0.44658 0.35409
# Poissons Ratio (z) = 0.27533 0.23177
#
# Static dielectric constant tensor:
#      x y z
#    x 2.991630 0.000000 0.000000 
#    y 0.000000 3.185150 0.000000 
#    z 0.000000 0.000000 3.477170 
# 
# 
# High freq. dielectric constant tensor:
#      x y z
#    x 1.609130 0.000000 0.000000 
#    y 0.000000 1.647230 0.000000 
#    z 0.000000 0.000000 1.624390 
# 
# From -- ./inp_files/17975.got.cif
#   From: 2010.03.12/outbox.cif.g09.slc.cpg/sg39_9_cif.got.tgz:17975.got - 2010.04.14 02:53:20.
