data_PCOD8180728
_publ_section_title
;
Structure prediction by ZEFSAII (Michael W. Deem and Ramdas Pophale) SiO2 
 PCOD8180728
Probable space group: A B M 2
;
_chemical_formula_sum "Si O2"
_cell_formula_units_Z 48
_cell_length_a 7.183779
_cell_length_b 29.723685
_cell_length_c 9.614094
_cell_angle_alpha 90.000000
_cell_angle_beta 90.000000
_cell_angle_gamma 90.000000
_cell_volume 2052.881956
_symmetry_space_group_name_H-M "A B M 2"
_symmetry_group_IT_number 39
_symmetry_cell_setting 'orthorhombic'
loop_
_space_group_symop_operation_xyz
x,y,z
-x,-y,z
-x,1/2+y,z
x,1/2-y,z
x,1/2+y,1/2+z
-x,1/2-y,1/2+z
-x,y,1/2+z
x,-y,1/2+z
loop_
_atom_site_type_symbol
_atom_site_label
_atom_site_fract_x
_atom_site_fract_y
_atom_site_fract_z
Si Si1 0.789861 0.553998 0.595740
Si Si2 0.719312 0.988758 0.321936
Si Si3 0.453563 0.851752 0.430264
Si Si4 0.123042 0.698457 0.326105
Si Si5 0.415744 0.408818 0.172909
Si Si6 0.138892 0.846586 0.038865
O O1 0.824068 0.519594 0.467652
O O2 0.831774 0.528441 0.741640
O O3 0.569820 0.563832 0.585923
O O4 0.898198 0.601305 0.582026
O O5 0.740305 0.942848 0.230119
O O6 0.500000 0.000000 0.339050
O O7 0.335779 0.809314 0.375714
O O8 0.479412 0.885009 0.300748
O O9 0.333471 0.874381 0.557586
O O10 0.650498 0.836609 0.491273
O O11 0.068106 0.750000 0.350327
O O12 0.094477 0.686404 0.165499
O O13 0.989635 0.665325 0.409842
#
# Coordination Sequence:
#
# PCOD8180728 Si02
#       6
#     8   8   8   8   8   8
#     4  10  20  34  59  98 138 181 230 287 334 419
#     4  10  18  29  57 101 135 177 234 274 330 413
#     4  11  22  44  72 104 140 187 233 293 368 431
#     4  12  28  48  74 103 139 184 240 306 370 444
#     4  10  18  35  63 101 138 182 231 282 345 415
#     4  11  26  48  71 106 142 192 236 297 372 431
#
# _framework density 23.381764
#
# number of rings (size 3 to 8) (size 9 to 14) (size 15 to 20)
#    0.000    1.333    6.667    2.000    4.667    1.333 
#    0.000    0.000    0.000    8.000    0.000    0.000 
#    0.000    0.000    0.000    0.000    0.000    0.000 
#
# Total GULP energy -297551.242916 kJ/mol
# GULP energy per Si atom -12397.968455 kJ/mol
# Density = 2.332855 g / cm^3
# Si number density = 23.381764 Si / 1000 Ang^3
#
#
#
# Elastic Constant Matrix: (Units=GPa)
#
#
# Indices 1 2 3 4 5 6 
#
# 1 38.0419 22.0381 15.6530 0.0000 0.0000 0.0000
# 2 22.0381 120.2630 42.3679 0.0000 0.0000 0.0000
# 3 15.6530 42.3679 138.5217 0.0000 0.0000 0.0000
# 4 0.0000 0.0000 0.0000 39.0167 0.0000 0.0000
# 5 0.0000 0.0000 0.0000 0.0000 25.6142 0.0000
# 6 0.0000 0.0000 0.0000 0.0000 0.0000 30.3977
#
#
#
# Elastic Compliance Matrix: (Units=1/GPa)
#
#
# Indices 1 2 3 4 5 6 
#
# 1 0.029851 -0.004799 -0.001905 0.000000 0.000000 0.000000
# 2 -0.004799 0.010091 -0.002544 0.000000 0.000000 0.000000
# 3 -0.001905 -0.002544 0.008213 0.000000 0.000000 0.000000
# 4 0.000000 0.000000 0.000000 0.025630 0.000000 0.000000
# 5 0.000000 0.000000 0.000000 0.000000 0.039041 0.000000
# 6 0.000000 0.000000 0.000000 0.000000 0.000000 0.032897
#
#
# Mechanical properties :
#
#
# Convention : Reuss Voigt Hill
#
# Bulk Modulus (GPa) = 33.71835 50.77162 42.24498
# Shear Modulus (GPa) = 28.71838 33.45692 31.08765
#
# Velocity S-wave (km/s) = 3.50842 3.78682 3.65028
# Velocity P-wave (km/s) = 5.55555 6.39386 5.98939
#
# Compressibility (1/GPa) = 0.02965744
#
# Stress axis : x y z
#
# Youngs Moduli (GPa) = 33.49993 99.10063 121.76540
#
# Poissons Ratio (x) = 0.47557 0.23201
# Poissons Ratio (y) = 0.16076 0.30978
# Poissons Ratio (z) = 0.06383 0.25212
#
# Static dielectric constant tensor:
#      x y z
#    x 3.799880 0.000000 0.000000 
#    y 0.000000 4.096190 0.000000 
#    z 0.000000 0.000000 4.495970 
# 
# 
# High freq. dielectric constant tensor:
#      x y z
#    x 1.895660 0.000000 0.000000 
#    y 0.000000 1.909530 0.000000 
#    z 0.000000 0.000000 1.948510 
# 
# From -- ./inp_files/2317.got.cif
#   From: 2010.03.12/outbox.cif.g09.slc.cpg/sg39_2_cif.got.tgz:2317.got - 2010.04.14 02:53:20.
