data_PCOD8180580
_publ_section_title
;
Structure prediction by ZEFSAII (Michael W. Deem and Ramdas Pophale) SiO2 
 PCOD8180580
Probable space group: A B M 2
;
_chemical_formula_sum "Si O2"
_cell_formula_units_Z 64
_cell_length_a 32.546473
_cell_length_b 18.353708
_cell_length_c 5.353604
_cell_angle_alpha 90.000000
_cell_angle_beta 90.000000
_cell_angle_gamma 90.000000
_cell_volume 3197.967115
_symmetry_space_group_name_H-M "A B M 2"
_symmetry_group_IT_number 39
_symmetry_cell_setting 'orthorhombic'
loop_
_space_group_symop_operation_xyz
x,y,z
-x,-y,z
-x,1/2+y,z
x,1/2-y,z
x,1/2+y,1/2+z
-x,1/2-y,1/2+z
-x,y,1/2+z
x,-y,1/2+z
loop_
_atom_site_type_symbol
_atom_site_label
_atom_site_fract_x
_atom_site_fract_y
_atom_site_fract_z
Si Si1 0.277720 0.913144 0.459260
Si Si2 0.851888 0.922435 0.458501
Si Si3 0.587654 0.668459 0.438460
Si Si4 0.982960 0.917639 0.958935
Si Si5 0.453984 0.971188 0.025221
Si Si6 0.755714 0.924803 0.459267
Si Si7 0.885972 0.416828 0.458516
Si Si8 0.361279 0.833204 0.439431
O O1 0.256513 0.880031 0.709548
O O2 0.325282 0.892108 0.462409
O O3 0.270094 0.999998 0.458305
O O4 0.256893 0.879840 0.208021
O O5 0.803864 0.940059 0.461194
O O6 0.866316 0.879516 0.709111
O O7 0.875623 0.998287 0.455338
O O8 0.865727 0.879643 0.206369
O O9 0.570003 0.750000 0.445757
O O10 0.548588 0.615141 0.472877
O O11 0.618367 0.654747 0.668941
O O12 0.608360 0.652020 0.171422
O O13 0.934441 0.910036 0.961376
O O14 0.999743 0.878272 0.708293
O O15 0.000000 0.000000 0.957346
O O16 0.500000 0.000000 0.064088
O O17 0.431711 0.988832 0.290214
O O18 0.344693 0.750000 0.457860
#
# Coordination Sequence:
#
# PCOD8180580 Si02
#       8
#     8   8   8   8   8   8   8   8
#     4  10  18  32  45  68  96 124 159 194 249 293
#     4  10  16  25  36  51  71 103 136 176 228 280
#     4  10  21  40  60  83 112 152 187 218 261 320
#     4  10  16  22  28  39  59  85 122 180 238 267
#     4  10  21  40  60  88 123 146 181 230 275 310
#     4  10  19  30  45  65  97 121 150 196 253 304
#     4  10  16  22  33  46  63  94 139 176 229 282
#     4  10  21  37  57  78 107 141 182 216 248 298
#
# _framework density 20.012713000000002
#
# number of rings (size 3 to 8) (size 9 to 14) (size 15 to 20)
#    0.000    2.000    0.000    9.000    0.000    0.000 
#   13.500    2.500    0.000    0.000    0.000    0.000 
#    0.000    0.000    0.000    0.000    0.000    0.000 
#
# Total GULP energy -396419.731589 kJ/mol
# GULP energy per Si atom -12388.116612 kJ/mol
# Density = 1.996716 g / cm^3
# Si number density = 20.012713 Si / 1000 Ang^3
#
#
#
# Elastic Constant Matrix: (Units=GPa)
#
#
# Indices 1 2 3 4 5 6 
#
# 1 84.7864 27.1787 19.2152 0.0000 0.0000 0.0000
# 2 27.1787 34.8567 4.4048 0.0000 0.0000 0.0000
# 3 19.2152 4.4048 210.5805 0.0000 0.0000 0.0000
# 4 0.0000 0.0000 0.0000 10.8379 0.0000 0.0000
# 5 0.0000 0.0000 0.0000 0.0000 -0.0179 0.0000
# 6 0.0000 0.0000 0.0000 0.0000 0.0000 -37.6172
#
#
#
# Elastic Compliance Matrix: (Units=1/GPa)
#
#
# Indices 1 2 3 4 5 6 
#
# 1 0.016023 -0.012342 -0.001204 0.000000 0.000000 0.000000
# 2 -0.012342 0.038271 0.000326 0.000000 0.000000 0.000000
# 3 -0.001204 0.000326 0.004852 0.000000 0.000000 0.000000
# 4 0.000000 0.000000 0.000000 0.092269 0.000000 0.000000
# 5 0.000000 0.000000 0.000000 0.000000-55.962915 0.000000
# 6 0.000000 0.000000 0.000000 0.000000 0.000000 -0.026584
#
#
# Mechanical properties :
#
#
# Convention : Reuss Voigt Hill
#
# Bulk Modulus (GPa) = 30.57538 47.98011 39.27774
# Shear Modulus (GPa) = -0.08960 13.26889 6.58964
#
# Velocity S-wave (km/s) = -0.21183 2.57772 1.81656
# Velocity P-wave (km/s) = 3.90529 5.73466 4.90600
#
# Compressibility (1/GPa) = 0.03270605
#
# Stress axis : x y z
#
# Youngs Moduli (GPa) = 62.40874 26.12951 206.10801
#
# Poissons Ratio (x) = 0.32248 0.24815
# Poissons Ratio (y) = 0.77023 -0.06712
# Poissons Ratio (z) = 0.07514 -0.00851
#
# Static dielectric constant tensor:
#      x y z
#    x 3.406290 0.000000 0.000000 
#    y 0.000000 3.060440 0.000000 
#    z 0.000000 0.000000 18.117210 
# 
# 
# High freq. dielectric constant tensor:
#      x y z
#    x 1.771150 0.000000 0.000000 
#    y 0.000000 1.692630 0.000000 
#    z 0.000000 0.000000 1.837930 
# 
# From -- ./inp_files/1450.got.cif
#   From: 2010.03.12/outbox.cif.g09.slc.cpg/sg39_1_cif.got.tgz:1450.got - 2010.04.14 02:53:20.
