data_PCOD8180313
_publ_section_title
;
Structure prediction by ZEFSAII (Michael W. Deem and Ramdas Pophale) SiO2 
 PCOD8180313
Probable space group: A M M 2
;
_chemical_formula_sum "Si O2"
_cell_formula_units_Z 48
_cell_length_a 8.918141
_cell_length_b 20.106010
_cell_length_c 14.391334
_cell_angle_alpha 90.000000
_cell_angle_beta 90.000000
_cell_angle_gamma 90.000000
_cell_volume 2580.484657
_symmetry_space_group_name_H-M "A M M 2"
_symmetry_group_IT_number 38
_symmetry_cell_setting 'orthorhombic'
loop_
_space_group_symop_operation_xyz
x,y,z
-x,-y,z
-x,y,z
x,-y,z
x,1/2+y,1/2+z
-x,1/2-y,1/2+z
-x,1/2+y,1/2+z
x,1/2-y,1/2+z
loop_
_atom_site_type_symbol
_atom_site_label
_atom_site_fract_x
_atom_site_fract_y
_atom_site_fract_z
Si Si1 0.328243 0.075977 0.041430
Si Si2 0.324946 0.809132 0.546254
Si Si3 0.671359 0.424351 0.907507
Si Si4 0.175062 0.775348 0.728187
Si Si5 0.174950 0.620658 0.723824
Si Si6 0.177257 0.809676 0.934417
O O1 0.500000 0.099808 0.040260
O O2 0.266688 0.082410 0.145481
O O3 0.313269 0.000000 0.009142
O O4 0.233368 0.119195 0.969224
O O5 0.500000 0.793959 0.547269
O O6 0.286324 0.877537 0.493909
O O7 0.265584 0.816578 0.651161
O O8 0.243597 0.748084 0.497408
O O9 0.500000 0.411805 0.875613
O O10 0.695267 0.500000 0.940490
O O11 0.780881 0.408623 0.822988
O O12 0.215370 0.698053 0.719184
O O13 0.229313 0.800729 0.828465
O O14 0.000000 0.788233 0.713721
O O15 0.000000 0.608238 0.707459
O O16 0.000000 0.805613 0.944454
#
# Coordination Sequence:
#
# PCOD8180313 Si02
#       6
#     8   8   8   8   8   8
#     4  11  24  40  58  85 120 154 191 237 288 342
#     4  11  22  36  60  87 114 152 195 238 284 341
#     4  10  22  39  57  83 120 157 193 237 288 341
#     4  10  22  38  58  86 118 150 188 239 289 336
#     4  11  21  35  58  88 120 153 190 235 288 344
#     4  11  22  39  61  84 115 152 192 239 286 339
#
# _framework density 18.601157000000001
#
# number of rings (size 3 to 8) (size 9 to 14) (size 15 to 20)
#    0.000    1.333    3.333    2.500    0.000    6.333 
#    0.000    0.833    0.000    3.000    0.000    0.000 
#    0.000    0.000    0.000    0.000    0.000    0.000 
#
# Total GULP energy -297741.891056 kJ/mol
# GULP energy per Si atom -12405.912127 kJ/mol
# Density = 1.855882 g / cm^3
# Si number density = 18.601157 Si / 1000 Ang^3
#
#
#
# Elastic Constant Matrix: (Units=GPa)
#
#
# Indices 1 2 3 4 5 6 
#
# 1 63.4904 27.9406 44.6006 0.0000 0.0000 0.0000
# 2 27.9406 80.1461 39.1562 0.0000 0.0000 0.0000
# 3 44.6006 39.1562 126.1036 0.0000 0.0000 0.0000
# 4 0.0000 0.0000 0.0000 50.4159 0.0000 0.0000
# 5 0.0000 0.0000 0.0000 0.0000 34.4155 0.0000
# 6 0.0000 0.0000 0.0000 0.0000 0.0000 16.1490
#
#
#
# Elastic Compliance Matrix: (Units=1/GPa)
#
#
# Indices 1 2 3 4 5 6 
#
# 1 0.022324 -0.004627 -0.006459 0.000000 0.000000 0.000000
# 2 -0.004627 0.015668 -0.003228 0.000000 0.000000 0.000000
# 3 -0.006459 -0.003228 0.011217 0.000000 0.000000 0.000000
# 4 0.000000 0.000000 0.000000 0.019835 0.000000 0.000000
# 5 0.000000 0.000000 0.000000 0.000000 0.029057 0.000000
# 6 0.000000 0.000000 0.000000 0.000000 0.000000 0.061924
#
#
# Mechanical properties :
#
#
# Convention : Reuss Voigt Hill
#
# Bulk Modulus (GPa) = 48.59160 54.79278 51.69219
# Shear Modulus (GPa) = 25.57389 30.73223 28.15306
#
# Velocity S-wave (km/s) = 3.71193 4.06910 3.89461
# Velocity P-wave (km/s) = 6.67464 7.18313 6.93355
#
# Compressibility (1/GPa) = 0.02057969
#
# Stress axis : x y z
#
# Youngs Moduli (GPa) = 44.79517 63.82614 89.15200
#
# Poissons Ratio (x) = 0.29533 0.57582
# Poissons Ratio (y) = 0.20727 0.28782
# Poissons Ratio (z) = 0.28932 0.20606
#
# Static dielectric constant tensor:
#      x y z
#    x 3.507900 0.000000 0.000000 
#    y 0.000000 3.259460 0.000000 
#    z 0.000000 0.000000 3.514540 
# 
# 
# High freq. dielectric constant tensor:
#      x y z
#    x 1.732250 0.000000 0.000000 
#    y 0.000000 1.719640 0.000000 
#    z 0.000000 0.000000 1.723790 
# 
# From -- ./inp_files/12019.got.cif
#   From: 2010.03.12/outbox.cif.g09.slc.cpg/sg38_7_cif.got.tgz:12019.got - 2010.04.14 02:38:36.
