data_PCOD8180802
_publ_section_title
;
Structure prediction by ZEFSAII (Michael W. Deem and Ramdas Pophale) SiO2 
 PCOD8180802
Probable space group: A B M 2
;
_chemical_formula_sum "Si O2"
_cell_formula_units_Z 64
_cell_length_a 19.125124
_cell_length_b 18.595621
_cell_length_c 9.537420
_cell_angle_alpha 90.000000
_cell_angle_beta 90.000000
_cell_angle_gamma 90.000000
_cell_volume 3391.921978
_symmetry_space_group_name_H-M "A B M 2"
_symmetry_group_IT_number 39
_symmetry_cell_setting 'orthorhombic'
loop_
_space_group_symop_operation_xyz
x,y,z
-x,-y,z
-x,1/2+y,z
x,1/2-y,z
x,1/2+y,1/2+z
-x,1/2-y,1/2+z
-x,y,1/2+z
x,-y,1/2+z
loop_
_atom_site_type_symbol
_atom_site_label
_atom_site_fract_x
_atom_site_fract_y
_atom_site_fract_z
Si Si1 0.077622 0.916257 0.364380
Si Si2 0.431354 0.427659 0.165429
Si Si3 0.830450 0.417696 0.623803
Si Si4 0.297894 0.332472 0.496107
Si Si5 0.299347 0.332143 0.170663
Si Si6 0.569642 0.571774 0.502605
Si Si7 0.076189 0.417254 0.365543
Si Si8 0.829950 0.415804 0.122007
O O1 0.105834 0.905594 0.519099
O O2 0.137642 0.883641 0.264640
O O3 0.000494 0.880111 0.351573
O O4 0.069173 0.999490 0.324613
O O5 0.373958 0.366995 0.139304
O O6 0.443108 0.440857 0.334041
O O7 0.406594 0.499332 0.083362
O O8 0.500807 0.400392 0.084801
O O9 0.761432 0.372580 0.584189
O O10 0.863981 0.385086 0.765343
O O11 0.806624 0.500887 0.633294
O O12 0.303268 0.250000 0.542821
O O13 0.279867 0.340220 0.333261
O O14 0.371819 0.368844 0.528623
O O15 0.237588 0.370172 0.584613
O O16 0.303007 0.250000 0.121567
O O17 0.104116 0.406244 0.520643
#
# Coordination Sequence:
#
# PCOD8180802 Si02
#       8
#     8   8   8   8   8   8   8   8
#     4   9  18  28  49  81 110 131 174 233 277 320
#     4  10  20  37  61  88 113 140 176 220 266 316
#     4  10  18  32  53  79 106 139 181 225 273 320
#     4  10  21  37  56  77 108 150 187 217 258 319
#     4  10  21  37  56  77 108 150 187 217 258 319
#     4  10  20  37  61  88 113 140 176 220 266 316
#     4   9  16  30  51  77 106 141 174 221 279 326
#     4  10  18  32  53  79 106 139 181 225 273 320
#
# _framework density 18.868358000000001
#
# number of rings (size 3 to 8) (size 9 to 14) (size 15 to 20)
#    0.000    2.250    1.250    3.000    0.000    3.500 
#    4.500    0.625    0.000    4.500    0.000    0.000 
#    0.000    0.000    0.000    0.000    0.000    0.000 
#
# Total GULP energy -396544.102630 kJ/mol
# GULP energy per Si atom -12392.003207 kJ/mol
# Density = 1.882541 g / cm^3
# Si number density = 18.868358 Si / 1000 Ang^3
#
#
#
# Elastic Constant Matrix: (Units=GPa)
#
#
# Indices 1 2 3 4 5 6 
#
# 1 136.4105 75.5627 32.1412 0.0000 0.0000 0.0000
# 2 75.5627 89.9265 27.4336 0.0000 0.0000 0.0000
# 3 32.1412 27.4336 70.8146 0.0000 0.0000 0.0000
# 4 0.0000 0.0000 0.0000 16.6068 0.0000 0.0000
# 5 0.0000 0.0000 0.0000 0.0000 15.7233 0.0000
# 6 0.0000 0.0000 0.0000 0.0000 0.0000 4.9090
#
#
#
# Elastic Compliance Matrix: (Units=1/GPa)
#
#
# Indices 1 2 3 4 5 6 
#
# 1 0.013968 -0.011116 -0.002033 0.000000 0.000000 0.000000
# 2 -0.011116 0.021458 -0.003267 0.000000 0.000000 0.000000
# 3 -0.002033 -0.003267 0.016310 0.000000 0.000000 0.000000
# 4 0.000000 0.000000 0.000000 0.060216 0.000000 0.000000
# 5 0.000000 0.000000 0.000000 0.000000 0.063600 0.000000
# 6 0.000000 0.000000 0.000000 0.000000 0.000000 0.203710
#
#
# Mechanical properties :
#
#
# Convention : Reuss Voigt Hill
#
# Bulk Modulus (GPa) = 52.90510 63.04740 57.97625
# Shear Modulus (GPa) = 11.95044 18.24876 15.09960
#
# Velocity S-wave (km/s) = 2.51939 3.11330 2.83196
# Velocity P-wave (km/s) = 6.04674 6.81252 6.44102
#
# Compressibility (1/GPa) = 0.01890177
#
# Stress axis : x y z
#
# Youngs Moduli (GPa) = 71.59413 46.60331 61.31249
#
# Poissons Ratio (x) = 0.51806 0.12466
# Poissons Ratio (y) = 0.79587 0.20032
# Poissons Ratio (z) = 0.14556 0.15226
#
# Static dielectric constant tensor:
#      x y z
#    x 3.533260 0.000000 0.000000 
#    y 0.000000 3.141030 0.000000 
#    z 0.000000 0.000000 3.499400 
# 
# 
# High freq. dielectric constant tensor:
#      x y z
#    x 1.751090 0.000000 0.000000 
#    y 0.000000 1.690610 0.000000 
#    z 0.000000 0.000000 1.733860 
# 
# From -- ./inp_files/3838.got.cif
#   From: 2010.03.12/outbox.cif.g09.slc.cpg/sg39_2_cif.got.tgz:3838.got - 2010.04.14 02:53:20.
