data_PCOD8180786
_publ_section_title
;
Structure prediction by ZEFSAII (Michael W. Deem and Ramdas Pophale) SiO2 
 PCOD8180786
Probable space group: A B M 2
;
_chemical_formula_sum "Si O2"
_cell_formula_units_Z 64
_cell_length_a 14.344718
_cell_length_b 8.665130
_cell_length_c 31.535368
_cell_angle_alpha 90.000000
_cell_angle_beta 90.000000
_cell_angle_gamma 90.000000
_cell_volume 3919.809860
_symmetry_space_group_name_H-M "A B M 2"
_symmetry_group_IT_number 39
_symmetry_cell_setting 'orthorhombic'
loop_
_space_group_symop_operation_xyz
x,y,z
-x,-y,z
-x,1/2+y,z
x,1/2-y,z
x,1/2+y,1/2+z
-x,1/2-y,1/2+z
-x,y,1/2+z
x,-y,1/2+z
loop_
_atom_site_type_symbol
_atom_site_label
_atom_site_fract_x
_atom_site_fract_y
_atom_site_fract_z
Si Si1 0.099859 0.570900 0.433240
Si Si2 0.101863 0.067354 0.186316
Si Si3 0.777997 0.432131 0.766505
Si Si4 0.897190 0.066955 0.524558
Si Si5 0.896264 0.067431 0.341083
Si Si6 0.403763 0.067247 0.140928
Si Si7 0.403088 0.067398 0.733404
Si Si8 0.211706 0.933013 0.604909
O O1 0.083777 0.750000 0.436614
O O2 0.146227 0.517380 0.478157
O O3 0.148617 0.531823 0.388158
O O4 0.000000 0.500000 0.430626
O O5 0.095230 0.250000 0.185101
O O6 0.160944 0.011659 0.226678
O O7 0.150744 0.001445 0.143943
O O8 0.000000 0.000000 0.190597
O O9 0.762315 0.250000 0.765850
O O10 0.828393 0.481677 0.809287
O O11 0.678415 0.516356 0.765176
O O12 0.904238 0.250000 0.529066
O O13 0.828671 0.999764 0.560795
O O14 0.000000 0.000000 0.531235
O O15 0.899816 0.250000 0.331860
O O16 0.000000 0.000000 0.336337
O O17 0.411777 0.250000 0.145122
O O18 0.319583 0.016511 0.109930
O O19 0.500000 0.000000 0.122123
O O20 0.382139 0.000777 0.187130
O O21 0.409978 0.250000 0.730539
O O22 0.500000 0.000000 0.751266
O O23 0.205541 0.750000 0.605648
#
# Coordination Sequence:
#
# PCOD8180786 Si02
#       8
#     8   8   8   8   8   8   8   8
#     4   8  15  27  44  65  90 118 154 195 233 276
#     4  10  20  32  43  60  90 125 156 188 222 265
#     4  11  21  34  49  67  94 126 160 196 235 276
#     4   9  16  28  46  67  91 123 156 189 231 275
#     4  10  19  31  46  68  96 126 160 198 238 282
#     4  10  18  32  49  67  91 120 155 196 238 277
#     4  11  21  34  52  72  93 120 155 196 239 282
#     4   9  17  30  46  64  91 123 153 189 232 278
#
# _framework density 16.327323
#
# number of rings (size 3 to 8) (size 9 to 14) (size 15 to 20)
#    0.000    2.250    1.250    3.750    0.000    2.500 
#    0.000    1.250    0.000    0.000    0.000    0.875 
#    0.000    2.000    0.000    0.000    0.000    0.000 
#
# Total GULP energy -396546.001425 kJ/mol
# GULP energy per Si atom -12392.062545 kJ/mol
# Density = 1.629016 g / cm^3
# Si number density = 16.327323 Si / 1000 Ang^3
#
#
#
# Elastic Constant Matrix: (Units=GPa)
#
#
# Indices 1 2 3 4 5 6 
#
# 1 116.5705 30.6701 61.1763 0.0000 0.0000 0.0000
# 2 30.6701 52.3341 26.1374 0.0000 0.0000 0.0000
# 3 61.1763 26.1374 124.1806 0.0000 0.0000 0.0000
# 4 0.0000 0.0000 0.0000 68.7441 0.0000 0.0000
# 5 0.0000 0.0000 0.0000 0.0000 8.8532 0.0000
# 6 0.0000 0.0000 0.0000 0.0000 0.0000 25.3967
#
#
#
# Elastic Compliance Matrix: (Units=1/GPa)
#
#
# Indices 1 2 3 4 5 6 
#
# 1 0.012551 -0.004769 -0.005180 0.000000 0.000000 0.000000
# 2 -0.004769 0.023164 -0.002526 0.000000 0.000000 0.000000
# 3 -0.005180 -0.002526 0.011136 0.000000 0.000000 0.000000
# 4 0.000000 0.000000 0.000000 0.014547 0.000000 0.000000
# 5 0.000000 0.000000 0.000000 0.000000 0.112954 0.000000
# 6 0.000000 0.000000 0.000000 0.000000 0.000000 0.039375
#
#
# Mechanical properties :
#
#
# Convention : Reuss Voigt Hill
#
# Bulk Modulus (GPa) = 45.65662 58.78364 52.22013
# Shear Modulus (GPa) = 20.32699 32.27222 26.29961
#
# Velocity S-wave (km/s) = 3.53224 4.45070 4.01780
# Velocity P-wave (km/s) = 6.68279 7.90525 7.31958
#
# Compressibility (1/GPa) = 0.02190263
#
# Stress axis : x y z
#
# Youngs Moduli (GPa) = 79.67201 43.16951 89.79728
#
# Poissons Ratio (x) = 0.20587 0.46511
# Poissons Ratio (y) = 0.37994 0.22686
# Poissons Ratio (z) = 0.41267 0.10906
#
# Static dielectric constant tensor:
#      x y z
#    x 3.112660 0.000000 0.000000 
#    y 0.000000 2.501600 0.000000 
#    z 0.000000 0.000000 3.574760 
# 
# 
# High freq. dielectric constant tensor:
#      x y z
#    x 1.608570 0.000000 0.000000 
#    y 0.000000 1.627950 0.000000 
#    z 0.000000 0.000000 1.625030 
# 
# From -- ./inp_files/17945.got.cif
#   From: 2010.03.12/outbox.cif.g09.slc.cpg/sg39_9_cif.got.tgz:17945.got - 2010.04.14 02:53:20.
