data_PCOD8180617
_publ_section_title
;
Structure prediction by ZEFSAII (Michael W. Deem and Ramdas Pophale) SiO2 
 PCOD8180617
Probable space group: A B M 2
;
_chemical_formula_sum "Si O2"
_cell_formula_units_Z 64
_cell_length_a 28.433321
_cell_length_b 22.917228
_cell_length_c 5.217867
_cell_angle_alpha 90.000000
_cell_angle_beta 90.000000
_cell_angle_gamma 90.000000
_cell_volume 3400.029448
_symmetry_space_group_name_H-M "A B M 2"
_symmetry_group_IT_number 39
_symmetry_cell_setting 'orthorhombic'
loop_
_space_group_symop_operation_xyz
x,y,z
-x,-y,z
-x,1/2+y,z
x,1/2-y,z
x,1/2+y,1/2+z
-x,1/2-y,1/2+z
-x,y,1/2+z
x,-y,1/2+z
loop_
_atom_site_type_symbol
_atom_site_label
_atom_site_fract_x
_atom_site_fract_y
_atom_site_fract_z
Si Si1 0.881764 0.618043 0.508800
Si Si2 0.020331 0.565714 0.982253
Si Si3 0.142054 0.681426 0.510568
Si Si4 0.203424 0.964554 0.048068
Si Si5 0.713659 0.381602 0.004674
Si Si6 0.479642 0.935501 0.986992
Si Si7 0.748751 0.681127 0.004270
Si Si8 0.628183 0.461423 0.016227
O O1 0.923211 0.569703 0.493324
O O2 0.883894 0.662443 0.271072
O O3 0.832499 0.586344 0.487572
O O4 0.885547 0.652881 0.773656
O O5 0.000000 0.500000 0.971329
O O6 0.001768 0.598338 0.728011
O O7 0.137845 0.750000 0.481553
O O8 0.196666 0.662045 0.508561
O O9 0.255588 0.940264 0.015455
O O10 0.195355 0.015093 0.839546
O O11 0.721542 0.348201 0.738991
O O12 0.725629 0.338835 0.238610
O O13 0.660291 0.403693 0.021686
O O14 0.494677 0.902697 0.723986
O O15 0.500000 0.000000 0.938859
O O16 0.424219 0.936557 0.025444
O O17 0.743445 0.750000 0.030086
O O18 0.638190 0.501739 0.261051
#
# Coordination Sequence:
#
# PCOD8180617 Si02
#       8
#     8   8   8   8   8   8   8   8
#     4  12  23  40  66  88 121 153 194 242 282 341
#     4  10  23  40  59  86 117 152 189 229 280 336
#     4  11  22  41  67  94 113 147 199 250 296 333
#     4  12  24  36  54  82 124 161 185 224 270 343
#     4  12  23  39  52  86 120 153 200 224 292 360
#     4  10  16  30  49  72 105 151 200 245 276 323
#     4  11  22  41  62  82 114 151 193 254 293 330
#     4  12  21  33  53  78 119 170 187 232 290 340
#
# _framework density 18.823366
#
# number of rings (size 3 to 8) (size 9 to 14) (size 15 to 20)
#    0.000    0.750    5.000    4.500    3.500    2.000 
#    0.000    0.000    0.000    7.500    0.000    0.000 
#    0.000   10.000    0.000    0.000    0.000    0.000 
#
# Total GULP energy -396805.422294 kJ/mol
# GULP energy per Si atom -12400.169447 kJ/mol
# Density = 1.878052 g / cm^3
# Si number density = 18.823366 Si / 1000 Ang^3
#
#
#
# Elastic Constant Matrix: (Units=GPa)
#
#
# Indices 1 2 3 4 5 6 
#
# 1 96.7307 27.0120 17.0316 0.0000 0.0000 0.0000
# 2 27.0120 52.7699 15.5192 0.0000 0.0000 0.0000
# 3 17.0316 15.5192 134.6421 0.0000 0.0000 0.0000
# 4 0.0000 0.0000 0.0000 26.6382 0.0000 0.0000
# 5 0.0000 0.0000 0.0000 0.0000 22.0963 0.0000
# 6 0.0000 0.0000 0.0000 0.0000 0.0000 19.6576
#
#
#
# Elastic Compliance Matrix: (Units=1/GPa)
#
#
# Indices 1 2 3 4 5 6 
#
# 1 0.012155 -0.005972 -0.000849 0.000000 0.000000 0.000000
# 2 -0.005972 0.022550 -0.001844 0.000000 0.000000 0.000000
# 3 -0.000849 -0.001844 0.007747 0.000000 0.000000 0.000000
# 4 0.000000 0.000000 0.000000 0.037540 0.000000 0.000000
# 5 0.000000 0.000000 0.000000 0.000000 0.045257 0.000000
# 6 0.000000 0.000000 0.000000 0.000000 0.000000 0.050871
#
#
# Mechanical properties :
#
#
# Convention : Reuss Voigt Hill
#
# Bulk Modulus (GPa) = 39.80659 44.80761 42.30710
# Shear Modulus (GPa) = 24.77411 28.65040 26.71225
#
# Velocity S-wave (km/s) = 3.63179 3.90560 3.77118
# Velocity P-wave (km/s) = 6.22735 6.64787 6.44104
#
# Compressibility (1/GPa) = 0.02512147
#
# Stress axis : x y z
#
# Youngs Moduli (GPa) = 82.26883 44.34680 129.08194
#
# Poissons Ratio (x) = 0.26485 0.10962
# Poissons Ratio (y) = 0.49134 0.23798
# Poissons Ratio (z) = 0.06986 0.08176
#
# Static dielectric constant tensor:
#      x y z
#    x 3.418020 0.000000 0.000000 
#    y 0.000000 3.099540 0.000000 
#    z 0.000000 0.000000 4.673050 
# 
# 
# High freq. dielectric constant tensor:
#      x y z
#    x 1.725640 0.000000 0.000000 
#    y 0.000000 1.690590 0.000000 
#    z 0.000000 0.000000 1.768580 
# 
# From -- ./inp_files/1457.got.cif
#   From: 2010.03.12/outbox.cif.g09.slc.cpg/sg39_1_cif.got.tgz:1457.got - 2010.04.14 02:53:20.
