data_PCOD8180823
_publ_section_title
;
Structure prediction by ZEFSAII (Michael W. Deem and Ramdas Pophale) SiO2 
 PCOD8180823
Probable space group: A B M 2
;
_chemical_formula_sum "Si O2"
_cell_formula_units_Z 64
_cell_length_a 9.184076
_cell_length_b 20.502805
_cell_length_c 17.853751
_cell_angle_alpha 90.000000
_cell_angle_beta 90.000000
_cell_angle_gamma 90.000000
_cell_volume 3361.849161
_symmetry_space_group_name_H-M "A B M 2"
_symmetry_group_IT_number 39
_symmetry_cell_setting 'orthorhombic'
loop_
_space_group_symop_operation_xyz
x,y,z
-x,-y,z
-x,1/2+y,z
x,1/2-y,z
x,1/2+y,1/2+z
-x,1/2-y,1/2+z
-x,y,1/2+z
x,-y,1/2+z
loop_
_atom_site_type_symbol
_atom_site_label
_atom_site_fract_x
_atom_site_fract_y
_atom_site_fract_z
Si Si1 0.173885 0.607296 0.386420
Si Si2 0.630506 0.550146 0.155341
Si Si3 0.841104 0.483024 0.528579
Si Si4 0.544257 0.823641 0.899592
Si Si5 0.707145 0.095858 0.942543
Si Si6 0.889197 0.676012 0.348198
Si Si7 0.381906 0.323650 0.245480
Si Si8 0.671863 0.997658 0.309416
O O1 0.130861 0.562104 0.456504
O O2 0.283699 0.664898 0.411391
O O3 0.262793 0.567831 0.324689
O O4 0.034130 0.633012 0.342292
O O5 0.500000 0.500000 0.134285
O O6 0.743602 0.556554 0.087414
O O7 0.579952 0.623566 0.180219
O O8 0.717844 0.521092 0.225800
O O9 0.753546 0.550481 0.511628
O O10 0.000000 0.500000 0.561930
O O11 0.507489 0.750000 0.924917
O O12 0.457596 0.876474 0.951914
O O13 0.494317 0.834288 0.813721
O O14 0.810587 0.158206 0.927524
O O15 0.733469 0.054886 0.866796
O O16 0.939806 0.750000 0.354292
O O17 0.782291 0.666160 0.277047
O O18 0.398578 0.250000 0.212962
O O19 0.500000 0.000000 0.318876
#
# Coordination Sequence:
#
# PCOD8180823 Si02
#       8
#     8   8   8   8   8   8   8   8
#     4  11  21  34  55  88 118 143 189 244 291 337
#     4  11  22  37  59  86 112 157 204 244 286 351
#     4  11  25  38  53  78 120 157 190 242 296 342
#     4  10  18  32  60  88 112 142 185 236 288 346
#     4  10  18  36  57  80 109 145 186 235 296 336
#     4  10  19  34  58  85 114 147 186 229 288 354
#     4   9  19  39  62  88 119 151 187 242 303 353
#     4  10  18  33  57  84 111 139 180 243 292 334
#
# _framework density 19.037143
#
# number of rings (size 3 to 8) (size 9 to 14) (size 15 to 20)
#    0.000    1.750    5.000    2.250    1.750    1.000 
#    0.000    1.250    0.000    0.000    0.000    0.000 
#    0.000    0.000    0.000    0.000    0.000    0.000 
#
# Total GULP energy -396569.577495 kJ/mol
# GULP energy per Si atom -12392.799297 kJ/mol
# Density = 1.899381 g / cm^3
# Si number density = 19.037143 Si / 1000 Ang^3
#
#
#
# Elastic Constant Matrix: (Units=GPa)
#
#
# Indices 1 2 3 4 5 6 
#
# 1 92.1074 26.2484 6.8896 0.0000 0.0000 0.0000
# 2 26.2484 106.3851 16.6645 0.0000 0.0000 0.0000
# 3 6.8896 16.6645 41.0403 0.0000 0.0000 0.0000
# 4 0.0000 0.0000 0.0000 18.9791 0.0000 0.0000
# 5 0.0000 0.0000 0.0000 0.0000 18.1281 0.0000
# 6 0.0000 0.0000 0.0000 0.0000 0.0000 34.9645
#
#
#
# Elastic Compliance Matrix: (Units=1/GPa)
#
#
# Indices 1 2 3 4 5 6 
#
# 1 0.011705 -0.002756 -0.000846 0.000000 0.000000 0.000000
# 2 -0.002756 0.010687 -0.003877 0.000000 0.000000 0.000000
# 3 -0.000846 -0.003877 0.026083 0.000000 0.000000 0.000000
# 4 0.000000 0.000000 0.000000 0.052690 0.000000 0.000000
# 5 0.000000 0.000000 0.000000 0.000000 0.055163 0.000000
# 6 0.000000 0.000000 0.000000 0.000000 0.000000 0.028600
#
#
# Mechanical properties :
#
#
# Convention : Reuss Voigt Hill
#
# Bulk Modulus (GPa) = 29.83488 37.68198 33.75843
# Shear Modulus (GPa) = 23.69021 27.06303 25.37662
#
# Velocity S-wave (km/s) = 3.53146 3.77449 3.65500
# Velocity P-wave (km/s) = 5.68632 6.23158 5.96518
#
# Compressibility (1/GPa) = 0.03351781
#
# Stress axis : x y z
#
# Youngs Moduli (GPa) = 85.43028 93.57186 38.33984
#
# Poissons Ratio (x) = 0.25784 0.03244
# Poissons Ratio (y) = 0.23541 0.14864
# Poissons Ratio (z) = 0.07229 0.36277
#
# Static dielectric constant tensor:
#      x y z
#    x 3.489300 0.000000 0.000000 
#    y 0.000000 3.798350 0.000000 
#    z 0.000000 0.000000 3.118860 
# 
# 
# High freq. dielectric constant tensor:
#      x y z
#    x 1.738710 0.000000 0.000000 
#    y 0.000000 1.756990 0.000000 
#    z 0.000000 0.000000 1.689210 
# 
# From -- ./inp_files/11933.got.cif
#   From: 2010.03.12/outbox.cif.g09.slc.cpg/sg39_6_cif.got.tgz:11933.got - 2010.04.14 02:53:20.
