data_PCOD8180954
_publ_section_title
;
Structure prediction by ZEFSAII (Michael W. Deem and Ramdas Pophale) SiO2 
 PCOD8180954
Probable space group: A B M 2
;
_chemical_formula_sum "Si O2"
_cell_formula_units_Z 56
_cell_length_a 5.145915
_cell_length_b 15.267226
_cell_length_c 33.265322
_cell_angle_alpha 90.000000
_cell_angle_beta 90.000000
_cell_angle_gamma 90.000000
_cell_volume 2613.451677
_symmetry_space_group_name_H-M "A B M 2"
_symmetry_group_IT_number 39
_symmetry_cell_setting 'orthorhombic'
loop_
_space_group_symop_operation_xyz
x,y,z
-x,-y,z
-x,1/2+y,z
x,1/2-y,z
x,1/2+y,1/2+z
-x,1/2-y,1/2+z
-x,y,1/2+z
x,-y,1/2+z
loop_
_atom_site_type_symbol
_atom_site_label
_atom_site_fract_x
_atom_site_fract_y
_atom_site_fract_z
Si Si1 0.977226 0.853227 0.019880
Si Si2 0.993505 0.099107 0.242888
Si Si3 0.466843 0.647955 0.970252
Si Si4 0.000000 0.500000 0.584041
Si Si5 0.074659 0.853874 0.332992
Si Si6 0.485626 0.653591 0.698658
Si Si7 0.571017 0.854046 0.381020
Si Si8 0.500000 0.000000 0.637025
O O1 0.986861 0.750000 0.031916
O O2 0.934888 0.912537 0.058925
O O3 0.745994 0.872282 0.988859
O O4 0.240840 0.888392 0.999163
O O5 0.945281 0.100494 0.290190
O O6 0.764889 0.147231 0.219350
O O7 0.268212 0.143788 0.233194
O O8 0.000000 0.000000 0.227408
O O9 0.413714 0.750000 0.965880
O O10 0.448785 0.605419 0.925903
O O11 0.750298 0.521969 0.610630
O O12 0.076117 0.750000 0.326819
O O13 0.333892 0.889464 0.354267
O O14 0.837469 0.884736 0.360842
O O15 0.463257 0.750000 0.679297
O O16 0.436656 0.584204 0.663806
O O17 0.551858 0.750000 0.383480
#
# Coordination Sequence:
#
# PCOD8180954 Si02
#       8
#     8   8   8   4   8   8   8   4
#     4  10  21  38  62  90 120 161 206 247 303 373
#     4  12  23  42  65  91 133 173 215 267 320 373
#     4   9  17  33  59  86 118 162 209 255 303 358
#     4  12  26  42  68  92 130 156 196 250 320 380
#     4  10  19  31  53  86 119 160 213 258 308 364
#     4  12  25  45  71  97 127 169 216 259 315 385
#     4   9  17  30  52  83 118 158 209 264 307 353
#     4  12  26  46  66  98 126 160 196 258 320 384
#
# _framework density 21.427600000000002
#
# number of rings (size 3 to 8) (size 9 to 14) (size 15 to 20)
#    0.000    1.429    1.429    4.714    0.000    5.714 
#    0.000    0.000    9.429    0.000    0.000    0.000 
#    0.000    0.000    0.000    0.000    0.000    0.000 
#
# Total GULP energy -347312.562625 kJ/mol
# GULP energy per Si atom -12404.020094 kJ/mol
# Density = 2.137883 g / cm^3
# Si number density = 21.427600 Si / 1000 Ang^3
#
#
#
# Elastic Constant Matrix: (Units=GPa)
#
#
# Indices 1 2 3 4 5 6 
#
# 1 104.9684 13.6095 12.3015 0.0000 0.0000 0.0000
# 2 13.6095 87.5418 26.0690 0.0000 0.0000 0.0000
# 3 12.3015 26.0690 99.2903 0.0000 0.0000 0.0000
# 4 0.0000 0.0000 0.0000 -1.2163 0.0000 0.0000
# 5 0.0000 0.0000 0.0000 0.0000 37.6046 0.0000
# 6 0.0000 0.0000 0.0000 0.0000 0.0000 13.7597
#
#
#
# Elastic Compliance Matrix: (Units=1/GPa)
#
#
# Indices 1 2 3 4 5 6 
#
# 1 0.009793 -0.001260 -0.000883 0.000000 0.000000 0.000000
# 2 -0.001260 0.012554 -0.003140 0.000000 0.000000 0.000000
# 3 -0.000883 -0.003140 0.011005 0.000000 0.000000 0.000000
# 4 0.000000 0.000000 0.000000 -0.822182 0.000000 0.000000
# 5 0.000000 0.000000 0.000000 0.000000 0.026592 0.000000
# 6 0.000000 0.000000 0.000000 0.000000 0.000000 0.072676
#
#
# Mechanical properties :
#
#
# Convention : Reuss Voigt Hill
#
# Bulk Modulus (GPa) = 43.88265 43.97338 43.92801
# Shear Modulus (GPa) = -7.44713 26.01764 9.28526
#
# Velocity S-wave (km/s) = -1.86629 3.48833 2.08392
# Velocity P-wave (km/s) = 3.98496 6.06556 5.13181
#
# Compressibility (1/GPa) = 0.02278805
#
# Stress axis : x y z
#
# Youngs Moduli (GPa) = 102.10926 79.65580 90.86571
#
# Poissons Ratio (x) = 0.10034 0.08020
# Poissons Ratio (y) = 0.12863 0.28532
# Poissons Ratio (z) = 0.09012 0.25012
#
# Static dielectric constant tensor:
#      x y z
#    x 4.097830 0.000000 0.000000 
#    y 0.000000 3.714050 0.000000 
#    z 0.000000 0.000000 3.875820 
# 
# 
# High freq. dielectric constant tensor:
#      x y z
#    x 1.859500 0.000000 0.000000 
#    y 0.000000 1.828100 0.000000 
#    z 0.000000 0.000000 1.840910 
# 
# From -- ./inp_files/17307.got.cif
#   From: 2010.03.12/outbox.cif.g09.slc.cpg/sg39_9_cif.got.tgz:17307.got - 2010.04.14 02:53:20.
