data_PCOD8180669
_publ_section_title
;
Structure prediction by ZEFSAII (Michael W. Deem and Ramdas Pophale) SiO2 
 PCOD8180669
Probable space group: A B M 2
;
_chemical_formula_sum "Si O2"
_cell_formula_units_Z 56
_cell_length_a 15.288773
_cell_length_b 8.796088
_cell_length_c 25.035036
_cell_angle_alpha 90.000000
_cell_angle_beta 90.000000
_cell_angle_gamma 90.000000
_cell_volume 3366.746508
_symmetry_space_group_name_H-M "A B M 2"
_symmetry_group_IT_number 39
_symmetry_cell_setting 'orthorhombic'
loop_
_space_group_symop_operation_xyz
x,y,z
-x,-y,z
-x,1/2+y,z
x,1/2-y,z
x,1/2+y,1/2+z
-x,1/2-y,1/2+z
-x,y,1/2+z
x,-y,1/2+z
loop_
_atom_site_type_symbol
_atom_site_label
_atom_site_fract_x
_atom_site_fract_y
_atom_site_fract_z
Si Si1 0.595133 0.427518 0.347460
Si Si2 0.082811 0.072790 0.540466
Si Si3 0.086647 0.929066 0.424903
Si Si4 0.724503 0.923374 0.546500
Si Si5 0.404630 0.571842 0.625267
Si Si6 0.405834 0.573576 0.229776
Si Si7 0.263246 0.927522 0.921761
O O1 0.500000 0.500000 0.351101
O O2 0.587460 0.250000 0.360710
O O3 0.637630 0.451873 0.288075
O O4 0.654331 0.508760 0.390638
O O5 0.066581 0.250000 0.527540
O O6 0.176473 0.052687 0.569639
O O7 0.086666 0.977145 0.486391
O O8 0.000000 0.000000 0.573489
O O9 0.084598 0.750000 0.418049
O O10 0.175621 0.993321 0.398785
O O11 0.000000 0.000000 0.396695
O O12 0.694639 0.750000 0.555943
O O13 0.722675 0.963932 0.484032
O O14 0.658020 0.034445 0.575869
O O15 0.500000 0.500000 0.615841
O O16 0.416098 0.750000 0.629885
O O17 0.358103 0.507954 0.679671
O O18 0.500000 0.500000 0.232834
O O19 0.413926 0.750000 0.216030
O O20 0.253638 0.750000 0.911633
#
# Coordination Sequence:
#
# PCOD8180669 Si02
#       7
#     8   8   8   8   8   8   8
#     4  10  20  33  50  71  94 124 157 192 233 276
#     4   9  16  27  44  65  90 120 153 190 230 271
#     4  10  17  27  44  65  91 121 155 193 231 274
#     4   9  19  33  46  65  95 127 157 188 227 274
#     4  11  21  32  49  69  91 121 156 194 234 274
#     4   9  17  31  50  69  90 115 150 194 235 273
#     4  10  20  33  48  68  96 128 159 193 232 278
#
# _framework density 16.633268999999999
#
# number of rings (size 3 to 8) (size 9 to 14) (size 15 to 20)
#    0.000    2.286    0.000    6.857    0.000    5.714 
#    0.000    0.000    0.000    0.000    0.000    1.000 
#    0.000    4.571    0.000    0.000    0.000    0.000 
#
# Total GULP energy -346967.515874 kJ/mol
# GULP energy per Si atom -12391.696995 kJ/mol
# Density = 1.659541 g / cm^3
# Si number density = 16.633269 Si / 1000 Ang^3
#
#
#
# Elastic Constant Matrix: (Units=GPa)
#
#
# Indices 1 2 3 4 5 6 
#
# 1 104.5659 57.0347 46.0622 0.0000 0.0000 0.0000
# 2 57.0347 138.7273 46.9712 0.0000 0.0000 0.0000
# 3 46.0622 46.9712 59.7051 0.0000 0.0000 0.0000
# 4 0.0000 0.0000 0.0000 22.1766 0.0000 0.0000
# 5 0.0000 0.0000 0.0000 0.0000 0.2461 0.0000
# 6 0.0000 0.0000 0.0000 0.0000 0.0000 32.1450
#
#
#
# Elastic Compliance Matrix: (Units=1/GPa)
#
#
# Indices 1 2 3 4 5 6 
#
# 1 0.015437 -0.003154 -0.009428 0.000000 0.000000 0.000000
# 2 -0.003154 0.010470 -0.005804 0.000000 0.000000 0.000000
# 3 -0.009428 -0.005804 0.028588 0.000000 0.000000 0.000000
# 4 0.000000 0.000000 0.000000 0.045093 0.000000 0.000000
# 5 0.000000 0.000000 0.000000 0.000000 4.063334 0.000000
# 6 0.000000 0.000000 0.000000 0.000000 0.000000 0.031109
#
#
# Mechanical properties :
#
#
# Convention : Reuss Voigt Hill
#
# Bulk Modulus (GPa) = 56.42123 67.01496 61.71809
# Shear Modulus (GPa) = 1.18016 21.10888 11.14452
#
# Velocity S-wave (km/s) = 0.84324 3.56627 2.59127
# Velocity P-wave (km/s) = 5.91121 7.57198 6.79255
#
# Compressibility (1/GPa) = 0.01772382
#
# Stress axis : x y z
#
# Youngs Moduli (GPa) = 64.77956 95.50867 34.97932
#
# Poissons Ratio (x) = 0.30127 0.32978
# Poissons Ratio (y) = 0.20434 0.20300
# Poissons Ratio (z) = 0.61074 0.55429
#
# Static dielectric constant tensor:
#      x y z
#    x 3.454990 0.000000 0.000000 
#    y 0.000000 3.272310 0.000000 
#    z 0.000000 0.000000 3.170960 
# 
# 
# High freq. dielectric constant tensor:
#      x y z
#    x 1.635280 0.000000 0.000000 
#    y 0.000000 1.661300 0.000000 
#    z 0.000000 0.000000 1.600390 
# 
# From -- ./inp_files/14934.got.cif
#   From: 2010.03.12/outbox.cif.g09.slc.cpg/sg39_8_cif.got.tgz:14934.got - 2010.04.14 02:53:20.
