data_PCOD8180868
_publ_section_title
;
Structure prediction by ZEFSAII (Michael W. Deem and Ramdas Pophale) SiO2 
 PCOD8180868
Probable space group: A B M 2
;
_chemical_formula_sum "Si O2"
_cell_formula_units_Z 48
_cell_length_a 13.033520
_cell_length_b 8.908516
_cell_length_c 23.103647
_cell_angle_alpha 90.000000
_cell_angle_beta 90.000000
_cell_angle_gamma 90.000000
_cell_volume 2682.548776
_symmetry_space_group_name_H-M "A B M 2"
_symmetry_group_IT_number 39
_symmetry_cell_setting 'orthorhombic'
loop_
_space_group_symop_operation_xyz
x,y,z
-x,-y,z
-x,1/2+y,z
x,1/2-y,z
x,1/2+y,1/2+z
-x,1/2-y,1/2+z
-x,y,1/2+z
x,-y,1/2+z
loop_
_atom_site_type_symbol
_atom_site_label
_atom_site_fract_x
_atom_site_fract_y
_atom_site_fract_z
Si Si1 0.605435 0.073316 0.638840
Si Si2 0.588431 0.909768 0.439122
Si Si3 0.891918 0.571853 0.940384
Si Si4 0.238057 0.417033 0.347974
Si Si5 0.390150 0.070128 0.760751
Si Si6 0.712879 0.421665 0.524710
O O1 0.587456 0.250000 0.652019
O O2 0.700628 0.052055 0.593761
O O3 0.500000 0.000000 0.614909
O O4 0.637188 0.985276 0.696570
O O5 0.542621 0.750000 0.456852
O O6 0.684756 0.890715 0.399418
O O7 0.500000 0.000000 0.405187
O O8 0.616491 0.993500 0.497864
O O9 0.901391 0.750000 0.934358
O O10 0.855457 0.507718 0.877669
O O11 0.000000 0.500000 0.956219
O O12 0.819430 0.524517 0.995096
O O13 0.203790 0.250000 0.325274
O O14 0.294243 0.513650 0.298825
O O15 0.397536 0.250000 0.764319
O O16 0.500000 0.000000 0.780388
O O17 0.698914 0.250000 0.508230
#
# Coordination Sequence:
#
# PCOD8180868 Si02
#       6
#     8   8   8   8   8   8
#     4  10  19  32  49  72 102 138 174 208 246 294
#     4  10  19  28  43  67  97 129 161 197 243 295
#     4  10  20  36  56  79 103 130 165 209 260 312
#     4  10  20  34  51  73  99 131 168 209 254 302
#     4  11  21  33  50  74 104 140 176 211 249 297
#     4   9  19  33  50  71  98 130 166 206 250 298
#
# _framework density 17.893431
#
# number of rings (size 3 to 8) (size 9 to 14) (size 15 to 20)
#    0.000    2.000    0.000    5.500    0.000    6.667 
#    0.000    0.000    0.000    1.000    0.000    4.667 
#    0.000    0.000    0.000    0.000    0.000    0.000 
#
# Total GULP energy -297342.621347 kJ/mol
# GULP energy per Si atom -12389.275889 kJ/mol
# Density = 1.785270 g / cm^3
# Si number density = 17.893431 Si / 1000 Ang^3
#
#
#
# Elastic Constant Matrix: (Units=GPa)
#
#
# Indices 1 2 3 4 5 6 
#
# 1 86.3984 49.4847 41.7994 0.0000 0.0000 0.0000
# 2 49.4847 133.0983 44.5616 0.0000 0.0000 0.0000
# 3 41.7994 44.5616 89.2396 0.0000 0.0000 0.0000
# 4 0.0000 0.0000 0.0000 22.5251 0.0000 0.0000
# 5 0.0000 0.0000 0.0000 0.0000 23.8372 0.0000
# 6 0.0000 0.0000 0.0000 0.0000 0.0000 28.2905
#
#
#
# Elastic Compliance Matrix: (Units=1/GPa)
#
#
# Indices 1 2 3 4 5 6 
#
# 1 0.016825 -0.004343 -0.005712 0.000000 0.000000 0.000000
# 2 -0.004343 0.010143 -0.003030 0.000000 0.000000 0.000000
# 3 -0.005712 -0.003030 0.015395 0.000000 0.000000 0.000000
# 4 0.000000 0.000000 0.000000 0.044395 0.000000 0.000000
# 5 0.000000 0.000000 0.000000 0.000000 0.041951 0.000000
# 6 0.000000 0.000000 0.000000 0.000000 0.000000 0.035348
#
#
# Mechanical properties :
#
#
# Convention : Reuss Voigt Hill
#
# Bulk Modulus (GPa) = 61.76216 64.49197 63.12707
# Shear Modulus (GPa) = 25.55917 26.45660 26.00789
#
# Velocity S-wave (km/s) = 3.78353 3.84938 3.81660
# Velocity P-wave (km/s) = 7.32656 7.47513 7.40121
#
# Compressibility (1/GPa) = 0.01619114
#
# Stress axis : x y z
#
# Youngs Moduli (GPa) = 59.43420 98.59480 64.95794
#
# Poissons Ratio (x) = 0.42820 0.37105
# Poissons Ratio (y) = 0.25812 0.19685
# Poissons Ratio (z) = 0.33950 0.29878
#
# Static dielectric constant tensor:
#      x y z
#    x 3.254250 0.000000 0.000000 
#    y 0.000000 4.075750 0.000000 
#    z 0.000000 0.000000 3.291820 
# 
# 
# High freq. dielectric constant tensor:
#      x y z
#    x 1.662880 0.000000 0.000000 
#    y 0.000000 1.715290 0.000000 
#    z 0.000000 0.000000 1.681920 
# 
# From -- ./inp_files/14587.got.cif
#   From: 2010.03.12/outbox.cif.g09.slc.cpg/sg39_8_cif.got.tgz:14587.got - 2010.04.14 02:53:20.
