data_PCOD8180684
_publ_section_title
;
Structure prediction by ZEFSAII (Michael W. Deem and Ramdas Pophale) SiO2 
 PCOD8180684
Probable space group: A B M 2
;
_chemical_formula_sum "Si O2"
_cell_formula_units_Z 48
_cell_length_a 8.606071
_cell_length_b 28.416300
_cell_length_c 8.571684
_cell_angle_alpha 90.000000
_cell_angle_beta 90.000000
_cell_angle_gamma 90.000000
_cell_volume 2096.228426
_symmetry_space_group_name_H-M "A B M 2"
_symmetry_group_IT_number 39
_symmetry_cell_setting 'orthorhombic'
loop_
_space_group_symop_operation_xyz
x,y,z
-x,-y,z
-x,1/2+y,z
x,1/2-y,z
x,1/2+y,1/2+z
-x,1/2-y,1/2+z
-x,y,1/2+z
x,-y,1/2+z
loop_
_atom_site_type_symbol
_atom_site_label
_atom_site_fract_x
_atom_site_fract_y
_atom_site_fract_z
Si Si1 0.893301 0.335756 0.188700
Si Si2 0.714733 0.934952 0.311998
Si Si3 0.715650 0.750000 0.828915
Si Si4 0.914970 0.439187 0.278815
Si Si5 0.217365 0.333482 0.336394
Si Si6 0.754578 0.993707 0.046890
Si Si7 0.606414 0.250000 0.687499
O O1 0.816470 0.296886 0.300728
O O2 0.840446 0.388329 0.236618
O O3 0.079108 0.333271 0.209917
O O4 0.852138 0.325565 0.008793
O O5 0.673524 0.880384 0.330206
O O6 0.652417 0.967565 0.453741
O O7 0.902128 0.936580 0.305891
O O8 0.647268 0.960347 0.156841
O O9 0.579234 0.750000 0.700649
O O10 0.655856 0.750000 0.007054
O O11 0.878951 0.476771 0.146105
O O12 0.841899 0.456394 0.439201
O O13 0.335630 0.294083 0.285629
#
# Coordination Sequence:
#
# PCOD8180684 Si02
#       7
#     8   8   4   8   8   8   4
#     4  11  23  39  62  95 131 164 204 254 310 362
#     4  10  18  27  48  78 124 164 203 239 300 348
#     4  12  27  48  71  90 116 156 204 256 315 378
#     4  10  18  27  48  78 124 164 203 239 300 348
#     4  11  23  39  62  95 131 164 204 254 310 362
#     4  10  17  28  44  78 121 168 201 244 289 356
#     4  12  27  48  71  90 116 156 204 256 315 378
#
# _framework density 22.898268000000002
#
# number of rings (size 3 to 8) (size 9 to 14) (size 15 to 20)
#    0.000    1.333    1.667    7.000    9.333    0.000 
#    0.000    0.000    0.000    0.000    0.000    7.000 
#    0.000    0.000    0.000    0.000    0.000    0.000 
#
# Total GULP energy -297443.618154 kJ/mol
# GULP energy per Si atom -12393.484090 kJ/mol
# Density = 2.284615 g / cm^3
# Si number density = 22.898268 Si / 1000 Ang^3
#
#
#
# Elastic Constant Matrix: (Units=GPa)
#
#
# Indices 1 2 3 4 5 6 
#
# 1 25.6636 22.7872 1.3851 0.0000 0.0000 0.0000
# 2 22.7872 165.7002 46.0628 0.0000 0.0000 0.0000
# 3 1.3851 46.0628 127.5964 0.0000 0.0000 0.0000
# 4 0.0000 0.0000 0.0000 29.8348 0.0000 0.0000
# 5 0.0000 0.0000 0.0000 0.0000 21.1111 0.0000
# 6 0.0000 0.0000 0.0000 0.0000 0.0000 -7.0771
#
#
#
# Elastic Compliance Matrix: (Units=1/GPa)
#
#
# Indices 1 2 3 4 5 6 
#
# 1 0.044810 -0.006699 0.001932 0.000000 0.000000 0.000000
# 2 -0.006699 0.007710 -0.002711 0.000000 0.000000 0.000000
# 3 0.001932 -0.002711 0.008795 0.000000 0.000000 0.000000
# 4 0.000000 0.000000 0.000000 0.033518 0.000000 0.000000
# 5 0.000000 0.000000 0.000000 0.000000 0.047368 0.000000
# 6 0.000000 0.000000 0.000000 0.000000 0.000000 -0.141300
#
#
# Mechanical properties :
#
#
# Convention : Reuss Voigt Hill
#
# Bulk Modulus (GPa) = 21.57094 51.04786 36.30940
# Shear Modulus (GPa) = 159.69919 25.35544 92.52731
#
# Velocity S-wave (km/s) = 8.36028 3.33123 6.36362
# Velocity P-wave (km/s) = 10.13081 6.09409 8.35976
#
# Compressibility (1/GPa) = 0.04635868
#
# Stress axis : x y z
#
# Youngs Moduli (GPa) = 22.31652 129.70505 113.70418
#
# Poissons Ratio (x) = 0.86894 -0.21968
# Poissons Ratio (y) = 0.14951 0.30820
# Poissons Ratio (z) = -0.04312 0.35157
#
# Static dielectric constant tensor:
#      x y z
#    x 3.458900 0.000000 0.000000 
#    y 0.000000 4.979910 0.000000 
#    z 0.000000 0.000000 4.542100 
# 
# 
# High freq. dielectric constant tensor:
#      x y z
#    x 1.848520 0.000000 0.000000 
#    y 0.000000 1.930450 0.000000 
#    z 0.000000 0.000000 1.924890 
# 
# From -- ./inp_files/2335.got.cif
#   From: 2010.03.12/outbox.cif.g09.slc.cpg/sg39_2_cif.got.tgz:2335.got - 2010.04.14 02:53:20.
