data_PCOD8180037
_publ_section_title
;
Structure prediction by ZEFSAII (Michael W. Deem and Ramdas Pophale) SiO2 
 PCOD8180037
Probable space group: A M M 2
;
_chemical_formula_sum "Si O2"
_cell_formula_units_Z 48
_cell_length_a 15.753081
_cell_length_b 8.341792
_cell_length_c 18.175400
_cell_angle_alpha 90.000000
_cell_angle_beta 90.000000
_cell_angle_gamma 90.000000
_cell_volume 2388.409777
_symmetry_space_group_name_H-M "A M M 2"
_symmetry_group_IT_number 38
_symmetry_cell_setting 'orthorhombic'
loop_
_space_group_symop_operation_xyz
x,y,z
-x,-y,z
-x,y,z
x,-y,z
x,1/2+y,1/2+z
-x,1/2-y,1/2+z
-x,1/2+y,1/2+z
x,1/2-y,1/2+z
loop_
_atom_site_type_symbol
_atom_site_label
_atom_site_fract_x
_atom_site_fract_y
_atom_site_fract_z
Si Si1 0.500000 0.683784 0.261770
Si Si2 0.000000 0.690668 0.414143
Si Si3 0.652808 0.313250 0.669113
Si Si4 0.000000 0.811105 0.750789
Si Si5 0.818494 0.190122 0.916102
Si Si6 0.339398 0.311061 0.503797
Si Si7 0.815455 0.189081 0.745749
Si Si8 0.500000 0.814940 0.420386
O O1 0.500000 0.500000 0.287658
O O2 0.584212 0.715259 0.215068
O O3 0.500000 0.796379 0.332825
O O4 0.089627 0.749008 0.449553
O O5 0.000000 0.500000 0.412306
O O6 0.000000 0.761889 0.332144
O O7 0.628752 0.500000 0.671783
O O8 0.649539 0.244103 0.586141
O O9 0.746917 0.288120 0.700196
O O10 0.090229 0.761703 0.713447
O O11 0.000000 0.000000 0.759427
O O12 0.807945 0.241475 0.831071
O O13 0.813081 0.000000 0.919818
O O14 0.744268 0.266689 0.965862
O O15 0.328882 0.500000 0.508183
O O16 0.418371 0.269126 0.453619
O O17 0.798757 0.000000 0.736469
O O18 0.500000 0.000000 0.441806
#
# Coordination Sequence:
#
# PCOD8180037 Si02
#       8
#     4   4   8   4   8   8   8   4
#     4  12  25  42  63  81 101 137 183 224 269 330
#     4   7  10  20  43  75 103 125 166 225 266 299
#     4  11  23  37  53  79 115 147 179 226 276 319
#     4   7  12  24  46  77 105 133 180 237 278 315
#     4   8  14  27  50  77 101 132 176 222 265 310
#     4  10  21  37  55  78 112 149 179 213 264 323
#     4   9  16  30  54  79 104 140 188 235 278 328
#     4  12  25  40  61  87 109 131 169 222 273 322
#
# _framework density 20.097054
#
# number of rings (size 3 to 8) (size 9 to 14) (size 15 to 20)
#    0.000    2.500    0.000    5.500    0.000    4.667 
#    0.000    1.250    0.000    2.000    0.000    1.750 
#    0.000    0.000    0.000    0.000    0.000    0.000 
#
# Total GULP energy -297378.415153 kJ/mol
# GULP energy per Si atom -12390.767298 kJ/mol
# Density = 2.005131 g / cm^3
# Si number density = 20.097054 Si / 1000 Ang^3
#
#
#
# Elastic Constant Matrix: (Units=GPa)
#
#
# Indices 1 2 3 4 5 6 
#
# 1 179.7769 -0.9473 58.3555 0.0000 0.0000 0.0000
# 2 -0.9473 20.8838 2.3701 0.0000 0.0000 0.0000
# 3 58.3555 2.3701 102.5211 0.0000 0.0000 0.0000
# 4 0.0000 0.0000 0.0000 14.5861 0.0000 0.0000
# 5 0.0000 0.0000 0.0000 0.0000 0.1929 0.0000
# 6 0.0000 0.0000 0.0000 0.0000 0.0000 1.1282
#
#
#
# Elastic Compliance Matrix: (Units=1/GPa)
#
#
# Indices 1 2 3 4 5 6 
#
# 1 0.006835 0.000754 -0.003908 0.000000 0.000000 0.000000
# 2 0.000754 0.048093 -0.001541 0.000000 0.000000 0.000000
# 3 -0.003908 -0.001541 0.012014 0.000000 0.000000 0.000000
# 4 0.000000 0.000000 0.000000 0.068559 0.000000 0.000000
# 5 0.000000 0.000000 0.000000 0.000000 5.183457 0.000000
# 6 0.000000 0.000000 0.000000 0.000000 0.000000 0.886372
#
#
# Mechanical properties :
#
#
# Convention : Reuss Voigt Hill
#
# Bulk Modulus (GPa) = 17.37563 46.97092 32.17327
# Shear Modulus (GPa) = 0.80207 19.40834 10.10520
#
# Velocity S-wave (km/s) = 0.63243 3.11099 2.24480
# Velocity P-wave (km/s) = 3.03281 6.02720 4.77101
#
# Compressibility (1/GPa) = 0.05755188
#
# Stress axis : x y z
#
# Youngs Moduli (GPa) = 146.30745 20.79304 83.23552
#
# Poissons Ratio (x) = -0.01567 0.32528
# Poissons Ratio (y) = -0.11025 0.12824
# Poissons Ratio (z) = 0.57175 0.03204
#
# Static dielectric constant tensor:
#      x y z
#    x 4.269830 0.000000 0.000000 
#    y 0.000000 3.173450 0.000000 
#    z 0.000000 0.000000 3.601500 
# 
# 
# High freq. dielectric constant tensor:
#      x y z
#    x 1.815280 0.000000 0.000000 
#    y 0.000000 1.744260 0.000000 
#    z 0.000000 0.000000 1.759430 
# 
# From -- ./inp_files/18222.got.cif
#   From: 2010.03.12/outbox.cif.g09.slc.cpg/sg38_10_cif.got.tgz:18222.got - 2010.04.14 02:38:36.
