data_PCOD8180818
_publ_section_title
;
Structure prediction by ZEFSAII (Michael W. Deem and Ramdas Pophale) SiO2 
 PCOD8180818
Probable space group: A B M 2
;
_chemical_formula_sum "Si O2"
_cell_formula_units_Z 64
_cell_length_a 14.931822
_cell_length_b 8.743884
_cell_length_c 24.683141
_cell_angle_alpha 90.000000
_cell_angle_beta 90.000000
_cell_angle_gamma 90.000000
_cell_volume 3222.683204
_symmetry_space_group_name_H-M "A B M 2"
_symmetry_group_IT_number 39
_symmetry_cell_setting 'orthorhombic'
loop_
_space_group_symop_operation_xyz
x,y,z
-x,-y,z
-x,1/2+y,z
x,1/2-y,z
x,1/2+y,1/2+z
-x,1/2-y,1/2+z
-x,y,1/2+z
x,-y,1/2+z
loop_
_atom_site_type_symbol
_atom_site_label
_atom_site_fract_x
_atom_site_fract_y
_atom_site_fract_z
Si Si1 0.238987 0.430198 0.855480
Si Si2 0.597614 0.570228 0.549865
Si Si3 0.747976 0.572729 0.980030
Si Si4 0.595929 0.429197 0.166745
Si Si5 0.402671 0.570060 0.283865
Si Si6 0.901918 0.069054 0.778784
Si Si7 0.096986 0.070196 0.061246
Si Si8 0.098886 0.567800 0.169903
O O1 0.223248 0.250000 0.846343
O O2 0.240258 0.475606 0.918085
O O3 0.332424 0.485526 0.828952
O O4 0.157677 0.523903 0.829836
O O5 0.500000 0.500000 0.540225
O O6 0.585933 0.750000 0.546158
O O7 0.664292 0.517944 0.503432
O O8 0.640128 0.520637 0.609197
O O9 0.725205 0.750000 0.986015
O O10 0.839721 0.531471 0.010725
O O11 0.500000 0.500000 0.167358
O O12 0.585534 0.250000 0.166145
O O13 0.639731 0.478147 0.224488
O O14 0.500000 0.500000 0.295374
O O15 0.415880 0.750000 0.287074
O O16 0.909684 0.250000 0.772799
O O17 0.855488 0.998104 0.724400
O O18 0.000000 0.000000 0.787756
O O19 0.086090 0.250000 0.071374
O O20 0.143627 0.993453 0.114467
O O21 0.000000 0.000000 0.048416
O O22 0.101213 0.750000 0.171282
O O23 0.000000 0.500000 0.168806
#
# Coordination Sequence:
#
# PCOD8180818 Si02
#       8
#     8   8   8   8   8   8   8   8
#     4  10  22  40  57  79 112 151 193 237 280 329
#     4  10  20  35  57  82 111 144 183 229 283 342
#     4  10  23  40  56  78 112 150 192 237 282 332
#     4   8  15  29  50  79 107 135 171 216 270 330
#     4   9  18  34  57  81 110 143 179 224 277 331
#     4  11  22  38  60  86 115 148 185 229 280 335
#     4  10  20  36  57  82 112 146 184 231 283 337
#     4  10  18  32  56  85 115 145 179 223 276 338
#
# _framework density 19.859228000000002
#
# number of rings (size 3 to 8) (size 9 to 14) (size 15 to 20)
#    0.000    2.250    0.000    4.500    0.000    4.500 
#    0.000    3.750    0.000    0.000    0.000    0.000 
#    0.000    0.000    0.000    0.000    0.000    0.000 
#
# Total GULP energy -396537.736601 kJ/mol
# GULP energy per Si atom -12391.804269 kJ/mol
# Density = 1.981403 g / cm^3
# Si number density = 19.859228 Si / 1000 Ang^3
#
#
#
# Elastic Constant Matrix: (Units=GPa)
#
#
# Indices 1 2 3 4 5 6 
#
# 1 101.8538 46.9480 76.6426 0.0000 0.0000 0.0000
# 2 46.9480 95.6148 65.6076 0.0000 0.0000 0.0000
# 3 76.6426 65.6076 185.9951 0.0000 0.0000 0.0000
# 4 0.0000 0.0000 0.0000 36.7237 0.0000 0.0000
# 5 0.0000 0.0000 0.0000 0.0000 32.2634 0.0000
# 6 0.0000 0.0000 0.0000 0.0000 0.0000 27.5939
#
#
#
# Elastic Compliance Matrix: (Units=1/GPa)
#
#
# Indices 1 2 3 4 5 6 
#
# 1 0.015432 -0.004240 -0.004863 0.000000 0.000000 0.000000
# 2 -0.004240 0.014963 -0.003531 0.000000 0.000000 0.000000
# 3 -0.004863 -0.003531 0.008626 0.000000 0.000000 0.000000
# 4 0.000000 0.000000 0.000000 0.027230 0.000000 0.000000
# 5 0.000000 0.000000 0.000000 0.000000 0.030995 0.000000
# 6 0.000000 0.000000 0.000000 0.000000 0.000000 0.036240
#
#
# Mechanical properties :
#
#
# Convention : Reuss Voigt Hill
#
# Bulk Modulus (GPa) = 72.71428 84.65113 78.68270
# Shear Modulus (GPa) = 30.61106 32.26724 31.43915
#
# Velocity S-wave (km/s) = 3.93033 4.03525 3.98314
# Velocity P-wave (km/s) = 7.56908 8.02678 7.80129
#
# Compressibility (1/GPa) = 0.01375246
#
# Stress axis : x y z
#
# Youngs Moduli (GPa) = 64.80034 66.82961 115.92857
#
# Poissons Ratio (x) = 0.28337 0.56380
# Poissons Ratio (y) = 0.27477 0.40933
# Poissons Ratio (z) = 0.31515 0.23597
#
# Static dielectric constant tensor:
#      x y z
#    x 3.407980 0.000000 0.000000 
#    y 0.000000 3.251610 0.000000 
#    z 0.000000 0.000000 4.349290 
# 
# 
# High freq. dielectric constant tensor:
#      x y z
#    x 1.757710 0.000000 0.000000 
#    y 0.000000 1.774740 0.000000 
#    z 0.000000 0.000000 1.788990 
# 
# From -- ./inp_files/16164.got.cif
#   From: 2010.03.12/outbox.cif.g09.slc.cpg/sg39_9_cif.got.tgz:16164.got - 2010.04.14 02:53:20.
