data_PCOD8180359
_publ_section_title
;
Structure prediction by ZEFSAII (Michael W. Deem and Ramdas Pophale) SiO2 
 PCOD8180359
Probable space group: A M M 2
;
_chemical_formula_sum "Si O2"
_cell_formula_units_Z 40
_cell_length_a 9.001837
_cell_length_b 28.108505
_cell_length_c 7.798422
_cell_angle_alpha 90.000000
_cell_angle_beta 90.000000
_cell_angle_gamma 90.000000
_cell_volume 1973.220528
_symmetry_space_group_name_H-M "A M M 2"
_symmetry_group_IT_number 38
_symmetry_cell_setting 'orthorhombic'
loop_
_space_group_symop_operation_xyz
x,y,z
-x,-y,z
-x,y,z
x,-y,z
x,1/2+y,1/2+z
-x,1/2-y,1/2+z
-x,1/2+y,1/2+z
x,1/2-y,1/2+z
loop_
_atom_site_type_symbol
_atom_site_label
_atom_site_fract_x
_atom_site_fract_y
_atom_site_fract_z
Si Si1 0.829180 0.708490 0.930550
Si Si2 0.329538 0.898003 0.939305
Si Si3 0.829574 0.607848 0.785512
Si Si4 0.671413 0.298273 0.277516
Si Si5 0.828782 0.055502 0.622547
O O1 0.813366 0.664835 0.799498
O O2 0.724725 0.750998 0.871660
O O3 0.000000 0.725604 0.943594
O O4 0.774246 0.690926 0.115078
O O5 0.500000 0.912458 0.948178
O O6 0.308052 0.841984 0.906539
O O7 0.258020 0.929351 0.791156
O O8 0.257851 0.911062 0.121157
O O9 0.000000 0.592752 0.761850
O O10 0.764401 0.582902 0.956198
O O11 0.500000 0.292183 0.221568
O O12 0.000000 0.069510 0.649926
O O13 0.806902 0.000000 0.590348
#
# Coordination Sequence:
#
# PCOD8180359 Si02
#       5
#     8   8   8   8   8
#     4  11  22  37  60  89 122 164 212 263 308 362
#     4  11  24  40  62  92 128 167 205 254 313 375
#     4  10  22  40  63  92 125 162 209 261 310 367
#     4  11  23  38  57  86 126 169 208 254 313 376
#     4  10  22  43  69  93 121 161 210 264 317 369
#
# _framework density 20.271429000000001
#
# number of rings (size 3 to 8) (size 9 to 14) (size 15 to 20)
#    0.000    1.400    2.000    3.000    0.000    9.200 
#    0.000    2.000    0.000    0.000    0.000    0.000 
#    0.000    0.000    0.000    0.000    0.000    0.000 
#
# Total GULP energy -248117.007497 kJ/mol
# GULP energy per Si atom -12405.850375 kJ/mol
# Density = 2.022529 g / cm^3
# Si number density = 20.271429 Si / 1000 Ang^3
#
#
#
# Elastic Constant Matrix: (Units=GPa)
#
#
# Indices 1 2 3 4 5 6 
#
# 1 77.2553 31.6109 47.8123 0.0000 0.0000 0.0000
# 2 31.6109 68.8637 24.6435 0.0000 0.0000 0.0000
# 3 47.8123 24.6435 140.8623 0.0000 0.0000 0.0000
# 4 0.0000 0.0000 0.0000 29.1240 0.0000 0.0000
# 5 0.0000 0.0000 0.0000 0.0000 21.3128 0.0000
# 6 0.0000 0.0000 0.0000 0.0000 0.0000 25.2951
#
#
#
# Elastic Compliance Matrix: (Units=1/GPa)
#
#
# Indices 1 2 3 4 5 6 
#
# 1 0.018991 -0.006839 -0.005250 0.000000 0.000000 0.000000
# 2 -0.006839 0.017954 -0.000820 0.000000 0.000000 0.000000
# 3 -0.005250 -0.000820 0.009024 0.000000 0.000000 0.000000
# 4 0.000000 0.000000 0.000000 0.034336 0.000000 0.000000
# 5 0.000000 0.000000 0.000000 0.000000 0.046920 0.000000
# 6 0.000000 0.000000 0.000000 0.000000 0.000000 0.039533
#
#
# Mechanical properties :
#
#
# Convention : Reuss Voigt Hill
#
# Bulk Modulus (GPa) = 49.62023 55.01275 52.31649
# Shear Modulus (GPa) = 25.08857 27.34071 26.21464
#
# Velocity S-wave (km/s) = 3.52182 3.67649 3.59998
# Velocity P-wave (km/s) = 6.40848 6.72452 6.56840
#
# Compressibility (1/GPa) = 0.02015307
#
# Stress axis : x y z
#
# Youngs Moduli (GPa) = 52.65527 55.69744 110.81051
#
# Poissons Ratio (x) = 0.38092 0.58172
# Poissons Ratio (y) = 0.36011 0.09083
# Poissons Ratio (z) = 0.27642 0.04565
#
# Static dielectric constant tensor:
#      x y z
#    x 3.739800 0.000000 0.000000 
#    y 0.000000 3.587140 0.000000 
#    z 0.000000 0.000000 3.725990 
# 
# 
# High freq. dielectric constant tensor:
#      x y z
#    x 1.793060 0.000000 0.000000 
#    y 0.000000 1.789950 0.000000 
#    z 0.000000 0.000000 1.800260 
# 
# From -- ./inp_files/3455.got.cif
#   From: 2010.03.12/outbox.cif.g09.slc.cpg/sg38_2_cif.got.tgz:3455.got - 2010.04.14 02:38:36.
