data_PCOD8180009
_publ_section_title
;
Structure prediction by ZEFSAII (Michael W. Deem and Ramdas Pophale) SiO2 
 PCOD8180009
Probable space group: A M M 2
;
_chemical_formula_sum "Si O2"
_cell_formula_units_Z 64
_cell_length_a 13.891905
_cell_length_b 9.339444
_cell_length_c 25.794354
_cell_angle_alpha 90.000000
_cell_angle_beta 90.000000
_cell_angle_gamma 90.000000
_cell_volume 3346.628328
_symmetry_space_group_name_H-M "A M M 2"
_symmetry_group_IT_number 38
_symmetry_cell_setting 'orthorhombic'
loop_
_space_group_symop_operation_xyz
x,y,z
-x,-y,z
-x,y,z
x,-y,z
x,1/2+y,1/2+z
-x,1/2-y,1/2+z
-x,1/2+y,1/2+z
x,1/2-y,1/2+z
loop_
_atom_site_type_symbol
_atom_site_label
_atom_site_fract_x
_atom_site_fract_y
_atom_site_fract_z
Si Si1 0.108444 0.163537 0.645600
Si Si2 0.107642 0.336270 0.948674
Si Si3 0.385643 0.660805 0.607580
Si Si4 0.611985 0.669015 0.793470
Si Si5 0.610967 0.335689 0.491623
Si Si6 0.297390 0.835719 0.399393
Si Si7 0.885659 0.660560 0.547278
Si Si8 0.297377 0.834904 0.698866
O O1 0.150046 0.260623 0.599102
O O2 0.181291 0.182309 0.693935
O O3 0.000000 0.208896 0.662632
O O4 0.108647 0.000000 0.625895
O O5 0.106404 0.500000 0.968072
O O6 0.180791 0.318072 0.900211
O O7 0.000000 0.288667 0.931280
O O8 0.148924 0.241124 0.995685
O O9 0.500000 0.671455 0.606539
O O10 0.355624 0.500000 0.625255
O O11 0.345301 0.690825 0.549361
O O12 0.345639 0.778841 0.646391
O O13 0.500000 0.710631 0.792488
O O14 0.626987 0.500000 0.787349
O O15 0.658967 0.728618 0.846569
O O16 0.666911 0.744915 0.747190
O O17 0.500000 0.292104 0.491863
O O18 0.624528 0.500000 0.475523
O O19 0.662885 0.239419 0.449918
O O20 0.329061 0.000000 0.402899
O O21 0.843408 0.500000 0.546614
O O22 0.000000 0.660957 0.547876
O O23 0.326776 0.000000 0.706401
#
# Coordination Sequence:
#
# PCOD8180009 Si02
#       8
#     8   8   8   8   8   8   8   8
#     4   9  19  36  54  74 108 149 183 219 269 325
#     4   9  18  33  52  76 111 150 183 219 267 320
#     4   9  19  36  55  77 110 148 178 212 272 340
#     4  10  22  41  61  80 107 143 180 225 284 339
#     4   9  19  35  54  79 111 144 176 216 275 337
#     4  10  21  36  57  82 107 141 188 229 267 322
#     4   9  17  29  48  76 108 143 184 225 261 306
#     4  11  23  36  56  84 108 137 185 233 272 320
#
# _framework density 19.123725
#
# number of rings (size 3 to 8) (size 9 to 14) (size 15 to 20)
#    0.000    2.500    0.000    2.250    1.750    6.750 
#    0.000    1.875    0.000    0.750    0.000    0.000 
#    0.000    0.000    0.000    0.000    0.000    0.000 
#
# Total GULP energy -396738.248341 kJ/mol
# GULP energy per Si atom -12398.070261 kJ/mol
# Density = 1.908020 g / cm^3
# Si number density = 19.123725 Si / 1000 Ang^3
#
#
#
# Elastic Constant Matrix: (Units=GPa)
#
#
# Indices 1 2 3 4 5 6 
#
# 1 79.0944 40.3273 65.0002 0.0000 0.0000 0.0000
# 2 40.3273 70.0826 46.6104 0.0000 0.0000 0.0000
# 3 65.0002 46.6104 119.4623 0.0000 0.0000 0.0000
# 4 0.0000 0.0000 0.0000 31.3456 0.0000 0.0000
# 5 0.0000 0.0000 0.0000 0.0000 32.1469 0.0000
# 6 0.0000 0.0000 0.0000 0.0000 0.0000 23.3708
#
#
#
# Elastic Compliance Matrix: (Units=1/GPa)
#
#
# Indices 1 2 3 4 5 6 
#
# 1 0.025373 -0.007317 -0.010951 0.000000 0.000000 0.000000
# 2 -0.007317 0.021379 -0.004360 0.000000 0.000000 0.000000
# 3 -0.010951 -0.004360 0.016030 0.000000 0.000000 0.000000
# 4 0.000000 0.000000 0.000000 0.031902 0.000000 0.000000
# 5 0.000000 0.000000 0.000000 0.000000 0.031107 0.000000
# 6 0.000000 0.000000 0.000000 0.000000 0.000000 0.042788
#
#
# Mechanical properties :
#
#
# Convention : Reuss Voigt Hill
#
# Bulk Modulus (GPa) = 57.05628 63.61279 60.33454
# Shear Modulus (GPa) = 22.76037 25.15274 23.95655
#
# Velocity S-wave (km/s) = 3.45362 3.63059 3.54321
# Velocity P-wave (km/s) = 6.76782 7.13519 6.95393
#
# Compressibility (1/GPa) = 0.01752655
#
# Stress axis : x y z
#
# Youngs Moduli (GPa) = 39.41124 46.77427 62.38130
#
# Poissons Ratio (x) = 0.34226 0.68313
# Poissons Ratio (y) = 0.28839 0.27199
# Poissons Ratio (z) = 0.43159 0.20394
#
# Static dielectric constant tensor:
#      x y z
#    x 3.730560 0.000000 0.000000 
#    y 0.000000 3.526820 0.000000 
#    z 0.000000 0.000000 3.364460 
# 
# 
# High freq. dielectric constant tensor:
#      x y z
#    x 1.759800 0.000000 0.000000 
#    y 0.000000 1.740110 0.000000 
#    z 0.000000 0.000000 1.720470 
# 
# From -- ./inp_files/22924.got.cif
#   From: 2010.03.12/outbox.cif.g09.slc.cpg/sg38_12_cif.got.tgz:22924.got - 2010.04.14 02:38:36.
