data_PCOD8180727
_publ_section_title
;
Structure prediction by ZEFSAII (Michael W. Deem and Ramdas Pophale) SiO2 
 PCOD8180727
Probable space group: A B M 2
;
_chemical_formula_sum "Si O2"
_cell_formula_units_Z 64
_cell_length_a 24.300737
_cell_length_b 9.098365
_cell_length_c 14.728246
_cell_angle_alpha 90.000000
_cell_angle_beta 90.000000
_cell_angle_gamma 90.000000
_cell_volume 3256.370638
_symmetry_space_group_name_H-M "A B M 2"
_symmetry_group_IT_number 39
_symmetry_cell_setting 'orthorhombic'
loop_
_space_group_symop_operation_xyz
x,y,z
-x,-y,z
-x,1/2+y,z
x,1/2-y,z
x,1/2+y,1/2+z
-x,1/2-y,1/2+z
-x,y,1/2+z
x,-y,1/2+z
loop_
_atom_site_type_symbol
_atom_site_label
_atom_site_fract_x
_atom_site_fract_y
_atom_site_fract_z
Si Si1 0.246342 0.077502 0.961600
Si Si2 0.135305 0.083243 0.243326
Si Si3 0.442520 0.577113 0.129269
Si Si4 0.253812 0.083462 0.278202
Si Si5 0.861330 0.419617 0.954481
Si Si6 0.645837 0.920946 0.481461
Si Si7 0.942394 0.921045 0.608609
Si Si8 0.373868 0.916838 0.772271
O O1 0.246823 0.250000 0.977715
O O2 0.250116 0.037927 0.855836
O O3 0.188667 0.012791 0.998169
O O4 0.299335 0.008225 0.011623
O O5 0.115657 0.250000 0.225024
O O6 0.200068 0.065092 0.214278
O O7 0.128335 0.042217 0.349366
O O8 0.098682 0.971779 0.187336
O O9 0.500000 0.500000 0.111586
O O10 0.451712 0.750000 0.134018
O O11 0.416337 0.525156 0.224203
O O12 0.403399 0.528982 0.046645
O O13 0.252384 0.250000 0.320983
O O14 0.312482 0.063225 0.227930
O O15 0.845454 0.250000 0.966229
O O16 0.916323 0.458292 0.010562
O O17 0.658820 0.750000 0.493018
O O18 0.628468 0.958325 0.378458
O O19 0.952746 0.750000 0.621697
O O20 0.000000 0.000000 0.617985
O O21 0.394630 0.750000 0.759078
#
# Coordination Sequence:
#
# PCOD8180727 Si02
#       8
#     8   8   8   8   8   8   8   8
#     4  10  18  29  54  89 116 140 178 225 269 321
#     4   9  18  36  60  84 112 145 179 219 272 328
#     4  11  24  40  57  79 108 144 188 233 274 322
#     4   8  16  33  56  81 114 150 178 213 269 331
#     4   9  20  39  59  80 112 150 181 218 274 331
#     4   9  20  39  59  80 112 150 181 218 274 331
#     4  11  24  40  57  79 108 144 188 233 274 322
#     4   9  18  36  60  84 112 145 179 219 272 328
#
# _framework density 19.653782
#
# number of rings (size 3 to 8) (size 9 to 14) (size 15 to 20)
#    0.000    2.500    0.000    3.375    0.000    8.000 
#    0.000    5.000    0.000    0.000    0.000    0.000 
#    0.000    0.000    0.000    0.000    0.000    0.000 
#
# Total GULP energy -396702.708084 kJ/mol
# GULP energy per Si atom -12396.959628 kJ/mol
# Density = 1.960905 g / cm^3
# Si number density = 19.653782 Si / 1000 Ang^3
#
#
#
# Elastic Constant Matrix: (Units=GPa)
#
#
# Indices 1 2 3 4 5 6 
#
# 1 83.8388 33.3205 4.6403 0.0000 0.0000 0.0000
# 2 33.3205 77.5067 14.6875 0.0000 0.0000 0.0000
# 3 4.6403 14.6875 38.3851 0.0000 0.0000 0.0000
# 4 0.0000 0.0000 0.0000 23.8503 0.0000 0.0000
# 5 0.0000 0.0000 0.0000 0.0000 31.2297 0.0000
# 6 0.0000 0.0000 0.0000 0.0000 0.0000 24.9204
#
#
#
# Elastic Compliance Matrix: (Units=1/GPa)
#
#
# Indices 1 2 3 4 5 6 
#
# 1 0.014402 -0.006320 0.000677 0.000000 0.000000 0.000000
# 2 -0.006320 0.016684 -0.005620 0.000000 0.000000 0.000000
# 3 0.000677 -0.005620 0.028120 0.000000 0.000000 0.000000
# 4 0.000000 0.000000 0.000000 0.041928 0.000000 0.000000
# 5 0.000000 0.000000 0.000000 0.000000 0.032021 0.000000
# 6 0.000000 0.000000 0.000000 0.000000 0.000000 0.040128
#
#
# Mechanical properties :
#
#
# Convention : Reuss Voigt Hill
#
# Bulk Modulus (GPa) = 27.26201 33.89192 30.57696
# Shear Modulus (GPa) = 24.03443 25.80556 24.91999
#
# Velocity S-wave (km/s) = 3.50078 3.62748 3.56469
# Velocity P-wave (km/s) = 5.49926 5.90141 5.70388
#
# Compressibility (1/GPa) = 0.03668109
#
# Stress axis : x y z
#
# Youngs Moduli (GPa) = 69.43543 59.93774 35.56156
#
# Poissons Ratio (x) = 0.37879 -0.02408
# Poissons Ratio (y) = 0.43881 0.19985
# Poissons Ratio (z) = -0.04702 0.33684
#
# Static dielectric constant tensor:
#      x y z
#    x 3.811620 0.000000 0.000000 
#    y 0.000000 3.459770 0.000000 
#    z 0.000000 0.000000 3.402110 
# 
# 
# High freq. dielectric constant tensor:
#      x y z
#    x 1.773540 0.000000 0.000000 
#    y 0.000000 1.761140 0.000000 
#    z 0.000000 0.000000 1.747720 
# 
# From -- ./inp_files/10607.got.cif
#   From: 2010.03.12/outbox.cif.g09.slc.cpg/sg39_6_cif.got.tgz:10607.got - 2010.04.14 02:53:20.
