data_PCOD8180541
_publ_section_title
;
Structure prediction by ZEFSAII (Michael W. Deem and Ramdas Pophale) SiO2 
 PCOD8180541
Probable space group: A M M 2
;
_chemical_formula_sum "Si O2"
_cell_formula_units_Z 56
_cell_length_a 14.577223
_cell_length_b 9.610941
_cell_length_c 21.256692
_cell_angle_alpha 90.000000
_cell_angle_beta 90.000000
_cell_angle_gamma 90.000000
_cell_volume 2978.080196
_symmetry_space_group_name_H-M "A M M 2"
_symmetry_group_IT_number 38
_symmetry_cell_setting 'orthorhombic'
loop_
_space_group_symop_operation_xyz
x,y,z
-x,-y,z
-x,y,z
x,-y,z
x,1/2+y,1/2+z
-x,1/2-y,1/2+z
-x,1/2+y,1/2+z
x,1/2-y,1/2+z
loop_
_atom_site_type_symbol
_atom_site_label
_atom_site_fract_x
_atom_site_fract_y
_atom_site_fract_z
Si Si1 0.391710 0.347492 0.559520
Si Si2 0.107636 0.839169 0.988379
Si Si3 0.211843 0.161570 0.730025
Si Si4 0.107736 0.337954 0.108205
Si Si5 0.600664 0.834652 0.921021
Si Si6 0.785365 0.833968 0.866445
Si Si7 0.397185 0.659845 0.172005
O O1 0.500000 0.361000 0.563602
O O2 0.347305 0.500000 0.571238
O O3 0.365904 0.289130 0.490736
O O4 0.357203 0.241177 0.612001
O O5 0.152653 0.779702 0.924056
O O6 0.000000 0.821154 0.979448
O O7 0.134948 0.000000 0.999890
O O8 0.142767 0.749535 0.047854
O O9 0.157303 0.225521 0.670568
O O10 0.180445 0.223398 0.798141
O O11 0.322318 0.185164 0.726396
O O12 0.187581 0.000000 0.729044
O O13 0.132341 0.500000 0.097019
O O14 0.000000 0.316579 0.118252
O O15 0.500000 0.771285 0.903523
O O16 0.679757 0.782453 0.874110
O O17 0.592029 0.000000 0.920548
O O18 0.788307 0.000000 0.865821
O O19 0.500000 0.708320 0.193382
O O20 0.400269 0.500000 0.151838
#
# Coordination Sequence:
#
# PCOD8180541 Si02
#       7
#     8   8   8   8   8   8   8
#     4   8  14  25  41  62  86 114 152 192 226 264
#     4   9  18  32  51  75  97 117 148 192 237 276
#     4   9  18  30  44  67  96 124 156 190 226 273
#     4   9  18  33  52  71  92 122 156 188 227 276
#     4   8  14  24  39  62  91 120 152 189 226 266
#     4   9  17  28  44  68  96 124 153 189 233 273
#     4   9  17  28  42  63  92 122 151 186 228 269
#
# _framework density 18.804061000000001
#
# number of rings (size 3 to 8) (size 9 to 14) (size 15 to 20)
#    0.000    3.286    0.000    0.857    2.000    1.143 
#    0.000    5.714    0.000    1.714    0.000    4.000 
#    0.000    4.571    0.000    0.000    0.000    0.000 
#
# Total GULP energy -346878.212055 kJ/mol
# GULP energy per Si atom -12388.507573 kJ/mol
# Density = 1.876126 g / cm^3
# Si number density = 18.804061 Si / 1000 Ang^3
#
#
#
# Elastic Constant Matrix: (Units=GPa)
#
#
# Indices 1 2 3 4 5 6 
#
# 1 58.8746 17.3871 59.5748 0.0000 0.0000 0.0000
# 2 17.3871 28.5589 35.7436 0.0000 0.0000 0.0000
# 3 59.5748 35.7436 173.6530 0.0000 0.0000 0.0000
# 4 0.0000 0.0000 0.0000 17.3500 0.0000 0.0000
# 5 0.0000 0.0000 0.0000 0.0000 25.0959 0.0000
# 6 0.0000 0.0000 0.0000 0.0000 0.0000 11.5142
#
#
#
# Elastic Compliance Matrix: (Units=1/GPa)
#
#
# Indices 1 2 3 4 5 6 
#
# 1 0.026883 -0.006498 -0.007885 0.000000 0.000000 0.000000
# 2 -0.006498 0.048737 -0.007802 0.000000 0.000000 0.000000
# 3 -0.007885 -0.007802 0.010070 0.000000 0.000000 0.000000
# 4 0.000000 0.000000 0.000000 0.057637 0.000000 0.000000
# 5 0.000000 0.000000 0.000000 0.000000 0.039847 0.000000
# 6 0.000000 0.000000 0.000000 0.000000 0.000000 0.086849
#
#
# Mechanical properties :
#
#
# Convention : Reuss Voigt Hill
#
# Bulk Modulus (GPa) = 24.20226 54.05529 39.12877
# Shear Modulus (GPa) = 15.23614 20.68409 17.96012
#
# Velocity S-wave (km/s) = 2.84959 3.32019 3.09385
# Velocity P-wave (km/s) = 4.87089 6.59600 5.79797
#
# Compressibility (1/GPa) = 0.04131846
#
# Stress axis : x y z
#
# Youngs Moduli (GPa) = 37.19773 20.51845 99.30676
#
# Poissons Ratio (x) = 0.13333 0.78307
# Poissons Ratio (y) = 0.24171 0.77483
# Poissons Ratio (z) = 0.29332 0.16009
#
# Static dielectric constant tensor:
#      x y z
#    x 3.545140 0.000000 0.000000 
#    y 0.000000 3.243860 0.000000 
#    z 0.000000 0.000000 3.793940 
# 
# 
# High freq. dielectric constant tensor:
#      x y z
#    x 1.734940 0.000000 0.000000 
#    y 0.000000 1.664510 0.000000 
#    z 0.000000 0.000000 1.732070 
# 
# From -- ./inp_files/18728.got.cif
#   From: 2010.03.12/outbox.cif.g09.slc.cpg/sg38_10_cif.got.tgz:18728.got - 2010.04.14 02:38:36.
