data_PCOD8180897
_publ_section_title
;
Structure prediction by ZEFSAII (Michael W. Deem and Ramdas Pophale) SiO2 
 PCOD8180897
Probable space group: A B M 2
;
_chemical_formula_sum "Si O2"
_cell_formula_units_Z 56
_cell_length_a 15.315309
_cell_length_b 9.390281
_cell_length_c 19.978957
_cell_angle_alpha 90.000000
_cell_angle_beta 90.000000
_cell_angle_gamma 90.000000
_cell_volume 2873.274802
_symmetry_space_group_name_H-M "A B M 2"
_symmetry_group_IT_number 39
_symmetry_cell_setting 'orthorhombic'
loop_
_space_group_symop_operation_xyz
x,y,z
-x,-y,z
-x,1/2+y,z
x,1/2-y,z
x,1/2+y,1/2+z
-x,1/2-y,1/2+z
-x,y,1/2+z
x,-y,1/2+z
loop_
_atom_site_type_symbol
_atom_site_label
_atom_site_fract_x
_atom_site_fract_y
_atom_site_fract_z
Si Si1 0.750477 0.912686 0.512850
Si Si2 0.912156 0.082765 0.748113
Si Si3 0.581047 0.587795 0.694800
Si Si4 0.638060 0.089928 0.339311
Si Si5 0.582345 0.415491 0.485087
Si Si6 0.223502 0.914217 0.159814
Si Si7 0.801626 0.912777 0.369559
O O1 0.716075 0.750000 0.506101
O O2 0.804368 0.929833 0.581672
O O3 0.811761 0.952368 0.448596
O O4 0.669296 0.019038 0.516453
O O5 0.923790 0.250000 0.732313
O O6 0.889217 0.056664 0.826757
O O7 0.835533 0.020329 0.702211
O O8 0.000000 0.000000 0.730624
O O9 0.500000 0.500000 0.663378
O O10 0.564002 0.750000 0.674815
O O11 0.578641 0.563496 0.774718
O O12 0.675051 0.539102 0.666356
O O13 0.674210 0.250000 0.340288
O O14 0.581902 0.058841 0.405263
O O15 0.723551 0.994962 0.334447
O O16 0.500000 0.500000 0.515264
O O17 0.576034 0.250000 0.504340
O O18 0.211730 0.750000 0.184130
O O19 0.775013 0.750000 0.362071
#
# Coordination Sequence:
#
# PCOD8180897 Si02
#       7
#     8   8   8   8   8   8   8
#     4   9  19  36  57  79 109 149 188 229 283 338
#     4  11  23  39  63  91 116 146 184 231 286 344
#     4  10  20  32  49  76 110 150 193 235 282 329
#     4   9  17  30  49  74 106 142 185 236 286 332
#     4  10  19  30  47  73 106 147 193 241 285 333
#     4  10  21  39  60  83 117 156 191 236 285 335
#     4   9  18  34  57  84 110 140 181 228 279 335
#
# _framework density 19.489955999999999
#
# number of rings (size 3 to 8) (size 9 to 14) (size 15 to 20)
#    0.000    2.286    1.429    1.286    0.000    3.429 
#    0.000    2.143    0.000    1.714    0.000    0.000 
#    0.000    0.000    0.000    0.000    0.000    0.000 
#
# Total GULP energy -347084.043658 kJ/mol
# GULP energy per Si atom -12395.858702 kJ/mol
# Density = 1.944560 g / cm^3
# Si number density = 19.489956 Si / 1000 Ang^3
#
#
#
# Elastic Constant Matrix: (Units=GPa)
#
#
# Indices 1 2 3 4 5 6 
#
# 1 96.3919 58.4842 40.7617 0.0000 0.0000 0.0000
# 2 58.4842 94.9501 37.0886 0.0000 0.0000 0.0000
# 3 40.7617 37.0886 82.2434 0.0000 0.0000 0.0000
# 4 0.0000 0.0000 0.0000 21.9451 0.0000 0.0000
# 5 0.0000 0.0000 0.0000 0.0000 8.3273 0.0000
# 6 0.0000 0.0000 0.0000 0.0000 0.0000 33.1470
#
#
#
# Elastic Compliance Matrix: (Units=1/GPa)
#
#
# Indices 1 2 3 4 5 6 
#
# 1 0.017976 -0.009215 -0.004753 0.000000 0.000000 0.000000
# 2 -0.009215 0.017508 -0.003328 0.000000 0.000000 0.000000
# 3 -0.004753 -0.003328 0.016016 0.000000 0.000000 0.000000
# 4 0.000000 0.000000 0.000000 0.045568 0.000000 0.000000
# 5 0.000000 0.000000 0.000000 0.000000 0.120087 0.000000
# 6 0.000000 0.000000 0.000000 0.000000 0.000000 0.030169
#
#
# Mechanical properties :
#
#
# Convention : Reuss Voigt Hill
#
# Bulk Modulus (GPa) = 59.15137 60.69494 59.92315
# Shear Modulus (GPa) = 17.38813 21.83393 19.61103
#
# Velocity S-wave (km/s) = 2.99014 3.35067 3.17553
# Velocity P-wave (km/s) = 6.50668 6.79548 6.65265
#
# Compressibility (1/GPa) = 0.01690578
#
# Stress axis : x y z
#
# Youngs Moduli (GPa) = 55.63084 57.11674 62.43852
#
# Poissons Ratio (x) = 0.52635 0.29679
# Poissons Ratio (y) = 0.51266 0.20780
# Poissons Ratio (z) = 0.26443 0.19009
#
# Static dielectric constant tensor:
#      x y z
#    x 3.202300 0.000000 0.000000 
#    y 0.000000 3.595990 0.000000 
#    z 0.000000 0.000000 3.840310 
# 
# 
# High freq. dielectric constant tensor:
#      x y z
#    x 1.723510 0.000000 0.000000 
#    y 0.000000 1.761000 0.000000 
#    z 0.000000 0.000000 1.768670 
# 
# From -- ./inp_files/14757.got.cif
#   From: 2010.03.12/outbox.cif.g09.slc.cpg/sg39_8_cif.got.tgz:14757.got - 2010.04.14 02:53:20.
