data_PCOD8180780
_publ_section_title
;
Structure prediction by ZEFSAII (Michael W. Deem and Ramdas Pophale) SiO2 
 PCOD8180780
Probable space group: A B M 2
;
_chemical_formula_sum "Si O2"
_cell_formula_units_Z 64
_cell_length_a 15.030894
_cell_length_b 8.784413
_cell_length_c 24.754077
_cell_angle_alpha 90.000000
_cell_angle_beta 90.000000
_cell_angle_gamma 90.000000
_cell_volume 3268.468438
_symmetry_space_group_name_H-M "A B M 2"
_symmetry_group_IT_number 39
_symmetry_cell_setting 'orthorhombic'
loop_
_space_group_symop_operation_xyz
x,y,z
-x,-y,z
-x,1/2+y,z
x,1/2-y,z
x,1/2+y,1/2+z
-x,1/2-y,1/2+z
-x,y,1/2+z
x,-y,1/2+z
loop_
_atom_site_type_symbol
_atom_site_label
_atom_site_fract_x
_atom_site_fract_y
_atom_site_fract_z
Si Si1 0.098140 0.931505 0.510830
Si Si2 0.405295 0.427473 0.510811
Si Si3 0.753331 0.071139 0.202521
Si Si4 0.403052 0.569606 0.893906
Si Si5 0.096457 0.429897 0.619047
Si Si6 0.753342 0.071110 0.819148
Si Si7 0.903529 0.429925 0.902596
Si Si8 0.596947 0.569585 0.627727
O O1 0.098430 0.750000 0.510808
O O2 0.142657 0.996448 0.565538
O O3 0.142640 0.996527 0.456131
O O4 0.000000 0.000000 0.510860
O O5 0.500000 0.500000 0.510677
O O6 0.419224 0.250000 0.510906
O O7 0.361161 0.475642 0.453369
O O8 0.361284 0.475907 0.568259
O O9 0.744609 0.250000 0.208664
O O10 0.841481 0.027946 0.169339
O O11 0.665965 0.006258 0.172032
O O12 0.761379 0.999834 0.260806
O O13 0.500000 0.500000 0.883308
O O14 0.412387 0.750000 0.889335
O O15 0.334062 0.506202 0.849592
O O16 0.087763 0.250000 0.610138
O O17 0.000000 0.500000 0.630985
O O18 0.744686 0.250000 0.813151
O O19 0.841474 0.027692 0.852320
O O20 0.912181 0.250000 0.911440
O O21 0.000000 0.500000 0.890689
O O22 0.500000 0.500000 0.638363
O O23 0.587680 0.750000 0.632260
#
# Coordination Sequence:
#
# PCOD8180780 Si02
#       8
#     8   8   8   8   8   8   8   8
#     4  10  18  31  54  84 113 141 173 215 265 321
#     4   8  14  27  50  76 103 129 162 205 253 311
#     4  10  23  39  55  76 105 142 185 226 268 316
#     4   9  18  34  55  80 106 137 172 213 265 319
#     4  10  20  36  57  81 109 143 178 219 269 321
#     4  10  23  39  55  76 105 142 185 226 268 316
#     4  10  20  36  57  81 109 143 178 219 269 321
#     4   9  18  34  55  80 106 137 172 213 265 319
#
# _framework density 19.581035
#
# number of rings (size 3 to 8) (size 9 to 14) (size 15 to 20)
#    0.000    2.500    0.000    3.375    0.000    5.000 
#    0.000    8.750    0.000    6.000    0.000    0.000 
#    0.000    0.000    0.000    0.000    0.000    0.000 
#
# Total GULP energy -396470.233712 kJ/mol
# GULP energy per Si atom -12389.694804 kJ/mol
# Density = 1.953647 g / cm^3
# Si number density = 19.581035 Si / 1000 Ang^3
#
#
#
# Elastic Constant Matrix: (Units=GPa)
#
#
# Indices 1 2 3 4 5 6 
#
# 1 108.7852 42.1425 86.8072 0.0000 0.0000 0.0000
# 2 42.1425 67.5244 61.1653 0.0000 0.0000 0.0000
# 3 86.8072 61.1653 211.4005 0.0000 0.0000 0.0000
# 4 0.0000 0.0000 0.0000 27.9499 0.0000 0.0000
# 5 0.0000 0.0000 0.0000 0.0000 144.0860 0.0000
# 6 0.0000 0.0000 0.0000 0.0000 0.0000 24.0502
#
#
#
# Elastic Compliance Matrix: (Units=1/GPa)
#
#
# Indices 1 2 3 4 5 6 
#
# 1 0.014854 -0.005076 -0.004631 0.000000 0.000000 0.000000
# 2 -0.005076 0.021804 -0.004224 0.000000 0.000000 0.000000
# 3 -0.004631 -0.004224 0.007854 0.000000 0.000000 0.000000
# 4 0.000000 0.000000 0.000000 0.035778 0.000000 0.000000
# 5 0.000000 0.000000 0.000000 0.000000 0.006940 0.000000
# 6 0.000000 0.000000 0.000000 0.000000 0.000000 0.041580
#
#
# Mechanical properties :
#
#
# Convention : Reuss Voigt Hill
#
# Bulk Modulus (GPa) = 60.05985 85.32668 72.69327
# Shear Modulus (GPa) = 30.82191 52.39022 41.60607
#
# Velocity S-wave (km/s) = 3.97176 5.17819 4.61457
# Velocity P-wave (km/s) = 7.19529 8.91192 8.09921
#
# Compressibility (1/GPa) = 0.01665006
#
# Stress axis : x y z
#
# Youngs Moduli (GPa) = 67.32171 45.86367 127.32050
#
# Poissons Ratio (x) = 0.23279 0.58961
# Poissons Ratio (y) = 0.34171 0.53784
# Poissons Ratio (z) = 0.31176 0.19374
#
# Static dielectric constant tensor:
#      x y z
#    x 3.473680 0.000000 0.000000 
#    y 0.000000 3.422780 0.000000 
#    z 0.000000 0.000000 4.831230 
# 
# 
# High freq. dielectric constant tensor:
#      x y z
#    x 1.747710 0.000000 0.000000 
#    y 0.000000 1.757130 0.000000 
#    z 0.000000 0.000000 1.778170 
# 
# From -- ./inp_files/16214.got.cif
#   From: 2010.03.12/outbox.cif.g09.slc.cpg/sg39_9_cif.got.tgz:16214.got - 2010.04.14 02:53:20.
