data_PCOD8180719
_publ_section_title
;
Structure prediction by ZEFSAII (Michael W. Deem and Ramdas Pophale) SiO2 
 PCOD8180719
Probable space group: A B M 2
;
_chemical_formula_sum "Si O2"
_cell_formula_units_Z 56
_cell_length_a 17.806529
_cell_length_b 9.319887
_cell_length_c 19.063003
_cell_angle_alpha 90.000000
_cell_angle_beta 90.000000
_cell_angle_gamma 90.000000
_cell_volume 3163.597577
_symmetry_space_group_name_H-M "A B M 2"
_symmetry_group_IT_number 39
_symmetry_cell_setting 'orthorhombic'
loop_
_space_group_symop_operation_xyz
x,y,z
-x,-y,z
-x,1/2+y,z
x,1/2-y,z
x,1/2+y,1/2+z
-x,1/2-y,1/2+z
-x,y,1/2+z
x,-y,1/2+z
loop_
_atom_site_type_symbol
_atom_site_label
_atom_site_fract_x
_atom_site_fract_y
_atom_site_fract_z
Si Si1 0.299391 0.588257 0.953540
Si Si2 0.070968 0.912526 0.899040
Si Si3 0.758803 0.083252 0.103613
Si Si4 0.423787 0.414875 0.343759
Si Si5 0.076290 0.416141 0.563250
Si Si6 0.317951 0.911673 0.241651
Si Si7 0.800195 0.091889 0.358199
O O1 0.266917 0.750000 0.938330
O O2 0.382066 0.577047 0.919261
O O3 0.252398 0.461456 0.920284
O O4 0.294996 0.557888 0.036374
O O5 0.057538 0.750000 0.878529
O O6 0.134933 0.976142 0.849638
O O7 0.090243 0.934052 0.980542
O O8 0.000000 0.000000 0.875873
O O9 0.769911 0.250000 0.118351
O O10 0.845189 0.022536 0.096745
O O11 0.710112 0.018684 0.168030
O O12 0.500000 0.500000 0.353867
O O13 0.439706 0.250000 0.323366
O O14 0.377299 0.484795 0.279625
O O15 0.063175 0.250000 0.582760
O O16 0.000000 0.500000 0.587039
O O17 0.352203 0.750000 0.232865
O O18 0.242333 0.901180 0.285595
O O19 0.830740 0.250000 0.378835
#
# Coordination Sequence:
#
# PCOD8180719 Si02
#       7
#     8   8   8   8   8   8   8
#     4   9  17  32  54  76  97 130 169 207 250 297
#     4  10  18  29  46  69  96 129 171 218 263 306
#     4   9  16  32  54  75 101 136 174 212 256 302
#     4  10  20  35  57  80 105 133 167 206 252 308
#     4   9  17  29  47  70  97 131 171 212 257 300
#     4   9  19  34  54  76 103 137 172 206 249 307
#     4  10  18  29  46  72 100 130 166 207 252 300
#
# _framework density 17.701367000000001
#
# number of rings (size 3 to 8) (size 9 to 14) (size 15 to 20)
#    0.000    2.571    1.429    1.286    0.000    1.714 
#    0.000    2.857    0.000    3.429    0.000    0.000 
#    0.000    0.000    0.000    0.000    0.000    0.000 
#
# Total GULP energy -346904.877593 kJ/mol
# GULP energy per Si atom -12389.459914 kJ/mol
# Density = 1.766108 g / cm^3
# Si number density = 17.701367 Si / 1000 Ang^3
#
#
#
# Elastic Constant Matrix: (Units=GPa)
#
#
# Indices 1 2 3 4 5 6 
#
# 1 110.4899 54.1885 44.9917 0.0000 0.0000 0.0000
# 2 54.1885 104.2792 36.3511 0.0000 0.0000 0.0000
# 3 44.9917 36.3511 92.2514 0.0000 0.0000 0.0000
# 4 0.0000 0.0000 0.0000 15.3642 0.0000 0.0000
# 5 0.0000 0.0000 0.0000 0.0000 19.1043 0.0000
# 6 0.0000 0.0000 0.0000 0.0000 0.0000 33.9904
#
#
#
# Elastic Compliance Matrix: (Units=1/GPa)
#
#
# Indices 1 2 3 4 5 6 
#
# 1 0.013556 -0.005494 -0.004446 0.000000 0.000000 0.000000
# 2 -0.005494 0.013344 -0.002578 0.000000 0.000000 0.000000
# 3 -0.004446 -0.002578 0.014024 0.000000 0.000000 0.000000
# 4 0.000000 0.000000 0.000000 0.065086 0.000000 0.000000
# 5 0.000000 0.000000 0.000000 0.000000 0.052344 0.000000
# 6 0.000000 0.000000 0.000000 0.000000 0.000000 0.029420
#
#
# Mechanical properties :
#
#
# Convention : Reuss Voigt Hill
#
# Bulk Modulus (GPa) = 62.94880 64.23146 63.59013
# Shear Modulus (GPa) = 22.92450 25.12439 24.02445
#
# Velocity S-wave (km/s) = 3.60261 3.77151 3.68803
# Velocity P-wave (km/s) = 7.27625 7.43846 7.35780
#
# Compressibility (1/GPa) = 0.01588593
#
# Stress axis : x y z
#
# Youngs Moduli (GPa) = 73.76962 74.94272 71.30445
#
# Poissons Ratio (x) = 0.41176 0.31704
# Poissons Ratio (y) = 0.40531 0.18385
# Poissons Ratio (z) = 0.32800 0.19323
#
# Static dielectric constant tensor:
#      x y z
#    x 4.305170 0.000000 0.000000 
#    y 0.000000 3.333850 0.000000 
#    z 0.000000 0.000000 3.263650 
# 
# 
# High freq. dielectric constant tensor:
#      x y z
#    x 1.679640 0.000000 0.000000 
#    y 0.000000 1.679880 0.000000 
#    z 0.000000 0.000000 1.662980 
# 
# From -- ./inp_files/13063.got.cif
#   From: 2010.03.12/outbox.cif.g09.slc.cpg/sg39_7_cif.got.tgz:13063.got - 2010.04.14 02:53:20.
