data_PCOD8180087
_publ_section_title
;
Structure prediction by ZEFSAII (Michael W. Deem and Ramdas Pophale) SiO2 
 PCOD8180087
Probable space group: A M M 2
;
_chemical_formula_sum "Si O2"
_cell_formula_units_Z 48
_cell_length_a 26.312639
_cell_length_b 9.092006
_cell_length_c 10.151382
_cell_angle_alpha 90.000000
_cell_angle_beta 90.000000
_cell_angle_gamma 90.000000
_cell_volume 2428.562540
_symmetry_space_group_name_H-M "A M M 2"
_symmetry_group_IT_number 38
_symmetry_cell_setting 'orthorhombic'
loop_
_space_group_symop_operation_xyz
x,y,z
-x,-y,z
-x,y,z
x,-y,z
x,1/2+y,1/2+z
-x,1/2-y,1/2+z
-x,1/2+y,1/2+z
x,1/2-y,1/2+z
loop_
_atom_site_type_symbol
_atom_site_label
_atom_site_fract_x
_atom_site_fract_y
_atom_site_fract_z
Si Si1 0.887797 0.173310 0.304710
Si Si2 0.727186 0.830647 0.074056
Si Si3 0.609916 0.330290 0.568869
Si Si4 0.557476 0.673989 0.304177
Si Si5 0.058607 0.168991 0.574067
Si Si6 0.218960 0.326766 0.304714
O O1 0.908424 0.216829 0.448099
O O2 0.927475 0.228379 0.196123
O O3 0.834391 0.249875 0.279303
O O4 0.881245 0.000000 0.289320
O O5 0.668793 0.803631 0.037006
O O6 0.741288 0.728721 0.196468
O O7 0.737119 0.000000 0.112146
O O8 0.760623 0.784138 0.948521
O O9 0.598201 0.500000 0.597517
O O10 0.577302 0.272268 0.445766
O O11 0.594291 0.239351 0.695570
O O12 0.500000 0.731025 0.284727
O O13 0.560719 0.500000 0.294141
O O14 0.000000 0.193229 0.537553
O O15 0.069506 0.000000 0.611915
O O16 0.212373 0.500000 0.288556
#
# Coordination Sequence:
#
# PCOD8180087 Si02
#       6
#     8   8   8   8   8   8
#     4  11  23  39  60  87 118 151 190 235 282 334
#     4  10  22  39  59  85 114 146 188 235 283 337
#     4  10  21  38  59  83 113 148 187 233 283 335
#     4  10  21  37  57  83 115 149 187 232 280 333
#     4  10  22  40  61  87 118 151 190 235 282 334
#     4  11  23  39  60  85 114 150 190 232 282 338
#
# _framework density 19.764776999999999
#
# number of rings (size 3 to 8) (size 9 to 14) (size 15 to 20)
#    0.000    1.667    0.000    4.000    0.000   10.000 
#    0.000    0.000    0.000    0.000    0.000    0.000 
#    0.000    0.000    0.000    0.000    0.000    0.000 
#
# Total GULP energy -297760.704774 kJ/mol
# GULP energy per Si atom -12406.696032 kJ/mol
# Density = 1.971979 g / cm^3
# Si number density = 19.764777 Si / 1000 Ang^3
#
#
#
# Elastic Constant Matrix: (Units=GPa)
#
#
# Indices 1 2 3 4 5 6 
#
# 1 79.7787 26.6711 21.4728 0.0000 0.0000 0.0000
# 2 26.6711 64.4464 48.5769 0.0000 0.0000 0.0000
# 3 21.4728 48.5769 108.2762 0.0000 0.0000 0.0000
# 4 0.0000 0.0000 0.0000 38.6698 0.0000 0.0000
# 5 0.0000 0.0000 0.0000 0.0000 42.6067 0.0000
# 6 0.0000 0.0000 0.0000 0.0000 0.0000 30.5156
#
#
#
# Elastic Compliance Matrix: (Units=1/GPa)
#
#
# Indices 1 2 3 4 5 6 
#
# 1 0.014553 -0.005813 -0.000278 0.000000 0.000000 0.000000
# 2 -0.005813 0.025767 -0.010407 0.000000 0.000000 0.000000
# 3 -0.000278 -0.010407 0.013960 0.000000 0.000000 0.000000
# 4 0.000000 0.000000 0.000000 0.025860 0.000000 0.000000
# 5 0.000000 0.000000 0.000000 0.000000 0.023470 0.000000
# 6 0.000000 0.000000 0.000000 0.000000 0.000000 0.032770
#
#
# Mechanical properties :
#
#
# Convention : Reuss Voigt Hill
#
# Bulk Modulus (GPa) = 46.98597 49.54922 48.26759
# Shear Modulus (GPa) = 28.33315 32.74379 30.53847
#
# Velocity S-wave (km/s) = 3.79029 4.07464 3.93503
# Velocity P-wave (km/s) = 6.55586 6.87465 6.71714
#
# Compressibility (1/GPa) = 0.02128295
#
# Stress axis : x y z
#
# Youngs Moduli (GPa) = 68.71468 38.80921 71.63382
#
# Poissons Ratio (x) = 0.22560 0.01992
# Poissons Ratio (y) = 0.39945 0.74551
# Poissons Ratio (z) = 0.01911 0.40390
#
# Static dielectric constant tensor:
#      x y z
#    x 3.684180 0.000000 0.000000 
#    y 0.000000 3.558240 0.000000 
#    z 0.000000 0.000000 3.611670 
# 
# 
# High freq. dielectric constant tensor:
#      x y z
#    x 1.787020 0.000000 0.000000 
#    y 0.000000 1.766410 0.000000 
#    z 0.000000 0.000000 1.781420 
# 
# From -- ./inp_files/7030.got.cif
#   From: 2010.03.12/outbox.cif.g09.slc.cpg/sg38_4_cif.got.tgz:7030.got - 2010.04.14 02:38:36.
