data_PCOD8180008
_publ_section_title
;
Structure prediction by ZEFSAII (Michael W. Deem and Ramdas Pophale) SiO2 
 PCOD8180008
Probable space group: A M M 2
;
_chemical_formula_sum "Si O2"
_cell_formula_units_Z 56
_cell_length_a 8.534440
_cell_length_b 18.385245
_cell_length_c 17.101007
_cell_angle_alpha 90.000000
_cell_angle_beta 90.000000
_cell_angle_gamma 90.000000
_cell_volume 2683.280879
_symmetry_space_group_name_H-M "A M M 2"
_symmetry_group_IT_number 38
_symmetry_cell_setting 'orthorhombic'
loop_
_space_group_symop_operation_xyz
x,y,z
-x,-y,z
-x,y,z
x,-y,z
x,1/2+y,1/2+z
-x,1/2-y,1/2+z
-x,1/2+y,1/2+z
x,1/2-y,1/2+z
loop_
_atom_site_type_symbol
_atom_site_label
_atom_site_fract_x
_atom_site_fract_y
_atom_site_fract_z
Si Si1 0.181037 0.314938 0.626710
Si Si2 0.681536 0.417211 0.507409
Si Si3 0.317853 0.673291 0.065346
Si Si4 0.180296 0.656375 0.360207
Si Si5 0.179543 0.916156 0.699495
Si Si6 0.682230 0.801776 0.296141
Si Si7 0.315306 0.581156 0.919415
O O1 0.220179 0.389261 0.581775
O O2 0.224206 0.248802 0.568706
O O3 0.281669 0.309759 0.705178
O O4 0.000000 0.311984 0.649794
O O5 0.500000 0.411422 0.529165
O O6 0.732731 0.500000 0.490733
O O7 0.713074 0.368389 0.431711
O O8 0.500000 0.691184 0.053281
O O9 0.295193 0.629830 0.145703
O O10 0.248913 0.625910 0.993667
O O11 0.216636 0.602218 0.288933
O O12 0.218150 0.738255 0.335549
O O13 0.000000 0.651519 0.386189
O O14 0.000000 0.895719 0.679410
O O15 0.214609 0.000000 0.684434
O O16 0.500000 0.783445 0.307226
O O17 0.727715 0.876900 0.339590
O O18 0.500000 0.574108 0.929558
O O19 0.240516 0.500000 0.916955
#
# Coordination Sequence:
#
# PCOD8180008 Si02
#       7
#     8   8   8   8   8   8   8
#     4  12  25  42  64  91 126 165 208 259 318 377
#     4  11  25  44  66  93 125 163 211 264 317 377
#     4  11  21  37  63  92 122 160 209 256 307 372
#     4  11  22  39  63  91 127 168 208 254 314 378
#     4  10  21  36  56  86 126 168 205 248 308 371
#     4  11  22  39  65  93 123 164 214 261 310 371
#     4   9  20  38  60  89 123 157 197 251 309 361
#
# _framework density 20.869975
#
# number of rings (size 3 to 8) (size 9 to 14) (size 15 to 20)
#    0.000    1.286    1.429    4.714    0.000    4.857 
#    0.000    3.571    0.000    4.714    0.000    0.000 
#    0.000    0.000    0.000    0.000    0.000    0.000 
#
# Total GULP energy -347371.850196 kJ/mol
# GULP energy per Si atom -12406.137507 kJ/mol
# Density = 2.082247 g / cm^3
# Si number density = 20.869975 Si / 1000 Ang^3
#
#
#
# Elastic Constant Matrix: (Units=GPa)
#
#
# Indices 1 2 3 4 5 6 
#
# 1 51.8738 16.6929 12.3568 0.0000 0.0000 0.0000
# 2 16.6929 97.3425 52.7952 0.0000 0.0000 0.0000
# 3 12.3568 52.7952 92.1875 0.0000 0.0000 0.0000
# 4 0.0000 0.0000 0.0000 37.6710 0.0000 0.0000
# 5 0.0000 0.0000 0.0000 0.0000 21.4375 0.0000
# 6 0.0000 0.0000 0.0000 0.0000 0.0000 24.8229
#
#
#
# Elastic Compliance Matrix: (Units=1/GPa)
#
#
# Indices 1 2 3 4 5 6 
#
# 1 0.020475 -0.002934 -0.001064 0.000000 0.000000 0.000000
# 2 -0.002934 0.015322 -0.008382 0.000000 0.000000 0.000000
# 3 -0.001064 -0.008382 0.015790 0.000000 0.000000 0.000000
# 4 0.000000 0.000000 0.000000 0.026546 0.000000 0.000000
# 5 0.000000 0.000000 0.000000 0.000000 0.046647 0.000000
# 6 0.000000 0.000000 0.000000 0.000000 0.000000 0.040285
#
#
# Mechanical properties :
#
#
# Convention : Reuss Voigt Hill
#
# Bulk Modulus (GPa) = 37.27469 45.01040 41.14255
# Shear Modulus (GPa) = 25.15499 27.42354 26.28927
#
# Velocity S-wave (km/s) = 3.47554 3.62887 3.55303
# Velocity P-wave (km/s) = 5.83138 6.25877 6.04885
#
# Compressibility (1/GPa) = 0.02682785
#
# Stress axis : x y z
#
# Youngs Moduli (GPa) = 48.83948 65.26563 63.33058
#
# Poissons Ratio (x) = 0.19149 0.06740
# Poissons Ratio (y) = 0.14330 0.53081
# Poissons Ratio (z) = 0.05198 0.54703
#
# Static dielectric constant tensor:
#      x y z
#    x 3.670830 0.000000 0.000000 
#    y 0.000000 4.017220 0.000000 
#    z 0.000000 0.000000 3.782120 
# 
# 
# High freq. dielectric constant tensor:
#      x y z
#    x 1.804620 0.000000 0.000000 
#    y 0.000000 1.826850 0.000000 
#    z 0.000000 0.000000 1.823640 
# 
# From -- ./inp_files/12447.got.cif
#   From: 2010.03.12/outbox.cif.g09.slc.cpg/sg38_7_cif.got.tgz:12447.got - 2010.04.14 02:38:36.
