data_PCOD8180703
_publ_section_title
;
Structure prediction by ZEFSAII (Michael W. Deem and Ramdas Pophale) SiO2 
 PCOD8180703
Probable space group: A B M 2
;
_chemical_formula_sum "Si O2"
_cell_formula_units_Z 64
_cell_length_a 8.974066
_cell_length_b 16.739141
_cell_length_c 20.851147
_cell_angle_alpha 90.000000
_cell_angle_beta 90.000000
_cell_angle_gamma 90.000000
_cell_volume 3132.220855
_symmetry_space_group_name_H-M "A B M 2"
_symmetry_group_IT_number 39
_symmetry_cell_setting 'orthorhombic'
loop_
_space_group_symop_operation_xyz
x,y,z
-x,-y,z
-x,1/2+y,z
x,1/2-y,z
x,1/2+y,1/2+z
-x,1/2-y,1/2+z
-x,y,1/2+z
x,-y,1/2+z
loop_
_atom_site_type_symbol
_atom_site_label
_atom_site_fract_x
_atom_site_fract_y
_atom_site_fract_z
Si Si1 0.112620 0.566674 0.748910
Si Si2 0.962913 0.587885 0.007307
Si Si3 0.536930 0.336321 0.552489
Si Si4 0.708262 0.342563 0.427177
Si Si5 0.256115 0.054328 0.119458
Si Si6 0.837674 0.661674 0.731484
Si Si7 0.222830 0.126525 0.590665
Si Si8 0.663579 0.961115 0.809752
O O1 0.226039 0.584007 0.691507
O O2 0.211685 0.533390 0.809204
O O3 0.000000 0.500000 0.721523
O O4 0.000710 0.640569 0.763578
O O5 0.873666 0.583701 0.073405
O O6 0.000000 0.500000 0.979075
O O7 0.113494 0.631000 0.029444
O O8 0.873250 0.639231 0.954905
O O9 0.612192 0.250000 0.566992
O O10 0.580896 0.359789 0.479792
O O11 0.590432 0.403197 0.601558
O O12 0.361981 0.325930 0.562360
O O13 0.703764 0.250000 0.403150
O O14 0.672485 0.407323 0.372861
O O15 0.275386 0.960922 0.111179
O O16 0.796932 0.750000 0.757315
O O17 0.847943 0.666013 0.654232
O O18 0.708273 0.598757 0.751612
O O19 0.500000 0.000000 0.800613
#
# Coordination Sequence:
#
# PCOD8180703 Si02
#       8
#     8   8   8   8   8   8   8   8
#     4  10  19  39  61  88 122 161 209 258 311 378
#     4   9  19  34  62  94 123 161 203 246 306 378
#     4  10  23  36  55  91 131 165 200 252 316 379
#     4  10  23  45  63  86 127 167 209 263 318 370
#     4  10  17  34  58  84 125 164 201 244 305 369
#     4  11  23  39  63  95 133 168 206 265 326 383
#     4  11  19  35  60  96 128 162 203 254 310 380
#     4  11  25  42  67  88 119 171 229 267 316 374
#
# _framework density 20.432787000000001
#
# number of rings (size 3 to 8) (size 9 to 14) (size 15 to 20)
#    0.000    1.750    3.750    1.500    1.750    6.000 
#    0.000    1.250    0.000    1.500    0.000    0.000 
#    0.000    0.000    0.000    0.000    0.000    0.000 
#
# Total GULP energy -396493.094667 kJ/mol
# GULP energy per Si atom -12390.409208 kJ/mol
# Density = 2.038628 g / cm^3
# Si number density = 20.432787 Si / 1000 Ang^3
#
#
#
# Elastic Constant Matrix: (Units=GPa)
#
#
# Indices 1 2 3 4 5 6 
#
# 1 122.1501 54.7264 41.1171 0.0000 0.0000 0.0000
# 2 54.7264 103.8023 37.3892 0.0000 0.0000 0.0000
# 3 41.1171 37.3892 79.8660 0.0000 0.0000 0.0000
# 4 0.0000 0.0000 0.0000 21.3408 0.0000 0.0000
# 5 0.0000 0.0000 0.0000 0.0000 22.6391 0.0000
# 6 0.0000 0.0000 0.0000 0.0000 0.0000 24.3054
#
#
#
# Elastic Compliance Matrix: (Units=1/GPa)
#
#
# Indices 1 2 3 4 5 6 
#
# 1 0.011574 -0.004758 -0.003731 0.000000 0.000000 0.000000
# 2 -0.004758 0.013544 -0.003891 0.000000 0.000000 0.000000
# 3 -0.003731 -0.003891 0.016263 0.000000 0.000000 0.000000
# 4 0.000000 0.000000 0.000000 0.046859 0.000000 0.000000
# 5 0.000000 0.000000 0.000000 0.000000 0.044171 0.000000
# 6 0.000000 0.000000 0.000000 0.000000 0.000000 0.041143
#
#
# Mechanical properties :
#
#
# Convention : Reuss Voigt Hill
#
# Bulk Modulus (GPa) = 60.16502 63.58708 61.87605
# Shear Modulus (GPa) = 24.52716 25.16279 24.84497
#
# Velocity S-wave (km/s) = 3.46841 3.51307 3.49081
# Velocity P-wave (km/s) = 6.74901 6.90241 6.82614
#
# Compressibility (1/GPa) = 0.01662095
#
# Stress axis : x y z
#
# Youngs Moduli (GPa) = 86.39709 73.83445 61.48776
#
# Poissons Ratio (x) = 0.35133 0.22943
# Poissons Ratio (y) = 0.41110 0.23924
# Poissons Ratio (z) = 0.32237 0.28728
#
# Static dielectric constant tensor:
#      x y z
#    x 3.796850 0.000000 0.000000 
#    y 0.000000 3.843420 0.000000 
#    z 0.000000 0.000000 3.488180 
# 
# 
# High freq. dielectric constant tensor:
#      x y z
#    x 1.796330 0.000000 0.000000 
#    y 0.000000 1.798880 0.000000 
#    z 0.000000 0.000000 1.774410 
# 
# From -- ./inp_files/14179.got.cif
#   From: 2010.03.12/outbox.cif.g09.slc.cpg/sg39_8_cif.got.tgz:14179.got - 2010.04.14 02:53:20.
