data_PCOD8180497
_publ_section_title
;
Structure prediction by ZEFSAII (Michael W. Deem and Ramdas Pophale) SiO2 
 PCOD8180497
Probable space group: A M M 2
;
_chemical_formula_sum "Si O2"
_cell_formula_units_Z 48
_cell_length_a 8.638053
_cell_length_b 16.950810
_cell_length_c 17.074394
_cell_angle_alpha 90.000000
_cell_angle_beta 90.000000
_cell_angle_gamma 90.000000
_cell_volume 2500.066836
_symmetry_space_group_name_H-M "A M M 2"
_symmetry_group_IT_number 38
_symmetry_cell_setting 'orthorhombic'
loop_
_space_group_symop_operation_xyz
x,y,z
-x,-y,z
-x,y,z
x,-y,z
x,1/2+y,1/2+z
-x,1/2-y,1/2+z
-x,1/2+y,1/2+z
x,1/2-y,1/2+z
loop_
_atom_site_type_symbol
_atom_site_label
_atom_site_fract_x
_atom_site_fract_y
_atom_site_fract_z
Si Si1 0.683231 0.500000 0.270061
Si Si2 0.318225 0.689660 0.711526
Si Si3 0.182231 0.644555 0.176080
Si Si4 0.684740 0.500000 0.449191
Si Si5 0.684438 0.175738 0.512431
Si Si6 0.684232 0.411465 0.857608
Si Si7 0.680953 0.349700 0.539225
O O1 0.500000 0.500000 0.263812
O O2 0.747888 0.422262 0.230396
O O3 0.739330 0.500000 0.359878
O O4 0.500000 0.708485 0.719330
O O5 0.228438 0.771835 0.713005
O O6 0.255371 0.636694 0.782630
O O7 0.283474 0.642006 0.631647
O O8 0.247719 0.633210 0.088708
O O9 0.000000 0.635797 0.173564
O O10 0.500000 0.500000 0.456473
O O11 0.756053 0.422704 0.492294
O O12 0.500000 0.173606 0.519384
O O13 0.745708 0.130240 0.436176
O O14 0.746158 0.265945 0.507992
O O15 0.500000 0.413300 0.857345
O O16 0.751317 0.500000 0.854014
O O17 0.500000 0.350789 0.523123
#
# Coordination Sequence:
#
# PCOD8180497 Si02
#       7
#     4   8   8   4   8   8   8
#     4  11  23  37  59  84 109 142 188 235 281 325
#     4   9  18  34  58  84 113 145 184 227 277 332
#     4  11  23  39  57  79 112 148 188 228 280 339
#     4   9  18  29  51  84 113 138 174 225 279 327
#     4   9  18  34  56  81 111 145 186 231 280 329
#     4   9  18  30  53  89 117 141 182 236 280 323
#     4   8  15  28  48  78 110 141 175 222 275 326
#
# _framework density 19.199487000000001
#
# number of rings (size 3 to 8) (size 9 to 14) (size 15 to 20)
#    0.000    2.667    0.000    2.750    4.667    0.000 
#    0.000    0.833    0.000    2.500    0.000    0.000 
#    0.000    0.000    0.000    0.000    0.000    0.000 
#
# Total GULP energy -297574.639586 kJ/mol
# GULP energy per Si atom -12398.943316 kJ/mol
# Density = 1.915579 g / cm^3
# Si number density = 19.199487 Si / 1000 Ang^3
#
#
#
# Elastic Constant Matrix: (Units=GPa)
#
#
# Indices 1 2 3 4 5 6 
#
# 1 43.6407 24.8756 31.1255 0.0000 0.0000 0.0000
# 2 24.8756 125.0898 98.2390 0.0000 0.0000 0.0000
# 3 31.1255 98.2390 175.7527 0.0000 0.0000 0.0000
# 4 0.0000 0.0000 0.0000 40.4075 0.0000 0.0000
# 5 0.0000 0.0000 0.0000 0.0000 3.9272 0.0000
# 6 0.0000 0.0000 0.0000 0.0000 0.0000 -0.7709
#
#
#
# Elastic Compliance Matrix: (Units=1/GPa)
#
#
# Indices 1 2 3 4 5 6 
#
# 1 0.026787 -0.002854 -0.003149 0.000000 0.000000 0.000000
# 2 -0.002854 0.014554 -0.007629 0.000000 0.000000 0.000000
# 3 -0.003149 -0.007629 0.010512 0.000000 0.000000 0.000000
# 4 0.000000 0.000000 0.000000 0.024748 0.000000 0.000000
# 5 0.000000 0.000000 0.000000 0.000000 0.254631 0.000000
# 6 0.000000 0.000000 0.000000 0.000000 0.000000 -1.297213
#
#
# Mechanical properties :
#
#
# Convention : Reuss Voigt Hill
#
# Bulk Modulus (GPa) = 40.66999 72.55148 56.61073
# Shear Modulus (GPa) = -5.37333 21.39564 8.01115
#
# Velocity S-wave (km/s) = -1.67474 3.34186 2.04491
# Velocity P-wave (km/s) = 4.18200 7.26368 5.92664
#
# Compressibility (1/GPa) = 0.02458815
#
# Stress axis : x y z
#
# Youngs Moduli (GPa) = 37.33171 68.71142 95.12954
#
# Poissons Ratio (x) = 0.19612 0.29952
# Poissons Ratio (y) = 0.10655 0.72579
# Poissons Ratio (z) = 0.11754 0.52423
#
# Static dielectric constant tensor:
#      x y z
#    x 2.995140 0.000000 0.000000 
#    y 0.000000 3.831080 0.000000 
#    z 0.000000 0.000000 3.714830 
# 
# 
# High freq. dielectric constant tensor:
#      x y z
#    x 1.694860 0.000000 0.000000 
#    y 0.000000 1.758130 0.000000 
#    z 0.000000 0.000000 1.758530 
# 
# From -- ./inp_files/16682.got.cif
#   From: 2010.03.12/outbox.cif.g09.slc.cpg/sg38_9_cif.got.tgz:16682.got - 2010.04.14 02:38:36.
