data_PCOD8180051
_publ_section_title
;
Structure prediction by ZEFSAII (Michael W. Deem and Ramdas Pophale) SiO2 
 PCOD8180051
Probable space group: A M M 2
;
_chemical_formula_sum "Si O2"
_cell_formula_units_Z 48
_cell_length_a 9.199361
_cell_length_b 28.090031
_cell_length_c 10.095543
_cell_angle_alpha 90.000000
_cell_angle_beta 90.000000
_cell_angle_gamma 90.000000
_cell_volume 2608.792655
_symmetry_space_group_name_H-M "A M M 2"
_symmetry_group_IT_number 38
_symmetry_cell_setting 'orthorhombic'
loop_
_space_group_symop_operation_xyz
x,y,z
-x,-y,z
-x,y,z
x,-y,z
x,1/2+y,1/2+z
-x,1/2-y,1/2+z
-x,1/2+y,1/2+z
x,1/2-y,1/2+z
loop_
_atom_site_type_symbol
_atom_site_label
_atom_site_fract_x
_atom_site_fract_y
_atom_site_fract_z
Si Si1 0.168098 0.850746 0.438560
Si Si2 0.830604 0.199290 0.168700
Si Si3 0.331614 0.796466 0.666108
Si Si4 0.169411 0.052232 0.557279
Si Si5 0.332460 0.552723 0.326256
Si Si6 0.334322 0.649742 0.436898
O O1 0.200252 0.837212 0.287578
O O2 0.264856 0.818698 0.534081
O O3 0.210208 0.906590 0.452504
O O4 0.000000 0.841725 0.475658
O O5 0.747112 0.247491 0.201161
O O6 0.000000 0.210777 0.152190
O O7 0.775221 0.175817 0.033965
O O8 0.500000 0.785990 0.638329
O O9 0.309043 0.831729 0.788487
O O10 0.243541 0.064220 0.695406
O O11 0.000000 0.052191 0.586733
O O12 0.219124 0.000000 0.503406
O O13 0.500000 0.555914 0.284340
O O14 0.294258 0.500000 0.383115
O O15 0.298553 0.593065 0.436149
O O16 0.500000 0.659372 0.482736
#
# Coordination Sequence:
#
# PCOD8180051 Si02
#       6
#     8   8   8   8   8   8
#     4  10  21  37  56  81 111 143 180 221 269 321
#     4  11  24  38  53  77 110 148 183 220 269 321
#     4  11  22  37  58  82 105 138 184 228 271 319
#     4   9  17  31  54  82 109 138 175 220 268 317
#     4   9  17  32  55  82 110 138 174 221 268 316
#     4  10  21  37  56  82 111 143 180 220 269 320
#
# _framework density 18.399315999999999
#
# number of rings (size 3 to 8) (size 9 to 14) (size 15 to 20)
#    0.000    2.000    1.667    2.000    0.000    6.000 
#    0.000    0.833    0.000    1.000    0.000    0.000 
#    0.000    0.000    0.000    0.000    0.000    0.000 
#
# Total GULP energy -297592.255991 kJ/mol
# GULP energy per Si atom -12399.677333 kJ/mol
# Density = 1.835744 g / cm^3
# Si number density = 18.399316 Si / 1000 Ang^3
#
#
#
# Elastic Constant Matrix: (Units=GPa)
#
#
# Indices 1 2 3 4 5 6 
#
# 1 68.1667 40.9789 30.1437 0.0000 0.0000 0.0000
# 2 40.9789 120.8050 23.0419 0.0000 0.0000 0.0000
# 3 30.1437 23.0419 55.3352 0.0000 0.0000 0.0000
# 4 0.0000 0.0000 0.0000 18.6296 0.0000 0.0000
# 5 0.0000 0.0000 0.0000 0.0000 -20.6246 0.0000
# 6 0.0000 0.0000 0.0000 0.0000 0.0000 23.1045
#
#
#
# Elastic Compliance Matrix: (Units=1/GPa)
#
#
# Indices 1 2 3 4 5 6 
#
# 1 0.022482 -0.005747 -0.009854 0.000000 0.000000 0.000000
# 2 -0.005747 0.010461 -0.001225 0.000000 0.000000 0.000000
# 3 -0.009854 -0.001225 0.023950 0.000000 0.000000 0.000000
# 4 0.000000 0.000000 0.000000 0.053678 0.000000 0.000000
# 5 0.000000 0.000000 0.000000 0.000000 -0.048486 0.000000
# 6 0.000000 0.000000 0.000000 0.000000 0.000000 0.043282
#
#
# Mechanical properties :
#
#
# Convention : Reuss Voigt Hill
#
# Bulk Modulus (GPa) = 43.02854 48.07066 45.54960
# Shear Modulus (GPa) = 34.06773 14.23138 24.14955
#
# Velocity S-wave (km/s) = 4.30766 2.78416 3.62681
# Velocity P-wave (km/s) = 6.94104 6.04305 6.50755
#
# Compressibility (1/GPa) = 0.02324039
#
# Stress axis : x y z
#
# Youngs Moduli (GPa) = 44.47977 95.59380 41.75374
#
# Poissons Ratio (x) = 0.54935 0.41145
# Poissons Ratio (y) = 0.25561 0.05117
# Poissons Ratio (z) = 0.43831 0.11715
#
# Static dielectric constant tensor:
#      x y z
#    x 3.740830 0.000000 0.000000 
#    y 0.000000 3.951990 0.000000 
#    z 0.000000 0.000000 3.115610 
# 
# 
# High freq. dielectric constant tensor:
#      x y z
#    x 1.717820 0.000000 0.000000 
#    y 0.000000 1.735500 0.000000 
#    z 0.000000 0.000000 1.686490 
# 
# From -- ./inp_files/3737.got.cif
#   From: 2010.03.12/outbox.cif.g09.slc.cpg/sg38_2_cif.got.tgz:3737.got - 2010.04.14 02:38:36.
