data_PCOD8180895
_publ_section_title
;
Structure prediction by ZEFSAII (Michael W. Deem and Ramdas Pophale) SiO2 
 PCOD8180895
Probable space group: A B M 2
;
_chemical_formula_sum "Si O2"
_cell_formula_units_Z 56
_cell_length_a 19.147637
_cell_length_b 8.994655
_cell_length_c 20.275131
_cell_angle_alpha 90.000000
_cell_angle_beta 90.000000
_cell_angle_gamma 90.000000
_cell_volume 3491.912596
_symmetry_space_group_name_H-M "A B M 2"
_symmetry_group_IT_number 39
_symmetry_cell_setting 'orthorhombic'
loop_
_space_group_symop_operation_xyz
x,y,z
-x,-y,z
-x,1/2+y,z
x,1/2-y,z
x,1/2+y,1/2+z
-x,1/2-y,1/2+z
-x,y,1/2+z
x,-y,1/2+z
loop_
_atom_site_type_symbol
_atom_site_label
_atom_site_fract_x
_atom_site_fract_y
_atom_site_fract_z
Si Si1 0.781530 0.572219 0.423080
Si Si2 0.932700 0.583489 0.570686
Si Si3 0.791816 0.924018 0.060747
Si Si4 0.693297 0.423568 0.681967
Si Si5 0.065389 0.587226 0.914282
Si Si6 0.704529 0.581642 0.808739
Si Si7 0.428583 0.418090 0.735426
O O1 0.778672 0.750000 0.428879
O O2 0.766252 0.503905 0.494492
O O3 0.858386 0.518929 0.397455
O O4 0.723887 0.511751 0.373175
O O5 0.927695 0.750000 0.600308
O O6 0.863531 0.491770 0.588949
O O7 0.941301 0.593278 0.492601
O O8 0.000000 0.500000 0.601360
O O9 0.803214 0.750000 0.047207
O O10 0.731933 0.954755 0.113866
O O11 0.687484 0.250000 0.697525
O O12 0.735446 0.502079 0.742696
O O13 0.615134 0.495146 0.678123
O O14 0.060376 0.750000 0.883123
O O15 0.000000 0.500000 0.882919
O O16 0.733437 0.750000 0.814031
O O17 0.619766 0.581683 0.801609
O O18 0.500000 0.500000 0.752021
O O19 0.443663 0.250000 0.711829
#
# Coordination Sequence:
#
# PCOD8180895 Si02
#       7
#     8   8   8   8   8   8   8
#     4  10  19  30  47  70  98 129 161 200 243 288
#     4   9  16  26  41  62  90 123 161 202 242 284
#     4  10  19  30  47  71  99 129 161 200 244 287
#     4   9  18  32  50  72  98 128 159 196 237 281
#     4   8  15  25  38  60  86 118 156 193 234 275
#     4   9  19  32  49  73  97 125 159 197 236 284
#     4   9  18  31  52  77  98 123 157 195 232 277
#
# _framework density 16.037056
#
# number of rings (size 3 to 8) (size 9 to 14) (size 15 to 20)
#    0.857    2.000    0.000    3.000    0.000    6.286 
#    0.000    0.000    0.000    1.714    0.000    8.000 
#    0.000    0.000    0.000    0.000    0.000    0.000 
#
# Total GULP energy -346923.853529 kJ/mol
# GULP energy per Si atom -12390.137626 kJ/mol
# Density = 1.600055 g / cm^3
# Si number density = 16.037056 Si / 1000 Ang^3
#
#
#
# Elastic Constant Matrix: (Units=GPa)
#
#
# Indices 1 2 3 4 5 6 
#
# 1 96.5633 56.4748 40.4270 0.0000 0.0000 0.0000
# 2 56.4748 125.9339 47.2307 0.0000 0.0000 0.0000
# 3 40.4270 47.2307 62.5086 0.0000 0.0000 0.0000
# 4 0.0000 0.0000 0.0000 21.5040 0.0000 0.0000
# 5 0.0000 0.0000 0.0000 0.0000 15.5154 0.0000
# 6 0.0000 0.0000 0.0000 0.0000 0.0000 31.6210
#
#
#
# Elastic Compliance Matrix: (Units=1/GPa)
#
#
# Indices 1 2 3 4 5 6 
#
# 1 0.015881 -0.004563 -0.006823 0.000000 0.000000 0.000000
# 2 -0.004563 0.012392 -0.006412 0.000000 0.000000 0.000000
# 3 -0.006823 -0.006412 0.025256 0.000000 0.000000 0.000000
# 4 0.000000 0.000000 0.000000 0.046503 0.000000 0.000000
# 5 0.000000 0.000000 0.000000 0.000000 0.064452 0.000000
# 6 0.000000 0.000000 0.000000 0.000000 0.000000 0.031625
#
#
# Mechanical properties :
#
#
# Convention : Reuss Voigt Hill
#
# Bulk Modulus (GPa) = 55.76640 63.69677 59.73159
# Shear Modulus (GPa) = 21.03652 23.11962 22.07807
#
# Velocity S-wave (km/s) = 3.62573 3.80101 3.71440
# Velocity P-wave (km/s) = 7.23719 7.68559 7.46475
#
# Compressibility (1/GPa) = 0.01793194
#
# Stress axis : x y z
#
# Youngs Moduli (GPa) = 62.96788 80.69962 39.59514
#
# Poissons Ratio (x) = 0.36821 0.27017
# Poissons Ratio (y) = 0.28731 0.25388
# Poissons Ratio (z) = 0.42966 0.51745
#
# Static dielectric constant tensor:
#      x y z
#    x 3.009150 0.000000 0.000000 
#    y 0.000000 3.261290 0.000000 
#    z 0.000000 0.000000 2.592460 
# 
# 
# High freq. dielectric constant tensor:
#      x y z
#    x 1.607400 0.000000 0.000000 
#    y 0.000000 1.638140 0.000000 
#    z 0.000000 0.000000 1.566860 
# 
# From -- ./inp_files/15007.got.cif
#   From: 2010.03.12/outbox.cif.g09.slc.cpg/sg39_8_cif.got.tgz:15007.got - 2010.04.14 02:53:20.
