data_PCOD8180933
_publ_section_title
;
Structure prediction by ZEFSAII (Michael W. Deem and Ramdas Pophale) SiO2 
 PCOD8180933
Probable space group: A B M 2
;
_chemical_formula_sum "Si O2"
_cell_formula_units_Z 56
_cell_length_a 18.093805
_cell_length_b 8.794429
_cell_length_c 19.081044
_cell_angle_alpha 90.000000
_cell_angle_beta 90.000000
_cell_angle_gamma 90.000000
_cell_volume 3036.265086
_symmetry_space_group_name_H-M "A B M 2"
_symmetry_group_IT_number 39
_symmetry_cell_setting 'orthorhombic'
loop_
_space_group_symop_operation_xyz
x,y,z
-x,-y,z
-x,1/2+y,z
x,1/2-y,z
x,1/2+y,1/2+z
-x,1/2-y,1/2+z
-x,y,1/2+z
x,-y,1/2+z
loop_
_atom_site_type_symbol
_atom_site_label
_atom_site_fract_x
_atom_site_fract_y
_atom_site_fract_z
Si Si1 0.078187 0.422542 0.888620
Si Si2 0.797213 0.425692 0.283818
Si Si3 0.577893 0.571179 0.605381
Si Si4 0.302865 0.575423 0.886196
Si Si5 0.572289 0.073666 0.456014
Si Si6 0.798254 0.925574 0.995150
Si Si7 0.256600 0.425211 0.631755
O O1 0.060076 0.250000 0.874114
O O2 0.127070 0.480957 0.821868
O O3 0.118885 0.444324 0.964105
O O4 0.000000 0.500000 0.891555
O O5 0.782688 0.250000 0.305164
O O6 0.732704 0.533410 0.312354
O O7 0.794000 0.447550 0.200630
O O8 0.500000 0.500000 0.635672
O O9 0.564565 0.750000 0.605926
O O10 0.592957 0.512899 0.527299
O O11 0.656014 0.529118 0.644628
O O12 0.328315 0.750000 0.887061
O O13 0.369861 0.459071 0.895271
O O14 0.249152 0.543517 0.950818
O O15 0.563270 0.250000 0.472690
O O16 0.500000 0.000000 0.423651
O O17 0.772205 0.750000 0.985414
O O18 0.787327 0.971498 0.075863
O O19 0.255048 0.250000 0.607301
#
# Coordination Sequence:
#
# PCOD8180933 Si02
#       7
#     8   8   8   8   8   8   8
#     4   9  19  36  58  82 108 140 179 221 273 331
#     4   9  20  38  56  78 109 146 182 221 272 325
#     4  10  19  31  49  76 106 142 185 227 276 328
#     4  11  20  33  52  77 104 137 181 225 269 323
#     4  11  20  31  49  74 104 139 178 231 281 324
#     4  10  20  34  55  81 108 138 176 223 269 319
#     4  10  20  35  56  80 110 146 186 229 272 326
#
# _framework density 18.443711
#
# number of rings (size 3 to 8) (size 9 to 14) (size 15 to 20)
#    0.000    2.000    1.429    5.143    0.000    4.000 
#    0.000    1.429    0.000    5.143    0.000    0.000 
#    0.000    0.000    0.000    0.000    0.000    0.000 
#
# Total GULP energy -346880.419831 kJ/mol
# GULP energy per Si atom -12388.586423 kJ/mol
# Density = 1.840173 g / cm^3
# Si number density = 18.443711 Si / 1000 Ang^3
#
#
#
# Elastic Constant Matrix: (Units=GPa)
#
#
# Indices 1 2 3 4 5 6 
#
# 1 117.1740 33.7261 41.9974 0.0000 0.0000 0.0000
# 2 33.7261 72.0552 28.5007 0.0000 0.0000 0.0000
# 3 41.9974 28.5007 83.1955 0.0000 0.0000 0.0000
# 4 0.0000 0.0000 0.0000 20.2924 0.0000 0.0000
# 5 0.0000 0.0000 0.0000 0.0000 22.8191 0.0000
# 6 0.0000 0.0000 0.0000 0.0000 0.0000 32.7565
#
#
#
# Elastic Compliance Matrix: (Units=1/GPa)
#
#
# Indices 1 2 3 4 5 6 
#
# 1 0.011115 -0.003451 -0.004429 0.000000 0.000000 0.000000
# 2 -0.003451 0.017125 -0.004125 0.000000 0.000000 0.000000
# 3 -0.004429 -0.004125 0.015669 0.000000 0.000000 0.000000
# 4 0.000000 0.000000 0.000000 0.049280 0.000000 0.000000
# 5 0.000000 0.000000 0.000000 0.000000 0.043823 0.000000
# 6 0.000000 0.000000 0.000000 0.000000 0.000000 0.030528
#
#
# Mechanical properties :
#
#
# Convention : Reuss Voigt Hill
#
# Bulk Modulus (GPa) = 50.25083 53.43035 51.84059
# Shear Modulus (GPa) = 25.22953 26.38696 25.80825
#
# Velocity S-wave (km/s) = 3.70255 3.78653 3.74478
# Velocity P-wave (km/s) = 6.75153 6.93898 6.84590
#
# Compressibility (1/GPa) = 0.01990017
#
# Stress axis : x y z
#
# Youngs Moduli (GPa) = 89.96973 58.39475 63.82226
#
# Poissons Ratio (x) = 0.20150 0.28265
# Poissons Ratio (y) = 0.31046 0.26324
# Poissons Ratio (z) = 0.39845 0.24086
#
# Static dielectric constant tensor:
#      x y z
#    x 3.587400 0.000000 0.000000 
#    y 0.000000 3.455660 0.000000 
#    z 0.000000 0.000000 3.238870 
# 
# 
# High freq. dielectric constant tensor:
#      x y z
#    x 1.711270 0.000000 0.000000 
#    y 0.000000 1.721470 0.000000 
#    z 0.000000 0.000000 1.690060 
# 
# From -- ./inp_files/14917.got.cif
#   From: 2010.03.12/outbox.cif.g09.slc.cpg/sg39_8_cif.got.tgz:14917.got - 2010.04.14 02:53:20.
