data_PCOD8180916
_publ_section_title
;
Structure prediction by ZEFSAII (Michael W. Deem and Ramdas Pophale) SiO2 
 PCOD8180916
Probable space group: A B M 2
;
_chemical_formula_sum "Si O2"
_cell_formula_units_Z 64
_cell_length_a 14.225071
_cell_length_b 16.421431
_cell_length_c 14.996302
_cell_angle_alpha 90.000000
_cell_angle_beta 90.000000
_cell_angle_gamma 90.000000
_cell_volume 3503.076490
_symmetry_space_group_name_H-M "A B M 2"
_symmetry_group_IT_number 39
_symmetry_cell_setting 'orthorhombic'
loop_
_space_group_symop_operation_xyz
x,y,z
-x,-y,z
-x,1/2+y,z
x,1/2-y,z
x,1/2+y,1/2+z
-x,1/2-y,1/2+z
-x,y,1/2+z
x,-y,1/2+z
loop_
_atom_site_type_symbol
_atom_site_label
_atom_site_fract_x
_atom_site_fract_y
_atom_site_fract_z
Si Si1 0.945612 0.342180 0.458960
Si Si2 0.929384 0.426169 0.830882
Si Si3 0.372470 0.843851 0.337933
Si Si4 0.573421 0.843893 0.037201
Si Si5 0.217558 0.039472 0.895087
Si Si6 0.721224 0.472313 0.583850
Si Si7 0.564751 0.924757 0.665468
Si Si8 0.071150 0.073729 0.134494
O O1 0.915288 0.250000 0.442509
O O2 0.863440 0.399775 0.426053
O O3 0.958149 0.356920 0.564450
O O4 0.043061 0.359918 0.405974
O O5 0.824081 0.461839 0.842404
O O6 0.939984 0.387441 0.732760
O O7 0.000000 0.500000 0.843057
O O8 0.338022 0.750000 0.332571
O O9 0.430198 0.857419 0.429947
O O10 0.286020 0.907111 0.333649
O O11 0.433775 0.864406 0.250524
O O12 0.585256 0.750000 0.061272
O O13 0.661773 0.888421 0.083612
O O14 0.477468 0.878366 0.079457
O O15 0.269353 0.001273 0.980666
O O16 0.668098 0.543571 0.637608
O O17 0.822658 0.458470 0.626677
O O18 0.500000 0.000000 0.693717
O O19 0.000000 0.000000 0.119063
#
# Coordination Sequence:
#
# PCOD8180916 Si02
#       8
#     8   8   8   8   8   8   8   8
#     4  10  19  31  48  72 101 131 168 212 255 298
#     4   9  18  32  51  72  97 133 172 209 251 299
#     4  10  19  31  52  78 102 132 169 212 260 307
#     4   9  19  35  52  74 103 132 169 215 258 303
#     4   9  17  32  52  72  98 131 169 213 254 302
#     4   9  18  31  52  78 101 132 173 210 255 311
#     4  10  20  33  51  77 105 136 171 210 258 312
#     4  10  19  33  53  75 101 135 171 209 253 302
#
# _framework density 18.269655
#
# number of rings (size 3 to 8) (size 9 to 14) (size 15 to 20)
#    0.000    2.500    0.000    3.375    0.000    6.000 
#    0.000    0.000    0.000   10.500    0.000    0.000 
#    0.000    0.000    0.000    0.000    0.000    0.000 
#
# Total GULP energy -396645.811924 kJ/mol
# GULP energy per Si atom -12395.181623 kJ/mol
# Density = 1.822807 g / cm^3
# Si number density = 18.269655 Si / 1000 Ang^3
#
#
#
# Elastic Constant Matrix: (Units=GPa)
#
#
# Indices 1 2 3 4 5 6 
#
# 1 85.9014 27.4793 40.1134 0.0000 0.0000 0.0000
# 2 27.4793 58.5473 45.3669 0.0000 0.0000 0.0000
# 3 40.1134 45.3669 114.4816 0.0000 0.0000 0.0000
# 4 0.0000 0.0000 0.0000 22.6532 0.0000 0.0000
# 5 0.0000 0.0000 0.0000 0.0000 22.3828 0.0000
# 6 0.0000 0.0000 0.0000 0.0000 0.0000 15.5559
#
#
#
# Elastic Compliance Matrix: (Units=1/GPa)
#
#
# Indices 1 2 3 4 5 6 
#
# 1 0.014590 -0.004166 -0.003462 0.000000 0.000000 0.000000
# 2 -0.004166 0.025839 -0.008780 0.000000 0.000000 0.000000
# 3 -0.003462 -0.008780 0.013427 0.000000 0.000000 0.000000
# 4 0.000000 0.000000 0.000000 0.044144 0.000000 0.000000
# 5 0.000000 0.000000 0.000000 0.000000 0.044677 0.000000
# 6 0.000000 0.000000 0.000000 0.000000 0.000000 0.064284
#
#
# Mechanical properties :
#
#
# Convention : Reuss Voigt Hill
#
# Bulk Modulus (GPa) = 47.52377 53.87219 50.69798
# Shear Modulus (GPa) = 20.26021 21.84977 21.05499
#
# Velocity S-wave (km/s) = 3.33371 3.46202 3.39847
# Velocity P-wave (km/s) = 6.39430 6.74774 6.57339
#
# Compressibility (1/GPa) = 0.02104210
#
# Stress axis : x y z
#
# Youngs Moduli (GPa) = 68.53880 38.70174 74.47597
#
# Poissons Ratio (x) = 0.16122 0.25780
# Poissons Ratio (y) = 0.28552 0.65388
# Poissons Ratio (z) = 0.23725 0.33979
#
# Static dielectric constant tensor:
#      x y z
#    x 3.432980 0.000000 0.000000 
#    y 0.000000 3.193520 0.000000 
#    z 0.000000 0.000000 3.564660 
# 
# 
# High freq. dielectric constant tensor:
#      x y z
#    x 1.698070 0.000000 0.000000 
#    y 0.000000 1.686180 0.000000 
#    z 0.000000 0.000000 1.718810 
# 
# From -- ./inp_files/9898.got.cif
#   From: 2010.03.12/outbox.cif.g09.slc.cpg/sg39_5_cif.got.tgz:9898.got - 2010.04.14 02:53:20.
