data_PCOD8180881
_publ_section_title
;
Structure prediction by ZEFSAII (Michael W. Deem and Ramdas Pophale) SiO2 
 PCOD8180881
Probable space group: A B M 2
;
_chemical_formula_sum "Si O2"
_cell_formula_units_Z 56
_cell_length_a 14.406301
_cell_length_b 9.354093
_cell_length_c 25.098288
_cell_angle_alpha 90.000000
_cell_angle_beta 90.000000
_cell_angle_gamma 90.000000
_cell_volume 3382.192066
_symmetry_space_group_name_H-M "A B M 2"
_symmetry_group_IT_number 39
_symmetry_cell_setting 'orthorhombic'
loop_
_space_group_symop_operation_xyz
x,y,z
-x,-y,z
-x,1/2+y,z
x,1/2-y,z
x,1/2+y,1/2+z
-x,1/2-y,1/2+z
-x,y,1/2+z
x,-y,1/2+z
loop_
_atom_site_type_symbol
_atom_site_label
_atom_site_fract_x
_atom_site_fract_y
_atom_site_fract_z
Si Si1 0.786162 0.585148 0.545600
Si Si2 0.909100 0.915308 0.843704
Si Si3 0.589614 0.417306 0.210887
Si Si4 0.587739 0.414675 0.087563
Si Si5 0.906437 0.582121 0.965866
Si Si6 0.785288 0.418645 0.247847
Si Si7 0.905685 0.416308 0.150044
O O1 0.797944 0.750000 0.527905
O O2 0.678689 0.545488 0.553953
O O3 0.822112 0.480484 0.499702
O O4 0.840216 0.555953 0.599907
O O5 0.932806 0.750000 0.835303
O O6 0.824018 0.962585 0.805860
O O7 0.881443 0.948200 0.904384
O O8 0.000000 0.000000 0.825957
O O9 0.500000 0.500000 0.233375
O O10 0.573603 0.250000 0.220536
O O11 0.605894 0.453506 0.149026
O O12 0.680364 0.476877 0.241908
O O13 0.500000 0.500000 0.064272
O O14 0.563039 0.250000 0.081544
O O15 0.919846 0.750000 0.977427
O O16 0.000000 0.500000 0.982518
O O17 0.780347 0.250000 0.239361
O O18 0.853408 0.478967 0.202040
O O19 0.929568 0.250000 0.156860
O O20 0.000000 0.500000 0.140751
#
# Coordination Sequence:
#
# PCOD8180881 Si02
#       7
#     8   8   8   8   8   8   8
#     4  10  19  32  49  69  96 127 157 191 236 285
#     4   9  18  32  50  70  92 123 161 197 232 273
#     4   9  16  29  48  69  94 123 153 188 230 279
#     4   9  17  30  48  70  95 124 156 192 234 282
#     4  10  20  33  49  70  94 124 164 202 235 275
#     4   9  16  30  50  68  92 125 154 185 232 283
#     4  10  19  30  44  66  95 124 152 183 226 281
#
# _framework density 16.557310000000001
#
# number of rings (size 3 to 8) (size 9 to 14) (size 15 to 20)
#    0.000    2.571    1.429    1.286    0.000    2.857 
#    0.000    1.429    0.000    0.857    0.000    4.000 
#    0.000    0.000    0.000    0.000    0.000    0.000 
#
# Total GULP energy -347202.367913 kJ/mol
# GULP energy per Si atom -12400.084568 kJ/mol
# Density = 1.651962 g / cm^3
# Si number density = 16.557310 Si / 1000 Ang^3
#
#
#
# Elastic Constant Matrix: (Units=GPa)
#
#
# Indices 1 2 3 4 5 6 
#
# 1 143.6618 60.6956 57.4768 0.0000 0.0000 0.0000
# 2 60.6956 58.3847 39.6685 0.0000 0.0000 0.0000
# 3 57.4768 39.6685 75.6767 0.0000 0.0000 0.0000
# 4 0.0000 0.0000 0.0000 17.8205 0.0000 0.0000
# 5 0.0000 0.0000 0.0000 0.0000 21.0882 0.0000
# 6 0.0000 0.0000 0.0000 0.0000 0.0000 30.1775
#
#
#
# Elastic Compliance Matrix: (Units=1/GPa)
#
#
# Indices 1 2 3 4 5 6 
#
# 1 0.013306 -0.010820 -0.004435 0.000000 0.000000 0.000000
# 2 -0.010820 0.035400 -0.010338 0.000000 0.000000 0.000000
# 3 -0.004435 -0.010338 0.022001 0.000000 0.000000 0.000000
# 4 0.000000 0.000000 0.000000 0.056115 0.000000 0.000000
# 5 0.000000 0.000000 0.000000 0.000000 0.047420 0.000000
# 6 0.000000 0.000000 0.000000 0.000000 0.000000 0.033137
#
#
# Mechanical properties :
#
#
# Convention : Reuss Voigt Hill
#
# Bulk Modulus (GPa) = 51.22407 65.93392 58.57900
# Shear Modulus (GPa) = 18.86267 21.80938 20.33603
#
# Velocity S-wave (km/s) = 3.37892 3.63327 3.50840
# Velocity P-wave (km/s) = 6.79907 7.58347 7.20196
#
# Compressibility (1/GPa) = 0.01952207
#
# Stress axis : x y z
#
# Youngs Moduli (GPa) = 75.15210 28.24830 45.45165
#
# Poissons Ratio (x) = 0.30565 0.20156
# Poissons Ratio (y) = 0.81315 0.46990
# Poissons Ratio (z) = 0.33326 0.29204
#
# Static dielectric constant tensor:
#      x y z
#    x 3.290010 0.000000 0.000000 
#    y 0.000000 2.998970 0.000000 
#    z 0.000000 0.000000 3.043550 
# 
# 
# High freq. dielectric constant tensor:
#      x y z
#    x 1.640630 0.000000 0.000000 
#    y 0.000000 1.624370 0.000000 
#    z 0.000000 0.000000 1.621380 
# 
# From -- ./inp_files/15912.got.cif
#   From: 2010.03.12/outbox.cif.g09.slc.cpg/sg39_8_cif.got.tgz:15912.got - 2010.04.14 02:53:20.
