data_PCOD8180367
_publ_section_title
;
Structure prediction by ZEFSAII (Michael W. Deem and Ramdas Pophale) SiO2 
 PCOD8180367
Probable space group: A M M 2
;
_chemical_formula_sum "Si O2"
_cell_formula_units_Z 26
_cell_length_a 8.335116
_cell_length_b 16.685977
_cell_length_c 9.556323
_cell_angle_alpha 90.000000
_cell_angle_beta 90.000000
_cell_angle_gamma 90.000000
_cell_volume 1329.089139
_symmetry_space_group_name_H-M "A M M 2"
_symmetry_group_IT_number 38
_symmetry_cell_setting 'orthorhombic'
loop_
_space_group_symop_operation_xyz
x,y,z
-x,-y,z
-x,y,z
x,-y,z
x,1/2+y,1/2+z
-x,1/2-y,1/2+z
-x,1/2+y,1/2+z
x,1/2-y,1/2+z
loop_
_atom_site_type_symbol
_atom_site_label
_atom_site_fract_x
_atom_site_fract_y
_atom_site_fract_z
Si Si1 0.826373 0.277577 0.311000
Si Si2 0.000000 0.911496 0.678459
Si Si3 0.679433 0.330038 0.592498
Si Si4 0.688046 0.500000 0.714924
Si Si5 0.000000 0.000000 0.410417
O O1 0.840804 0.362986 0.228852
O O2 0.789738 0.293650 0.472632
O O3 0.700090 0.219490 0.236568
O O4 0.000000 0.233830 0.307176
O O5 0.000000 0.920652 0.509482
O O6 0.000000 0.000000 0.748963
O O7 0.500000 0.319691 0.538945
O O8 0.717641 0.422883 0.618669
O O9 0.500000 0.500000 0.773290
O O10 0.830166 0.500000 0.829338
#
# Coordination Sequence:
#
# PCOD8180367 Si02
#       5
#     8   4   8   4   2
#     4  10  23  38  65  90 128 159 221 257 319 381
#     4   8  22  38  62  94 122 162 218 258 318 388
#     4  11  24  42  62  93 131 171 209 268 327 382
#     4  10  26  41  63  97 133 169 221 266 325 389
#     4  10  22  40  70  90 128 176 210 266 328 380
#
# _framework density 19.562270000000002
#
# number of rings (size 3 to 8) (size 9 to 14) (size 15 to 20)
#    1.385    0.615    0.000    1.846   10.769    0.000 
#    0.000    1.538    0.000    0.000    0.000    0.000 
#    0.000    0.000    0.000    0.000    0.000    0.000 
#
# Total GULP energy -161058.948610 kJ/mol
# GULP energy per Si atom -12389.149893 kJ/mol
# Density = 1.951774 g / cm^3
# Si number density = 19.562270 Si / 1000 Ang^3
#
#
#
# Elastic Constant Matrix: (Units=GPa)
#
#
# Indices 1 2 3 4 5 6 
#
# 1 68.6307 20.9448 34.4035 0.0000 0.0000 0.0000
# 2 20.9448 114.0349 33.1453 0.0000 0.0000 0.0000
# 3 34.4035 33.1453 109.1959 0.0000 0.0000 0.0000
# 4 0.0000 0.0000 0.0000 31.8277 0.0000 0.0000
# 5 0.0000 0.0000 0.0000 0.0000 26.8890 0.0000
# 6 0.0000 0.0000 0.0000 0.0000 0.0000 28.2868
#
#
#
# Elastic Compliance Matrix: (Units=1/GPa)
#
#
# Indices 1 2 3 4 5 6 
#
# 1 0.017627 -0.001780 -0.005013 0.000000 0.000000 0.000000
# 2 -0.001780 0.009798 -0.002413 0.000000 0.000000 0.000000
# 3 -0.005013 -0.002413 0.011470 0.000000 0.000000 0.000000
# 4 0.000000 0.000000 0.000000 0.031419 0.000000 0.000000
# 5 0.000000 0.000000 0.000000 0.000000 0.037190 0.000000
# 6 0.000000 0.000000 0.000000 0.000000 0.000000 0.035352
#
#
# Mechanical properties :
#
#
# Convention : Reuss Voigt Hill
#
# Bulk Modulus (GPa) = 48.82526 52.09429 50.45978
# Shear Modulus (GPa) = 29.74485 30.95855 30.35170
#
# Velocity S-wave (km/s) = 3.90362 3.98246 3.94324
# Velocity P-wave (km/s) = 6.73281 6.91625 6.82514
#
# Compressibility (1/GPa) = 0.02048120
#
# Stress axis : x y z
#
# Youngs Moduli (GPa) = 56.73069 102.06561 87.18568
#
# Poissons Ratio (x) = 0.18172 0.43708
# Poissons Ratio (y) = 0.10101 0.21038
# Poissons Ratio (z) = 0.28440 0.24629
#
# Static dielectric constant tensor:
#      x y z
#    x 3.466680 0.000000 0.000000 
#    y 0.000000 3.569360 0.000000 
#    z 0.000000 0.000000 3.285190 
# 
# 
# High freq. dielectric constant tensor:
#      x y z
#    x 1.755430 0.000000 0.000000 
#    y 0.000000 1.768470 0.000000 
#    z 0.000000 0.000000 1.754770 
# 
# From -- ./inp_files/2943.got.cif
#   From: 2010.03.12/outbox.cif.g09.slc.cpg/sg38_2_cif.got.tgz:2943.got - 2010.04.14 02:38:36.
