data_PCOD8180832
_publ_section_title
;
Structure prediction by ZEFSAII (Michael W. Deem and Ramdas Pophale) SiO2 
 PCOD8180832
Probable space group: A B M 2
;
_chemical_formula_sum "Si O2"
_cell_formula_units_Z 64
_cell_length_a 19.893455
_cell_length_b 9.062772
_cell_length_c 20.117636
_cell_angle_alpha 90.000000
_cell_angle_beta 90.000000
_cell_angle_gamma 90.000000
_cell_volume 3627.005516
_symmetry_space_group_name_H-M "A B M 2"
_symmetry_group_IT_number 39
_symmetry_cell_setting 'orthorhombic'
loop_
_space_group_symop_operation_xyz
x,y,z
-x,-y,z
-x,1/2+y,z
x,1/2-y,z
x,1/2+y,1/2+z
-x,1/2-y,1/2+z
-x,y,1/2+z
x,-y,1/2+z
loop_
_atom_site_type_symbol
_atom_site_label
_atom_site_fract_x
_atom_site_fract_y
_atom_site_fract_z
Si Si1 0.821731 0.924566 0.283360
Si Si2 0.188682 0.424585 0.431442
Si Si3 0.677858 0.423545 0.734107
Si Si4 0.165420 0.078135 0.060365
Si Si5 0.699080 0.576363 0.602672
Si Si6 0.662518 0.421966 0.959503
Si Si7 0.429963 0.923245 0.845545
Si Si8 0.929645 0.921019 0.179594
O O1 0.818126 0.750000 0.276722
O O2 0.839479 0.969332 0.359135
O O3 0.748582 0.985294 0.262378
O O4 0.878996 0.988567 0.234921
O O5 0.183854 0.250000 0.444659
O O6 0.146858 0.508862 0.488598
O O7 0.265272 0.482927 0.436094
O O8 0.681314 0.250000 0.720037
O O9 0.661074 0.506836 0.665431
O O10 0.619635 0.463515 0.785531
O O11 0.183144 0.250000 0.053524
O O12 0.100795 0.053115 0.106624
O O13 0.228304 0.997231 0.094021
O O14 0.709831 0.750000 0.612107
O O15 0.652544 0.544261 0.537733
O O16 0.663823 0.250000 0.943805
O O17 0.602611 0.487886 0.914164
O O18 0.442785 0.750000 0.850157
O O19 0.500000 0.000000 0.831706
O O20 0.941378 0.750000 0.194053
O O21 0.000000 0.000000 0.185779
#
# Coordination Sequence:
#
# PCOD8180832 Si02
#       8
#     8   8   8   8   8   8   8   8
#     4   9  16  32  56  78 101 137 178 215 262 320
#     4   9  16  30  55  80 101 129 174 219 259 311
#     4  10  18  33  56  78 105 141 178 217 266 317
#     4  10  19  33  52  76 107 138 170 214 267 319
#     4  10  19  31  53  81 106 131 172 225 266 310
#     4   8  15  30  51  74  99 133 171 208 255 308
#     4  10  20  35  55  76 104 143 179 216 263 320
#     4  10  21  36  54  75 104 143 181 217 263 321
#
# _framework density 17.645410999999999
#
# number of rings (size 3 to 8) (size 9 to 14) (size 15 to 20)
#    0.000    2.500    2.500    1.500    0.000    1.500 
#    0.000    5.625    0.000    6.000    0.000    0.000 
#    0.000    0.000    0.000    0.000    0.000    0.000 
#
# Total GULP energy -396699.087267 kJ/mol
# GULP energy per Si atom -12396.846477 kJ/mol
# Density = 1.760525 g / cm^3
# Si number density = 17.645411 Si / 1000 Ang^3
#
#
#
# Elastic Constant Matrix: (Units=GPa)
#
#
# Indices 1 2 3 4 5 6 
#
# 1 117.1881 42.4050 71.8735 0.0000 0.0000 0.0000
# 2 42.4050 54.4375 54.4918 0.0000 0.0000 0.0000
# 3 71.8735 54.4918 158.2546 0.0000 0.0000 0.0000
# 4 0.0000 0.0000 0.0000 29.7129 0.0000 0.0000
# 5 0.0000 0.0000 0.0000 0.0000 22.3977 0.0000
# 6 0.0000 0.0000 0.0000 0.0000 0.0000 26.2781
#
#
#
# Elastic Compliance Matrix: (Units=1/GPa)
#
#
# Indices 1 2 3 4 5 6 
#
# 1 0.013191 -0.006529 -0.003743 0.000000 0.000000 0.000000
# 2 -0.006529 0.031263 -0.007799 0.000000 0.000000 0.000000
# 3 -0.003743 -0.007799 0.010704 0.000000 0.000000 0.000000
# 4 0.000000 0.000000 0.000000 0.033655 0.000000 0.000000
# 5 0.000000 0.000000 0.000000 0.000000 0.044648 0.000000
# 6 0.000000 0.000000 0.000000 0.000000 0.000000 0.038055
#
#
# Mechanical properties :
#
#
# Convention : Reuss Voigt Hill
#
# Bulk Modulus (GPa) = 52.58773 74.15784 63.37279
# Shear Modulus (GPa) = 23.36473 26.41838 24.89156
#
# Velocity S-wave (km/s) = 3.64280 3.87354 3.75994
# Velocity P-wave (km/s) = 6.89641 7.88186 7.40555
#
# Compressibility (1/GPa) = 0.01901584
#
# Stress axis : x y z
#
# Youngs Moduli (GPa) = 75.80663 31.98685 93.41923
#
# Poissons Ratio (x) = 0.20884 0.34966
# Poissons Ratio (y) = 0.49494 0.72862
# Poissons Ratio (z) = 0.28374 0.24948
#
# Static dielectric constant tensor:
#      x y z
#    x 3.074280 0.000000 0.000000 
#    y 0.000000 3.049280 0.000000 
#    z 0.000000 0.000000 3.614200 
# 
# 
# High freq. dielectric constant tensor:
#      x y z
#    x 1.653750 0.000000 0.000000 
#    y 0.000000 1.657620 0.000000 
#    z 0.000000 0.000000 1.701110 
# 
# From -- ./inp_files/15038.got.cif
#   From: 2010.03.12/outbox.cif.g09.slc.cpg/sg39_8_cif.got.tgz:15038.got - 2010.04.14 02:53:20.
