data_PCOD8180495
_publ_section_title
;
Structure prediction by ZEFSAII (Michael W. Deem and Ramdas Pophale) SiO2 
 PCOD8180495
Probable space group: A M M 2
;
_chemical_formula_sum "Si O2"
_cell_formula_units_Z 64
_cell_length_a 20.416229
_cell_length_b 18.448906
_cell_length_c 9.305641
_cell_angle_alpha 90.000000
_cell_angle_beta 90.000000
_cell_angle_gamma 90.000000
_cell_volume 3505.035657
_symmetry_space_group_name_H-M "A M M 2"
_symmetry_group_IT_number 38
_symmetry_cell_setting 'orthorhombic'
loop_
_space_group_symop_operation_xyz
x,y,z
-x,-y,z
-x,y,z
x,-y,z
x,1/2+y,1/2+z
-x,1/2-y,1/2+z
-x,1/2+y,1/2+z
x,1/2-y,1/2+z
loop_
_atom_site_type_symbol
_atom_site_label
_atom_site_fract_x
_atom_site_fract_y
_atom_site_fract_z
Si Si1 0.321146 0.325544 0.657260
Si Si2 0.071685 0.586143 0.149100
Si Si3 0.195027 0.582747 0.319198
Si Si4 0.576129 0.916390 0.650696
Si Si5 0.928315 0.413857 0.824767
Si Si6 0.576129 0.416390 0.823171
Si Si7 0.321145 0.174456 0.816607
Si Si8 0.804973 0.417253 0.654670
O O1 0.385240 0.367171 0.711095
O O2 0.315408 0.250000 0.736933
O O3 0.326536 0.313988 0.486933
O O4 0.257869 0.371808 0.701777
O O5 0.072360 0.500000 0.157334
O O6 0.130449 0.617359 0.245762
O O7 0.000000 0.613894 0.202911
O O8 0.083548 0.612680 0.986934
O O9 0.206927 0.500000 0.269246
O O10 0.257869 0.628192 0.272091
O O11 0.182494 0.587146 0.486934
O O12 0.500000 0.899101 0.672011
O O13 0.597123 0.898539 0.486934
O O14 0.614761 0.867172 0.762773
O O15 0.590830 0.000000 0.685702
O O16 0.927641 0.500000 0.816534
O O17 0.869551 0.382642 0.728105
O O18 0.000000 0.386106 0.770957
O O19 0.500000 0.399104 0.801856
O O20 0.590832 0.500000 0.788166
O O21 0.793072 0.500000 0.704622
#
# Coordination Sequence:
#
# PCOD8180495 Si02
#       8
#     8   8   8   8   8   8   8   8
#     4  11  23  37  53  75 105 140 177 216 257 304
#     4   8  14  25  43  70 101 129 160 201 249 301
#     4   9  18  32  50  73 100 130 166 209 256 305
#     4   9  19  37  60  84 108 134 167 208 254 306
#     4   8  14  25  43  70 101 129 160 201 249 301
#     4   9  19  37  60  84 108 134 167 208 254 306
#     4  11  23  37  53  75 105 140 177 216 257 304
#     4   9  18  32  50  73 100 130 166 209 256 305
#
# _framework density 18.259443000000001
#
# number of rings (size 3 to 8) (size 9 to 14) (size 15 to 20)
#    0.000    2.750    0.000    3.000    0.000    5.000 
#    0.000    6.250    0.000    0.750    0.000    0.000 
#    0.000    0.000    0.000    0.000    0.000    0.000 
#
# Total GULP energy -396729.597441 kJ/mol
# GULP energy per Si atom -12397.799920 kJ/mol
# Density = 1.821788 g / cm^3
# Si number density = 18.259443 Si / 1000 Ang^3
#
#
#
# Elastic Constant Matrix: (Units=GPa)
#
#
# Indices 1 2 3 4 5 6 
#
# 1 135.4920 63.5603 68.3888 0.0000 0.0000 0.0000
# 2 63.5603 80.6152 50.6129 0.0000 0.0000 0.0000
# 3 68.3888 50.6129 78.7717 0.0000 0.0000 0.0000
# 4 0.0000 0.0000 0.0000 4.7944 0.0000 0.0000
# 5 0.0000 0.0000 0.0000 0.0000 38.8683 0.0000
# 6 0.0000 0.0000 0.0000 0.0000 0.0000 0.8478
#
#
#
# Elastic Compliance Matrix: (Units=1/GPa)
#
#
# Indices 1 2 3 4 5 6 
#
# 1 0.014681 -0.005989 -0.008898 0.000000 0.000000 0.000000
# 2 -0.005989 0.023235 -0.009730 0.000000 0.000000 0.000000
# 3 -0.008898 -0.009730 0.026672 0.000000 0.000000 0.000000
# 4 0.000000 0.000000 0.000000 0.208576 0.000000 0.000000
# 5 0.000000 0.000000 0.000000 0.000000 0.025728 0.000000
# 6 0.000000 0.000000 0.000000 0.000000 0.000000 1.179534
#
#
# Mechanical properties :
#
#
# Convention : Reuss Voigt Hill
#
# Bulk Modulus (GPa) = 65.12637 73.33367 69.23002
# Shear Modulus (GPa) = 3.26205 16.38990 9.82598
#
# Velocity S-wave (km/s) = 1.33805 2.99927 2.32228
# Velocity P-wave (km/s) = 6.17510 7.22796 6.72217
#
# Compressibility (1/GPa) = 0.01535476
#
# Stress axis : x y z
#
# Youngs Moduli (GPa) = 68.11485 43.03846 37.49272
#
# Poissons Ratio (x) = 0.25774 0.33361
# Poissons Ratio (y) = 0.40792 0.36480
# Poissons Ratio (z) = 0.60609 0.41876
#
# Static dielectric constant tensor:
#      x y z
#    x 3.672770 0.000000 0.000000 
#    y 0.000000 3.128590 0.000000 
#    z 0.000000 0.000000 3.359440 
# 
# 
# High freq. dielectric constant tensor:
#      x y z
#    x 1.723040 0.000000 0.000000 
#    y 0.000000 1.675260 0.000000 
#    z 0.000000 0.000000 1.706240 
# 
# From -- ./inp_files/6880.got.cif
#   From: 2010.03.12/outbox.cif.g09.slc.cpg/sg38_4_cif.got.tgz:6880.got - 2010.04.14 02:38:36.
