data_PCOD8180974
_publ_section_title
;
Structure prediction by ZEFSAII (Michael W. Deem and Ramdas Pophale) SiO2 
 PCOD8180974
Probable space group: A B M 2
;
_chemical_formula_sum "Si O2"
_cell_formula_units_Z 64
_cell_length_a 20.895752
_cell_length_b 9.072237
_cell_length_c 18.794658
_cell_angle_alpha 90.000000
_cell_angle_beta 90.000000
_cell_angle_gamma 90.000000
_cell_volume 3562.926142
_symmetry_space_group_name_H-M "A B M 2"
_symmetry_group_IT_number 39
_symmetry_cell_setting 'orthorhombic'
loop_
_space_group_symop_operation_xyz
x,y,z
-x,-y,z
-x,1/2+y,z
x,1/2-y,z
x,1/2+y,1/2+z
-x,1/2-y,1/2+z
-x,y,1/2+z
x,-y,1/2+z
loop_
_atom_site_type_symbol
_atom_site_label
_atom_site_fract_x
_atom_site_fract_y
_atom_site_fract_z
Si Si1 0.437618 0.582365 0.101760
Si Si2 0.558828 0.412531 0.932043
Si Si3 0.064606 0.420510 0.684961
Si Si4 0.166600 0.080183 0.444716
Si Si5 0.936295 0.580970 0.852948
Si Si6 0.314336 0.419267 0.096340
Si Si7 0.171946 0.923497 0.596170
Si Si8 0.307211 0.581559 0.953003
O O1 0.500000 0.500000 0.133054
O O2 0.441308 0.750000 0.126964
O O3 0.371528 0.512859 0.132882
O O4 0.436871 0.565064 0.016800
O O5 0.500000 0.500000 0.897436
O O6 0.540224 0.250000 0.910285
O O7 0.630495 0.453038 0.902752
O O8 0.063472 0.250000 0.660583
O O9 0.071392 0.434261 0.769083
O O10 0.124260 0.506261 0.652590
O O11 0.000000 0.500000 0.658276
O O12 0.144787 0.250000 0.451524
O O13 0.239214 0.070419 0.413236
O O14 0.124043 0.995800 0.388325
O O15 0.161712 0.005733 0.521626
O O16 0.940043 0.750000 0.877247
O O17 0.000000 0.500000 0.880127
O O18 0.334645 0.250000 0.102487
O O19 0.243507 0.448025 0.128789
O O20 0.306929 0.461074 0.014277
O O21 0.158236 0.750000 0.585598
O O22 0.316012 0.750000 0.983594
#
# Coordination Sequence:
#
# PCOD8180974 Si02
#       8
#     8   8   8   8   8   8   8   8
#     4   9  15  22  33  50  76 112 152 191 229 274
#     4   8  13  20  30  47  73 107 146 183 219 261
#     4  10  21  37  56  75  97 125 157 195 239 288
#     4  10  19  32  51  73  98 129 163 198 239 286
#     4  10  21  37  55  75  98 124 156 195 239 287
#     4   9  16  25  38  58  85 117 151 189 232 276
#     4  10  20  33  50  73 101 130 162 200 240 286
#     4   8  15  26  38  55  83 118 152 187 228 274
#
# _framework density 17.962764
#
# number of rings (size 3 to 8) (size 9 to 14) (size 15 to 20)
#    0.000    2.750    0.000    3.000    0.000    7.000 
#    0.000    2.500    0.000    0.000    0.000    0.000 
#    0.000    1.000    0.000    4.500    0.000   12.750 
#
# Total GULP energy -396490.973812 kJ/mol
# GULP energy per Si atom -12390.342932 kJ/mol
# Density = 1.792188 g / cm^3
# Si number density = 17.962764 Si / 1000 Ang^3
#
#
#
# Elastic Constant Matrix: (Units=GPa)
#
#
# Indices 1 2 3 4 5 6 
#
# 1 176.8104 90.6891 26.5784 0.0000 0.0000 0.0000
# 2 90.6891 144.3811 22.7485 0.0000 0.0000 0.0000
# 3 26.5784 22.7485 13.6195 0.0000 0.0000 0.0000
# 4 0.0000 0.0000 0.0000 18.9440 0.0000 0.0000
# 5 0.0000 0.0000 0.0000 0.0000 -1.0508 0.0000
# 6 0.0000 0.0000 0.0000 0.0000 0.0000 37.9521
#
#
#
# Elastic Compliance Matrix: (Units=1/GPa)
#
#
# Indices 1 2 3 4 5 6 
#
# 1 0.009542 -0.004153 -0.011686 0.000000 0.000000 0.000000
# 2 -0.004153 0.011207 -0.010615 0.000000 0.000000 0.000000
# 3 -0.011686 -0.010615 0.113960 0.000000 0.000000 0.000000
# 4 0.000000 0.000000 0.000000 0.052787 0.000000 0.000000
# 5 0.000000 0.000000 0.000000 0.000000 -0.951638 0.000000
# 6 0.000000 0.000000 0.000000 0.000000 0.000000 0.026349
#
#
# Mechanical properties :
#
#
# Convention : Reuss Voigt Hill
#
# Bulk Modulus (GPa) = 12.22469 68.31589 40.27029
# Shear Modulus (GPa) = -7.60319 24.15540 8.27611
#
# Velocity S-wave (km/s) = -2.05960 3.67106 2.14881
# Velocity P-wave (km/s) = 1.07909 7.48889 5.35013
#
# Compressibility (1/GPa) = 0.08180166
#
# Stress axis : x y z
#
# Youngs Moduli (GPa) = 104.79630 89.23043 8.77504
#
# Poissons Ratio (x) = 0.37053 0.10254
# Poissons Ratio (y) = 0.43517 0.09315
# Poissons Ratio (z) = 1.22463 0.94720
#
# Static dielectric constant tensor:
#      x y z
#    x 3.892950 0.000000 0.000000 
#    y 0.000000 3.513700 0.000000 
#    z 0.000000 0.000000 2.619380 
# 
# 
# High freq. dielectric constant tensor:
#      x y z
#    x 1.726050 0.000000 0.000000 
#    y 0.000000 1.712760 0.000000 
#    z 0.000000 0.000000 1.612420 
# 
# From -- ./inp_files/15027.got.cif
#   From: 2010.03.12/outbox.cif.g09.slc.cpg/sg39_8_cif.got.tgz:15027.got - 2010.04.14 02:53:20.
