data_PCOD8180097
_publ_section_title
;
Structure prediction by ZEFSAII (Michael W. Deem and Ramdas Pophale) SiO2 
 PCOD8180097
Probable space group: A M M 2
;
_chemical_formula_sum "Si O2"
_cell_formula_units_Z 64
_cell_length_a 9.107487
_cell_length_b 14.624105
_cell_length_c 24.157589
_cell_angle_alpha 90.000000
_cell_angle_beta 90.000000
_cell_angle_gamma 90.000000
_cell_volume 3217.521405
_symmetry_space_group_name_H-M "A M M 2"
_symmetry_group_IT_number 38
_symmetry_cell_setting 'orthorhombic'
loop_
_space_group_symop_operation_xyz
x,y,z
-x,-y,z
-x,y,z
x,-y,z
x,1/2+y,1/2+z
-x,1/2-y,1/2+z
-x,1/2+y,1/2+z
x,1/2-y,1/2+z
loop_
_atom_site_type_symbol
_atom_site_label
_atom_site_fract_x
_atom_site_fract_y
_atom_site_fract_z
Si Si1 0.325756 0.600494 0.322280
Si Si2 0.826001 0.257798 0.001299
Si Si3 0.673806 0.225982 0.387789
Si Si4 0.837303 0.891584 0.174803
Si Si5 0.670907 0.392903 0.566875
Si Si6 0.830256 0.392604 0.798027
Si Si7 0.828036 0.896543 0.596178
Si Si8 0.337652 0.391404 0.202068
O O1 0.500000 0.594452 0.316749
O O2 0.262628 0.500000 0.338112
O O3 0.278817 0.672126 0.368908
O O4 0.267353 0.634037 0.261949
O O5 0.759000 0.293545 0.944118
O O6 0.000000 0.247237 0.995874
O O7 0.756922 0.160739 0.018852
O O8 0.778514 0.334575 0.045172
O O9 0.500000 0.217372 0.396874
O O10 0.722948 0.154614 0.341451
O O11 0.725487 0.858918 0.127295
O O12 0.787873 0.857861 0.235912
O O13 0.000000 0.853513 0.160215
O O14 0.844266 0.000000 0.177031
O O15 0.500000 0.370660 0.561836
O O16 0.703424 0.500000 0.558223
O O17 0.803617 0.500000 0.803552
O O18 0.000000 0.368506 0.810586
O O19 0.761625 0.853136 0.652305
O O20 0.000000 0.895537 0.604095
O O21 0.771412 0.000000 0.585351
O O22 0.500000 0.348921 0.195218
O O23 0.345484 0.500000 0.198610
#
# Coordination Sequence:
#
# PCOD8180097 Si02
#       8
#     8   8   8   8   8   8   8   8
#     4   8  16  33  55  78 107 141 171 205 260 325
#     4  11  24  40  56  76 106 147 191 229 270 327
#     4  11  23  37  55  81 109 140 185 236 278 319
#     4   8  15  31  56  84 112 143 180 220 268 332
#     4  10  21  37  58  84 113 144 179 226 282 331
#     4   9  19  37  59  81 110 149 185 220 271 333
#     4   9  19  36  56  78 105 137 173 216 266 316
#     4   8  14  28  53  82 108 135 168 206 255 319
#
# _framework density 19.891086999999999
#
# number of rings (size 3 to 8) (size 9 to 14) (size 15 to 20)
#    0.000    2.750    0.000    2.625    0.000    4.500 
#    0.000    7.500    0.000    2.625    0.000    0.000 
#    0.000    0.000    0.000    0.000    0.000    0.000 
#
# Total GULP energy -396710.367054 kJ/mol
# GULP energy per Si atom -12397.198970 kJ/mol
# Density = 1.984581 g / cm^3
# Si number density = 19.891087 Si / 1000 Ang^3
#
#
#
# Elastic Constant Matrix: (Units=GPa)
#
#
# Indices 1 2 3 4 5 6 
#
# 1 58.1748 16.2926 25.6523 0.0000 0.0000 0.0000
# 2 16.2926 38.3993 6.1086 0.0000 0.0000 0.0000
# 3 25.6523 6.1086 80.5136 0.0000 0.0000 0.0000
# 4 0.0000 0.0000 0.0000 32.2268 0.0000 0.0000
# 5 0.0000 0.0000 0.0000 0.0000 26.8323 0.0000
# 6 0.0000 0.0000 0.0000 0.0000 0.0000 24.9066
#
#
#
# Elastic Compliance Matrix: (Units=1/GPa)
#
#
# Indices 1 2 3 4 5 6 
#
# 1 0.022433 -0.008484 -0.006504 0.000000 0.000000 0.000000
# 2 -0.008484 0.029569 0.000460 0.000000 0.000000 0.000000
# 3 -0.006504 0.000460 0.014458 0.000000 0.000000 0.000000
# 4 0.000000 0.000000 0.000000 0.031030 0.000000 0.000000
# 5 0.000000 0.000000 0.000000 0.000000 0.037269 0.000000
# 6 0.000000 0.000000 0.000000 0.000000 0.000000 0.040150
#
#
# Mechanical properties :
#
#
# Convention : Reuss Voigt Hill
#
# Bulk Modulus (GPa) = 26.73531 30.35497 28.54514
# Shear Modulus (GPa) = 23.10195 25.39541 24.24868
#
# Velocity S-wave (km/s) = 3.41166 3.57700 3.49531
# Velocity P-wave (km/s) = 5.38417 5.68803 5.53818
#
# Compressibility (1/GPa) = 0.03740372
#
# Stress axis : x y z
#
# Youngs Moduli (GPa) = 44.57634 33.81969 69.16799
#
# Poissons Ratio (x) = 0.28692 0.44986
# Poissons Ratio (y) = 0.37817 -0.03179
# Poissons Ratio (z) = 0.28992 -0.01554
#
# Static dielectric constant tensor:
#      x y z
#    x 3.520850 0.000000 0.000000 
#    y 0.000000 3.717520 0.000000 
#    z 0.000000 0.000000 3.754950 
# 
# 
# High freq. dielectric constant tensor:
#      x y z
#    x 1.759810 0.000000 0.000000 
#    y 0.000000 1.768340 0.000000 
#    z 0.000000 0.000000 1.779690 
# 
# From -- ./inp_files/22159.got.cif
#   From: 2010.03.12/outbox.cif.g09.slc.cpg/sg38_12_cif.got.tgz:22159.got - 2010.04.14 02:38:36.
