data_PCOD8180122
_publ_section_title
;
Structure prediction by ZEFSAII (Michael W. Deem and Ramdas Pophale) SiO2 
 PCOD8180122
Probable space group: A M M 2
;
_chemical_formula_sum "Si O2"
_cell_formula_units_Z 48
_cell_length_a 8.946114
_cell_length_b 16.548066
_cell_length_c 17.057410
_cell_angle_alpha 90.000000
_cell_angle_beta 90.000000
_cell_angle_gamma 90.000000
_cell_volume 2525.194071
_symmetry_space_group_name_H-M "A M M 2"
_symmetry_group_IT_number 38
_symmetry_cell_setting 'orthorhombic'
loop_
_space_group_symop_operation_xyz
x,y,z
-x,-y,z
-x,y,z
x,-y,z
x,1/2+y,1/2+z
-x,1/2-y,1/2+z
-x,1/2+y,1/2+z
x,1/2-y,1/2+z
loop_
_atom_site_type_symbol
_atom_site_label
_atom_site_fract_x
_atom_site_fract_y
_atom_site_fract_z
Si Si1 0.673271 0.905164 0.804490
Si Si2 0.674638 0.639487 0.611865
Si Si3 0.326767 0.823519 0.644190
Si Si4 0.175694 0.648136 0.986841
Si Si5 0.822260 0.500000 0.885706
Si Si6 0.177676 0.000000 0.208394
Si Si7 0.176061 0.329169 0.453286
O O1 0.500000 0.885267 0.821416
O O2 0.729255 0.861995 0.725277
O O3 0.774059 0.870885 0.873657
O O4 0.700532 0.000000 0.795724
O O5 0.500000 0.618865 0.610014
O O6 0.707870 0.728384 0.645020
O O7 0.759721 0.579837 0.668901
O O8 0.739005 0.627719 0.524723
O O9 0.500000 0.841303 0.631539
O O10 0.242115 0.866212 0.572880
O O11 0.240135 0.579729 0.929076
O O12 0.221846 0.734851 0.951292
O O13 0.000000 0.640546 0.995359
O O14 0.763188 0.500000 0.797314
O O15 0.000000 0.500000 0.886569
O O16 0.000000 0.000000 0.202864
O O17 0.000000 0.340659 0.465168
#
# Coordination Sequence:
#
# PCOD8180122 Si02
#       7
#     8   8   8   8   4   4   8
#     4  10  22  38  57  82 115 150 185 230 284 334
#     4  10  21  39  60  82 114 150 187 231 285 337
#     4   9  20  38  59  84 112 148 188 230 280 337
#     4   9  19  37  59  83 112 148 185 228 281 336
#     4   9  20  37  57  84 117 148 181 227 284 335
#     4  11  23  37  59  86 115 148 189 233 278 333
#     4  10  21  37  59  85 112 146 191 234 279 335
#
# _framework density 19.008438999999999
#
# number of rings (size 3 to 8) (size 9 to 14) (size 15 to 20)
#    0.000    2.333    0.000    1.250    4.667    2.333 
#    0.000    1.667    0.000    0.000    0.000    0.000 
#    0.000    0.000    0.000    0.000    0.000    0.000 
#
# Total GULP energy -297687.130255 kJ/mol
# GULP energy per Si atom -12403.630427 kJ/mol
# Density = 1.896518 g / cm^3
# Si number density = 19.008439 Si / 1000 Ang^3
#
#
#
# Elastic Constant Matrix: (Units=GPa)
#
#
# Indices 1 2 3 4 5 6 
#
# 1 63.1467 40.5604 53.2828 0.0000 0.0000 0.0000
# 2 40.5604 100.8699 83.9538 0.0000 0.0000 0.0000
# 3 53.2828 83.9538 172.4911 0.0000 0.0000 0.0000
# 4 0.0000 0.0000 0.0000 35.5454 0.0000 0.0000
# 5 0.0000 0.0000 0.0000 0.0000 34.3649 0.0000
# 6 0.0000 0.0000 0.0000 0.0000 0.0000 23.8366
#
#
#
# Elastic Compliance Matrix: (Units=1/GPa)
#
#
# Indices 1 2 3 4 5 6 
#
# 1 0.023190 -0.005652 -0.004412 0.000000 0.000000 0.000000
# 2 -0.005652 0.018042 -0.007035 0.000000 0.000000 0.000000
# 3 -0.004412 -0.007035 0.010585 0.000000 0.000000 0.000000
# 4 0.000000 0.000000 0.000000 0.028133 0.000000 0.000000
# 5 0.000000 0.000000 0.000000 0.000000 0.029099 0.000000
# 6 0.000000 0.000000 0.000000 0.000000 0.000000 0.041952
#
#
# Mechanical properties :
#
#
# Convention : Reuss Voigt Hill
#
# Bulk Modulus (GPa) = 56.76506 76.90019 66.83262
# Shear Modulus (GPa) = 26.16795 29.33011 27.74903
#
# Velocity S-wave (km/s) = 3.71435 3.93237 3.82491
# Velocity P-wave (km/s) = 6.95148 7.82059 7.39881
#
# Compressibility (1/GPa) = 0.01761647
#
# Stress axis : x y z
#
# Youngs Moduli (GPa) = 43.12229 55.42595 94.47766
#
# Poissons Ratio (x) = 0.31329 0.41686
# Poissons Ratio (y) = 0.24375 0.66468
# Poissons Ratio (z) = 0.19027 0.38994
#
# Static dielectric constant tensor:
#      x y z
#    x 3.383990 0.000000 0.000000 
#    y 0.000000 3.649930 0.000000 
#    z 0.000000 0.000000 3.629560 
# 
# 
# High freq. dielectric constant tensor:
#      x y z
#    x 1.731350 0.000000 0.000000 
#    y 0.000000 1.746840 0.000000 
#    z 0.000000 0.000000 1.747670 
# 
# From -- ./inp_files/12075.got.cif
#   From: 2010.03.12/outbox.cif.g09.slc.cpg/sg38_7_cif.got.tgz:12075.got - 2010.04.14 02:38:36.
