data_PCOD8180121
_publ_section_title
;
Structure prediction by ZEFSAII (Michael W. Deem and Ramdas Pophale) SiO2 
 PCOD8180121
Probable space group: A M M 2
;
_chemical_formula_sum "Si O2"
_cell_formula_units_Z 44
_cell_length_a 14.647338
_cell_length_b 17.298418
_cell_length_c 9.115051
_cell_angle_alpha 90.000000
_cell_angle_beta 90.000000
_cell_angle_gamma 90.000000
_cell_volume 2309.533114
_symmetry_space_group_name_H-M "A M M 2"
_symmetry_group_IT_number 38
_symmetry_cell_setting 'orthorhombic'
loop_
_space_group_symop_operation_xyz
x,y,z
-x,-y,z
-x,y,z
x,-y,z
x,1/2+y,1/2+z
-x,1/2-y,1/2+z
-x,1/2+y,1/2+z
x,1/2-y,1/2+z
loop_
_atom_site_type_symbol
_atom_site_label
_atom_site_fract_x
_atom_site_fract_y
_atom_site_fract_z
Si Si1 0.000000 0.409964 0.285931
Si Si2 0.500000 0.210588 0.743947
Si Si3 0.500000 0.912051 0.002448
Si Si4 0.625604 0.855049 0.243837
Si Si5 0.500000 0.087941 0.485271
Si Si6 0.000000 0.909775 0.114043
Si Si7 0.166354 0.167543 0.269799
Si Si8 0.898192 0.806008 0.593461
O O1 0.000000 0.373347 0.449773
O O2 0.000000 0.500000 0.291870
O O3 0.910279 0.382020 0.195675
O O4 0.500000 0.153956 0.881140
O O5 0.589631 0.265869 0.744510
O O6 0.500000 0.154294 0.606170
O O7 0.500000 0.000000 0.939093
O O8 0.589997 0.899364 0.100214
O O9 0.589880 0.899601 0.387219
O O10 0.733625 0.864831 0.241964
O O11 0.500000 0.000000 0.549018
O O12 0.909689 0.888313 0.203451
O O13 0.000000 0.000000 0.094732
O O14 0.151482 0.175009 0.443011
O O15 0.163152 0.249040 0.188149
O O16 0.000000 0.769430 0.564730
#
# Coordination Sequence:
#
# PCOD8180121 Si02
#       8
#     4   4   4   8   4   4   8   8
#     4   9  20  41  60  77 115 163 202 247 296 347
#     4  10  21  40  63  94 114 156 196 254 293 364
#     4  10  21  42  63  88 122 154 192 248 309 362
#     4  10  22  38  65  86 121 156 205 239 300 360
#     4  10  21  42  63  88 120 154 194 248 309 360
#     4  11  22  39  58  85 121 163 202 243 294 351
#     4  12  23  37  61  88 119 155 200 253 288 355
#     4  10  21  37  59  84 115 155 202 243 297 336
#
# _framework density 19.051468
#
# number of rings (size 3 to 8) (size 9 to 14) (size 15 to 20)
#    0.545    1.273    1.818    4.636    5.091    2.909 
#    0.000    0.000    0.000    0.000    0.000    0.000 
#    0.000    0.000    0.000    0.000    0.000    0.000 
#
# Total GULP energy -272672.806214 kJ/mol
# GULP energy per Si atom -12394.218464 kJ/mol
# Density = 1.900811 g / cm^3
# Si number density = 19.051468 Si / 1000 Ang^3
#
#
#
# Elastic Constant Matrix: (Units=GPa)
#
#
# Indices 1 2 3 4 5 6 
#
# 1 147.3372 24.1341 33.0904 0.0000 0.0000 0.0000
# 2 24.1341 100.0338 37.1501 0.0000 0.0000 0.0000
# 3 33.0904 37.1501 109.3973 0.0000 0.0000 0.0000
# 4 0.0000 0.0000 0.0000 26.4826 0.0000 0.0000
# 5 0.0000 0.0000 0.0000 0.0000 -30.1455 0.0000
# 6 0.0000 0.0000 0.0000 0.0000 0.0000 -10.9619
#
#
#
# Elastic Compliance Matrix: (Units=1/GPa)
#
#
# Indices 1 2 3 4 5 6 
#
# 1 0.007384 -0.001089 -0.001864 0.000000 0.000000 0.000000
# 2 -0.001089 0.011600 -0.003610 0.000000 0.000000 0.000000
# 3 -0.001864 -0.003610 0.010931 0.000000 0.000000 0.000000
# 4 0.000000 0.000000 0.000000 0.037761 0.000000 0.000000
# 5 0.000000 0.000000 0.000000 0.000000 -0.033172 0.000000
# 6 0.000000 0.000000 0.000000 0.000000 0.000000 -0.091225
#
#
# Mechanical properties :
#
#
# Convention : Reuss Voigt Hill
#
# Bulk Modulus (GPa) = 59.56196 60.61305 60.08751
# Shear Modulus (GPa) = -131.57715 14.56796 -58.50459
#
# Velocity S-wave (km/s) = -8.31949 2.76826 -5.54756
# Velocity P-wave (km/s) = 7.80729 6.48862 3.07015
#
# Compressibility (1/GPa) = 0.01678924
#
# Stress axis : x y z
#
# Youngs Moduli (GPa) = 135.42537 86.20685 91.48697
#
# Poissons Ratio (x) = 0.09391 0.17050
# Poissons Ratio (y) = 0.14753 0.33024
# Poissons Ratio (z) = 0.25238 0.31118
#
# Static dielectric constant tensor:
#      x y z
#    x 3.254930 0.000000 0.000000 
#    y 0.000000 3.445490 0.000000 
#    z 0.000000 0.000000 3.772660 
# 
# 
# High freq. dielectric constant tensor:
#      x y z
#    x 1.719090 0.000000 0.000000 
#    y 0.000000 1.742930 0.000000 
#    z 0.000000 0.000000 1.755220 
# 
# From -- ./inp_files/5438.got.cif
#   From: 2010.03.12/outbox.cif.g09.slc.cpg/sg38_3_cif.got.tgz:5438.got - 2010.04.14 02:38:36.
