data_PCOD8180112
_publ_section_title
;
Structure prediction by ZEFSAII (Michael W. Deem and Ramdas Pophale) SiO2 
 PCOD8180112
Probable space group: A M M 2
;
_chemical_formula_sum "Si O2"
_cell_formula_units_Z 48
_cell_length_a 18.843808
_cell_length_b 7.569312
_cell_length_c 15.899791
_cell_angle_alpha 90.000000
_cell_angle_beta 90.000000
_cell_angle_gamma 90.000000
_cell_volume 2267.861315
_symmetry_space_group_name_H-M "A M M 2"
_symmetry_group_IT_number 38
_symmetry_cell_setting 'orthorhombic'
loop_
_space_group_symop_operation_xyz
x,y,z
-x,-y,z
-x,y,z
x,-y,z
x,1/2+y,1/2+z
-x,1/2-y,1/2+z
-x,1/2+y,1/2+z
x,1/2-y,1/2+z
loop_
_atom_site_type_symbol
_atom_site_label
_atom_site_fract_x
_atom_site_fract_y
_atom_site_fract_z
Si Si1 0.580003 0.500000 0.371410
Si Si2 0.163651 0.295578 0.873333
Si Si3 0.683378 0.203707 0.622167
Si Si4 0.579340 0.000000 0.069369
Si Si5 0.316560 0.794414 0.309819
Si Si6 0.167735 0.710028 0.058845
Si Si7 0.077958 0.201039 0.712404
O O1 0.500000 0.500000 0.334770
O O2 0.578743 0.500000 0.470384
O O3 0.617945 0.321322 0.341585
O O4 0.146613 0.500000 0.862471
O O5 0.247673 0.259758 0.866985
O O6 0.119477 0.201314 0.800607
O O7 0.140168 0.227888 0.966569
O O8 0.615811 0.322116 0.601805
O O9 0.705847 0.229248 0.718214
O O10 0.750671 0.270816 0.568430
O O11 0.663868 0.000000 0.603242
O O12 0.500000 0.000000 0.106262
O O13 0.339352 0.000000 0.311050
O O14 0.166867 0.500000 0.065044
O O15 0.120459 0.793233 0.134693
O O16 0.000000 0.290810 0.721910
O O17 0.067407 0.000000 0.686309
#
# Coordination Sequence:
#
# PCOD8180112 Si02
#       7
#     4   8   8   4   8   8   8
#     4  11  26  44  64  94 130 172 211 256 332 390
#     4  10  21  37  61  90 118 156 208 260 313 367
#     4  11  21  40  66  93 123 164 215 267 312 374
#     4  11  26  44  62  94 132 164 209 264 324 386
#     4  11  22  40  65  97 126 161 217 272 310 375
#     4   9  19  37  61  87 117 158 209 255 308 373
#     4  10  21  37  58  86 122 159 200 251 309 376
#
# _framework density 21.165316000000001
#
# number of rings (size 3 to 8) (size 9 to 14) (size 15 to 20)
#    0.000    1.667    3.333    1.000    1.167    4.333 
#    1.500    3.333    0.000    0.000    0.000    0.000 
#    0.000    0.000    0.000    0.000    0.000    0.000 
#
# Total GULP energy -297536.361104 kJ/mol
# GULP energy per Si atom -12397.348379 kJ/mol
# Density = 2.111714 g / cm^3
# Si number density = 21.165316 Si / 1000 Ang^3
#
#
#
# Elastic Constant Matrix: (Units=GPa)
#
#
# Indices 1 2 3 4 5 6 
#
# 1 143.3340 45.8515 56.2621 0.0000 0.0000 0.0000
# 2 45.8515 88.2653 11.4358 0.0000 0.0000 0.0000
# 3 56.2621 11.4358 140.0531 0.0000 0.0000 0.0000
# 4 0.0000 0.0000 0.0000 20.2998 0.0000 0.0000
# 5 0.0000 0.0000 0.0000 0.0000 26.9238 0.0000
# 6 0.0000 0.0000 0.0000 0.0000 0.0000 18.6761
#
#
#
# Elastic Compliance Matrix: (Units=1/GPa)
#
#
# Indices 1 2 3 4 5 6 
#
# 1 0.009877 -0.004666 -0.003587 0.000000 0.000000 0.000000
# 2 -0.004666 0.013655 0.000760 0.000000 0.000000 0.000000
# 3 -0.003587 0.000760 0.008519 0.000000 0.000000 0.000000
# 4 0.000000 0.000000 0.000000 0.049262 0.000000 0.000000
# 5 0.000000 0.000000 0.000000 0.000000 0.037142 0.000000
# 6 0.000000 0.000000 0.000000 0.000000 0.000000 0.053544
#
#
# Mechanical properties :
#
#
# Convention : Reuss Voigt Hill
#
# Bulk Modulus (GPa) = 58.60218 66.52791 62.56504
# Shear Modulus (GPa) = 25.95044 30.38680 28.16862
#
# Velocity S-wave (km/s) = 3.50535 3.79316 3.65209
# Velocity P-wave (km/s) = 6.64313 7.11933 6.88535
#
# Compressibility (1/GPa) = 0.01706421
#
# Stress axis : x y z
#
# Youngs Moduli (GPa) = 101.24137 73.23272 117.38383
#
# Poissons Ratio (x) = 0.34173 0.42105
# Poissons Ratio (y) = 0.47242 -0.08916
# Poissons Ratio (z) = 0.36314 -0.05563
#
# Static dielectric constant tensor:
#      x y z
#    x 3.994680 0.000000 0.000000 
#    y 0.000000 3.651140 0.000000 
#    z 0.000000 0.000000 4.035010 
# 
# 
# High freq. dielectric constant tensor:
#      x y z
#    x 1.820690 0.000000 0.000000 
#    y 0.000000 1.819490 0.000000 
#    z 0.000000 0.000000 1.842530 
# 
# From -- ./inp_files/14984.got.cif
#   From: 2010.03.12/outbox.cif.g09.slc.cpg/sg38_8_cif.got.tgz:14984.got - 2010.04.14 02:38:36.
