data_PCOD8180658
_publ_section_title
;
Structure prediction by ZEFSAII (Michael W. Deem and Ramdas Pophale) SiO2 
 PCOD8180658
Probable space group: A B M 2
;
_chemical_formula_sum "Si O2"
_cell_formula_units_Z 48
_cell_length_a 9.986200
_cell_length_b 8.759685
_cell_length_c 30.664595
_cell_angle_alpha 90.000000
_cell_angle_beta 90.000000
_cell_angle_gamma 90.000000
_cell_volume 2682.415080
_symmetry_space_group_name_H-M "A B M 2"
_symmetry_group_IT_number 39
_symmetry_cell_setting 'orthorhombic'
loop_
_space_group_symop_operation_xyz
x,y,z
-x,-y,z
-x,1/2+y,z
x,1/2-y,z
x,1/2+y,1/2+z
-x,1/2-y,1/2+z
-x,y,1/2+z
x,-y,1/2+z
loop_
_atom_site_type_symbol
_atom_site_label
_atom_site_fract_x
_atom_site_fract_y
_atom_site_fract_z
Si Si1 0.644226 0.926593 0.001000
Si Si2 0.139009 0.930096 0.159866
Si Si3 0.645841 0.072610 0.597232
Si Si4 0.646160 0.931217 0.828621
Si Si5 0.648430 0.068849 0.916609
Si Si6 0.862401 0.070769 0.258950
O O1 0.630597 0.750000 0.988416
O O2 0.711043 0.948226 0.048677
O O3 0.500000 0.000000 0.005796
O O4 0.723197 0.012289 0.961231
O O5 0.130125 0.750000 0.155662
O O6 0.165958 0.983164 0.209558
O O7 0.259816 0.990205 0.131273
O O8 0.000000 0.000000 0.142713
O O9 0.633713 0.250000 0.608997
O O10 0.500000 0.000000 0.600839
O O11 0.634649 0.750000 0.832766
O O12 0.739409 0.984050 0.788759
O O13 0.500000 0.000000 0.820162
O O14 0.713606 0.999255 0.872802
O O15 0.647832 0.250000 0.913878
O O16 0.500000 0.000000 0.919118
O O17 0.879183 0.250000 0.261578
O O18 0.000000 0.000000 0.276811
#
# Coordination Sequence:
#
# PCOD8180658 Si02
#       6
#     8   8   8   8   8   8
#     4   9  16  27  44  67  97 130 163 199 241 289
#     4  10  20  36  55  75 100 132 170 208 250 302
#     4  10  20  33  51  77 105 134 168 208 253 297
#     4  10  19  32  49  73 102 130 163 203 246 289
#     4  10  17  26  43  68  97 129 163 198 241 289
#     4   9  20  36  54  74  97 129 167 204 245 296
#
# _framework density 17.89432
#
# number of rings (size 3 to 8) (size 9 to 14) (size 15 to 20)
#    0.000    2.333    0.000    5.500    0.000    4.667 
#    0.000    1.667    0.000    1.000    0.000    4.667 
#    0.000    0.000    0.000    0.000    0.000    0.000 
#
# Total GULP energy -297458.944916 kJ/mol
# GULP energy per Si atom -12394.122705 kJ/mol
# Density = 1.785359 g / cm^3
# Si number density = 17.894320 Si / 1000 Ang^3
#
#
#
# Elastic Constant Matrix: (Units=GPa)
#
#
# Indices 1 2 3 4 5 6 
#
# 1 78.2987 36.8366 64.7105 0.0000 0.0000 0.0000
# 2 36.8366 105.3675 54.1632 0.0000 0.0000 0.0000
# 3 64.7105 54.1632 129.5917 0.0000 0.0000 0.0000
# 4 0.0000 0.0000 0.0000 28.9373 0.0000 0.0000
# 5 0.0000 0.0000 0.0000 0.0000 -0.1327 0.0000
# 6 0.0000 0.0000 0.0000 0.0000 0.0000 25.6309
#
#
#
# Elastic Compliance Matrix: (Units=1/GPa)
#
#
# Indices 1 2 3 4 5 6 
#
# 1 0.022308 -0.002640 -0.010036 0.000000 0.000000 0.000000
# 2 -0.002640 0.012400 -0.003864 0.000000 0.000000 0.000000
# 3 -0.010036 -0.003864 0.014343 0.000000 0.000000 0.000000
# 4 0.000000 0.000000 0.000000 0.034557 0.000000 0.000000
# 5 0.000000 0.000000 0.000000 0.000000 -7.535555 0.000000
# 6 0.000000 0.000000 0.000000 0.000000 0.000000 0.039015
#
#
# Mechanical properties :
#
#
# Convention : Reuss Voigt Hill
#
# Bulk Modulus (GPa) = 62.61584 69.40872 66.01228
# Shear Modulus (GPa) = -0.67801 21.39029 10.35614
#
# Velocity S-wave (km/s) = -0.61621 3.46116 2.40831
# Velocity P-wave (km/s) = 5.87892 7.40575 6.68606
#
# Compressibility (1/GPa) = 0.01597040
#
# Stress axis : x y z
#
# Youngs Moduli (GPa) = 44.82745 80.64542 69.72079
#
# Poissons Ratio (x) = 0.21291 0.69970
# Poissons Ratio (y) = 0.11835 0.26942
# Poissons Ratio (z) = 0.44988 0.31164
#
# Static dielectric constant tensor:
#      x y z
#    x 2.953430 0.000000 0.000000 
#    y 0.000000 3.418290 0.000000 
#    z 0.000000 0.000000 4.296140 
# 
# 
# High freq. dielectric constant tensor:
#      x y z
#    x 1.640680 0.000000 0.000000 
#    y 0.000000 1.709830 0.000000 
#    z 0.000000 0.000000 1.714560 
# 
# From -- ./inp_files/16909.got.cif
#   From: 2010.03.12/outbox.cif.g09.slc.cpg/sg39_9_cif.got.tgz:16909.got - 2010.04.14 02:53:20.
