data_PCOD8180099
_publ_section_title
;
Structure prediction by ZEFSAII (Michael W. Deem and Ramdas Pophale) SiO2 
 PCOD8180099
Probable space group: A M M 2
;
_chemical_formula_sum "Si O2"
_cell_formula_units_Z 64
_cell_length_a 9.132045
_cell_length_b 14.474899
_cell_length_c 24.045361
_cell_angle_alpha 90.000000
_cell_angle_beta 90.000000
_cell_angle_gamma 90.000000
_cell_volume 3178.446360
_symmetry_space_group_name_H-M "A M M 2"
_symmetry_group_IT_number 38
_symmetry_cell_setting 'orthorhombic'
loop_
_space_group_symop_operation_xyz
x,y,z
-x,-y,z
-x,y,z
x,-y,z
x,1/2+y,1/2+z
-x,1/2-y,1/2+z
-x,1/2+y,1/2+z
x,1/2-y,1/2+z
loop_
_atom_site_type_symbol
_atom_site_label
_atom_site_fract_x
_atom_site_fract_y
_atom_site_fract_z
Si Si1 0.830079 0.268594 0.642770
Si Si2 0.328146 0.394022 0.194637
Si Si3 0.169420 0.246254 0.015763
Si Si4 0.330284 0.890881 0.230709
Si Si5 0.328954 0.107394 0.450951
Si Si6 0.172179 0.396219 0.423808
Si Si7 0.338324 0.390099 0.318026
Si Si8 0.165726 0.890183 0.340334
O O1 0.768063 0.166107 0.652817
O O2 0.806226 0.290003 0.577934
O O3 0.741453 0.344791 0.676935
O O4 0.000000 0.273239 0.659436
O O5 0.500000 0.382156 0.182100
O O6 0.280569 0.500000 0.186831
O O7 0.291493 0.355929 0.256673
O O8 0.000000 0.271030 0.004977
O O9 0.265467 0.337314 0.003679
O O10 0.225339 0.164683 0.975479
O O11 0.500000 0.863010 0.234101
O O12 0.252029 0.852793 0.286421
O O13 0.309370 0.000000 0.224603
O O14 0.500000 0.126484 0.443686
O O15 0.247408 0.144348 0.395711
O O16 0.296980 0.000000 0.461712
O O17 0.234263 0.500000 0.432442
O O18 0.230657 0.352815 0.365853
O O19 0.000000 0.398032 0.419430
O O20 0.500000 0.353642 0.332613
O O21 0.337513 0.500000 0.315216
O O22 0.000000 0.851563 0.340137
O O23 0.166548 0.000000 0.339026
#
# Coordination Sequence:
#
# PCOD8180099 Si02
#       8
#     8   8   8   8   8   8   8   8
#     4  11  24  39  56  80 110 147 192 238 282 332
#     4   9  19  37  59  81 110 147 181 221 278 337
#     4  10  23  40  55  76 108 147 190 231 273 326
#     4  10  21  38  60  85 114 147 184 230 282 337
#     4  10  21  37  58  84 113 146 184 228 279 332
#     4   9  18  34  56  80 106 137 173 216 265 316
#     4   8  15  30  53  81 109 136 169 210 262 324
#     4   9  17  32  57  87 116 145 179 222 275 336
#
# _framework density 20.135625000000001
#
# number of rings (size 3 to 8) (size 9 to 14) (size 15 to 20)
#    0.000    2.500    0.000    2.250    0.000    7.250 
#    0.000    7.500    0.000    1.500    0.000    0.000 
#    0.000    0.000    0.000    0.000    0.000    0.000 
#
# Total GULP energy -396842.048979 kJ/mol
# GULP energy per Si atom -12401.314031 kJ/mol
# Density = 2.008980 g / cm^3
# Si number density = 20.135625 Si / 1000 Ang^3
#
#
#
# Elastic Constant Matrix: (Units=GPa)
#
#
# Indices 1 2 3 4 5 6 
#
# 1 93.1202 26.2203 36.6098 0.0000 0.0000 0.0000
# 2 26.2203 34.7765 10.8488 0.0000 0.0000 0.0000
# 3 36.6098 10.8488 81.5096 0.0000 0.0000 0.0000
# 4 0.0000 0.0000 0.0000 34.3621 0.0000 0.0000
# 5 0.0000 0.0000 0.0000 0.0000 27.4858 0.0000
# 6 0.0000 0.0000 0.0000 0.0000 0.0000 28.5122
#
#
#
# Elastic Compliance Matrix: (Units=1/GPa)
#
#
# Indices 1 2 3 4 5 6 
#
# 1 0.015872 -0.010165 -0.005776 0.000000 0.000000 0.000000
# 2 -0.010165 0.036511 -0.000294 0.000000 0.000000 0.000000
# 3 -0.005776 -0.000294 0.014902 0.000000 0.000000 0.000000
# 4 0.000000 0.000000 0.000000 0.029102 0.000000 0.000000
# 5 0.000000 0.000000 0.000000 0.000000 0.036382 0.000000
# 6 0.000000 0.000000 0.000000 0.000000 0.000000 0.035073
#
#
# Mechanical properties :
#
#
# Convention : Reuss Voigt Hill
#
# Bulk Modulus (GPa) = 28.72335 39.64045 34.18190
# Shear Modulus (GPa) = 23.59428 27.12050 25.35739
#
# Velocity S-wave (km/s) = 3.42682 3.67398 3.55255
# Velocity P-wave (km/s) = 5.47297 6.14223 5.81723
#
# Compressibility (1/GPa) = 0.03481488
#
# Stress axis : x y z
#
# Youngs Moduli (GPa) = 63.00512 27.38918 67.10594
#
# Poissons Ratio (x) = 0.27841 0.38759
# Poissons Ratio (y) = 0.64044 0.01973
# Poissons Ratio (z) = 0.36390 0.00805
#
# Static dielectric constant tensor:
#      x y z
#    x 3.692410 0.000000 0.000000 
#    y 0.000000 3.573990 0.000000 
#    z 0.000000 0.000000 3.687580 
# 
# 
# High freq. dielectric constant tensor:
#      x y z
#    x 1.785180 0.000000 0.000000 
#    y 0.000000 1.781940 0.000000 
#    z 0.000000 0.000000 1.784060 
# 
# From -- ./inp_files/20071.got.cif
#   From: 2010.03.12/outbox.cif.g09.slc.cpg/sg38_11_cif.got.tgz:20071.got - 2010.04.14 02:38:36.
