data_PCOD8180457
_publ_section_title
;
Structure prediction by ZEFSAII (Michael W. Deem and Ramdas Pophale) SiO2 
 PCOD8180457
Probable space group: A M M 2
;
_chemical_formula_sum "Si O2"
_cell_formula_units_Z 64
_cell_length_a 21.391307
_cell_length_b 15.894271
_cell_length_c 9.309965
_cell_angle_alpha 90.000000
_cell_angle_beta 90.000000
_cell_angle_gamma 90.000000
_cell_volume 3165.380936
_symmetry_space_group_name_H-M "A M M 2"
_symmetry_group_IT_number 38
_symmetry_cell_setting 'orthorhombic'
loop_
_space_group_symop_operation_xyz
x,y,z
-x,-y,z
-x,y,z
x,-y,z
x,1/2+y,1/2+z
-x,1/2-y,1/2+z
-x,1/2+y,1/2+z
x,1/2-y,1/2+z
loop_
_atom_site_type_symbol
_atom_site_label
_atom_site_fract_x
_atom_site_fract_y
_atom_site_fract_z
Si Si1 0.736709 0.773104 0.400620
Si Si2 0.067230 0.903810 0.347878
Si Si3 0.571769 0.903164 0.738016
Si Si4 0.571189 0.908001 0.075264
Si Si5 0.142874 0.313338 0.298309
Si Si6 0.928888 0.808065 0.082690
Si Si7 0.349971 0.742713 0.645877
Si Si8 0.178843 0.402968 0.033941
O O1 0.797233 0.715024 0.389102
O O2 0.678634 0.734771 0.487353
O O3 0.709687 0.781105 0.241937
O O4 0.757256 0.859097 0.481202
O O5 0.075266 0.893822 0.176437
O O6 0.121926 0.859413 0.440556
O O7 0.000000 0.864201 0.394816
O O8 0.068152 0.000000 0.390612
O O9 0.500000 0.887309 0.688162
O O10 0.617695 0.834264 0.665944
O O11 0.591091 0.000000 0.697271
O O12 0.577025 0.889935 0.907139
O O13 0.500000 0.909821 0.123937
O O14 0.601473 0.833163 0.166836
O O15 0.601140 0.000000 0.110887
O O16 0.116744 0.252493 0.173885
O O17 0.090989 0.330623 0.419836
O O18 0.164745 0.394172 0.204297
O O19 0.000000 0.773378 0.078538
O O20 0.186396 0.500000 0.994898
#
# Coordination Sequence:
#
# PCOD8180457 Si02
#       8
#     8   8   8   8   8   8   8   8
#     4  12  24  40  60  85 123 167 206 253 298 361
#     4   9  19  37  60  87 119 154 194 247 315 381
#     4   9  19  38  64  94 129 167 206 252 310 372
#     4   9  19  38  64  95 128 160 201 255 312 369
#     4  12  22  41  58  85 124 157 206 255 308 370
#     4  11  21  35  64  92 117 154 203 258 314 379
#     4  12  22  39  64  92 123 166 215 256 305 361
#     4  11  24  42  63  86 120 162 203 255 316 370
#
# _framework density 20.218734999999999
#
# number of rings (size 3 to 8) (size 9 to 14) (size 15 to 20)
#    0.000    1.375    5.000    1.500    0.000    3.500 
#    0.000    0.625    0.000    1.500    0.000    0.000 
#    0.000    0.000    0.000    0.000    0.000    0.000 
#
# Total GULP energy -396472.403561 kJ/mol
# GULP energy per Si atom -12389.762611 kJ/mol
# Density = 2.017272 g / cm^3
# Si number density = 20.218735 Si / 1000 Ang^3
#
#
#
# Elastic Constant Matrix: (Units=GPa)
#
#
# Indices 1 2 3 4 5 6 
#
# 1 94.2012 43.6044 24.2985 0.0000 0.0000 0.0000
# 2 43.6044 87.5937 26.3541 0.0000 0.0000 0.0000
# 3 24.2985 26.3541 69.7505 0.0000 0.0000 0.0000
# 4 0.0000 0.0000 0.0000 27.7977 0.0000 0.0000
# 5 0.0000 0.0000 0.0000 0.0000 30.4328 0.0000
# 6 0.0000 0.0000 0.0000 0.0000 0.0000 18.0739
#
#
#
# Elastic Compliance Matrix: (Units=1/GPa)
#
#
# Indices 1 2 3 4 5 6 
#
# 1 0.014190 -0.006292 -0.002566 0.000000 0.000000 0.000000
# 2 -0.006292 0.015670 -0.003729 0.000000 0.000000 0.000000
# 3 -0.002566 -0.003729 0.016640 0.000000 0.000000 0.000000
# 4 0.000000 0.000000 0.000000 0.035974 0.000000 0.000000
# 5 0.000000 0.000000 0.000000 0.000000 0.032859 0.000000
# 6 0.000000 0.000000 0.000000 0.000000 0.000000 0.055328
#
#
# Mechanical properties :
#
#
# Convention : Reuss Voigt Hill
#
# Bulk Modulus (GPa) = 46.89017 48.89547 47.89282
# Shear Modulus (GPa) = 24.63737 25.74677 25.19207
#
# Velocity S-wave (km/s) = 3.49455 3.57236 3.53367
# Velocity P-wave (km/s) = 6.28683 6.42273 6.35514
#
# Compressibility (1/GPa) = 0.02132643
#
# Stress axis : x y z
#
# Youngs Moduli (GPa) = 70.47318 63.81498 60.09745
#
# Poissons Ratio (x) = 0.40150 0.15421
# Poissons Ratio (y) = 0.44340 0.22410
# Poissons Ratio (z) = 0.18083 0.23796
#
# Static dielectric constant tensor:
#      x y z
#    x 3.875460 0.000000 0.000000 
#    y 0.000000 3.575390 0.000000 
#    z 0.000000 0.000000 3.652040 
# 
# 
# High freq. dielectric constant tensor:
#      x y z
#    x 1.797310 0.000000 0.000000 
#    y 0.000000 1.775990 0.000000 
#    z 0.000000 0.000000 1.784950 
# 
# From -- ./inp_files/6832.got.cif
#   From: 2010.03.12/outbox.cif.g09.slc.cpg/sg38_4_cif.got.tgz:6832.got - 2010.04.14 02:38:36.
