data_PCOD8180957
_publ_section_title
;
Structure prediction by ZEFSAII (Michael W. Deem and Ramdas Pophale) SiO2 
 PCOD8180957
Probable space group: A B M 2
;
_chemical_formula_sum "Si O2"
_cell_formula_units_Z 64
_cell_length_a 23.722014
_cell_length_b 9.076419
_cell_length_c 15.406723
_cell_angle_alpha 90.000000
_cell_angle_beta 90.000000
_cell_angle_gamma 90.000000
_cell_volume 3317.235990
_symmetry_space_group_name_H-M "A B M 2"
_symmetry_group_IT_number 39
_symmetry_cell_setting 'orthorhombic'
loop_
_space_group_symop_operation_xyz
x,y,z
-x,-y,z
-x,1/2+y,z
x,1/2-y,z
x,1/2+y,1/2+z
-x,1/2-y,1/2+z
-x,y,1/2+z
x,-y,1/2+z
loop_
_atom_site_type_symbol
_atom_site_label
_atom_site_fract_x
_atom_site_fract_y
_atom_site_fract_z
Si Si1 0.257460 0.579362 0.015950
Si Si2 0.130602 0.920061 0.024203
Si Si3 0.626441 0.081154 0.284501
Si Si4 0.859724 0.922202 0.324729
Si Si5 0.559695 0.424977 0.931530
Si Si6 0.250633 0.582787 0.339634
Si Si7 0.940174 0.575912 0.168883
Si Si8 0.628602 0.576372 0.594551
O O1 0.264170 0.750000 0.989395
O O2 0.306155 0.526878 0.082007
O O3 0.195140 0.553310 0.054919
O O4 0.267148 0.484238 0.931241
O O5 0.113039 0.750000 0.036971
O O6 0.123060 0.967345 0.923112
O O7 0.091389 0.021921 0.082632
O O8 0.607971 0.250000 0.304672
O O9 0.694184 0.070679 0.280163
O O10 0.606199 0.027881 0.189003
O O11 0.599935 0.969859 0.352645
O O12 0.847955 0.750000 0.321107
O O13 0.907418 0.970200 0.256565
O O14 0.801745 0.999334 0.295701
O O15 0.500000 0.500000 0.918376
O O16 0.552606 0.250000 0.931838
O O17 0.587621 0.487557 0.020093
O O18 0.231522 0.750000 0.352797
O O19 0.947731 0.750000 0.162123
O O20 0.000000 0.500000 0.174704
O O21 0.626723 0.750000 0.587392
#
# Coordination Sequence:
#
# PCOD8180957 Si02
#       8
#     8   8   8   8   8   8   8   8
#     4   9  17  34  59  83 117 156 191 228 284 351
#     4   9  19  36  60  86 115 152 191 234 285 343
#     4  10  21  37  58  88 120 151 192 237 285 343
#     4   9  21  40  59  82 116 156 193 234 287 348
#     4  11  23  41  63  83 113 155 197 241 288 340
#     4  10  19  31  56  89 121 150 187 239 287 337
#     4  11  24  41  60  84 116 153 197 243 287 343
#     4   9  19  36  59  85 115 154 192 232 285 342
#
# _framework density 19.29317
#
# number of rings (size 3 to 8) (size 9 to 14) (size 15 to 20)
#    0.000    2.250    1.250    1.875    1.750    4.500 
#    0.000    4.375    0.000    0.000    0.000    0.000 
#    0.000    0.000    0.000    0.000    0.000    0.000 
#
# Total GULP energy -396739.270707 kJ/mol
# GULP energy per Si atom -12398.102210 kJ/mol
# Density = 1.924926 g / cm^3
# Si number density = 19.293170 Si / 1000 Ang^3
#
#
#
# Elastic Constant Matrix: (Units=GPa)
#
#
# Indices 1 2 3 4 5 6 
#
# 1 107.4220 44.4012 49.8368 0.0000 0.0000 0.0000
# 2 44.4012 64.2900 40.4935 0.0000 0.0000 0.0000
# 3 49.8368 40.4935 108.2298 0.0000 0.0000 0.0000
# 4 0.0000 0.0000 0.0000 23.2313 0.0000 0.0000
# 5 0.0000 0.0000 0.0000 0.0000 21.7882 0.0000
# 6 0.0000 0.0000 0.0000 0.0000 0.0000 29.5282
#
#
#
# Elastic Compliance Matrix: (Units=1/GPa)
#
#
# Indices 1 2 3 4 5 6 
#
# 1 0.014090 -0.007385 -0.003725 0.000000 0.000000 0.000000
# 2 -0.007385 0.024221 -0.005662 0.000000 0.000000 0.000000
# 3 -0.003725 -0.005662 0.013073 0.000000 0.000000 0.000000
# 4 0.000000 0.000000 0.000000 0.043045 0.000000 0.000000
# 5 0.000000 0.000000 0.000000 0.000000 0.045896 0.000000
# 6 0.000000 0.000000 0.000000 0.000000 0.000000 0.033866
#
#
# Mechanical properties :
#
#
# Convention : Reuss Voigt Hill
#
# Bulk Modulus (GPa) = 56.05080 61.04499 58.54789
# Shear Modulus (GPa) = 23.39946 24.59022 23.99484
#
# Velocity S-wave (km/s) = 3.48636 3.57397 3.53043
# Velocity P-wave (km/s) = 6.73212 6.98143 6.85791
#
# Compressibility (1/GPa) = 0.01784096
#
# Stress axis : x y z
#
# Youngs Moduli (GPa) = 70.97480 41.28716 76.49309
#
# Poissons Ratio (x) = 0.30489 0.28493
# Poissons Ratio (y) = 0.52412 0.43307
# Poissons Ratio (z) = 0.26438 0.23375
#
# Static dielectric constant tensor:
#      x y z
#    x 3.606660 0.000000 0.000000 
#    y 0.000000 3.398470 0.000000 
#    z 0.000000 0.000000 3.720580 
# 
# 
# High freq. dielectric constant tensor:
#      x y z
#    x 1.751660 0.000000 0.000000 
#    y 0.000000 1.738450 0.000000 
#    z 0.000000 0.000000 1.753100 
# 
# From -- ./inp_files/10617.got.cif
#   From: 2010.03.12/outbox.cif.g09.slc.cpg/sg39_6_cif.got.tgz:10617.got - 2010.04.14 02:53:20.
