data_PCOD8180059
_publ_section_title
;
Structure prediction by ZEFSAII (Michael W. Deem and Ramdas Pophale) SiO2 
 PCOD8180059
Probable space group: A M M 2
;
_chemical_formula_sum "Si O2"
_cell_formula_units_Z 48
_cell_length_a 9.036028
_cell_length_b 17.014871
_cell_length_c 16.796784
_cell_angle_alpha 90.000000
_cell_angle_beta 90.000000
_cell_angle_gamma 90.000000
_cell_volume 2582.452643
_symmetry_space_group_name_H-M "A M M 2"
_symmetry_group_IT_number 38
_symmetry_cell_setting 'orthorhombic'
loop_
_space_group_symop_operation_xyz
x,y,z
-x,-y,z
-x,y,z
x,-y,z
x,1/2+y,1/2+z
-x,1/2-y,1/2+z
-x,1/2+y,1/2+z
x,1/2-y,1/2+z
loop_
_atom_site_type_symbol
_atom_site_label
_atom_site_fract_x
_atom_site_fract_y
_atom_site_fract_z
Si Si1 0.824960 0.588702 0.262290
Si Si2 0.326354 0.148401 0.447854
Si Si3 0.175589 0.315148 0.108839
Si Si4 0.669156 0.321347 0.401485
Si Si5 0.323838 0.000000 0.170357
Si Si6 0.327212 0.154929 0.082897
Si Si7 0.675625 0.500000 0.848427
O O1 0.761072 0.500000 0.261245
O O2 0.769537 0.633732 0.183709
O O3 0.772090 0.633650 0.340446
O O4 0.000000 0.586985 0.264600
O O5 0.500000 0.142350 0.467684
O O6 0.238960 0.143713 0.530273
O O7 0.292630 0.228737 0.400616
O O8 0.267964 0.077380 0.393654
O O9 0.238278 0.227687 0.119303
O O10 0.000000 0.311477 0.102704
O O11 0.500000 0.335673 0.376564
O O12 0.701001 0.355142 0.489142
O O13 0.265600 0.077090 0.125262
O O14 0.500000 0.000000 0.170054
O O15 0.258708 0.000000 0.259532
O O16 0.500000 0.169852 0.100061
O O17 0.500000 0.500000 0.844253
#
# Coordination Sequence:
#
# PCOD8180059 Si02
#       7
#     8   8   8   8   4   8   4
#     4  10  23  39  54  76 107 144 184 223 266 318
#     4   9  19  36  57  83 111 139 177 222 268 321
#     4  10  21  37  57  78 106 145 185 221 268 322
#     4   9  19  34  55  82 109 139 177 222 267 316
#     4   9  18  32  57  86 111 142 174 215 269 321
#     4   9  19  36  59  84 110 140 178 220 268 322
#     4   9  18  32  55  86 113 138 174 219 267 319
#
# _framework density 18.586981999999999
#
# number of rings (size 3 to 8) (size 9 to 14) (size 15 to 20)
#    0.000    2.667    0.000    1.500    4.667    4.333 
#    0.000    0.417    0.000    1.000    0.000    0.000 
#    0.000    0.000    0.000    0.000    0.000    0.000 
#
# Total GULP energy -297635.107113 kJ/mol
# GULP energy per Si atom -12401.462796 kJ/mol
# Density = 1.854468 g / cm^3
# Si number density = 18.586982 Si / 1000 Ang^3
#
#
#
# Elastic Constant Matrix: (Units=GPa)
#
#
# Indices 1 2 3 4 5 6 
#
# 1 35.2791 31.6688 34.2371 0.0000 0.0000 0.0000
# 2 31.6688 165.8006 104.9840 0.0000 0.0000 0.0000
# 3 34.2371 104.9840 135.0162 0.0000 0.0000 0.0000
# 4 0.0000 0.0000 0.0000 35.1019 0.0000 0.0000
# 5 0.0000 0.0000 0.0000 0.0000 29.5695 0.0000
# 6 0.0000 0.0000 0.0000 0.0000 0.0000 21.8504
#
#
#
# Elastic Compliance Matrix: (Units=1/GPa)
#
#
# Indices 1 2 3 4 5 6 
#
# 1 0.038030 -0.002281 -0.007870 0.000000 0.000000 0.000000
# 2 -0.002281 0.012018 -0.008766 0.000000 0.000000 0.000000
# 3 -0.007870 -0.008766 0.016219 0.000000 0.000000 0.000000
# 4 0.000000 0.000000 0.000000 0.028488 0.000000 0.000000
# 5 0.000000 0.000000 0.000000 0.000000 0.033819 0.000000
# 6 0.000000 0.000000 0.000000 0.000000 0.000000 0.045766
#
#
# Mechanical properties :
#
#
# Convention : Reuss Voigt Hill
#
# Bulk Modulus (GPa) = 35.17119 75.31953 55.24536
# Shear Modulus (GPa) = 22.55795 28.31810 25.43802
#
# Velocity S-wave (km/s) = 3.48752 3.90750 3.70346
# Velocity P-wave (km/s) = 5.93132 7.80825 6.93359
#
# Compressibility (1/GPa) = 0.02843237
#
# Stress axis : x y z
#
# Youngs Moduli (GPa) = 26.29472 83.21084 61.65755
#
# Poissons Ratio (x) = 0.18976 0.48527
# Poissons Ratio (y) = 0.05997 0.54050
# Poissons Ratio (z) = 0.20695 0.72945
#
# Static dielectric constant tensor:
#      x y z
#    x 3.116800 0.000000 0.000000 
#    y 0.000000 3.712270 0.000000 
#    z 0.000000 0.000000 3.497600 
# 
# 
# High freq. dielectric constant tensor:
#      x y z
#    x 1.694040 0.000000 0.000000 
#    y 0.000000 1.733860 0.000000 
#    z 0.000000 0.000000 1.727930 
# 
# From -- ./inp_files/12073.got.cif
#   From: 2010.03.12/outbox.cif.g09.slc.cpg/sg38_7_cif.got.tgz:12073.got - 2010.04.14 02:38:36.
