data_PCOD8180520
_publ_section_title
;
Structure prediction by ZEFSAII (Michael W. Deem and Ramdas Pophale) SiO2 
 PCOD8180520
Probable space group: A M M 2
;
_chemical_formula_sum "Si O2"
_cell_formula_units_Z 48
_cell_length_a 9.398075
_cell_length_b 9.380499
_cell_length_c 31.184267
_cell_angle_alpha 90.000000
_cell_angle_beta 90.000000
_cell_angle_gamma 90.000000
_cell_volume 2749.162354
_symmetry_space_group_name_H-M "A M M 2"
_symmetry_group_IT_number 38
_symmetry_cell_setting 'orthorhombic'
loop_
_space_group_symop_operation_xyz
x,y,z
-x,-y,z
-x,y,z
x,-y,z
x,1/2+y,1/2+z
-x,1/2-y,1/2+z
-x,1/2+y,1/2+z
x,1/2-y,1/2+z
loop_
_atom_site_type_symbol
_atom_site_label
_atom_site_fract_x
_atom_site_fract_y
_atom_site_fract_z
Si Si1 0.661191 0.169613 0.142720
Si Si2 0.834278 0.335247 0.977246
Si Si3 0.164572 0.833429 0.060601
Si Si4 0.659775 0.330717 0.897442
Si Si5 0.660246 0.830331 0.302897
Si Si6 0.839106 0.829789 0.223530
O O1 0.500000 0.229382 0.143496
O O2 0.740867 0.222726 0.100015
O O3 0.747618 0.228984 0.183584
O O4 0.659791 0.000000 0.144045
O O5 0.794080 0.500000 0.984417
O O6 0.781649 0.249119 0.018632
O O7 0.000000 0.313551 0.969718
O O8 0.759210 0.269685 0.935059
O O9 0.000000 0.799320 0.070952
O O10 0.187602 0.000000 0.052384
O O11 0.500000 0.277644 0.906291
O O12 0.666989 0.500000 0.897916
O O13 0.709628 0.277159 0.850226
O O14 0.500000 0.776221 0.293174
O O15 0.767819 0.769810 0.267144
O O16 0.660925 0.000000 0.301529
O O17 0.000000 0.771188 0.220383
O O18 0.839646 0.000000 0.223314
#
# Coordination Sequence:
#
# PCOD8180520 Si02
#       6
#     8   8   8   8   8   8
#     4   9  16  25  37  53  74 101 132 165 200 237
#     4   9  17  28  42  60  81 105 134 168 203 237
#     4   9  17  29  43  58  79 107 136 166 201 239
#     4   8  14  24  37  53  75 104 134 163 198 238
#     4   8  13  21  32  47  70 100 131 160 191 231
#     4   9  15  21  31  49  73 101 131 161 195 237
#
# _framework density 17.459864
#
# number of rings (size 3 to 8) (size 9 to 14) (size 15 to 20)
#    0.000    3.333    0.000    2.000    0.000    5.333 
#    0.000    3.333    0.000    0.000    0.000    0.000 
#    0.000    1.333    0.000   13.000    0.000   15.667 
#
# Total GULP energy -297469.151008 kJ/mol
# GULP energy per Si atom -12394.547959 kJ/mol
# Density = 1.742012 g / cm^3
# Si number density = 17.459864 Si / 1000 Ang^3
#
#
#
# Elastic Constant Matrix: (Units=GPa)
#
#
# Indices 1 2 3 4 5 6 
#
# 1 121.8029 15.1745 104.3510 0.0000 0.0000 0.0000
# 2 15.1745 11.1872 23.7493 0.0000 0.0000 0.0000
# 3 104.3510 23.7493 198.9934 0.0000 0.0000 0.0000
# 4 0.0000 0.0000 0.0000 17.4195 0.0000 0.0000
# 5 0.0000 0.0000 0.0000 0.0000 42.3498 0.0000
# 6 0.0000 0.0000 0.0000 0.0000 0.0000 7.4622
#
#
#
# Elastic Compliance Matrix: (Units=1/GPa)
#
#
# Indices 1 2 3 4 5 6 
#
# 1 0.015107 -0.004920 -0.007335 0.000000 0.000000 0.000000
# 2 -0.004920 0.121323 -0.011899 0.000000 0.000000 0.000000
# 3 -0.007335 -0.011899 0.010292 0.000000 0.000000 0.000000
# 4 0.000000 0.000000 0.000000 0.057407 0.000000 0.000000
# 5 0.000000 0.000000 0.000000 0.000000 0.023613 0.000000
# 6 0.000000 0.000000 0.000000 0.000000 0.000000 0.134009
#
#
# Mechanical properties :
#
#
# Convention : Reuss Voigt Hill
#
# Bulk Modulus (GPa) = 10.16127 68.72591 39.44359
# Shear Modulus (GPa) = 11.29015 26.02687 18.65851
#
# Velocity S-wave (km/s) = 2.54566 3.86511 3.27257
# Velocity P-wave (km/s) = 3.80433 7.70496 6.07616
#
# Compressibility (1/GPa) = 0.09841292
#
# Stress axis : x y z
#
# Youngs Moduli (GPa) = 66.19574 8.24245 97.16559
#
# Poissons Ratio (x) = 0.04056 0.71268
# Poissons Ratio (y) = 0.32570 1.15621
# Poissons Ratio (z) = 0.48552 0.09808
#
# Static dielectric constant tensor:
#      x y z
#    x 3.394710 0.000000 0.000000 
#    y 0.000000 2.528390 0.000000 
#    z 0.000000 0.000000 3.663110 
# 
# 
# High freq. dielectric constant tensor:
#      x y z
#    x 1.677760 0.000000 0.000000 
#    y 0.000000 1.588410 0.000000 
#    z 0.000000 0.000000 1.694200 
# 
# From -- ./inp_files/21881.got.cif
#   From: 2010.03.12/outbox.cif.g09.slc.cpg/sg38_11_cif.got.tgz:21881.got - 2010.04.14 02:38:36.
