data_PCOD8180308
_publ_section_title
;
Structure prediction by ZEFSAII (Michael W. Deem and Ramdas Pophale) SiO2 
 PCOD8180308
Probable space group: A M M 2
;
_chemical_formula_sum "Si O2"
_cell_formula_units_Z 48
_cell_length_a 9.495163
_cell_length_b 7.590775
_cell_length_c 34.317509
_cell_angle_alpha 90.000000
_cell_angle_beta 90.000000
_cell_angle_gamma 90.000000
_cell_volume 2473.456628
_symmetry_space_group_name_H-M "A M M 2"
_symmetry_group_IT_number 38
_symmetry_cell_setting 'orthorhombic'
loop_
_space_group_symop_operation_xyz
x,y,z
-x,-y,z
-x,y,z
x,-y,z
x,1/2+y,1/2+z
-x,1/2-y,1/2+z
-x,1/2+y,1/2+z
x,1/2-y,1/2+z
loop_
_atom_site_type_symbol
_atom_site_label
_atom_site_fract_x
_atom_site_fract_y
_atom_site_fract_z
Si Si1 0.342767 0.207658 0.008300
Si Si2 0.343365 0.296049 0.093020
Si Si3 0.836162 0.702431 0.435704
Si Si4 0.835790 0.000000 0.375771
Si Si5 0.337452 0.202440 0.736735
Si Si6 0.662472 0.000000 0.297454
Si Si7 0.842039 0.209157 0.662591
O O1 0.500000 0.286549 0.003062
O O2 0.279587 0.268307 0.049836
O O3 0.346709 0.000000 0.007009
O O4 0.245159 0.276884 0.973454
O O5 0.500000 0.209083 0.095432
O O6 0.357077 0.500000 0.102746
O O7 0.238962 0.210677 0.124950
O O8 0.795746 0.500000 0.425770
O O9 0.000000 0.720819 0.445434
O O10 0.793498 0.824061 0.399372
O O11 0.753682 0.000000 0.335846
O O12 0.000000 0.000000 0.366049
O O13 0.500000 0.225996 0.724163
O O14 0.300175 0.324322 0.773355
O O15 0.241809 0.267250 0.701038
O O16 0.305382 0.000000 0.748218
O O17 0.500000 0.000000 0.309654
O O18 0.000000 0.287860 0.663964
O O19 0.848667 0.000000 0.659865
#
# Coordination Sequence:
#
# PCOD8180308 Si02
#       7
#     8   8   8   4   8   4   8
#     4   9  18  32  49  72 101 133 173 217 259 305
#     4   9  17  29  46  69  99 136 174 214 260 308
#     4   9  19  36  55  75 103 139 174 210 257 313
#     4  10  22  38  56  80 108 138 172 212 262 318
#     4   9  18  35  57  77 103 139 172 209 260 312
#     4  10  22  38  56  84 110 132 172 218 260 314
#     4   9  17  30  49  74 102 134 175 216 255 304
#
# _framework density 19.406040000000001
#
# number of rings (size 3 to 8) (size 9 to 14) (size 15 to 20)
#    0.000    2.833    0.000    0.500    1.167    4.667 
#    1.500    0.000    0.000    0.000    0.000    0.000 
#    0.000    0.000    0.000    0.000    0.000    0.000 
#
# Total GULP energy -297556.965579 kJ/mol
# GULP energy per Si atom -12398.206899 kJ/mol
# Density = 1.936187 g / cm^3
# Si number density = 19.406040 Si / 1000 Ang^3
#
#
#
# Elastic Constant Matrix: (Units=GPa)
#
#
# Indices 1 2 3 4 5 6 
#
# 1 105.3015 34.7157 101.1389 0.0000 0.0000 0.0000
# 2 34.7157 67.1882 55.3165 0.0000 0.0000 0.0000
# 3 101.1389 55.3165 191.9268 0.0000 0.0000 0.0000
# 4 0.0000 0.0000 0.0000 -41.6610 0.0000 0.0000
# 5 0.0000 0.0000 0.0000 0.0000 31.5101 0.0000
# 6 0.0000 0.0000 0.0000 0.0000 0.0000 12.5423
#
#
#
# Elastic Compliance Matrix: (Units=1/GPa)
#
#
# Indices 1 2 3 4 5 6 
#
# 1 0.019455 -0.002113 -0.009643 0.000000 0.000000 0.000000
# 2 -0.002113 0.019744 -0.004577 0.000000 0.000000 0.000000
# 3 -0.009643 -0.004577 0.011611 0.000000 0.000000 0.000000
# 4 0.000000 0.000000 0.000000 -0.024003 0.000000 0.000000
# 5 0.000000 0.000000 0.000000 0.000000 0.031736 0.000000
# 6 0.000000 0.000000 0.000000 0.000000 0.000000 0.079731
#
#
# Mechanical properties :
#
#
# Convention : Reuss Voigt Hill
#
# Bulk Modulus (GPa) = 55.11611 82.97320 69.04466
# Shear Modulus (GPa) = 28.25063 12.02795 20.13929
#
# Velocity S-wave (km/s) = 3.81959 2.49229 3.22496
# Velocity P-wave (km/s) = 6.92210 7.15061 7.03728
#
# Compressibility (1/GPa) = 0.01814351
#
# Stress axis : x y z
#
# Youngs Moduli (GPa) = 51.40017 50.64934 86.12434
#
# Poissons Ratio (x) = 0.10702 0.83052
# Poissons Ratio (y) = 0.10861 0.39419
# Poissons Ratio (z) = 0.49566 0.23182
#
# Static dielectric constant tensor:
#      x y z
#    x 3.799370 0.000000 0.000000 
#    y 0.000000 3.635020 0.000000 
#    z 0.000000 0.000000 3.473960 
# 
# 
# High freq. dielectric constant tensor:
#      x y z
#    x 1.748880 0.000000 0.000000 
#    y 0.000000 1.749080 0.000000 
#    z 0.000000 0.000000 1.749680 
# 
# From -- ./inp_files/24329.got.cif
#   From: 2010.03.12/outbox.cif.g09.slc.cpg/sg38_13_cif.got.tgz:24329.got - 2010.04.14 02:38:36.
