data_PCOD8180137
_publ_section_title
;
Structure prediction by ZEFSAII (Michael W. Deem and Ramdas Pophale) SiO2 
 PCOD8180137
Probable space group: A M M 2
;
_chemical_formula_sum "Si O2"
_cell_formula_units_Z 28
_cell_length_a 10.191898
_cell_length_b 27.548773
_cell_length_c 5.261688
_cell_angle_alpha 90.000000
_cell_angle_beta 90.000000
_cell_angle_gamma 90.000000
_cell_volume 1477.346683
_symmetry_space_group_name_H-M "A M M 2"
_symmetry_group_IT_number 38
_symmetry_cell_setting 'orthorhombic'
loop_
_space_group_symop_operation_xyz
x,y,z
-x,-y,z
-x,y,z
x,-y,z
x,1/2+y,1/2+z
-x,1/2-y,1/2+z
-x,1/2+y,1/2+z
x,1/2-y,1/2+z
loop_
_atom_site_type_symbol
_atom_site_label
_atom_site_fract_x
_atom_site_fract_y
_atom_site_fract_z
Si Si1 0.266541 0.644820 0.430130
Si Si2 0.500000 0.780972 0.890124
Si Si3 0.850703 0.116996 0.423409
Si Si4 0.352276 0.554767 0.688011
O O1 0.371346 0.687207 0.425445
O O2 0.174559 0.652050 0.679622
O O3 0.336584 0.591731 0.449976
O O4 0.178753 0.647148 0.177795
O O5 0.500000 0.760112 0.605491
O O6 0.752651 0.070505 0.405250
O O7 0.000000 0.098433 0.425700
O O8 0.500000 0.558923 0.798813
O O9 0.322595 0.500000 0.596651
#
# Coordination Sequence:
#
# PCOD8180137 Si02
#       4
#     8   4   8   8
#     4  10  21  39  61  88 123 155 204 250 303 361
#     4  12  24  40  69  96 119 152 206 262 310 366
#     4  10  21  37  61  87 126 168 199 240 298 365
#     4   9  20  37  61  91 125 162 205 253 298 352
#
# _framework density 18.952898000000001
#
# number of rings (size 3 to 8) (size 9 to 14) (size 15 to 20)
#    1.714    0.286    1.429    2.571    2.000    1.714 
#    0.000    2.857    0.000   17.143    0.000    0.000 
#    0.000    0.000    0.000    0.000    0.000    0.000 
#
# Total GULP energy -173444.455924 kJ/mol
# GULP energy per Si atom -12388.889709 kJ/mol
# Density = 1.890976 g / cm^3
# Si number density = 18.952898 Si / 1000 Ang^3
#
#
#
# Elastic Constant Matrix: (Units=GPa)
#
#
# Indices 1 2 3 4 5 6 
#
# 1 146.4963 36.0970 43.5773 0.0000 0.0000 0.0000
# 2 36.0970 72.9797 23.0882 0.0000 0.0000 0.0000
# 3 43.5773 23.0882 127.3102 0.0000 0.0000 0.0000
# 4 0.0000 0.0000 0.0000 17.5334 0.0000 0.0000
# 5 0.0000 0.0000 0.0000 0.0000 25.7103 0.0000
# 6 0.0000 0.0000 0.0000 0.0000 0.0000 3.5069
#
#
#
# Elastic Compliance Matrix: (Units=1/GPa)
#
#
# Indices 1 2 3 4 5 6 
#
# 1 0.008332 -0.003415 -0.002233 0.000000 0.000000 0.000000
# 2 -0.003415 0.015936 -0.001721 0.000000 0.000000 0.000000
# 3 -0.002233 -0.001721 0.008931 0.000000 0.000000 0.000000
# 4 0.000000 0.000000 0.000000 0.057034 0.000000 0.000000
# 5 0.000000 0.000000 0.000000 0.000000 0.038895 0.000000
# 6 0.000000 0.000000 0.000000 0.000000 0.000000 0.285150
#
#
# Mechanical properties :
#
#
# Convention : Reuss Voigt Hill
#
# Bulk Modulus (GPa) = 54.16598 61.36792 57.76695
# Shear Modulus (GPa) = 11.48980 25.61837 18.55409
#
# Velocity S-wave (km/s) = 2.46484 3.68052 3.13222
# Velocity P-wave (km/s) = 6.06151 7.10711 6.60504
#
# Compressibility (1/GPa) = 0.01846177
#
# Stress axis : x y z
#
# Youngs Moduli (GPa) = 120.02500 62.75132 111.96734
#
# Poissons Ratio (x) = 0.21427 0.24998
# Poissons Ratio (y) = 0.40984 0.19272
# Poissons Ratio (z) = 0.26797 0.10801
#
# Static dielectric constant tensor:
#      x y z
#    x 3.386950 0.000000 0.000000 
#    y 0.000000 3.195470 0.000000 
#    z 0.000000 0.000000 3.403390 
# 
# 
# High freq. dielectric constant tensor:
#      x y z
#    x 1.738400 0.000000 0.000000 
#    y 0.000000 1.709310 0.000000 
#    z 0.000000 0.000000 1.732360 
# 
# From -- ./inp_files/936.got.cif
#   From: 2010.03.12/outbox.cif.g09.slc.cpg/sg38_1_cif.got.tgz:936.got - 2010.04.14 02:38:36.
