data_PCOD8180444
_publ_section_title
;
Structure prediction by ZEFSAII (Michael W. Deem and Ramdas Pophale) SiO2 
 PCOD8180444
Probable space group: A M M 2
;
_chemical_formula_sum "Si O2"
_cell_formula_units_Z 64
_cell_length_a 9.111558
_cell_length_b 14.540221
_cell_length_c 28.333625
_cell_angle_alpha 90.000000
_cell_angle_beta 90.000000
_cell_angle_gamma 90.000000
_cell_volume 3753.753872
_symmetry_space_group_name_H-M "A M M 2"
_symmetry_group_IT_number 38
_symmetry_cell_setting 'orthorhombic'
loop_
_space_group_symop_operation_xyz
x,y,z
-x,-y,z
-x,y,z
x,-y,z
x,1/2+y,1/2+z
-x,1/2-y,1/2+z
-x,1/2+y,1/2+z
x,1/2-y,1/2+z
loop_
_atom_site_type_symbol
_atom_site_label
_atom_site_fract_x
_atom_site_fract_y
_atom_site_fract_z
Si Si1 0.172405 0.102022 0.277410
Si Si2 0.825665 0.602097 0.145340
Si Si3 0.326188 0.275085 0.961338
Si Si4 0.174408 0.601983 0.317484
Si Si5 0.828600 0.606619 0.039011
Si Si6 0.329229 0.605266 0.872728
Si Si7 0.827745 0.606171 0.423187
Si Si8 0.173674 0.718809 0.231003
O O1 0.244471 0.135810 0.325875
O O2 0.214752 0.173033 0.235467
O O3 0.000000 0.102995 0.286515
O O4 0.227436 0.000000 0.262819
O O5 0.766750 0.500000 0.158083
O O6 0.778450 0.629288 0.092536
O O7 0.759553 0.675209 0.183081
O O8 0.000000 0.600745 0.147779
O O9 0.500000 0.268941 0.965084
O O10 0.274075 0.332175 0.915642
O O11 0.259729 0.172466 0.958806
O O12 0.266818 0.326697 0.007064
O O13 0.230976 0.500000 0.305173
O O14 0.227432 0.629545 0.370002
O O15 0.239292 0.669106 0.277522
O O16 0.000000 0.603486 0.317602
O O17 0.795193 0.500000 0.027259
O O18 0.000000 0.627576 0.031510
O O19 0.500000 0.619054 0.862859
O O20 0.292350 0.500000 0.885791
O O21 0.792020 0.500000 0.435564
O O22 0.000000 0.625031 0.428750
O O23 0.000000 0.704610 0.230245
#
# Coordination Sequence:
#
# PCOD8180444 Si02
#       8
#     8   8   8   8   8   8   8   8
#     4   9  17  27  40  62  90 118 149 183 218 258
#     4   8  14  25  42  65  90 114 142 178 222 270
#     4  11  21  31  47  69  92 121 156 192 231 277
#     4   8  13  21  36  61  89 114 142 177 218 263
#     4   9  18  32  49  69  92 117 148 189 235 281
#     4   9  18  31  44  61  89 123 156 188 224 269
#     4   9  18  32  48  67  94 126 158 191 224 262
#     4   9  14  21  38  62  88 116 143 177 220 262
#
# _framework density 17.049600999999999
#
# number of rings (size 3 to 8) (size 9 to 14) (size 15 to 20)
#    0.000    3.000    0.000    3.375    0.000    4.500 
#    0.000    1.250    0.000    1.500    0.000    3.500 
#    0.000    4.000    0.000    0.000    0.000    0.000 
#
# Total GULP energy -396627.151123 kJ/mol
# GULP energy per Si atom -12394.598473 kJ/mol
# Density = 1.701080 g / cm^3
# Si number density = 17.049601 Si / 1000 Ang^3
#
#
#
# Elastic Constant Matrix: (Units=GPa)
#
#
# Indices 1 2 3 4 5 6 
#
# 1 30.7254 33.6159 30.3786 0.0000 0.0000 0.0000
# 2 33.6159 120.8609 83.2545 0.0000 0.0000 0.0000
# 3 30.3786 83.2545 113.0028 0.0000 0.0000 0.0000
# 4 0.0000 0.0000 0.0000 31.2445 0.0000 0.0000
# 5 0.0000 0.0000 0.0000 0.0000 8.4442 0.0000
# 6 0.0000 0.0000 0.0000 0.0000 0.0000 14.7682
#
#
#
# Elastic Compliance Matrix: (Units=1/GPa)
#
#
# Indices 1 2 3 4 5 6 
#
# 1 0.048928 -0.009235 -0.006350 0.000000 0.000000 0.000000
# 2 -0.009235 0.018543 -0.011179 0.000000 0.000000 0.000000
# 3 -0.006350 -0.011179 0.018792 0.000000 0.000000 0.000000
# 4 0.000000 0.000000 0.000000 0.032006 0.000000 0.000000
# 5 0.000000 0.000000 0.000000 0.000000 0.118424 0.000000
# 6 0.000000 0.000000 0.000000 0.000000 0.000000 0.067713
#
#
# Mechanical properties :
#
#
# Convention : Reuss Voigt Hill
#
# Bulk Modulus (GPa) = 30.54686 62.12079 46.33383
# Shear Modulus (GPa) = 13.55583 18.71405 16.13494
#
# Velocity S-wave (km/s) = 2.82278 3.31663 3.07962
# Velocity P-wave (km/s) = 5.34598 7.15410 6.31509
#
# Compressibility (1/GPa) = 0.03273659
#
# Stress axis : x y z
#
# Youngs Moduli (GPa) = 20.43830 53.92839 53.21290
#
# Poissons Ratio (x) = 0.49801 0.33788
# Poissons Ratio (y) = 0.18874 0.59487
# Poissons Ratio (z) = 0.12978 0.60287
#
# Static dielectric constant tensor:
#      x y z
#    x 2.751150 0.000000 0.000000 
#    y 0.000000 3.379780 0.000000 
#    z 0.000000 0.000000 3.256540 
# 
# 
# High freq. dielectric constant tensor:
#      x y z
#    x 1.615320 0.000000 0.000000 
#    y 0.000000 1.663190 0.000000 
#    z 0.000000 0.000000 1.642010 
# 
# From -- ./inp_files/24763.got.cif
#   From: 2010.03.12/outbox.cif.g09.slc.cpg/sg38_13_cif.got.tgz:24763.got - 2010.04.14 02:38:36.
