data_PCOD8180702
_publ_section_title
;
Structure prediction by ZEFSAII (Michael W. Deem and Ramdas Pophale) SiO2 
 PCOD8180702
Probable space group: A B M 2
;
_chemical_formula_sum "Si O2"
_cell_formula_units_Z 44
_cell_length_a 8.869691
_cell_length_b 14.528803
_cell_length_c 17.637653
_cell_angle_alpha 90.000000
_cell_angle_beta 90.000000
_cell_angle_gamma 90.000000
_cell_volume 2272.893672
_symmetry_space_group_name_H-M "A B M 2"
_symmetry_group_IT_number 39
_symmetry_cell_setting 'orthorhombic'
loop_
_space_group_symop_operation_xyz
x,y,z
-x,-y,z
-x,1/2+y,z
x,1/2-y,z
x,1/2+y,1/2+z
-x,1/2-y,1/2+z
-x,y,1/2+z
x,-y,1/2+z
loop_
_atom_site_type_symbol
_atom_site_label
_atom_site_fract_x
_atom_site_fract_y
_atom_site_fract_z
Si Si1 0.750036 0.750000 0.345031
Si Si2 0.382879 0.750000 0.091242
Si Si3 0.470881 0.396262 0.296975
Si Si4 0.914031 0.750000 0.495803
Si Si5 0.705020 0.250000 0.263353
Si Si6 0.066397 0.101814 0.091852
Si Si7 0.411264 0.590390 0.622279
Si Si8 0.978163 0.750000 0.216815
O O1 0.646712 0.657796 0.351039
O O2 0.883955 0.750000 0.406058
O O3 0.822997 0.750000 0.261939
O O4 0.252152 0.750000 0.030400
O O5 0.308068 0.750000 0.173112
O O6 0.491993 0.834991 0.078493
O O7 0.500000 0.500000 0.326662
O O8 0.629606 0.341763 0.297817
O O9 0.402217 0.395413 0.212561
O O10 0.006178 0.657972 0.518642
O O11 0.884163 0.250000 0.277469
O O12 0.245527 0.092444 0.087007
O O13 0.013918 0.158208 0.165767
O O14 0.000000 0.000000 0.095027
O O15 0.500000 0.500000 0.600959
#
# Coordination Sequence:
#
# PCOD8180702 Si02
#       8
#     4   4   8   4   4   8   8   4
#     4  11  22  42  57  88 127 167 195 243 314 375
#     4  10  17  34  54  82 112 150 192 241 297 368
#     4   9  19  35  60  88 119 155 204 257 302 362
#     4  11  24  40  61  85 133 168 193 248 317 384
#     4   9  18  31  56  88 116 141 204 259 303 356
#     4  11  22  38  60  91 121 156 207 265 305 368
#     4  10  19  32  61  91 113 145 202 262 306 345
#     4  11  21  35  60  87 118 158 200 255 317 357
#
# _framework density 19.358581999999998
#
# number of rings (size 3 to 8) (size 9 to 14) (size 15 to 20)
#    0.000    1.818    3.636    2.727    5.091    0.000 
#    0.000    9.091    0.000    0.000    0.000    0.000 
#    0.000    0.000    0.000    0.000    0.000    0.000 
#
# Total GULP energy -272747.131154 kJ/mol
# GULP energy per Si atom -12397.596871 kJ/mol
# Density = 1.931452 g / cm^3
# Si number density = 19.358582 Si / 1000 Ang^3
#
#
#
# Elastic Constant Matrix: (Units=GPa)
#
#
# Indices 1 2 3 4 5 6 
#
# 1 139.3234 65.1659 19.7361 0.0000 0.0000 0.0000
# 2 65.1659 183.2532 30.8546 0.0000 0.0000 0.0000
# 3 19.7361 30.8546 48.0761 0.0000 0.0000 0.0000
# 4 0.0000 0.0000 0.0000 11.5210 0.0000 0.0000
# 5 0.0000 0.0000 0.0000 0.0000 31.4013 0.0000
# 6 0.0000 0.0000 0.0000 0.0000 0.0000 34.5996
#
#
#
# Elastic Compliance Matrix: (Units=1/GPa)
#
#
# Indices 1 2 3 4 5 6 
#
# 1 0.008744 -0.002809 -0.001787 0.000000 0.000000 0.000000
# 2 -0.002809 0.007020 -0.003352 0.000000 0.000000 0.000000
# 3 -0.001787 -0.003352 0.023686 0.000000 0.000000 0.000000
# 4 0.000000 0.000000 0.000000 0.086798 0.000000 0.000000
# 5 0.000000 0.000000 0.000000 0.000000 0.031846 0.000000
# 6 0.000000 0.000000 0.000000 0.000000 0.000000 0.028902
#
#
# Mechanical properties :
#
#
# Convention : Reuss Voigt Hill
#
# Bulk Modulus (GPa) = 42.45635 66.90731 54.68183
# Shear Modulus (GPa) = 23.72546 32.49744 28.11145
#
# Velocity S-wave (km/s) = 3.50462 4.10165 3.81483
# Velocity P-wave (km/s) = 6.19320 7.55437 6.90739
#
# Compressibility (1/GPa) = 0.02355360
#
# Stress axis : x y z
#
# Youngs Moduli (GPa) = 114.35882 142.44695 42.21977
#
# Poissons Ratio (x) = 0.40008 0.07545
# Poissons Ratio (y) = 0.32119 0.14154
# Poissons Ratio (z) = 0.20438 0.47755
#
# Static dielectric constant tensor:
#      x y z
#    x 3.690170 0.000000 0.000000 
#    y 0.000000 3.723560 0.000000 
#    z 0.000000 0.000000 3.087470 
# 
# 
# High freq. dielectric constant tensor:
#      x y z
#    x 1.769850 0.000000 0.000000 
#    y 0.000000 1.765580 0.000000 
#    z 0.000000 0.000000 1.704100 
# 
# From -- ./inp_files/11566.got.cif
#   From: 2010.03.12/outbox.cif.g09.slc.cpg/sg39_6_cif.got.tgz:11566.got - 2010.04.14 02:53:20.
