data_PCOD8180527
_publ_section_title
;
Structure prediction by ZEFSAII (Michael W. Deem and Ramdas Pophale) SiO2 
 PCOD8180527
Probable space group: A M M 2
;
_chemical_formula_sum "Si O2"
_cell_formula_units_Z 64
_cell_length_a 9.235663
_cell_length_b 18.465593
_cell_length_c 26.417309
_cell_angle_alpha 90.000000
_cell_angle_beta 90.000000
_cell_angle_gamma 90.000000
_cell_volume 4505.260554
_symmetry_space_group_name_H-M "A M M 2"
_symmetry_group_IT_number 38
_symmetry_cell_setting 'orthorhombic'
loop_
_space_group_symop_operation_xyz
x,y,z
-x,-y,z
-x,y,z
x,-y,z
x,1/2+y,1/2+z
-x,1/2-y,1/2+z
-x,1/2+y,1/2+z
x,1/2-y,1/2+z
loop_
_atom_site_type_symbol
_atom_site_label
_atom_site_fract_x
_atom_site_fract_y
_atom_site_fract_z
Si Si1 0.164872 0.159053 0.501980
Si Si2 0.330727 0.294789 0.148540
Si Si3 0.169494 0.916887 0.605799
Si Si4 0.668545 0.840247 0.206291
Si Si5 0.327831 0.081194 0.302874
Si Si6 0.329561 0.416083 0.604272
Si Si7 0.832204 0.293285 0.563073
Si Si8 0.329175 0.917400 0.415237
O O1 0.216452 0.113410 0.551012
O O2 0.180574 0.245803 0.511622
O O3 0.260250 0.138453 0.454169
O O4 0.000000 0.138378 0.489798
O O5 0.500000 0.304740 0.137586
O O6 0.254367 0.373447 0.150334
O O7 0.304809 0.246298 0.199149
O O8 0.257677 0.250283 0.104144
O O9 0.000000 0.905094 0.614617
O O10 0.215583 0.000000 0.609819
O O11 0.500000 0.857894 0.209033
O O12 0.739002 0.866182 0.259464
O O13 0.727863 0.886895 0.158679
O O14 0.500000 0.084292 0.303554
O O15 0.273223 0.103731 0.358855
O O16 0.275999 0.000000 0.290150
O O17 0.500000 0.401658 0.597548
O O18 0.290732 0.500000 0.598960
O O19 0.242338 0.372678 0.559949
O O20 0.000000 0.300305 0.579079
O O21 0.500000 0.909259 0.419066
O O22 0.283141 0.000000 0.427796
#
# Coordination Sequence:
#
# PCOD8180527 Si02
#       8
#     8   8   8   8   8   8   8   8
#     4   9  17  28  40  52  70 100 132 157 184 221
#     4   9  16  25  38  57  77  97 125 160 193 221
#     4   9  17  28  40  54  74 102 132 156 184 228
#     4   8  13  22  37  55  76 103 129 151 180 220
#     4   8  13  22  36  54  76 100 126 155 184 216
#     4   9  16  25  39  60  81 100 126 158 189 221
#     4   9  17  28  39  52  73 102 132 157 185 225
#     4   9  17  26  37  56  77  96 124 161 193 219
#
# _framework density 14.205615999999999
#
# number of rings (size 3 to 8) (size 9 to 14) (size 15 to 20)
#    0.000    3.250    0.000    3.750    0.000    5.250 
#    0.000    0.000    0.000    3.750    0.000    3.500 
#    0.000    1.000    0.000    5.000    0.000    3.500 
#
# Total GULP energy -396449.176252 kJ/mol
# GULP energy per Si atom -12389.036758 kJ/mol
# Density = 1.417328 g / cm^3
# Si number density = 14.205616 Si / 1000 Ang^3
#
#
#
# Elastic Constant Matrix: (Units=GPa)
#
#
# Indices 1 2 3 4 5 6 
#
# 1 40.7188 40.3962 28.6771 0.0000 0.0000 0.0000
# 2 40.3962 113.5921 53.8118 0.0000 0.0000 0.0000
# 3 28.6771 53.8118 74.9660 0.0000 0.0000 0.0000
# 4 0.0000 0.0000 0.0000 23.9606 0.0000 0.0000
# 5 0.0000 0.0000 0.0000 0.0000 3.2519 0.0000
# 6 0.0000 0.0000 0.0000 0.0000 0.0000 22.8083
#
#
#
# Elastic Compliance Matrix: (Units=1/GPa)
#
#
# Indices 1 2 3 4 5 6 
#
# 1 0.040794 -0.010781 -0.007867 0.000000 0.000000 0.000000
# 2 -0.010781 0.016189 -0.007496 0.000000 0.000000 0.000000
# 3 -0.007867 -0.007496 0.021730 0.000000 0.000000 0.000000
# 4 0.000000 0.000000 0.000000 0.041735 0.000000 0.000000
# 5 0.000000 0.000000 0.000000 0.000000 0.307510 0.000000
# 6 0.000000 0.000000 0.000000 0.000000 0.000000 0.043844
#
#
# Mechanical properties :
#
#
# Convention : Reuss Voigt Hill
#
# Bulk Modulus (GPa) = 37.84305 52.78305 45.31305
# Shear Modulus (GPa) = 9.38267 17.09694 13.23980
#
# Velocity S-wave (km/s) = 2.57279 3.47296 3.05620
# Velocity P-wave (km/s) = 5.96012 7.30199 6.66491
#
# Compressibility (1/GPa) = 0.02642493
#
# Stress axis : x y z
#
# Youngs Moduli (GPa) = 24.51320 61.77167 46.02006
#
# Poissons Ratio (x) = 0.66595 0.36202
# Poissons Ratio (y) = 0.26427 0.34499
# Poissons Ratio (z) = 0.19283 0.46307
#
# Static dielectric constant tensor:
#      x y z
#    x 2.698730 0.000000 0.000000 
#    y 0.000000 3.151570 0.000000 
#    z 0.000000 0.000000 2.799860 
# 
# 
# High freq. dielectric constant tensor:
#      x y z
#    x 1.529240 0.000000 0.000000 
#    y 0.000000 1.537540 0.000000 
#    z 0.000000 0.000000 1.507380 
# 
# From -- ./inp_files/23631.got.cif
#   From: 2010.03.12/outbox.cif.g09.slc.cpg/sg38_12_cif.got.tgz:23631.got - 2010.04.14 02:38:36.
