data_PCOD8180405
_publ_section_title
;
Structure prediction by ZEFSAII (Michael W. Deem and Ramdas Pophale) SiO2 
 PCOD8180405
Probable space group: A M M 2
;
_chemical_formula_sum "Si O2"
_cell_formula_units_Z 24
_cell_length_a 8.475893
_cell_length_b 18.830867
_cell_length_c 7.479232
_cell_angle_alpha 90.000000
_cell_angle_beta 90.000000
_cell_angle_gamma 90.000000
_cell_volume 1193.748356
_symmetry_space_group_name_H-M "A M M 2"
_symmetry_group_IT_number 38
_symmetry_cell_setting 'orthorhombic'
loop_
_space_group_symop_operation_xyz
x,y,z
-x,-y,z
-x,y,z
x,-y,z
x,1/2+y,1/2+z
-x,1/2-y,1/2+z
-x,1/2+y,1/2+z
x,1/2-y,1/2+z
loop_
_atom_site_type_symbol
_atom_site_label
_atom_site_fract_x
_atom_site_fract_y
_atom_site_fract_z
Si Si1 0.816771 0.677554 0.143660
Si Si2 0.184440 0.581621 0.473529
Si Si3 0.681571 0.823459 0.265147
O O1 0.759872 0.625666 0.300884
O O2 0.789367 0.758495 0.200999
O O3 0.000000 0.666825 0.099910
O O4 0.717216 0.657100 0.969591
O O5 0.226708 0.500000 0.439324
O O6 0.280117 0.608052 0.645718
O O7 0.000000 0.593029 0.509928
O O8 0.500000 0.801687 0.243670
#
# Coordination Sequence:
#
# PCOD8180405 Si02
#       3
#     8   8   8
#     4  11  22  39  65  92 123 166 213 259 305 370
#     4  10  23  43  66  92 124 165 213 261 309 368
#     4  12  24  38  62  95 129 164 205 260 316 370
#
# _framework density 20.104741000000001
#
# number of rings (size 3 to 8) (size 9 to 14) (size 15 to 20)
#    0.000    1.000    3.333    4.000    0.000    3.333 
#    0.000    3.333    0.000    0.000    0.000    0.000 
#    0.000    0.000    0.000    0.000    0.000    0.000 
#
# Total GULP energy -148903.716959 kJ/mol
# GULP energy per Si atom -12408.643080 kJ/mol
# Density = 2.005898 g / cm^3
# Si number density = 20.104741 Si / 1000 Ang^3
#
#
#
# Elastic Constant Matrix: (Units=GPa)
#
#
# Indices 1 2 3 4 5 6 
#
# 1 54.6042 18.7458 30.1842 0.0000 0.0000 0.0000
# 2 18.7458 104.5237 46.6596 0.0000 0.0000 0.0000
# 3 30.1842 46.6596 145.0250 0.0000 0.0000 0.0000
# 4 0.0000 0.0000 0.0000 34.7265 0.0000 0.0000
# 5 0.0000 0.0000 0.0000 0.0000 22.3358 0.0000
# 6 0.0000 0.0000 0.0000 0.0000 0.0000 12.1211
#
#
#
# Elastic Compliance Matrix: (Units=1/GPa)
#
#
# Indices 1 2 3 4 5 6 
#
# 1 0.021093 -0.002129 -0.003705 0.000000 0.000000 0.000000
# 2 -0.002129 0.011387 -0.003220 0.000000 0.000000 0.000000
# 3 -0.003705 -0.003220 0.008703 0.000000 0.000000 0.000000
# 4 0.000000 0.000000 0.000000 0.028796 0.000000 0.000000
# 5 0.000000 0.000000 0.000000 0.000000 0.044771 0.000000
# 6 0.000000 0.000000 0.000000 0.000000 0.000000 0.082501
#
#
# Mechanical properties :
#
#
# Convention : Reuss Voigt Hill
#
# Bulk Modulus (GPa) = 43.34053 55.03691 49.18872
# Shear Modulus (GPa) = 22.41652 27.74091 25.07872
#
# Velocity S-wave (km/s) = 3.34276 3.71862 3.53569
# Velocity P-wave (km/s) = 6.04177 6.77289 6.41775
#
# Compressibility (1/GPa) = 0.02307309
#
# Stress axis : x y z
#
# Youngs Moduli (GPa) = 47.41002 87.82260 114.90805
#
# Poissons Ratio (x) = 0.18696 0.42574
# Poissons Ratio (y) = 0.10093 0.37005
# Poissons Ratio (z) = 0.17566 0.28282
#
# Static dielectric constant tensor:
#      x y z
#    x 3.532970 0.000000 0.000000 
#    y 0.000000 3.543740 0.000000 
#    z 0.000000 0.000000 3.852710 
# 
# 
# High freq. dielectric constant tensor:
#      x y z
#    x 1.783060 0.000000 0.000000 
#    y 0.000000 1.776230 0.000000 
#    z 0.000000 0.000000 1.800190 
# 
# From -- ./inp_files/2735.got.cif
#   From: 2010.03.12/outbox.cif.g09.slc.cpg/sg38_2_cif.got.tgz:2735.got - 2010.04.14 02:38:36.
