data_PCOD8180200
_publ_section_title
;
Structure prediction by ZEFSAII (Michael W. Deem and Ramdas Pophale) SiO2 
 PCOD8180200
Probable space group: A M M 2
;
_chemical_formula_sum "Si O2"
_cell_formula_units_Z 64
_cell_length_a 8.705720
_cell_length_b 23.630423
_cell_length_c 15.379409
_cell_angle_alpha 90.000000
_cell_angle_beta 90.000000
_cell_angle_gamma 90.000000
_cell_volume 3163.849653
_symmetry_space_group_name_H-M "A M M 2"
_symmetry_group_IT_number 38
_symmetry_cell_setting 'orthorhombic'
loop_
_space_group_symop_operation_xyz
x,y,z
-x,-y,z
-x,y,z
x,-y,z
x,1/2+y,1/2+z
-x,1/2-y,1/2+z
-x,1/2+y,1/2+z
x,1/2-y,1/2+z
loop_
_atom_site_type_symbol
_atom_site_label
_atom_site_fract_x
_atom_site_fract_y
_atom_site_fract_z
Si Si1 0.682036 0.363062 0.423940
Si Si2 0.322804 0.933946 0.594005
Si Si3 0.323228 0.871257 0.255673
Si Si4 0.180488 0.863570 0.746171
Si Si5 0.682836 0.436078 0.585646
Si Si6 0.818840 0.247550 0.993365
Si Si7 0.179584 0.127253 0.436709
Si Si8 0.677112 0.749450 0.180859
O O1 0.500000 0.362180 0.423527
O O2 0.742551 0.388860 0.333254
O O3 0.746157 0.401842 0.502350
O O4 0.743163 0.299257 0.431843
O O5 0.500000 0.918238 0.609092
O O6 0.220376 0.902557 0.664914
O O7 0.272707 0.914771 0.498521
O O8 0.292760 0.000000 0.603563
O O9 0.500000 0.887244 0.273610
O O10 0.258151 0.906215 0.173471
O O11 0.222170 0.888519 0.338299
O O12 0.305550 0.804796 0.239294
O O13 0.240209 0.800419 0.731697
O O14 0.000000 0.861744 0.758602
O O15 0.500000 0.434953 0.583922
O O16 0.746268 0.500000 0.581902
O O17 0.770101 0.308696 0.957559
O O18 0.000000 0.239573 0.992802
O O19 0.757136 0.239065 0.089745
O O20 0.000000 0.118136 0.452481
O O21 0.500000 0.733883 0.164229
#
# Coordination Sequence:
#
# PCOD8180200 Si02
#       8
#     8   8   8   8   8   8   8   8
#     4  11  22  39  63  92 123 163 211 258 307 365
#     4  11  25  45  68  91 117 159 213 261 306 365
#     4  10  21  38  61  92 123 160 207 252 304 362
#     4  12  25  41  62  93 128 163 200 250 317 377
#     4   9  19  38  62  87 117 155 205 260 305 348
#     4  11  22  37  60  91 127 165 200 248 315 375
#     4  11  24  40  61  92 126 162 199 247 314 372
#     4  11  21  37  63  93 124 161 205 253 304 368
#
# _framework density 20.228522000000002
#
# number of rings (size 3 to 8) (size 9 to 14) (size 15 to 20)
#    0.000    1.250    2.500    3.750    0.000    6.500 
#    0.000    2.500    0.000    2.625    0.000    0.000 
#    0.000    0.000    0.000    0.000    0.000    0.000 
#
# Total GULP energy -396992.571118 kJ/mol
# GULP energy per Si atom -12406.017847 kJ/mol
# Density = 2.018248 g / cm^3
# Si number density = 20.228522 Si / 1000 Ang^3
#
#
#
# Elastic Constant Matrix: (Units=GPa)
#
#
# Indices 1 2 3 4 5 6 
#
# 1 77.3532 30.5671 23.7041 0.0000 0.0000 0.0000
# 2 30.5671 88.9686 27.8913 0.0000 0.0000 0.0000
# 3 23.7041 27.8913 127.5127 0.0000 0.0000 0.0000
# 4 0.0000 0.0000 0.0000 10.1707 0.0000 0.0000
# 5 0.0000 0.0000 0.0000 0.0000 20.5482 0.0000
# 6 0.0000 0.0000 0.0000 0.0000 0.0000 6.6069
#
#
#
# Elastic Compliance Matrix: (Units=1/GPa)
#
#
# Indices 1 2 3 4 5 6 
#
# 1 0.015344 -0.004700 -0.001824 0.000000 0.000000 0.000000
# 2 -0.004700 0.013507 -0.002081 0.000000 0.000000 0.000000
# 3 -0.001824 -0.002081 0.008637 0.000000 0.000000 0.000000
# 4 0.000000 0.000000 0.000000 0.098322 0.000000 0.000000
# 5 0.000000 0.000000 0.000000 0.000000 0.048666 0.000000
# 6 0.000000 0.000000 0.000000 0.000000 0.000000 0.151357
#
#
# Mechanical properties :
#
#
# Convention : Reuss Voigt Hill
#
# Bulk Modulus (GPa) = 49.31531 50.90659 50.11095
# Shear Modulus (GPa) = 13.89656 21.57664 17.73660
#
# Velocity S-wave (km/s) = 2.62387 3.26950 2.96431
# Velocity P-wave (km/s) = 5.79755 6.28277 6.04503
#
# Compressibility (1/GPa) = 0.02027768
#
# Stress axis : x y z
#
# Youngs Moduli (GPa) = 65.17218 74.03596 115.78596
#
# Poissons Ratio (x) = 0.34796 0.21124
# Poissons Ratio (y) = 0.30630 0.24092
# Poissons Ratio (z) = 0.11890 0.15405
#
# Static dielectric constant tensor:
#      x y z
#    x 3.574970 0.000000 0.000000 
#    y 0.000000 3.733120 0.000000 
#    z 0.000000 0.000000 3.798280 
# 
# 
# High freq. dielectric constant tensor:
#      x y z
#    x 1.784170 0.000000 0.000000 
#    y 0.000000 1.786860 0.000000 
#    z 0.000000 0.000000 1.806450 
# 
# From -- ./inp_files/12762.got.cif
#   From: 2010.03.12/outbox.cif.g09.slc.cpg/sg38_7_cif.got.tgz:12762.got - 2010.04.14 02:38:36.
