data_PCOD8180659
_publ_section_title
;
Structure prediction by ZEFSAII (Michael W. Deem and Ramdas Pophale) SiO2 
 PCOD8180659
Probable space group: A B M 2
;
_chemical_formula_sum "Si O2"
_cell_formula_units_Z 64
_cell_length_a 20.932095
_cell_length_b 8.844928
_cell_length_c 18.687903
_cell_angle_alpha 90.000000
_cell_angle_beta 90.000000
_cell_angle_gamma 90.000000
_cell_volume 3459.932055
_symmetry_space_group_name_H-M "A B M 2"
_symmetry_group_IT_number 39
_symmetry_cell_setting 'orthorhombic'
loop_
_space_group_symop_operation_xyz
x,y,z
-x,-y,z
-x,1/2+y,z
x,1/2-y,z
x,1/2+y,1/2+z
-x,1/2-y,1/2+z
-x,y,1/2+z
x,-y,1/2+z
loop_
_atom_site_type_symbol
_atom_site_label
_atom_site_fract_x
_atom_site_fract_y
_atom_site_fract_z
Si Si1 0.185750 0.070211 0.342860
Si Si2 0.560186 0.926679 0.244076
Si Si3 0.699986 0.925509 0.248659
Si Si4 0.934829 0.928264 0.252564
Si Si5 0.934596 0.928492 0.089714
Si Si6 0.436733 0.570813 0.088672
Si Si7 0.308202 0.070940 0.087321
Si Si8 0.814984 0.928455 0.997601
O O1 0.188380 0.250000 0.346616
O O2 0.247352 0.001536 0.300973
O O3 0.123080 0.013063 0.301231
O O4 0.184907 0.006496 0.421678
O O5 0.548031 0.750000 0.229553
O O6 0.628823 0.951412 0.282395
O O7 0.500000 0.000000 0.288046
O O8 0.563352 0.016855 0.170286
O O9 0.716209 0.750000 0.242610
O O10 0.704318 0.990883 0.168005
O O11 0.941454 0.750000 0.256969
O O12 0.922069 0.981353 0.171178
O O13 0.000000 0.000000 0.282510
O O14 0.940868 0.750000 0.085161
O O15 0.876020 0.987394 0.041930
O O16 0.000000 0.000000 0.059860
O O17 0.500000 0.500000 0.050492
O O18 0.439008 0.750000 0.082014
O O19 0.371306 0.507739 0.053555
O O20 0.319629 0.250000 0.088297
O O21 0.248525 0.022443 0.039395
O O22 0.817732 0.750000 0.987597
#
# Coordination Sequence:
#
# PCOD8180659 Si02
#       8
#     8   8   8   8   8   8   8   8
#     4  10  20  34  51  71  97 129 165 201 240 290
#     4   9  15  25  43  68  97 126 158 198 244 290
#     4   8  15  29  50  71  91 123 164 201 237 281
#     4   9  18  33  54  76  97 125 160 200 242 286
#     4   9  18  34  55  77 100 128 164 203 244 290
#     4  10  17  26  43  70 101 128 158 199 247 294
#     4   9  17  32  52  71  94 127 167 206 244 289
#     4  10  21  35  51  72 100 132 164 202 247 292
#
# _framework density 18.497472999999999
#
# number of rings (size 3 to 8) (size 9 to 14) (size 15 to 20)
#    0.000    2.750    0.000    3.750    0.000    5.000 
#    0.000    5.625    0.000    6.750    0.000    3.500 
#    0.000    0.000    0.000    0.000    0.000    0.000 
#
# Total GULP energy -396615.479814 kJ/mol
# GULP energy per Si atom -12394.233744 kJ/mol
# Density = 1.845537 g / cm^3
# Si number density = 18.497473 Si / 1000 Ang^3
#
#
#
# Elastic Constant Matrix: (Units=GPa)
#
#
# Indices 1 2 3 4 5 6 
#
# 1 214.9426 54.5644 82.5773 0.0000 0.0000 0.0000
# 2 54.5644 51.6909 26.3117 0.0000 0.0000 0.0000
# 3 82.5773 26.3117 87.8686 0.0000 0.0000 0.0000
# 4 0.0000 0.0000 0.0000 22.8194 0.0000 0.0000
# 5 0.0000 0.0000 0.0000 0.0000 6.3538 0.0000
# 6 0.0000 0.0000 0.0000 0.0000 0.0000 32.1536
#
#
#
# Elastic Compliance Matrix: (Units=1/GPa)
#
#
# Indices 1 2 3 4 5 6 
#
# 1 0.008546 -0.005820 -0.006288 0.000000 0.000000 0.000000
# 2 -0.005820 0.026788 -0.002552 0.000000 0.000000 0.000000
# 3 -0.006288 -0.002552 0.018055 0.000000 0.000000 0.000000
# 4 0.000000 0.000000 0.000000 0.043822 0.000000 0.000000
# 5 0.000000 0.000000 0.000000 0.000000 0.157387 0.000000
# 6 0.000000 0.000000 0.000000 0.000000 0.000000 0.031101
#
#
# Mechanical properties :
#
#
# Convention : Reuss Voigt Hill
#
# Bulk Modulus (GPa) = 41.54945 75.71209 58.63077
# Shear Modulus (GPa) = 15.47789 25.00194 20.23992
#
# Velocity S-wave (km/s) = 2.89581 3.68046 3.31146
# Velocity P-wave (km/s) = 5.80448 7.68641 6.81076
#
# Compressibility (1/GPa) = 0.02406771
#
# Stress axis : x y z
#
# Youngs Moduli (GPa) = 117.01807 37.32980 55.38769
#
# Poissons Ratio (x) = 0.21725 0.34830
# Poissons Ratio (y) = 0.68103 0.14136
# Poissons Ratio (z) = 0.73585 0.09527
#
# Static dielectric constant tensor:
#      x y z
#    x 4.180710 0.000000 0.000000 
#    y 0.000000 3.220880 0.000000 
#    z 0.000000 0.000000 3.109830 
# 
# 
# High freq. dielectric constant tensor:
#      x y z
#    x 1.746500 0.000000 0.000000 
#    y 0.000000 1.698330 0.000000 
#    z 0.000000 0.000000 1.674300 
# 
# From -- ./inp_files/13143.got.cif
#   From: 2010.03.12/outbox.cif.g09.slc.cpg/sg39_7_cif.got.tgz:13143.got - 2010.04.14 02:53:20.
