data_PCOD8180106
_publ_section_title
;
Structure prediction by ZEFSAII (Michael W. Deem and Ramdas Pophale) SiO2 
 PCOD8180106
Probable space group: A M M 2
;
_chemical_formula_sum "Si O2"
_cell_formula_units_Z 64
_cell_length_a 24.020072
_cell_length_b 8.690934
_cell_length_c 15.402817
_cell_angle_alpha 90.000000
_cell_angle_beta 90.000000
_cell_angle_gamma 90.000000
_cell_volume 3215.443719
_symmetry_space_group_name_H-M "A M M 2"
_symmetry_group_IT_number 38
_symmetry_cell_setting 'orthorhombic'
loop_
_space_group_symop_operation_xyz
x,y,z
-x,-y,z
-x,y,z
x,-y,z
x,1/2+y,1/2+z
-x,1/2-y,1/2+z
-x,1/2+y,1/2+z
x,1/2-y,1/2+z
loop_
_atom_site_type_symbol
_atom_site_label
_atom_site_fract_x
_atom_site_fract_y
_atom_site_fract_z
Si Si1 0.062060 0.818385 0.049850
Si Si2 0.562368 0.182019 0.049163
Si Si3 0.140218 0.321464 0.395654
Si Si4 0.638270 0.317421 0.703354
Si Si5 0.241690 0.680603 0.646957
Si Si6 0.870443 0.176267 0.701818
Si Si7 0.631588 0.678663 0.897465
Si Si8 0.753933 0.321937 0.962650
O O1 0.089425 0.774735 0.141172
O O2 0.000000 0.747256 0.044291
O O3 0.058774 0.000000 0.044281
O O4 0.098422 0.756257 0.969148
O O5 0.500000 0.250628 0.050488
O O6 0.595964 0.251274 0.131558
O O7 0.560478 0.000000 0.056134
O O8 0.592101 0.225319 0.959926
O O9 0.154893 0.500000 0.412270
O O10 0.111239 0.300502 0.301851
O O11 0.196597 0.221266 0.396972
O O12 0.640068 0.500000 0.696001
O O13 0.700138 0.255060 0.684382
O O14 0.618549 0.267197 0.799129
O O15 0.233903 0.500000 0.663915
O O16 0.193247 0.771831 0.694750
O O17 0.239487 0.711936 0.544861
O O18 0.875471 0.000000 0.672791
O O19 0.617845 0.500000 0.910555
O O20 0.696009 0.713390 0.915539
O O21 0.757994 0.500000 0.990340
#
# Coordination Sequence:
#
# PCOD8180106 Si02
#       8
#     8   8   8   8   8   8   8   8
#     4  10  22  41  62  83 112 155 201 240 282 336
#     4  10  21  38  58  80 109 147 193 239 280 330
#     4  10  22  39  60  86 118 157 192 229 287 349
#     4   9  19  36  58  83 111 150 190 226 277 342
#     4  11  20  35  60  85 116 155 191 229 287 351
#     4  11  23  38  59  90 121 150 191 239 289 342
#     4  10  21  37  58  85 115 147 185 231 285 340
#     4  11  21  34  57  89 121 149 186 237 287 341
#
# _framework density 19.903941
#
# number of rings (size 3 to 8) (size 9 to 14) (size 15 to 20)
#    0.000    1.750    2.500    1.875    0.000    4.000 
#    0.000    4.375    0.000    0.000    0.000    0.000 
#    0.000    0.000    0.000    0.000    0.000    0.000 
#
# Total GULP energy -396880.949936 kJ/mol
# GULP energy per Si atom -12402.529686 kJ/mol
# Density = 1.985864 g / cm^3
# Si number density = 19.903941 Si / 1000 Ang^3
#
#
#
# Elastic Constant Matrix: (Units=GPa)
#
#
# Indices 1 2 3 4 5 6 
#
# 1 145.4945 14.9219 55.6599 0.0000 0.0000 0.0000
# 2 14.9219 16.3618 9.3526 0.0000 0.0000 0.0000
# 3 55.6599 9.3526 132.4238 0.0000 0.0000 0.0000
# 4 0.0000 0.0000 0.0000 29.2484 0.0000 0.0000
# 5 0.0000 0.0000 0.0000 0.0000 14.3956 0.0000
# 6 0.0000 0.0000 0.0000 0.0000 0.0000 14.6360
#
#
#
# Elastic Compliance Matrix: (Units=1/GPa)
#
#
# Indices 1 2 3 4 5 6 
#
# 1 0.008741 -0.006119 -0.003242 0.000000 0.000000 0.000000
# 2 -0.006119 0.067972 -0.002229 0.000000 0.000000 0.000000
# 3 -0.003242 -0.002229 0.009071 0.000000 0.000000 0.000000
# 4 0.000000 0.000000 0.000000 0.034190 0.000000 0.000000
# 5 0.000000 0.000000 0.000000 0.000000 0.069466 0.000000
# 6 0.000000 0.000000 0.000000 0.000000 0.000000 0.068325
#
#
# Mechanical properties :
#
#
# Convention : Reuss Voigt Hill
#
# Bulk Modulus (GPa) = 15.97292 50.46099 33.21695
# Shear Modulus (GPa) = 16.56662 25.94571 21.25617
#
# Velocity S-wave (km/s) = 2.88814 3.61438 3.27148
# Velocity P-wave (km/s) = 4.37770 6.54413 5.56731
#
# Compressibility (1/GPa) = 0.06260596
#
# Stress axis : x y z
#
# Youngs Moduli (GPa) = 114.40615 14.71193 110.23540
#
# Poissons Ratio (x) = 0.09002 0.35736
# Poissons Ratio (y) = 0.70000 0.24570
# Poissons Ratio (z) = 0.37088 0.03279
#
# Static dielectric constant tensor:
#      x y z
#    x 3.828630 0.000000 0.000000 
#    y 0.000000 3.378590 0.000000 
#    z 0.000000 0.000000 3.751590 
# 
# 
# High freq. dielectric constant tensor:
#      x y z
#    x 1.775820 0.000000 0.000000 
#    y 0.000000 1.754690 0.000000 
#    z 0.000000 0.000000 1.788750 
# 
# From -- ./inp_files/15779.got.cif
#   From: 2010.03.12/outbox.cif.g09.slc.cpg/sg38_8_cif.got.tgz:15779.got - 2010.04.14 02:38:36.
