data_PCOD8180427
_publ_section_title
;
Structure prediction by ZEFSAII (Michael W. Deem and Ramdas Pophale) SiO2 
 PCOD8180427
Probable space group: A M M 2
;
_chemical_formula_sum "Si O2"
_cell_formula_units_Z 64
_cell_length_a 8.959946
_cell_length_b 19.590386
_cell_length_c 20.842252
_cell_angle_alpha 90.000000
_cell_angle_beta 90.000000
_cell_angle_gamma 90.000000
_cell_volume 3658.415497
_symmetry_space_group_name_H-M "A M M 2"
_symmetry_group_IT_number 38
_symmetry_cell_setting 'orthorhombic'
loop_
_space_group_symop_operation_xyz
x,y,z
-x,-y,z
-x,y,z
x,-y,z
x,1/2+y,1/2+z
-x,1/2-y,1/2+z
-x,1/2+y,1/2+z
x,1/2-y,1/2+z
loop_
_atom_site_type_symbol
_atom_site_label
_atom_site_fract_x
_atom_site_fract_y
_atom_site_fract_z
Si Si1 0.175658 0.207965 0.881560
Si Si2 0.823321 0.925765 0.681200
Si Si3 0.330109 0.924611 0.549037
Si Si4 0.673287 0.782578 0.497431
Si Si5 0.671447 0.922972 0.076030
Si Si6 0.823392 0.707518 0.616644
Si Si7 0.176538 0.289396 0.239138
Si Si8 0.328439 0.077269 0.925956
O O1 0.223939 0.233648 0.810499
O O2 0.222723 0.128905 0.887857
O O3 0.000000 0.213487 0.892787
O O4 0.258149 0.255869 0.931700
O O5 0.777249 0.911085 0.608461
O O6 0.758269 0.865537 0.725767
O O7 0.000000 0.925908 0.682989
O O8 0.761272 0.000000 0.704006
O O9 0.500000 0.920420 0.574023
O O10 0.301212 0.864546 0.497561
O O11 0.298879 0.000000 0.518529
O O12 0.500000 0.762520 0.499017
O O13 0.748860 0.748700 0.558935
O O14 0.500000 0.911609 0.095569
O O15 0.775195 0.871497 0.115602
O O16 0.721365 0.000000 0.092782
O O17 0.692911 0.908467 0.001030
O O18 0.765534 0.737335 0.684731
O O19 0.000000 0.713550 0.609112
O O20 0.000000 0.293297 0.234759
O O21 0.500000 0.089456 0.906583
O O22 0.279903 0.000000 0.909026
#
# Coordination Sequence:
#
# PCOD8180427 Si02
#       8
#     8   8   8   8   8   8   8   8
#     4  11  22  35  52  75 104 141 179 216 254 305
#     4   9  16  29  50  73 101 136 169 202 245 298
#     4   9  18  32  51  76 103 130 165 210 256 301
#     4  11  21  34  53  77 105 136 170 215 265 308
#     4   9  18  33  53  77 107 137 166 210 264 310
#     4  11  20  33  55  80 104 134 174 217 257 306
#     4   9  20  35  49  73 108 139 171 212 259 301
#     4   9  18  33  51  73 106 142 172 209 257 305
#
# _framework density 17.493912999999999
#
# number of rings (size 3 to 8) (size 9 to 14) (size 15 to 20)
#    0.000    2.250    2.500    1.875    0.000    1.500 
#    0.000    6.250    0.000    2.250    0.000    3.500 
#    0.000    0.000    0.000    0.000    0.000    0.000 
#
# Total GULP energy -396670.421821 kJ/mol
# GULP energy per Si atom -12395.950682 kJ/mol
# Density = 1.745410 g / cm^3
# Si number density = 17.493913 Si / 1000 Ang^3
#
#
#
# Elastic Constant Matrix: (Units=GPa)
#
#
# Indices 1 2 3 4 5 6 
#
# 1 59.1353 40.0903 39.1984 0.0000 0.0000 0.0000
# 2 40.0903 119.8122 67.3978 0.0000 0.0000 0.0000
# 3 39.1984 67.3978 114.2515 0.0000 0.0000 0.0000
# 4 0.0000 0.0000 0.0000 24.3125 0.0000 0.0000
# 5 0.0000 0.0000 0.0000 0.0000 2.3684 0.0000
# 6 0.0000 0.0000 0.0000 0.0000 0.0000 25.1322
#
#
#
# Elastic Compliance Matrix: (Units=1/GPa)
#
#
# Indices 1 2 3 4 5 6 
#
# 1 0.023758 -0.005035 -0.005181 0.000000 0.000000 0.000000
# 2 -0.005035 0.013559 -0.006271 0.000000 0.000000 0.000000
# 3 -0.005181 -0.006271 0.014229 0.000000 0.000000 0.000000
# 4 0.000000 0.000000 0.000000 0.041131 0.000000 0.000000
# 5 0.000000 0.000000 0.000000 0.000000 0.422225 0.000000
# 6 0.000000 0.000000 0.000000 0.000000 0.000000 0.039790
#
#
# Mechanical properties :
#
#
# Convention : Reuss Voigt Hill
#
# Bulk Modulus (GPa) = 53.84363 65.17468 59.50916
# Shear Modulus (GPa) = 8.41954 20.13014 14.27484
#
# Velocity S-wave (km/s) = 2.19620 3.39587 2.85965
# Velocity P-wave (km/s) = 6.10544 7.26033 6.70779
#
# Compressibility (1/GPa) = 0.01857230
#
# Stress axis : x y z
#
# Youngs Moduli (GPa) = 42.09077 73.75274 70.27749
#
# Poissons Ratio (x) = 0.37137 0.36409
# Poissons Ratio (y) = 0.21194 0.44070
# Poissons Ratio (z) = 0.21806 0.46249
#
# Static dielectric constant tensor:
#      x y z
#    x 3.159710 0.000000 0.000000 
#    y 0.000000 3.613000 0.000000 
#    z 0.000000 0.000000 3.171010 
# 
# 
# High freq. dielectric constant tensor:
#      x y z
#    x 1.669050 0.000000 0.000000 
#    y 0.000000 1.686850 0.000000 
#    z 0.000000 0.000000 1.647150 
# 
# From -- ./inp_files/20232.got.cif
#   From: 2010.03.12/outbox.cif.g09.slc.cpg/sg38_11_cif.got.tgz:20232.got - 2010.04.14 02:38:36.
