data_PCOD8180902
_publ_section_title
;
Structure prediction by ZEFSAII (Michael W. Deem and Ramdas Pophale) SiO2 
 PCOD8180902
Probable space group: A B M 2
;
_chemical_formula_sum "Si O2"
_cell_formula_units_Z 56
_cell_length_a 18.137839
_cell_length_b 8.700562
_cell_length_c 18.718920
_cell_angle_alpha 90.000000
_cell_angle_beta 90.000000
_cell_angle_gamma 90.000000
_cell_volume 2954.021398
_symmetry_space_group_name_H-M "A B M 2"
_symmetry_group_IT_number 39
_symmetry_cell_setting 'orthorhombic'
loop_
_space_group_symop_operation_xyz
x,y,z
-x,-y,z
-x,1/2+y,z
x,1/2-y,z
x,1/2+y,1/2+z
-x,1/2-y,1/2+z
-x,y,1/2+z
x,-y,1/2+z
loop_
_atom_site_type_symbol
_atom_site_label
_atom_site_fract_x
_atom_site_fract_y
_atom_site_fract_z
Si Si1 0.079980 0.567754 0.907800
Si Si2 0.736865 0.569985 0.653284
Si Si3 0.420070 0.072861 0.130494
Si Si4 0.424509 0.574080 0.463488
Si Si5 0.187036 0.071931 0.015345
Si Si6 0.290794 0.420304 0.411437
Si Si7 0.192513 0.421695 0.284846
O O1 0.078045 0.750000 0.914143
O O2 0.128032 0.518541 0.838246
O O3 0.000000 0.500000 0.895249
O O4 0.112747 0.503883 0.982717
O O5 0.726569 0.750000 0.644471
O O6 0.654025 0.501173 0.664834
O O7 0.782347 0.506170 0.586406
O O8 0.791532 0.534701 0.719398
O O9 0.423486 0.250000 0.153530
O O10 0.500000 0.000000 0.152750
O O11 0.406466 0.053489 0.046564
O O12 0.500000 0.500000 0.443268
O O13 0.420469 0.750000 0.439738
O O14 0.374645 0.467943 0.414018
O O15 0.172342 0.250000 0.030918
O O16 0.248694 0.051671 0.955218
O O17 0.276927 0.250000 0.445180
O O18 0.267925 0.417650 0.329366
O O19 0.173527 0.250000 0.256327
#
# Coordination Sequence:
#
# PCOD8180902 Si02
#       7
#     8   8   8   8   8   8   8
#     4  10  21  40  65  92 120 151 187 231 282 342
#     4  12  23  36  57  85 117 153 196 244 289 341
#     4  10  20  34  53  79 112 151 192 240 294 345
#     4  10  19  30  49  76 107 144 185 236 290 340
#     4  11  21  35  58  85 114 148 187 232 279 332
#     4  10  19  34  55  79 108 142 184 234 281 335
#     4   9  21  39  58  82 115 153 190 229 281 341
#
# _framework density 18.95721
#
# number of rings (size 3 to 8) (size 9 to 14) (size 15 to 20)
#    0.000    1.714    1.429    5.143    0.000    4.571 
#    0.000    1.429    0.000    5.143    0.000    0.000 
#    0.000    0.000    0.000    0.000    0.000    0.000 
#
# Total GULP energy -346987.361976 kJ/mol
# GULP energy per Si atom -12392.405785 kJ/mol
# Density = 1.891406 g / cm^3
# Si number density = 18.957210 Si / 1000 Ang^3
#
#
#
# Elastic Constant Matrix: (Units=GPa)
#
#
# Indices 1 2 3 4 5 6 
#
# 1 124.2678 54.0160 48.0605 0.0000 0.0000 0.0000
# 2 54.0160 126.0592 44.0886 0.0000 0.0000 0.0000
# 3 48.0605 44.0886 75.2080 0.0000 0.0000 0.0000
# 4 0.0000 0.0000 0.0000 27.6762 0.0000 0.0000
# 5 0.0000 0.0000 0.0000 0.0000 29.0573 0.0000
# 6 0.0000 0.0000 0.0000 0.0000 0.0000 34.3346
#
#
#
# Elastic Compliance Matrix: (Units=1/GPa)
#
#
# Indices 1 2 3 4 5 6 
#
# 1 0.011509 -0.002968 -0.005615 0.000000 0.000000 0.000000
# 2 -0.002968 0.010744 -0.004402 0.000000 0.000000 0.000000
# 3 -0.005615 -0.004402 0.019465 0.000000 0.000000 0.000000
# 4 0.000000 0.000000 0.000000 0.036132 0.000000 0.000000
# 5 0.000000 0.000000 0.000000 0.000000 0.034415 0.000000
# 6 0.000000 0.000000 0.000000 0.000000 0.000000 0.029125
#
#
# Mechanical properties :
#
#
# Convention : Reuss Voigt Hill
#
# Bulk Modulus (GPa) = 63.49621 68.65168 66.07394
# Shear Modulus (GPa) = 28.96743 30.17161 29.56952
#
# Velocity S-wave (km/s) = 3.91326 3.99377 3.95372
# Velocity P-wave (km/s) = 7.34747 7.58680 7.46810
#
# Compressibility (1/GPa) = 0.01574897
#
# Stress axis : x y z
#
# Youngs Moduli (GPa) = 86.89165 93.07547 51.37449
#
# Poissons Ratio (x) = 0.27622 0.28845
# Poissons Ratio (y) = 0.25787 0.22615
# Poissons Ratio (z) = 0.48787 0.40971
#
# Static dielectric constant tensor:
#      x y z
#    x 3.445690 0.000000 0.000000 
#    y 0.000000 3.624930 0.000000 
#    z 0.000000 0.000000 3.296140 
# 
# 
# High freq. dielectric constant tensor:
#      x y z
#    x 1.737440 0.000000 0.000000 
#    y 0.000000 1.749190 0.000000 
#    z 0.000000 0.000000 1.712470 
# 
# From -- ./inp_files/13066.got.cif
#   From: 2010.03.12/outbox.cif.g09.slc.cpg/sg39_7_cif.got.tgz:13066.got - 2010.04.14 02:53:20.
