data_PCOD8180501
_publ_section_title
;
Structure prediction by ZEFSAII (Michael W. Deem and Ramdas Pophale) SiO2 
 PCOD8180501
Probable space group: A M M 2
;
_chemical_formula_sum "Si O2"
_cell_formula_units_Z 48
_cell_length_a 14.088556
_cell_length_b 7.929486
_cell_length_c 20.359694
_cell_angle_alpha 90.000000
_cell_angle_beta 90.000000
_cell_angle_gamma 90.000000
_cell_volume 2274.483369
_symmetry_space_group_name_H-M "A M M 2"
_symmetry_group_IT_number 38
_symmetry_cell_setting 'orthorhombic'
loop_
_space_group_symop_operation_xyz
x,y,z
-x,-y,z
-x,y,z
x,-y,z
x,1/2+y,1/2+z
-x,1/2-y,1/2+z
-x,1/2+y,1/2+z
x,1/2-y,1/2+z
loop_
_atom_site_type_symbol
_atom_site_label
_atom_site_fract_x
_atom_site_fract_y
_atom_site_fract_z
Si Si1 0.762200 0.686913 0.261610
Si Si2 0.610902 0.810464 0.012208
Si Si3 0.886387 0.500000 0.728331
Si Si4 0.890456 0.810073 0.494510
Si Si5 0.608024 0.800212 0.159401
Si Si6 0.266450 0.313306 0.896261
Si Si7 0.112551 0.500000 0.579577
O O1 0.805811 0.500000 0.249855
O O2 0.678684 0.712133 0.209588
O O3 0.716650 0.689470 0.334948
O O4 0.844547 0.828682 0.259573
O O5 0.500000 0.805733 0.998177
O O6 0.632136 0.738918 0.085223
O O7 0.650426 0.000000 0.007468
O O8 0.660428 0.702468 0.956111
O O9 0.850186 0.500000 0.653414
O O10 0.000000 0.500000 0.736316
O O11 0.839041 0.785757 0.425055
O O12 0.849154 0.671124 0.545286
O O13 0.000000 0.775491 0.480522
O O14 0.873731 0.000000 0.522736
O O15 0.500000 0.748610 0.177202
O O16 0.619702 0.000000 0.163975
O O17 0.277635 0.500000 0.867141
O O18 0.000000 0.500000 0.579255
#
# Coordination Sequence:
#
# PCOD8180501 Si02
#       7
#     8   8   4   8   8   8   4
#     4  12  26  43  65  95 129 175 228 268 327 395
#     4   9  20  38  63  95 128 166 211 261 322 385
#     4  11  26  48  67  91 135 172 216 279 330 391
#     4   9  20  37  59  92 125 154 201 256 311 378
#     4   9  19  40  68  96 132 175 216 266 329 392
#     4  11  23  39  60  89 126 167 210 263 319 375
#     4   9  20  38  64  91 117 160 199 249 321 371
#
# _framework density 21.103693
#
# number of rings (size 3 to 8) (size 9 to 14) (size 15 to 20)
#    0.000    2.000    1.667    1.500    4.667    3.667 
#    0.000    3.333    0.000    0.000    0.000    0.000 
#    0.000    0.000    0.000    0.000    0.000    0.000 
#
# Total GULP energy -297541.692301 kJ/mol
# GULP energy per Si atom -12397.570513 kJ/mol
# Density = 2.105566 g / cm^3
# Si number density = 21.103693 Si / 1000 Ang^3
#
#
#
# Elastic Constant Matrix: (Units=GPa)
#
#
# Indices 1 2 3 4 5 6 
#
# 1 81.5413 42.9039 46.4657 0.0000 0.0000 0.0000
# 2 42.9039 127.5936 53.5123 0.0000 0.0000 0.0000
# 3 46.4657 53.5123 130.8581 0.0000 0.0000 0.0000
# 4 0.0000 0.0000 0.0000 30.7841 0.0000 0.0000
# 5 0.0000 0.0000 0.0000 0.0000 19.9005 0.0000
# 6 0.0000 0.0000 0.0000 0.0000 0.0000 21.5693
#
#
#
# Elastic Compliance Matrix: (Units=1/GPa)
#
#
# Indices 1 2 3 4 5 6 
#
# 1 0.016768 -0.003791 -0.004404 0.000000 0.000000 0.000000
# 2 -0.003791 0.010317 -0.002873 0.000000 0.000000 0.000000
# 3 -0.004404 -0.002873 0.010380 0.000000 0.000000 0.000000
# 4 0.000000 0.000000 0.000000 0.032484 0.000000 0.000000
# 5 0.000000 0.000000 0.000000 0.000000 0.050250 0.000000
# 6 0.000000 0.000000 0.000000 0.000000 0.000000 0.046362
#
#
# Mechanical properties :
#
#
# Convention : Reuss Voigt Hill
#
# Bulk Modulus (GPa) = 65.23243 69.52854 67.38048
# Shear Modulus (GPa) = 25.79880 27.59150 26.69515
#
# Velocity S-wave (km/s) = 3.50019 3.61976 3.56047
# Velocity P-wave (km/s) = 6.87842 7.10548 6.99287
#
# Compressibility (1/GPa) = 0.01532980
#
# Stress axis : x y z
#
# Youngs Moduli (GPa) = 59.63738 96.92652 96.33660
#
# Poissons Ratio (x) = 0.36749 0.42423
# Poissons Ratio (y) = 0.22611 0.27675
# Poissons Ratio (z) = 0.26262 0.27844
#
# Static dielectric constant tensor:
#      x y z
#    x 3.736790 0.000000 0.000000 
#    y 0.000000 3.908770 0.000000 
#    z 0.000000 0.000000 3.836800 
# 
# 
# High freq. dielectric constant tensor:
#      x y z
#    x 1.824440 0.000000 0.000000 
#    y 0.000000 1.826920 0.000000 
#    z 0.000000 0.000000 1.826410 
# 
# From -- ./inp_files/18176.got.cif
#   From: 2010.03.12/outbox.cif.g09.slc.cpg/sg38_10_cif.got.tgz:18176.got - 2010.04.14 02:38:36.
