data_PCOD8180710
_publ_section_title
;
Structure prediction by ZEFSAII (Michael W. Deem and Ramdas Pophale) SiO2 
 PCOD8180710
Probable space group: A B M 2
;
_chemical_formula_sum "Si O2"
_cell_formula_units_Z 64
_cell_length_a 20.834254
_cell_length_b 9.261835
_cell_length_c 19.786826
_cell_angle_alpha 90.000000
_cell_angle_beta 90.000000
_cell_angle_gamma 90.000000
_cell_volume 3818.133673
_symmetry_space_group_name_H-M "A B M 2"
_symmetry_group_IT_number 39
_symmetry_cell_setting 'orthorhombic'
loop_
_space_group_symop_operation_xyz
x,y,z
-x,-y,z
-x,1/2+y,z
x,1/2-y,z
x,1/2+y,1/2+z
-x,1/2-y,1/2+z
-x,y,1/2+z
x,-y,1/2+z
loop_
_atom_site_type_symbol
_atom_site_label
_atom_site_fract_x
_atom_site_fract_y
_atom_site_fract_z
Si Si1 0.057653 0.407767 0.216410
Si Si2 0.198141 0.077348 0.227700
Si Si3 0.440969 0.090294 0.962576
Si Si4 0.558303 0.909249 0.123217
Si Si5 0.699397 0.921399 0.969641
Si Si6 0.301407 0.422053 0.119758
Si Si7 0.060915 0.413787 0.376732
Si Si8 0.810205 0.923043 0.867243
O O1 0.048232 0.250000 0.185283
O O2 0.128369 0.466107 0.197329
O O3 0.052730 0.404001 0.296836
O O4 0.000000 0.500000 0.184327
O O5 0.200704 0.250000 0.242341
O O6 0.249706 0.022232 0.173535
O O7 0.210774 0.989019 0.295771
O O8 0.446548 0.250000 0.931289
O O9 0.370878 0.021191 0.945080
O O10 0.500000 0.000000 0.931087
O O11 0.447381 0.097728 0.042891
O O12 0.552354 0.750000 0.154472
O O13 0.627781 0.977412 0.142141
O O14 0.500000 0.000000 0.155134
O O15 0.694030 0.750000 0.973446
O O16 0.754591 0.970453 0.918802
O O17 0.715858 0.981066 0.044834
O O18 0.302059 0.250000 0.118187
O O19 0.064683 0.250000 0.406315
O O20 0.124534 0.504707 0.394710
O O21 0.000000 0.500000 0.407854
O O22 0.818827 0.750000 0.862123
#
# Coordination Sequence:
#
# PCOD8180710 Si02
#       8
#     8   8   8   8   8   8   8   8
#     4   8  14  23  37  58  80 102 130 167 205 238
#     4   9  17  29  45  64  85 111 145 181 214 252
#     4   8  13  23  39  60  83 105 136 177 217 255
#     4   8  13  22  39  61  82 104 133 174 217 254
#     4   8  15  27  44  65  87 114 147 180 215 259
#     4   8  14  27  46  64  83 112 149 181 211 254
#     4   9  16  27  43  64  88 113 145 182 217 253
#     4  10  18  28  44  66  91 117 144 176 217 261
#
# _framework density 16.762117
#
# number of rings (size 3 to 8) (size 9 to 14) (size 15 to 20)
#    0.000    3.500    0.000    3.000    0.000    3.000 
#    0.000    1.875    0.000    5.250    0.000    7.000 
#    0.000    0.000    0.000    0.000    0.000    0.000 
#
# Total GULP energy -396462.348418 kJ/mol
# GULP energy per Si atom -12389.448388 kJ/mol
# Density = 1.672397 g / cm^3
# Si number density = 16.762117 Si / 1000 Ang^3
#
#
#
# Elastic Constant Matrix: (Units=GPa)
#
#
# Indices 1 2 3 4 5 6 
#
# 1 185.2997 59.6733 63.2234 0.0000 0.0000 0.0000
# 2 59.6733 66.1017 27.2698 0.0000 0.0000 0.0000
# 3 63.2234 27.2698 46.7709 0.0000 0.0000 0.0000
# 4 0.0000 0.0000 0.0000 9.9703 0.0000 0.0000
# 5 0.0000 0.0000 0.0000 0.0000 24.0983 0.0000
# 6 0.0000 0.0000 0.0000 0.0000 0.0000 28.6400
#
#
#
# Elastic Compliance Matrix: (Units=1/GPa)
#
#
# Indices 1 2 3 4 5 6 
#
# 1 0.011177 -0.005079 -0.012147 0.000000 0.000000 0.000000
# 2 -0.005079 0.022227 -0.006095 0.000000 0.000000 0.000000
# 3 -0.012147 -0.006095 0.041355 0.000000 0.000000 0.000000
# 4 0.000000 0.000000 0.000000 0.100298 0.000000 0.000000
# 5 0.000000 0.000000 0.000000 0.000000 0.041497 0.000000
# 6 0.000000 0.000000 0.000000 0.000000 0.000000 0.034916
#
#
# Mechanical properties :
#
#
# Convention : Reuss Voigt Hill
#
# Bulk Modulus (GPa) = 35.56483 66.50059 51.03271
# Shear Modulus (GPa) = 16.26108 22.40879 19.33493
#
# Velocity S-wave (km/s) = 3.11804 3.66029 3.39999
# Velocity P-wave (km/s) = 5.85033 7.59098 6.77677
#
# Compressibility (1/GPa) = 0.02811766
#
# Stress axis : x y z
#
# Youngs Moduli (GPa) = 89.47143 44.99019 24.18110
#
# Poissons Ratio (x) = 0.22848 0.29374
# Poissons Ratio (y) = 0.45438 0.14737
# Poissons Ratio (z) = 1.08684 0.27419
#
# Static dielectric constant tensor:
#      x y z
#    x 3.591090 0.000000 0.000000 
#    y 0.000000 3.142800 0.000000 
#    z 0.000000 0.000000 2.723540 
# 
# 
# High freq. dielectric constant tensor:
#      x y z
#    x 1.667490 0.000000 0.000000 
#    y 0.000000 1.625750 0.000000 
#    z 0.000000 0.000000 1.582690 
# 
# From -- ./inp_files/15047.got.cif
#   From: 2010.03.12/outbox.cif.g09.slc.cpg/sg39_8_cif.got.tgz:15047.got - 2010.04.14 02:53:20.
