data_PCOD8180830
_publ_section_title
;
Structure prediction by ZEFSAII (Michael W. Deem and Ramdas Pophale) SiO2 
 PCOD8180830
Probable space group: A B M 2
;
_chemical_formula_sum "Si O2"
_cell_formula_units_Z 64
_cell_length_a 19.329403
_cell_length_b 9.018397
_cell_length_c 20.567905
_cell_angle_alpha 90.000000
_cell_angle_beta 90.000000
_cell_angle_gamma 90.000000
_cell_volume 3585.401931
_symmetry_space_group_name_H-M "A B M 2"
_symmetry_group_IT_number 39
_symmetry_cell_setting 'orthorhombic'
loop_
_space_group_symop_operation_xyz
x,y,z
-x,-y,z
-x,1/2+y,z
x,1/2-y,z
x,1/2+y,1/2+z
-x,1/2-y,1/2+z
-x,y,1/2+z
x,-y,1/2+z
loop_
_atom_site_type_symbol
_atom_site_label
_atom_site_fract_x
_atom_site_fract_y
_atom_site_fract_z
Si Si1 0.212469 0.923149 0.639600
Si Si2 0.214732 0.073929 0.392703
Si Si3 0.571492 0.074908 0.560118
Si Si4 0.431314 0.577098 0.710775
Si Si5 0.290884 0.073955 0.267356
Si Si6 0.710211 0.073780 0.023108
Si Si7 0.069852 0.425045 0.341415
Si Si8 0.932506 0.578679 0.193351
O O1 0.229405 0.750000 0.626043
O O2 0.243639 0.977064 0.707685
O O3 0.130639 0.953572 0.644505
O O4 0.244621 0.023401 0.583961
O O5 0.216157 0.250000 0.387954
O O6 0.261268 0.006645 0.334162
O O7 0.247167 0.019283 0.460129
O O8 0.135294 0.019785 0.384410
O O9 0.568065 0.250000 0.546769
O O10 0.584167 0.038184 0.635792
O O11 0.500000 0.000000 0.536318
O O12 0.635192 0.003490 0.520979
O O13 0.500000 0.500000 0.736772
O O14 0.442087 0.750000 0.719289
O O15 0.368712 0.516370 0.754897
O O16 0.290468 0.250000 0.270376
O O17 0.699869 0.250000 0.024539
O O18 0.060879 0.250000 0.346826
O O19 0.083725 0.475522 0.266879
O O20 0.000000 0.500000 0.368726
O O21 0.949569 0.750000 0.196080
O O22 0.000000 0.500000 0.164212
#
# Coordination Sequence:
#
# PCOD8180830 Si02
#       8
#     8   8   8   8   8   8   8   8
#     4  10  18  33  55  76  99 135 177 215 259 310
#     4   9  18  33  53  75 103 139 177 211 253 313
#     4  10  19  34  55  79 105 137 176 216 259 311
#     4   9  17  29  50  76 100 127 163 209 253 296
#     4   9  15  30  54  75  95 129 175 212 249 303
#     4  11  22  34  51  79 110 141 174 215 262 308
#     4   9  16  30  52  76 100 129 169 216 260 312
#     4   9  17  29  51  78 103 131 169 217 268 314
#
# _framework density 17.850159999999999
#
# number of rings (size 3 to 8) (size 9 to 14) (size 15 to 20)
#    0.000    2.500    2.500    0.750    0.000    1.000 
#    0.000    2.500    0.000    8.250    0.000    0.000 
#    0.000    0.000    0.000    0.000    0.000    0.000 
#
# Total GULP energy -396724.480348 kJ/mol
# GULP energy per Si atom -12397.640011 kJ/mol
# Density = 1.780953 g / cm^3
# Si number density = 17.850160 Si / 1000 Ang^3
#
#
#
# Elastic Constant Matrix: (Units=GPa)
#
#
# Indices 1 2 3 4 5 6 
#
# 1 165.2143 45.0958 56.5200 0.0000 0.0000 0.0000
# 2 45.0958 42.4365 24.1894 0.0000 0.0000 0.0000
# 3 56.5200 24.1894 72.6527 0.0000 0.0000 0.0000
# 4 0.0000 0.0000 0.0000 16.6270 0.0000 0.0000
# 5 0.0000 0.0000 0.0000 0.0000 26.5243 0.0000
# 6 0.0000 0.0000 0.0000 0.0000 0.0000 33.7052
#
#
#
# Elastic Compliance Matrix: (Units=1/GPa)
#
#
# Indices 1 2 3 4 5 6 
#
# 1 0.009885 -0.007555 -0.005175 0.000000 0.000000 0.000000
# 2 -0.007555 0.034858 -0.005729 0.000000 0.000000 0.000000
# 3 -0.005175 -0.005729 0.019697 0.000000 0.000000 0.000000
# 4 0.000000 0.000000 0.000000 0.060143 0.000000 0.000000
# 5 0.000000 0.000000 0.000000 0.000000 0.037701 0.000000
# 6 0.000000 0.000000 0.000000 0.000000 0.000000 0.029669
#
#
# Mechanical properties :
#
#
# Convention : Reuss Voigt Hill
#
# Bulk Modulus (GPa) = 36.33182 59.10155 47.71668
# Shear Modulus (GPa) = 21.00438 25.67117 23.33778
#
# Velocity S-wave (km/s) = 3.43404 3.79641 3.61976
# Velocity P-wave (km/s) = 6.01011 7.23869 6.65282
#
# Compressibility (1/GPa) = 0.02752408
#
# Stress axis : x y z
#
# Youngs Moduli (GPa) = 101.16131 28.68751 50.76885
#
# Poissons Ratio (x) = 0.21673 0.26272
# Poissons Ratio (y) = 0.76427 0.29083
# Poissons Ratio (z) = 0.52349 0.16434
#
# Static dielectric constant tensor:
#      x y z
#    x 3.580190 0.000000 0.000000 
#    y 0.000000 3.031470 0.000000 
#    z 0.000000 0.000000 3.214680 
# 
# 
# High freq. dielectric constant tensor:
#      x y z
#    x 1.710350 0.000000 0.000000 
#    y 0.000000 1.664230 0.000000 
#    z 0.000000 0.000000 1.662150 
# 
# From -- ./inp_files/13097.got.cif
#   From: 2010.03.12/outbox.cif.g09.slc.cpg/sg39_7_cif.got.tgz:13097.got - 2010.04.14 02:53:20.
