data_PCOD8180376
_publ_section_title
;
Structure prediction by ZEFSAII (Michael W. Deem and Ramdas Pophale) SiO2 
 PCOD8180376
Probable space group: A M M 2
;
_chemical_formula_sum "Si O2"
_cell_formula_units_Z 48
_cell_length_a 13.721457
_cell_length_b 17.403671
_cell_length_c 9.713916
_cell_angle_alpha 90.000000
_cell_angle_beta 90.000000
_cell_angle_gamma 90.000000
_cell_volume 2319.719308
_symmetry_space_group_name_H-M "A M M 2"
_symmetry_group_IT_number 38
_symmetry_cell_setting 'orthorhombic'
loop_
_space_group_symop_operation_xyz
x,y,z
-x,-y,z
-x,y,z
x,-y,z
x,1/2+y,1/2+z
-x,1/2-y,1/2+z
-x,1/2+y,1/2+z
x,1/2-y,1/2+z
loop_
_atom_site_type_symbol
_atom_site_label
_atom_site_fract_x
_atom_site_fract_y
_atom_site_fract_z
Si Si1 0.114234 0.363863 0.915660
Si Si2 0.204747 0.912604 0.691151
Si Si3 0.111253 0.685471 0.414063
Si Si4 0.789611 0.586857 0.642874
Si Si5 0.610916 0.178040 0.099013
Si Si6 0.388890 0.672423 0.277765
O O1 0.139023 0.274290 0.900819
O O2 0.144457 0.406725 0.777116
O O3 0.000000 0.378097 0.945068
O O4 0.181610 0.401690 0.031289
O O5 0.131990 0.854962 0.769118
O O6 0.317280 0.894906 0.727209
O O7 0.183818 0.000000 0.735265
O O8 0.174637 0.646782 0.530539
O O9 0.000000 0.674709 0.455726
O O10 0.795834 0.500000 0.587180
O O11 0.676622 0.610014 0.663917
O O12 0.500000 0.152016 0.121959
O O13 0.634559 0.254602 0.183539
O O14 0.631932 0.192910 0.937146
O O15 0.500000 0.644303 0.257194
#
# Coordination Sequence:
#
# PCOD8180376 Si02
#       6
#     8   8   8   8   8   8
#     4  11  25  45  66  89 124 173 219 260 310 373
#     4  12  25  40  62  96 131 165 205 259 324 377
#     4  11  23  41  66  91 120 163 217 266 308 371
#     4  12  25  40  62  96 131 165 205 259 324 377
#     4  10  22  41  67  96 127 167 213 259 310 374
#     4  10  22  41  67  96 127 167 213 259 310 374
#
# _framework density 20.692157000000002
#
# number of rings (size 3 to 8) (size 9 to 14) (size 15 to 20)
#    0.000    1.000    1.667    5.000    2.333    7.333 
#    0.000    1.667    0.000    2.000    0.000    0.000 
#    0.000    0.000    0.000    0.000    0.000    0.000 
#
# Total GULP energy -297698.955248 kJ/mol
# GULP energy per Si atom -12404.123135 kJ/mol
# Density = 2.064506 g / cm^3
# Si number density = 20.692157 Si / 1000 Ang^3
#
#
#
# Elastic Constant Matrix: (Units=GPa)
#
#
# Indices 1 2 3 4 5 6 
#
# 1 100.9746 46.8365 20.3051 0.0000 0.0000 0.0000
# 2 46.8365 104.0577 20.6254 0.0000 0.0000 0.0000
# 3 20.3051 20.6254 77.5720 0.0000 0.0000 0.0000
# 4 0.0000 0.0000 0.0000 24.6524 0.0000 0.0000
# 5 0.0000 0.0000 0.0000 0.0000 37.4288 0.0000
# 6 0.0000 0.0000 0.0000 0.0000 0.0000 17.8867
#
#
#
# Elastic Compliance Matrix: (Units=1/GPa)
#
#
# Indices 1 2 3 4 5 6 
#
# 1 0.012781 -0.005373 -0.001917 0.000000 0.000000 0.000000
# 2 -0.005373 0.012403 -0.001891 0.000000 0.000000 0.000000
# 3 -0.001917 -0.001891 0.013896 0.000000 0.000000 0.000000
# 4 0.000000 0.000000 0.000000 0.040564 0.000000 0.000000
# 5 0.000000 0.000000 0.000000 0.000000 0.026717 0.000000
# 6 0.000000 0.000000 0.000000 0.000000 0.000000 0.055908
#
#
# Mechanical properties :
#
#
# Convention : Reuss Voigt Hill
#
# Bulk Modulus (GPa) = 48.26783 50.90426 49.58604
# Shear Modulus (GPa) = 26.66128 28.98272 27.82200
#
# Velocity S-wave (km/s) = 3.59342 3.74660 3.67081
# Velocity P-wave (km/s) = 6.37136 6.58561 6.47937
#
# Compressibility (1/GPa) = 0.02071773
#
# Stress axis : x y z
#
# Youngs Moduli (GPa) = 78.24028 80.62373 71.96336
#
# Poissons Ratio (x) = 0.43318 0.13795
# Poissons Ratio (y) = 0.42037 0.13612
# Poissons Ratio (z) = 0.14999 0.15250
#
# Static dielectric constant tensor:
#      x y z
#    x 3.965440 0.000000 0.000000 
#    y 0.000000 3.631270 0.000000 
#    z 0.000000 0.000000 3.927180 
# 
# 
# High freq. dielectric constant tensor:
#      x y z
#    x 1.825720 0.000000 0.000000 
#    y 0.000000 1.802610 0.000000 
#    z 0.000000 0.000000 1.817890 
# 
# From -- ./inp_files/5463.got.cif
#   From: 2010.03.12/outbox.cif.g09.slc.cpg/sg38_3_cif.got.tgz:5463.got - 2010.04.14 02:38:36.
