data_PCOD8180358
_publ_section_title
;
Structure prediction by ZEFSAII (Michael W. Deem and Ramdas Pophale) SiO2 
 PCOD8180358
Probable space group: A M M 2
;
_chemical_formula_sum "Si O2"
_cell_formula_units_Z 32
_cell_length_a 12.626339
_cell_length_b 17.773991
_cell_length_c 6.886121
_cell_angle_alpha 90.000000
_cell_angle_beta 90.000000
_cell_angle_gamma 90.000000
_cell_volume 1545.386275
_symmetry_space_group_name_H-M "A M M 2"
_symmetry_group_IT_number 38
_symmetry_cell_setting 'orthorhombic'
loop_
_space_group_symop_operation_xyz
x,y,z
-x,-y,z
-x,y,z
x,-y,z
x,1/2+y,1/2+z
-x,1/2-y,1/2+z
-x,1/2+y,1/2+z
x,1/2-y,1/2+z
loop_
_atom_site_type_symbol
_atom_site_label
_atom_site_fract_x
_atom_site_fract_y
_atom_site_fract_z
Si Si1 0.292389 0.083975 0.673720
Si Si2 0.728796 0.657837 0.564436
Si Si3 0.382930 0.201523 0.425661
Si Si4 0.878823 0.913129 0.353595
O O1 0.381322 0.142539 0.602796
O O2 0.184191 0.100396 0.554635
O O3 0.332860 0.000000 0.633271
O O4 0.276839 0.092681 0.904185
O O5 0.712711 0.737830 0.453524
O O6 0.635188 0.655874 0.725196
O O7 0.837518 0.642851 0.683035
O O8 0.500000 0.238694 0.421000
O O9 0.000000 0.892416 0.395281
O O10 0.866057 0.000000 0.286261
#
# Coordination Sequence:
#
# PCOD8180358 Si02
#       4
#     8   8   8   8
#     4  10  22  40  63  91 123 160 207 259 306 366
#     4  11  21  37  63  91 121 162 209 253 303 371
#     4  11  23  39  61  87 123 168 208 255 314 370
#     4   9  20  40  65  93 125 162 204 254 315 375
#
# _framework density 20.706795
#
# number of rings (size 3 to 8) (size 9 to 14) (size 15 to 20)
#    0.000    1.750    2.500    1.500    0.000    3.500 
#    0.000    7.500    0.000    6.750    0.000    0.000 
#    0.000    0.000    0.000    0.000    0.000    0.000 
#
# Total GULP energy -198234.646401 kJ/mol
# GULP energy per Si atom -12389.665400 kJ/mol
# Density = 2.065967 g / cm^3
# Si number density = 20.706795 Si / 1000 Ang^3
#
#
#
# Elastic Constant Matrix: (Units=GPa)
#
#
# Indices 1 2 3 4 5 6 
#
# 1 104.4412 38.3253 31.0105 0.0000 0.0000 0.0000
# 2 38.3253 86.1222 29.0134 0.0000 0.0000 0.0000
# 3 31.0105 29.0134 135.1298 0.0000 0.0000 0.0000
# 4 0.0000 0.0000 0.0000 40.4489 0.0000 0.0000
# 5 0.0000 0.0000 0.0000 0.0000 14.6517 0.0000
# 6 0.0000 0.0000 0.0000 0.0000 0.0000 28.7302
#
#
#
# Elastic Compliance Matrix: (Units=1/GPa)
#
#
# Indices 1 2 3 4 5 6 
#
# 1 0.011796 -0.004676 -0.001703 0.000000 0.000000 0.000000
# 2 -0.004676 0.014370 -0.002012 0.000000 0.000000 0.000000
# 3 -0.001703 -0.002012 0.008223 0.000000 0.000000 0.000000
# 4 0.000000 0.000000 0.000000 0.024723 0.000000 0.000000
# 5 0.000000 0.000000 0.000000 0.000000 0.068252 0.000000
# 6 0.000000 0.000000 0.000000 0.000000 0.000000 0.034807
#
#
# Mechanical properties :
#
#
# Convention : Reuss Voigt Hill
#
# Bulk Modulus (GPa) = 56.79525 58.04351 57.41938
# Shear Modulus (GPa) = 27.05310 31.92241 29.48776
#
# Velocity S-wave (km/s) = 3.61845 3.93063 3.77777
# Velocity P-wave (km/s) = 6.70414 6.97795 6.84241
#
# Compressibility (1/GPa) = 0.01760711
#
# Stress axis : x y z
#
# Youngs Moduli (GPa) = 84.77282 69.58907 121.60685
#
# Poissons Ratio (x) = 0.32538 0.20712
# Poissons Ratio (y) = 0.39637 0.24472
# Poissons Ratio (z) = 0.14438 0.14004
#
# Static dielectric constant tensor:
#      x y z
#    x 3.538870 0.000000 0.000000 
#    y 0.000000 3.735360 0.000000 
#    z 0.000000 0.000000 3.983190 
# 
# 
# High freq. dielectric constant tensor:
#      x y z
#    x 1.780260 0.000000 0.000000 
#    y 0.000000 1.804020 0.000000 
#    z 0.000000 0.000000 1.828750 
# 
# From -- ./inp_files/726.got.cif
#   From: 2010.03.12/outbox.cif.g09.slc.cpg/sg38_1_cif.got.tgz:726.got - 2010.04.14 02:38:36.
