data_PCOD8180465
_publ_section_title
;
Structure prediction by ZEFSAII (Michael W. Deem and Ramdas Pophale) SiO2 
 PCOD8180465
Probable space group: A M M 2
;
_chemical_formula_sum "Si O2"
_cell_formula_units_Z 64
_cell_length_a 8.714537
_cell_length_b 28.696849
_cell_length_c 14.230084
_cell_angle_alpha 90.000000
_cell_angle_beta 90.000000
_cell_angle_gamma 90.000000
_cell_volume 3558.655883
_symmetry_space_group_name_H-M "A M M 2"
_symmetry_group_IT_number 38
_symmetry_cell_setting 'orthorhombic'
loop_
_space_group_symop_operation_xyz
x,y,z
-x,-y,z
-x,y,z
x,-y,z
x,1/2+y,1/2+z
-x,1/2-y,1/2+z
-x,1/2+y,1/2+z
x,1/2-y,1/2+z
loop_
_atom_site_type_symbol
_atom_site_label
_atom_site_fract_x
_atom_site_fract_y
_atom_site_fract_z
Si Si1 0.681810 0.552909 0.993990
Si Si2 0.319809 0.626108 0.658922
Si Si3 0.318687 0.123943 0.648580
Si Si4 0.179784 0.873902 0.360461
Si Si5 0.683437 0.375832 0.357580
Si Si6 0.681646 0.551684 0.506993
Si Si7 0.318589 0.801460 0.003203
Si Si8 0.682542 0.302707 0.998803
O O1 0.500000 0.555518 0.981659
O O2 0.741286 0.500000 0.997413
O O3 0.755429 0.578630 0.905185
O O4 0.733141 0.578168 0.090664
O O5 0.500000 0.626314 0.683922
O O6 0.218514 0.626511 0.751272
O O7 0.273960 0.579958 0.600610
O O8 0.273783 0.671603 0.598425
O O9 0.500000 0.124494 0.658924
O O10 0.245108 0.123366 0.752714
O O11 0.263608 0.169898 0.592512
O O12 0.253546 0.828210 0.406997
O O13 0.000000 0.872272 0.376154
O O14 0.500000 0.375748 0.355121
O O15 0.742262 0.421297 0.414324
O O16 0.742437 0.329619 0.412011
O O17 0.500000 0.548278 0.500624
O O18 0.755332 0.500000 0.510661
O O19 0.500000 0.798259 0.996794
O O20 0.248681 0.749463 0.003896
O O21 0.500000 0.302817 0.990962
#
# Coordination Sequence:
#
# PCOD8180465 Si02
#       8
#     8   8   8   8   8   8   8   8
#     4   9  18  33  51  70  93 123 159 198 241 288
#     4   9  17  31  49  70  96 125 160 199 236 278
#     4   8  14  24  40  64  92 118 146 187 236 284
#     4  11  22  34  48  69  97 128 161 197 239 285
#     4   8  13  22  38  66 100 123 146 187 236 281
#     4   8  14  24  40  65  96 125 150 182 230 284
#     4   8  15  27  46  71  96 124 158 197 238 279
#     4   9  17  31  49  69  94 125 162 200 238 280
#
# _framework density 17.984317000000001
#
# number of rings (size 3 to 8) (size 9 to 14) (size 15 to 20)
#    0.000    3.250    0.000    3.375    0.000    2.250 
#    0.000    8.125    0.000    0.000    0.000   14.000 
#    0.000    0.000    0.000    0.000    0.000    0.000 
#
# Total GULP energy -396631.540161 kJ/mol
# GULP energy per Si atom -12394.735630 kJ/mol
# Density = 1.794338 g / cm^3
# Si number density = 17.984317 Si / 1000 Ang^3
#
#
#
# Elastic Constant Matrix: (Units=GPa)
#
#
# Indices 1 2 3 4 5 6 
#
# 1 20.8464 18.5708 15.3199 0.0000 0.0000 0.0000
# 2 18.5708 190.5443 81.6580 0.0000 0.0000 0.0000
# 3 15.3199 81.6580 150.5905 0.0000 0.0000 0.0000
# 4 0.0000 0.0000 0.0000 14.8204 0.0000 0.0000
# 5 0.0000 0.0000 0.0000 0.0000 2.1447 0.0000
# 6 0.0000 0.0000 0.0000 0.0000 0.0000 4.0328
#
#
#
# Elastic Compliance Matrix: (Units=1/GPa)
#
#
# Indices 1 2 3 4 5 6 
#
# 1 0.053857 -0.003779 -0.003430 0.000000 0.000000 0.000000
# 2 -0.003779 0.007102 -0.003467 0.000000 0.000000 0.000000
# 3 -0.003430 -0.003467 0.008869 0.000000 0.000000 0.000000
# 4 0.000000 0.000000 0.000000 0.067474 0.000000 0.000000
# 5 0.000000 0.000000 0.000000 0.000000 0.466276 0.000000
# 6 0.000000 0.000000 0.000000 0.000000 0.000000 0.247965
#
#
# Mechanical properties :
#
#
# Convention : Reuss Voigt Hill
#
# Bulk Modulus (GPa) = 20.62828 65.89763 43.26295
# Shear Modulus (GPa) = 5.62396 20.62841 13.12619
#
# Velocity S-wave (km/s) = 1.77029 3.39045 2.70454
# Velocity P-wave (km/s) = 3.95899 7.21444 5.81901
#
# Compressibility (1/GPa) = 0.04847715
#
# Stress axis : x y z
#
# Youngs Moduli (GPa) = 18.56770 140.80363 112.74922
#
# Poissons Ratio (x) = 0.53212 0.38670
# Poissons Ratio (y) = 0.07017 0.39086
# Poissons Ratio (z) = 0.06368 0.48812
#
# Static dielectric constant tensor:
#      x y z
#    x 2.716290 0.000000 0.000000 
#    y 0.000000 3.925510 0.000000 
#    z 0.000000 0.000000 3.486170 
# 
# 
# High freq. dielectric constant tensor:
#      x y z
#    x 1.636380 0.000000 0.000000 
#    y 0.000000 1.704240 0.000000 
#    z 0.000000 0.000000 1.701260 
# 
# From -- ./inp_files/13126.got.cif
#   From: 2010.03.12/outbox.cif.g09.slc.cpg/sg38_7_cif.got.tgz:13126.got - 2010.04.14 02:38:36.
