data_PCOD8180083
_publ_section_title
;
Structure prediction by ZEFSAII (Michael W. Deem and Ramdas Pophale) SiO2 
 PCOD8180083
Probable space group: A M M 2
;
_chemical_formula_sum "Si O2"
_cell_formula_units_Z 56
_cell_length_a 19.050153
_cell_length_b 8.683213
_cell_length_c 15.790393
_cell_angle_alpha 90.000000
_cell_angle_beta 90.000000
_cell_angle_gamma 90.000000
_cell_volume 2611.992115
_symmetry_space_group_name_H-M "A M M 2"
_symmetry_group_IT_number 38
_symmetry_cell_setting 'orthorhombic'
loop_
_space_group_symop_operation_xyz
x,y,z
-x,-y,z
-x,y,z
x,-y,z
x,1/2+y,1/2+z
-x,1/2-y,1/2+z
-x,1/2+y,1/2+z
x,1/2-y,1/2+z
loop_
_atom_site_type_symbol
_atom_site_label
_atom_site_fract_x
_atom_site_fract_y
_atom_site_fract_z
Si Si1 0.843081 0.681631 0.804630
Si Si2 0.151700 0.680450 0.129299
Si Si3 0.082909 0.323851 0.464784
Si Si4 0.578684 0.820359 0.625356
Si Si5 0.285183 0.673800 0.565991
Si Si6 0.291177 0.175450 0.874396
Si Si7 0.578522 0.322330 0.805472
O O1 0.843770 0.500000 0.794368
O O2 0.875812 0.757060 0.719761
O O3 0.888200 0.727370 0.886045
O O4 0.763178 0.739840 0.812926
O O5 0.138506 0.500000 0.124271
O O6 0.234635 0.717809 0.121081
O O7 0.109657 0.761549 0.054303
O O8 0.107922 0.500000 0.454585
O O9 0.000000 0.308915 0.464224
O O10 0.500000 0.772203 0.596947
O O11 0.634370 0.727747 0.569727
O O12 0.590267 0.780421 0.723002
O O13 0.591011 0.000000 0.611372
O O14 0.279099 0.500000 0.600561
O O15 0.260267 0.682615 0.468898
O O16 0.365632 0.263756 0.874054
O O17 0.301019 0.000000 0.844237
O O18 0.500000 0.299213 0.842440
O O19 0.591734 0.500000 0.782460
#
# Coordination Sequence:
#
# PCOD8180083 Si02
#       7
#     8   8   8   8   8   8   8
#     4  12  25  43  70 100 135 177 222 271 324 387
#     4  12  25  43  70 100 135 177 222 271 324 387
#     4  11  25  47  73 103 140 175 214 267 323 385
#     4  10  21  37  57  82 116 158 208 265 324 387
#     4  11  23  39  61  88 124 165 212 269 325 386
#     4  11  23  39  61  88 124 165 212 269 325 386
#     4  10  21  37  57  82 116 158 208 265 324 387
#
# _framework density 21.439575000000001
#
# number of rings (size 3 to 8) (size 9 to 14) (size 15 to 20)
#    0.000    1.000    1.429    5.571    0.000    5.714 
#    0.000    2.857    0.000    0.000    0.000    0.000 
#    0.000    0.000    0.000    0.000    0.000    0.000 
#
# Total GULP energy -347348.127974 kJ/mol
# GULP energy per Si atom -12405.290285 kJ/mol
# Density = 2.139078 g / cm^3
# Si number density = 21.439575 Si / 1000 Ang^3
#
#
#
# Elastic Constant Matrix: (Units=GPa)
#
#
# Indices 1 2 3 4 5 6 
#
# 1 83.5369 32.8528 26.6120 0.0000 0.0000 0.0000
# 2 32.8528 93.3829 10.2267 0.0000 0.0000 0.0000
# 3 26.6120 10.2267 89.9090 0.0000 0.0000 0.0000
# 4 0.0000 0.0000 0.0000 36.7520 0.0000 0.0000
# 5 0.0000 0.0000 0.0000 0.0000 23.9939 0.0000
# 6 0.0000 0.0000 0.0000 0.0000 0.0000 35.8641
#
#
#
# Elastic Compliance Matrix: (Units=1/GPa)
#
#
# Indices 1 2 3 4 5 6 
#
# 1 0.015148 -0.004899 -0.003926 0.000000 0.000000 0.000000
# 2 -0.004899 0.012428 0.000036 0.000000 0.000000 0.000000
# 3 -0.003926 0.000036 0.012280 0.000000 0.000000 0.000000
# 4 0.000000 0.000000 0.000000 0.027209 0.000000 0.000000
# 5 0.000000 0.000000 0.000000 0.000000 0.041677 0.000000
# 6 0.000000 0.000000 0.000000 0.000000 0.000000 0.027883
#
#
# Mechanical properties :
#
#
# Convention : Reuss Voigt Hill
#
# Bulk Modulus (GPa) = 44.88648 45.13461 45.01054
# Shear Modulus (GPa) = 30.93459 32.46448 31.69953
#
# Velocity S-wave (km/s) = 3.80264 3.89553 3.84937
# Velocity P-wave (km/s) = 6.34522 6.42894 6.38722
#
# Compressibility (1/GPa) = 0.02227842
#
# Stress axis : x y z
#
# Youngs Moduli (GPa) = 66.01379 80.46207 81.43060
#
# Poissons Ratio (x) = 0.39421 0.31973
# Poissons Ratio (y) = 0.32342 -0.00297
# Poissons Ratio (z) = 0.25920 -0.00294
#
# Static dielectric constant tensor:
#      x y z
#    x 3.930330 0.000000 0.000000 
#    y 0.000000 3.930170 0.000000 
#    z 0.000000 0.000000 3.749790 
# 
# 
# High freq. dielectric constant tensor:
#      x y z
#    x 1.844320 0.000000 0.000000 
#    y 0.000000 1.853960 0.000000 
#    z 0.000000 0.000000 1.840490 
# 
# From -- ./inp_files/15452.got.cif
#   From: 2010.03.12/outbox.cif.g09.slc.cpg/sg38_8_cif.got.tgz:15452.got - 2010.04.14 02:38:36.
