data_PCOD8180826
_publ_section_title
;
Structure prediction by ZEFSAII (Michael W. Deem and Ramdas Pophale) SiO2 
 PCOD8180826
Probable space group: A B M 2
;
_chemical_formula_sum "Si O2"
_cell_formula_units_Z 64
_cell_length_a 14.522295
_cell_length_b 8.849678
_cell_length_c 25.014040
_cell_angle_alpha 90.000000
_cell_angle_beta 90.000000
_cell_angle_gamma 90.000000
_cell_volume 3214.745252
_symmetry_space_group_name_H-M "A B M 2"
_symmetry_group_IT_number 39
_symmetry_cell_setting 'orthorhombic'
loop_
_space_group_symop_operation_xyz
x,y,z
-x,-y,z
-x,1/2+y,z
x,1/2-y,z
x,1/2+y,1/2+z
-x,1/2-y,1/2+z
-x,y,1/2+z
x,-y,1/2+z
loop_
_atom_site_type_symbol
_atom_site_label
_atom_site_fract_x
_atom_site_fract_y
_atom_site_fract_z
Si Si1 0.662194 0.418471 0.376580
Si Si2 0.867350 0.921324 0.838499
Si Si3 0.410139 0.073096 0.767967
Si Si4 0.268957 0.927983 0.181454
Si Si5 0.094442 0.929830 0.724602
Si Si6 0.398942 0.929065 0.083459
Si Si7 0.090711 0.070690 0.447678
Si Si8 0.289914 0.072371 0.480766
O O1 0.636481 0.250000 0.396248
O O2 0.759283 0.415988 0.347134
O O3 0.594480 0.477450 0.330110
O O4 0.655745 0.528311 0.427029
O O5 0.907043 0.750000 0.836608
O O6 0.889306 0.005363 0.783705
O O7 0.912404 0.014160 0.886723
O O8 0.420623 0.250000 0.762188
O O9 0.320880 0.021456 0.735361
O O10 0.500000 0.000000 0.741511
O O11 0.247347 0.750000 0.179530
O O12 0.333337 0.977244 0.132197
O O13 0.173232 0.018538 0.182675
O O14 0.089366 0.750000 0.726642
O O15 0.000000 0.000000 0.701991
O O16 0.411752 0.750000 0.080989
O O17 0.500000 0.000000 0.088855
O O18 0.346257 0.993262 0.030937
O O19 0.085368 0.250000 0.449284
O O20 0.184051 0.011739 0.477393
O O21 0.000000 0.000000 0.476571
O O22 0.286544 0.250000 0.485126
#
# Coordination Sequence:
#
# PCOD8180826 Si02
#       8
#     8   8   8   8   8   8   8   8
#     4   9  18  33  53  78 113 153 189 231 285 338
#     4  10  18  33  54  78 114 155 196 235 281 336
#     4  10  20  34  53  81 113 147 186 230 286 347
#     4  10  21  41  62  82 115 151 189 242 292 338
#     4  12  24  37  57  85 117 154 195 235 285 343
#     4  10  22  41  66  89 113 148 192 244 296 346
#     4  10  19  32  51  79 115 152 195 236 282 339
#     4   9  20  37  56  82 114 149 191 236 286 342
#
# _framework density 19.908263999999999
#
# number of rings (size 3 to 8) (size 9 to 14) (size 15 to 20)
#    0.000    2.000    1.250    2.625    0.000    3.500 
#    0.000    3.125    0.000    1.500    0.000    0.000 
#    0.000    0.000    0.000    0.000    0.000    0.000 
#
# Total GULP energy -396682.203437 kJ/mol
# GULP energy per Si atom -12396.318857 kJ/mol
# Density = 1.986295 g / cm^3
# Si number density = 19.908264 Si / 1000 Ang^3
#
#
#
# Elastic Constant Matrix: (Units=GPa)
#
#
# Indices 1 2 3 4 5 6 
#
# 1 136.1135 48.9975 66.5218 0.0000 0.0000 0.0000
# 2 48.9975 68.8404 35.0692 0.0000 0.0000 0.0000
# 3 66.5218 35.0692 98.6417 0.0000 0.0000 0.0000
# 4 0.0000 0.0000 0.0000 23.1833 0.0000 0.0000
# 5 0.0000 0.0000 0.0000 0.0000 -1.0225 0.0000
# 6 0.0000 0.0000 0.0000 0.0000 0.0000 34.2349
#
#
#
# Elastic Compliance Matrix: (Units=1/GPa)
#
#
# Indices 1 2 3 4 5 6 
#
# 1 0.012523 -0.005631 -0.006443 0.000000 0.000000 0.000000
# 2 -0.005631 0.020271 -0.003410 0.000000 0.000000 0.000000
# 3 -0.006443 -0.003410 0.015695 0.000000 0.000000 0.000000
# 4 0.000000 0.000000 0.000000 0.043134 0.000000 0.000000
# 5 0.000000 0.000000 0.000000 0.000000 -0.977973 0.000000
# 6 0.000000 0.000000 0.000000 0.000000 0.000000 0.029210
#
#
# Mechanical properties :
#
#
# Convention : Reuss Voigt Hill
#
# Bulk Modulus (GPa) = 57.07180 67.19694 62.13437
# Shear Modulus (GPa) = -6.09509 21.47961 7.69226
#
# Velocity S-wave (km/s) = -1.75164 3.28827 1.96780
# Velocity P-wave (km/s) = 4.96373 6.94576 6.03665
#
# Compressibility (1/GPa) = 0.01752179
#
# Stress axis : x y z
#
# Youngs Moduli (GPa) = 79.85534 49.33163 63.71469
#
# Poissons Ratio (x) = 0.27777 0.41052
# Poissons Ratio (y) = 0.44964 0.21724
# Poissons Ratio (z) = 0.51452 0.16820
#
# Static dielectric constant tensor:
#      x y z
#    x 3.960320 0.000000 0.000000 
#    y 0.000000 3.503050 0.000000 
#    z 0.000000 0.000000 3.642410 
# 
# 
# High freq. dielectric constant tensor:
#      x y z
#    x 1.791040 0.000000 0.000000 
#    y 0.000000 1.766820 0.000000 
#    z 0.000000 0.000000 1.756750 
# 
# From -- ./inp_files/16231.got.cif
#   From: 2010.03.12/outbox.cif.g09.slc.cpg/sg39_9_cif.got.tgz:16231.got - 2010.04.14 02:53:20.
