data_PCOD8180319
_publ_section_title
;
Structure prediction by ZEFSAII (Michael W. Deem and Ramdas Pophale) SiO2 
 PCOD8180319
Probable space group: A M M 2
;
_chemical_formula_sum "Si O2"
_cell_formula_units_Z 32
_cell_length_a 8.834432
_cell_length_b 7.705601
_cell_length_c 24.226999
_cell_angle_alpha 90.000000
_cell_angle_beta 90.000000
_cell_angle_gamma 90.000000
_cell_volume 1649.243461
_symmetry_space_group_name_H-M "A M M 2"
_symmetry_group_IT_number 38
_symmetry_cell_setting 'orthorhombic'
loop_
_space_group_symop_operation_xyz
x,y,z
-x,-y,z
-x,y,z
x,-y,z
x,1/2+y,1/2+z
-x,1/2-y,1/2+z
-x,1/2+y,1/2+z
x,1/2-y,1/2+z
loop_
_atom_site_type_symbol
_atom_site_label
_atom_site_fract_x
_atom_site_fract_y
_atom_site_fract_z
Si Si1 0.319463 0.000000 0.525590
Si Si2 0.320445 0.500000 0.900492
Si Si3 0.679062 0.691032 0.599742
Si Si4 0.822394 0.200248 0.830242
Si Si5 0.329721 0.296264 0.217579
O O1 0.253506 0.169214 0.557021
O O2 0.500000 0.000000 0.526163
O O3 0.260201 0.000000 0.463203
O O4 0.500000 0.500000 0.897054
O O5 0.260594 0.676233 0.873342
O O6 0.500000 0.717211 0.603198
O O7 0.723510 0.500000 0.577970
O O8 0.741537 0.714479 0.662006
O O9 0.774702 0.257657 0.768811
O O10 0.000000 0.226315 0.836464
O O11 0.774742 0.000000 0.841579
O O12 0.500000 0.227120 0.228995
O O13 0.332063 0.500000 0.208420
#
# Coordination Sequence:
#
# PCOD8180319 Si02
#       5
#     4   4   8   8   8
#     4   9  18  33  49  75 113 145 178 229 282 329
#     4  11  23  37  59  85 113 151 198 243 280 331
#     4   9  16  27  47  76 109 143 175 217 278 336
#     4  10  22  39  57  80 114 154 191 234 288 342
#     4   9  16  29  52  81 113 142 177 227 276 334
#
# _framework density 19.402835
#
# number of rings (size 3 to 8) (size 9 to 14) (size 15 to 20)
#    0.000    2.500    1.250    1.125    1.750    2.500 
#    0.000    2.500    0.000    3.000    0.000    0.000 
#    0.000    0.000    0.000    0.000    0.000    0.000 
#
# Total GULP energy -198369.513609 kJ/mol
# GULP energy per Si atom -12398.094601 kJ/mol
# Density = 1.935867 g / cm^3
# Si number density = 19.402835 Si / 1000 Ang^3
#
#
#
# Elastic Constant Matrix: (Units=GPa)
#
#
# Indices 1 2 3 4 5 6 
#
# 1 50.2928 31.5347 36.2604 0.0000 0.0000 0.0000
# 2 31.5347 137.8572 97.8025 0.0000 0.0000 0.0000
# 3 36.2604 97.8025 171.8502 0.0000 0.0000 0.0000
# 4 0.0000 0.0000 0.0000 25.2963 0.0000 0.0000
# 5 0.0000 0.0000 0.0000 0.0000 -0.1502 0.0000
# 6 0.0000 0.0000 0.0000 0.0000 0.0000 20.3740
#
#
#
# Elastic Compliance Matrix: (Units=1/GPa)
#
#
# Indices 1 2 3 4 5 6 
#
# 1 0.024274 -0.003218 -0.003290 0.000000 0.000000 0.000000
# 2 -0.003218 0.012593 -0.006488 0.000000 0.000000 0.000000
# 3 -0.003290 -0.006488 0.010205 0.000000 0.000000 0.000000
# 4 0.000000 0.000000 0.000000 0.039531 0.000000 0.000000
# 5 0.000000 0.000000 0.000000 0.000000 -6.659058 0.000000
# 6 0.000000 0.000000 0.000000 0.000000 0.000000 0.049082
#
#
# Mechanical properties :
#
#
# Convention : Reuss Voigt Hill
#
# Bulk Modulus (GPa) = 47.43930 76.79950 62.11940
# Shear Modulus (GPa) = -0.77037 22.06419 10.64691
#
# Velocity S-wave (km/s) = -0.63080 3.37584 2.34504
# Velocity P-wave (km/s) = 4.89614 7.40693 6.27833
#
# Compressibility (1/GPa) = 0.02107957
#
# Stress axis : x y z
#
# Youngs Moduli (GPa) = 41.19681 79.41096 97.98705
#
# Poissons Ratio (x) = 0.25558 0.32239
# Poissons Ratio (y) = 0.13259 0.63570
# Poissons Ratio (z) = 0.13554 0.51519
#
# Static dielectric constant tensor:
#      x y z
#    x 3.124310 0.000000 0.000000 
#    y 0.000000 3.654290 0.000000 
#    z 0.000000 0.000000 3.676700 
# 
# 
# High freq. dielectric constant tensor:
#      x y z
#    x 1.707840 0.000000 0.000000 
#    y 0.000000 1.767000 0.000000 
#    z 0.000000 0.000000 1.756890 
# 
# From -- ./inp_files/21618.got.cif
#   From: 2010.03.12/outbox.cif.g09.slc.cpg/sg38_11_cif.got.tgz:21618.got - 2010.04.14 02:38:36.
