data_PCOD8180162
_publ_section_title
;
Structure prediction by ZEFSAII (Michael W. Deem and Ramdas Pophale) SiO2 
 PCOD8180162
Probable space group: A M M 2
;
_chemical_formula_sum "Si O2"
_cell_formula_units_Z 40
_cell_length_a 7.698266
_cell_length_b 7.728200
_cell_length_c 32.904264
_cell_angle_alpha 90.000000
_cell_angle_beta 90.000000
_cell_angle_gamma 90.000000
_cell_volume 1957.597704
_symmetry_space_group_name_H-M "A M M 2"
_symmetry_group_IT_number 38
_symmetry_cell_setting 'orthorhombic'
loop_
_space_group_symop_operation_xyz
x,y,z
-x,-y,z
-x,y,z
x,-y,z
x,1/2+y,1/2+z
-x,1/2-y,1/2+z
-x,1/2+y,1/2+z
x,1/2-y,1/2+z
loop_
_atom_site_type_symbol
_atom_site_label
_atom_site_fract_x
_atom_site_fract_y
_atom_site_fract_z
Si Si1 0.196679 0.000000 0.422220
Si Si2 0.205061 0.807452 0.974685
Si Si3 0.000000 0.796261 0.710238
Si Si4 0.307630 0.296376 0.562959
Si Si5 0.299935 0.700655 0.270298
Si Si6 0.699583 0.500000 0.832164
Si Si7 0.000000 0.302094 0.121208
O O1 0.282265 0.824683 0.440775
O O2 0.195600 0.000000 0.373793
O O3 0.000000 0.000000 0.437938
O O4 0.000000 0.824252 0.971640
O O5 0.286755 0.000000 0.968042
O O6 0.254773 0.727327 0.018564
O O7 0.175111 0.739223 0.733707
O O8 0.000000 0.707717 0.665428
O O9 0.000000 0.000000 0.706962
O O10 0.500000 0.227388 0.574512
O O11 0.303621 0.500000 0.560826
O O12 0.173523 0.239048 0.596951
O O13 0.500000 0.728463 0.256612
O O14 0.266952 0.500000 0.282927
O O15 0.253146 0.825088 0.307905
O O16 0.500000 0.500000 0.844364
O O17 0.000000 0.500000 0.131718
#
# Coordination Sequence:
#
# PCOD8180162 Si02
#       7
#     4   8   4   8   8   4   4
#     4  10  22  34  54  86 118 150 194 246 292 343
#     4   9  18  35  56  78 113 158 198 242 290 342
#     4   9  20  38  60  86 110 151 195 229 290 363
#     4  10  21  38  59  83 116 159 203 242 293 357
#     4   9  19  38  61  83 115 153 189 239 293 345
#     4  10  22  38  56  86 118 150 196 243 289 352
#     4  11  23  37  59  89 122 149 191 252 303 356
#
# _framework density 20.433206999999999
#
# number of rings (size 3 to 8) (size 9 to 14) (size 15 to 20)
#    0.000    2.400    1.000    0.300    2.800    2.800 
#    3.600    2.000    0.000    0.000    0.000    0.000 
#    0.000    0.000    0.000    0.000    0.000    0.000 
#
# Total GULP energy -247885.698241 kJ/mol
# GULP energy per Si atom -12394.284912 kJ/mol
# Density = 2.038670 g / cm^3
# Si number density = 20.433207 Si / 1000 Ang^3
#
#
#
# Elastic Constant Matrix: (Units=GPa)
#
#
# Indices 1 2 3 4 5 6 
#
# 1 94.1097 32.4741 61.2060 0.0000 0.0000 0.0000
# 2 32.4741 94.5821 64.1758 0.0000 0.0000 0.0000
# 3 61.2060 64.1758 175.6654 0.0000 0.0000 0.0000
# 4 0.0000 0.0000 0.0000 15.7921 0.0000 0.0000
# 5 0.0000 0.0000 0.0000 0.0000 3.5388 0.0000
# 6 0.0000 0.0000 0.0000 0.0000 0.0000 11.5582
#
#
#
# Elastic Compliance Matrix: (Units=1/GPa)
#
#
# Indices 1 2 3 4 5 6 
#
# 1 0.014016 -0.001993 -0.004156 0.000000 0.000000 0.000000
# 2 -0.001993 0.014341 -0.004545 0.000000 0.000000 0.000000
# 3 -0.004156 -0.004545 0.008801 0.000000 0.000000 0.000000
# 4 0.000000 0.000000 0.000000 0.063323 0.000000 0.000000
# 5 0.000000 0.000000 0.000000 0.000000 0.282579 0.000000
# 6 0.000000 0.000000 0.000000 0.000000 0.000000 0.086519
#
#
# Mechanical properties :
#
#
# Convention : Reuss Voigt Hill
#
# Bulk Modulus (GPa) = 63.40494 75.56323 69.48408
# Shear Modulus (GPa) = 10.07615 19.94458 15.01036
#
# Velocity S-wave (km/s) = 2.22305 3.12763 2.71330
# Velocity P-wave (km/s) = 6.13897 7.07839 6.62535
#
# Compressibility (1/GPa) = 0.01577164
#
# Stress axis : x y z
#
# Youngs Moduli (GPa) = 71.34610 69.73143 113.62498
#
# Poissons Ratio (x) = 0.13896 0.47218
# Poissons Ratio (y) = 0.14217 0.51640
# Poissons Ratio (z) = 0.29648 0.31691
#
# Static dielectric constant tensor:
#      x y z
#    x 3.805920 0.000000 0.000000 
#    y 0.000000 4.047060 0.000000 
#    z 0.000000 0.000000 3.869140 
# 
# 
# High freq. dielectric constant tensor:
#      x y z
#    x 1.798090 0.000000 0.000000 
#    y 0.000000 1.801030 0.000000 
#    z 0.000000 0.000000 1.786620 
# 
# From -- ./inp_files/23298.got.cif
#   From: 2010.03.12/outbox.cif.g09.slc.cpg/sg38_12_cif.got.tgz:23298.got - 2010.04.14 02:38:36.
