data_PCOD8180761
_publ_section_title
;
Structure prediction by ZEFSAII (Michael W. Deem and Ramdas Pophale) SiO2 
 PCOD8180761
Probable space group: A B M 2
;
_chemical_formula_sum "Si O2"
_cell_formula_units_Z 64
_cell_length_a 19.322617
_cell_length_b 8.848887
_cell_length_c 20.734977
_cell_angle_alpha 90.000000
_cell_angle_beta 90.000000
_cell_angle_gamma 90.000000
_cell_volume 3545.342141
_symmetry_space_group_name_H-M "A B M 2"
_symmetry_group_IT_number 39
_symmetry_cell_setting 'orthorhombic'
loop_
_space_group_symop_operation_xyz
x,y,z
-x,-y,z
-x,1/2+y,z
x,1/2-y,z
x,1/2+y,1/2+z
-x,1/2-y,1/2+z
-x,y,1/2+z
x,-y,1/2+z
loop_
_atom_site_type_symbol
_atom_site_label
_atom_site_fract_x
_atom_site_fract_y
_atom_site_fract_z
Si Si1 0.429425 0.570915 0.161570
Si Si2 0.283961 0.429168 0.710591
Si Si3 0.784058 0.070460 0.339838
Si Si4 0.205743 0.928528 0.084122
Si Si5 0.929322 0.072556 0.389278
Si Si6 0.713442 0.924220 0.969858
Si Si7 0.070809 0.927733 0.537746
Si Si8 0.432082 0.575542 0.523926
O O1 0.500000 0.500000 0.190471
O O2 0.437102 0.750000 0.157920
O O3 0.364682 0.522639 0.206442
O O4 0.414598 0.509169 0.090232
O O5 0.278583 0.250000 0.712280
O O6 0.249215 0.499322 0.774921
O O7 0.243016 0.490179 0.648392
O O8 0.783820 0.250000 0.336322
O O9 0.863296 0.013346 0.348460
O O10 0.737378 0.017490 0.400009
O O11 0.196175 0.750000 0.085370
O O12 0.131276 0.006194 0.081679
O O13 0.251409 0.972671 0.023100
O O14 0.937876 0.250000 0.382735
O O15 0.916128 0.025867 0.463412
O O16 0.000000 0.000000 0.362252
O O17 0.736367 0.750000 0.981160
O O18 0.630731 0.942279 0.973895
O O19 0.067088 0.750000 0.546537
O O20 0.000000 0.000000 0.563099
O O21 0.500000 0.500000 0.491835
O O22 0.446961 0.750000 0.539843
#
# Coordination Sequence:
#
# PCOD8180761 Si02
#       8
#     8   8   8   8   8   8   8   8
#     4  10  18  31  50  75 101 133 172 213 257 309
#     4   9  19  33  52  76 104 138 176 212 256 311
#     4   9  17  34  54  74 101 137 177 212 251 310
#     4  11  20  32  52  79 107 136 170 214 262 308
#     4   9  17  30  52  75  99 129 167 211 251 300
#     4  10  19  33  54  77 100 134 176 216 259 306
#     4  10  19  33  52  80 107 137 175 216 264 308
#     4  10  19  30  49  76 104 134 169 215 263 310
#
# _framework density 18.051853999999999
#
# number of rings (size 3 to 8) (size 9 to 14) (size 15 to 20)
#    0.000    2.250    2.500    2.250    0.000    1.000 
#    0.000    1.250    0.000    7.500    0.000    0.000 
#    0.000    0.000    0.000    0.000    0.000    0.000 
#
# Total GULP energy -396763.843172 kJ/mol
# GULP energy per Si atom -12398.870099 kJ/mol
# Density = 1.801077 g / cm^3
# Si number density = 18.051854 Si / 1000 Ang^3
#
#
#
# Elastic Constant Matrix: (Units=GPa)
#
#
# Indices 1 2 3 4 5 6 
#
# 1 180.3666 43.4597 78.4387 0.0000 0.0000 0.0000
# 2 43.4597 57.5872 24.3332 0.0000 0.0000 0.0000
# 3 78.4387 24.3332 109.5242 0.0000 0.0000 0.0000
# 4 0.0000 0.0000 0.0000 14.6963 0.0000 0.0000
# 5 0.0000 0.0000 0.0000 0.0000 28.2076 0.0000
# 6 0.0000 0.0000 0.0000 0.0000 0.0000 30.3506
#
#
#
# Elastic Compliance Matrix: (Units=1/GPa)
#
#
# Indices 1 2 3 4 5 6 
#
# 1 0.008993 -0.004486 -0.005444 0.000000 0.000000 0.000000
# 2 -0.004486 0.021402 -0.001542 0.000000 0.000000 0.000000
# 3 -0.005444 -0.001542 0.013372 0.000000 0.000000 0.000000
# 4 0.000000 0.000000 0.000000 0.068045 0.000000 0.000000
# 5 0.000000 0.000000 0.000000 0.000000 0.035451 0.000000
# 6 0.000000 0.000000 0.000000 0.000000 0.000000 0.032948
#
#
# Mechanical properties :
#
#
# Convention : Reuss Voigt Hill
#
# Bulk Modulus (GPa) = 48.02459 71.10456 59.56458
# Shear Modulus (GPa) = 23.79873 28.06731 25.93302
#
# Velocity S-wave (km/s) = 3.63485 3.94739 3.79434
# Velocity P-wave (km/s) = 6.65415 7.76212 7.22939
#
# Compressibility (1/GPa) = 0.02082267
#
# Stress axis : x y z
#
# Youngs Moduli (GPa) = 111.20294 46.72407 74.78583
#
# Poissons Ratio (x) = 0.20962 0.40710
# Poissons Ratio (y) = 0.49889 0.11532
# Poissons Ratio (z) = 0.60534 0.07205
#
# Static dielectric constant tensor:
#      x y z
#    x 3.747890 0.000000 0.000000 
#    y 0.000000 3.159190 0.000000 
#    z 0.000000 0.000000 3.289880 
# 
# 
# High freq. dielectric constant tensor:
#      x y z
#    x 1.720060 0.000000 0.000000 
#    y 0.000000 1.682300 0.000000 
#    z 0.000000 0.000000 1.666520 
# 
# From -- ./inp_files/13098.got.cif
#   From: 2010.03.12/outbox.cif.g09.slc.cpg/sg39_7_cif.got.tgz:13098.got - 2010.04.14 02:53:20.
