data_PCOD8180756
_publ_section_title
;
Structure prediction by ZEFSAII (Michael W. Deem and Ramdas Pophale) SiO2 
 PCOD8180756
Probable space group: A B M 2
;
_chemical_formula_sum "Si O2"
_cell_formula_units_Z 56
_cell_length_a 17.849352
_cell_length_b 8.871801
_cell_length_c 19.234968
_cell_angle_alpha 90.000000
_cell_angle_beta 90.000000
_cell_angle_gamma 90.000000
_cell_volume 3045.970648
_symmetry_space_group_name_H-M "A B M 2"
_symmetry_group_IT_number 39
_symmetry_cell_setting 'orthorhombic'
loop_
_space_group_symop_operation_xyz
x,y,z
-x,-y,z
-x,1/2+y,z
x,1/2-y,z
x,1/2+y,1/2+z
-x,1/2-y,1/2+z
-x,y,1/2+z
x,-y,1/2+z
loop_
_atom_site_type_symbol
_atom_site_label
_atom_site_fract_x
_atom_site_fract_y
_atom_site_fract_z
Si Si1 0.806283 0.916018 0.019400
Si Si2 0.757089 0.425860 0.768740
Si Si3 0.321538 0.582186 0.632385
Si Si4 0.928093 0.574131 0.595939
Si Si5 0.922902 0.571505 0.244704
Si Si6 0.421107 0.925724 0.024788
Si Si7 0.292631 0.075878 0.418397
O O1 0.843259 0.750000 0.010332
O O2 0.743600 0.906711 0.077147
O O3 0.862756 0.046801 0.041375
O O4 0.772660 0.969125 0.946588
O O5 0.764377 0.250000 0.752114
O O6 0.712517 0.496253 0.702441
O O7 0.843724 0.483334 0.779585
O O8 0.705444 0.458315 0.836019
O O9 0.353169 0.750000 0.648561
O O10 0.387561 0.483949 0.598092
O O11 0.937461 0.750000 0.612804
O O12 0.914240 0.479614 0.665536
O O13 0.000000 0.500000 0.559321
O O14 0.932664 0.750000 0.249628
O O15 0.000000 0.500000 0.277343
O O16 0.432718 0.750000 0.033370
O O17 0.500000 0.000000 0.008823
O O18 0.369983 0.964499 0.957396
O O19 0.272009 0.250000 0.432238
#
# Coordination Sequence:
#
# PCOD8180756 Si02
#       7
#     8   8   8   8   8   8   8
#     4  10  18  32  51  74 102 134 173 215 261 312
#     4   9  17  33  55  77 106 143 179 219 266 315
#     4   9  17  32  55  78 102 134 171 212 258 308
#     4  11  20  30  47  72 101 134 175 225 273 316
#     4  10  18  31  49  74 104 140 180 220 270 317
#     4  10  20  35  56  81 106 135 172 214 262 320
#     4   9  19  35  55  78 104 140 180 213 257 317
#
# _framework density 18.384943
#
# number of rings (size 3 to 8) (size 9 to 14) (size 15 to 20)
#    0.000    2.286    1.429    3.429    0.000    1.143 
#    0.000    3.571    0.000    3.429    0.000    0.000 
#    0.000    0.000    0.000    0.000    0.000    0.000 
#
# Total GULP energy -346947.140652 kJ/mol
# GULP energy per Si atom -12390.969309 kJ/mol
# Density = 1.834310 g / cm^3
# Si number density = 18.384943 Si / 1000 Ang^3
#
#
#
# Elastic Constant Matrix: (Units=GPa)
#
#
# Indices 1 2 3 4 5 6 
#
# 1 106.3144 37.1754 41.7309 0.0000 0.0000 0.0000
# 2 37.1754 73.9183 20.9622 0.0000 0.0000 0.0000
# 3 41.7309 20.9622 93.9380 0.0000 0.0000 0.0000
# 4 0.0000 0.0000 0.0000 18.2002 0.0000 0.0000
# 5 0.0000 0.0000 0.0000 0.0000 20.5929 0.0000
# 6 0.0000 0.0000 0.0000 0.0000 0.0000 30.1701
#
#
#
# Elastic Compliance Matrix: (Units=1/GPa)
#
#
# Indices 1 2 3 4 5 6 
#
# 1 0.013061 -0.005256 -0.004629 0.000000 0.000000 0.000000
# 2 -0.005256 0.016557 -0.001360 0.000000 0.000000 0.000000
# 3 -0.004629 -0.001360 0.013005 0.000000 0.000000 0.000000
# 4 0.000000 0.000000 0.000000 0.054945 0.000000 0.000000
# 5 0.000000 0.000000 0.000000 0.000000 0.048560 0.000000
# 6 0.000000 0.000000 0.000000 0.000000 0.000000 0.033145
#
#
# Mechanical properties :
#
#
# Convention : Reuss Voigt Hill
#
# Bulk Modulus (GPa) = 49.66862 52.65642 51.16252
# Shear Modulus (GPa) = 23.98362 25.41279 24.69821
#
# Velocity S-wave (km/s) = 3.61574 3.72191 3.66921
# Velocity P-wave (km/s) = 6.67128 6.86829 6.77050
#
# Compressibility (1/GPa) = 0.02013344
#
# Stress axis : x y z
#
# Youngs Moduli (GPa) = 76.56347 60.39586 76.89158
#
# Poissons Ratio (x) = 0.31744 0.35596
# Poissons Ratio (y) = 0.40241 0.10456
# Poissons Ratio (z) = 0.35444 0.08213
#
# Static dielectric constant tensor:
#      x y z
#    x 3.639490 0.000000 0.000000 
#    y 0.000000 3.480740 0.000000 
#    z 0.000000 0.000000 3.234190 
# 
# 
# High freq. dielectric constant tensor:
#      x y z
#    x 1.706910 0.000000 0.000000 
#    y 0.000000 1.707020 0.000000 
#    z 0.000000 0.000000 1.691020 
# 
# From -- ./inp_files/14916.got.cif
#   From: 2010.03.12/outbox.cif.g09.slc.cpg/sg39_8_cif.got.tgz:14916.got - 2010.04.14 02:53:20.
