data_PCOD8180544
_publ_section_title
;
Structure prediction by ZEFSAII (Michael W. Deem and Ramdas Pophale) SiO2 
 PCOD8180544
Probable space group: A M M 2
;
_chemical_formula_sum "Si O2"
_cell_formula_units_Z 56
_cell_length_a 15.145817
_cell_length_b 9.871730
_cell_length_c 24.887530
_cell_angle_alpha 90.000000
_cell_angle_beta 90.000000
_cell_angle_gamma 90.000000
_cell_volume 3721.069402
_symmetry_space_group_name_H-M "A M M 2"
_symmetry_group_IT_number 38
_symmetry_cell_setting 'orthorhombic'
loop_
_space_group_symop_operation_xyz
x,y,z
-x,-y,z
-x,y,z
x,-y,z
x,1/2+y,1/2+z
-x,1/2-y,1/2+z
-x,1/2+y,1/2+z
x,1/2-y,1/2+z
loop_
_atom_site_type_symbol
_atom_site_label
_atom_site_fract_x
_atom_site_fract_y
_atom_site_fract_z
Si Si1 0.902221 0.152013 0.985330
Si Si2 0.252169 0.341725 0.857815
Si Si3 0.902201 0.651480 0.357760
Si Si4 0.402378 0.839328 0.278730
Si Si5 0.748336 0.155553 0.482145
Si Si6 0.604916 0.849331 0.160428
Si Si7 0.398520 0.344131 0.066578
O O1 0.903802 0.158100 0.921566
O O2 0.828111 0.255405 0.006837
O O3 0.000000 0.192989 0.006954
O O4 0.878653 0.000000 0.004730
O O5 0.234356 0.500000 0.847858
O O6 0.167332 0.260607 0.835595
O O7 0.336215 0.287289 0.824626
O O8 0.270857 0.309656 0.920114
O O9 0.875251 0.500000 0.339070
O O10 0.000000 0.687584 0.335653
O O11 0.500000 0.776902 0.289454
O O12 0.365833 0.797503 0.219654
O O13 0.409715 0.000000 0.280616
O O14 0.658467 0.188062 0.513769
O O15 0.777016 0.000000 0.488845
O O16 0.500000 0.854860 0.159895
O O17 0.639476 0.745551 0.115469
O O18 0.642861 0.000000 0.148431
O O19 0.500000 0.307865 0.052904
O O20 0.389308 0.500000 0.084050
#
# Coordination Sequence:
#
# PCOD8180544 Si02
#       7
#     8   8   8   8   8   8   8
#     4   8  14  25  40  56  75 102 134 164 194 229
#     4   9  16  25  39  60  83 106 132 160 191 231
#     4   8  14  25  39  54  76 106 134 160 193 231
#     4   8  14  25  41  60  81 104 131 164 198 230
#     4   9  17  26  37  58  85 109 132 157 190 234
#     4   8  14  26  43  59  73  95 133 174 203 227
#     4   9  17  28  40  56  81 109 134 162 194 228
#
# _framework density 15.049438
#
# number of rings (size 3 to 8) (size 9 to 14) (size 15 to 20)
#    0.000    3.571    0.000    1.714    0.000    1.714 
#    0.000    6.429    0.000    1.286    0.000    5.000 
#    0.000    1.143    0.000    0.000    0.000    0.000 
#
# Total GULP energy -346991.033246 kJ/mol
# GULP energy per Si atom -12392.536902 kJ/mol
# Density = 1.501518 g / cm^3
# Si number density = 15.049438 Si / 1000 Ang^3
#
#
#
# Elastic Constant Matrix: (Units=GPa)
#
#
# Indices 1 2 3 4 5 6 
#
# 1 101.6271 55.4688 48.2049 0.0000 0.0000 0.0000
# 2 55.4688 66.0639 39.3900 0.0000 0.0000 0.0000
# 3 48.2049 39.3900 64.8369 0.0000 0.0000 0.0000
# 4 0.0000 0.0000 0.0000 16.5509 0.0000 0.0000
# 5 0.0000 0.0000 0.0000 0.0000 3.3800 0.0000
# 6 0.0000 0.0000 0.0000 0.0000 0.0000 21.7350
#
#
#
# Elastic Compliance Matrix: (Units=1/GPa)
#
#
# Indices 1 2 3 4 5 6 
#
# 1 0.020195 -0.012550 -0.007390 0.000000 0.000000 0.000000
# 2 -0.012550 0.031533 -0.009826 0.000000 0.000000 0.000000
# 3 -0.007390 -0.009826 0.026888 0.000000 0.000000 0.000000
# 4 0.000000 0.000000 0.000000 0.060420 0.000000 0.000000
# 5 0.000000 0.000000 0.000000 0.000000 0.295854 0.000000
# 6 0.000000 0.000000 0.000000 0.000000 0.000000 0.046009
#
#
# Mechanical properties :
#
#
# Convention : Reuss Voigt Hill
#
# Bulk Modulus (GPa) = 52.40413 57.62837 55.01625
# Shear Modulus (GPa) = 9.14423 14.29746 11.72084
#
# Velocity S-wave (km/s) = 2.46765 3.08560 2.79377
# Velocity P-wave (km/s) = 6.55866 7.14636 6.85881
#
# Compressibility (1/GPa) = 0.01908247
#
# Stress axis : x y z
#
# Youngs Moduli (GPa) = 49.51662 31.71280 37.19177
#
# Poissons Ratio (x) = 0.39799 0.27486
# Poissons Ratio (y) = 0.62143 0.36546
# Poissons Ratio (z) = 0.36594 0.31162
#
# Static dielectric constant tensor:
#      x y z
#    x 3.109060 0.000000 0.000000 
#    y 0.000000 2.972230 0.000000 
#    z 0.000000 0.000000 2.779960 
# 
# 
# High freq. dielectric constant tensor:
#      x y z
#    x 1.566050 0.000000 0.000000 
#    y 0.000000 1.567620 0.000000 
#    z 0.000000 0.000000 1.542240 
# 
# From -- ./inp_files/22534.got.cif
#   From: 2010.03.12/outbox.cif.g09.slc.cpg/sg38_12_cif.got.tgz:22534.got - 2010.04.14 02:38:36.
