data_PCOD8180211
_publ_section_title
;
Structure prediction by ZEFSAII (Michael W. Deem and Ramdas Pophale) SiO2 
 PCOD8180211
Probable space group: A M M 2
;
_chemical_formula_sum "Si O2"
_cell_formula_units_Z 64
_cell_length_a 8.868842
_cell_length_b 30.574000
_cell_length_c 11.873689
_cell_angle_alpha 90.000000
_cell_angle_beta 90.000000
_cell_angle_gamma 90.000000
_cell_volume 3219.621721
_symmetry_space_group_name_H-M "A M M 2"
_symmetry_group_IT_number 38
_symmetry_cell_setting 'orthorhombic'
loop_
_space_group_symop_operation_xyz
x,y,z
-x,-y,z
-x,y,z
x,-y,z
x,1/2+y,1/2+z
-x,1/2-y,1/2+z
-x,1/2+y,1/2+z
x,1/2-y,1/2+z
loop_
_atom_site_type_symbol
_atom_site_label
_atom_site_fract_x
_atom_site_fract_y
_atom_site_fract_z
Si Si1 0.325316 0.950186 0.925390
Si Si2 0.828193 0.570200 0.657559
Si Si3 0.674030 0.696947 0.431403
Si Si4 0.822136 0.125092 0.781622
Si Si5 0.328682 0.548312 0.880933
Si Si6 0.323720 0.125987 0.540437
Si Si7 0.326418 0.795997 0.373941
Si Si8 0.171331 0.672096 0.656599
O O1 0.500000 0.937543 0.921631
O O2 0.238704 0.918279 0.841523
O O3 0.298581 0.000000 0.885387
O O4 0.269961 0.944851 0.052482
O O5 0.770585 0.546499 0.768962
O O6 0.811882 0.621231 0.680239
O O7 0.000000 0.556473 0.634035
O O8 0.500000 0.685864 0.411052
O O9 0.768502 0.669095 0.342519
O O10 0.707858 0.747953 0.418915
O O11 0.717469 0.684606 0.557152
O O12 0.771263 0.126721 0.653433
O O13 0.000000 0.123366 0.789017
O O14 0.500000 0.560561 0.847218
O O15 0.320362 0.500000 0.936753
O O16 0.268456 0.583906 0.969536
O O17 0.500000 0.122768 0.570454
O O18 0.285831 0.169900 0.472042
O O19 0.500000 0.801911 0.336805
O O20 0.219551 0.802440 0.267739
O O21 0.000000 0.684725 0.625082
#
# Coordination Sequence:
#
# PCOD8180211 Si02
#       8
#     8   8   8   8   8   8   8   8
#     4  11  24  42  66  93 121 161 210 256 305 364
#     4  11  22  37  60  93 130 163 199 248 307 368
#     4  11  24  42  66  93 123 163 214 259 304 367
#     4  12  26  43  63  91 126 164 204 253 316 373
#     4  10  21  38  63  92 121 159 206 252 302 365
#     4  10  22  42  64  88 122 162 207 258 305 363
#     4  10  23  42  66  93 121 163 212 257 306 365
#     4  11  23  39  63  95 129 163 202 252 314 372
#
# _framework density 19.878112999999999
#
# number of rings (size 3 to 8) (size 9 to 14) (size 15 to 20)
#    0.000    1.250    2.500    3.000    1.750    6.250 
#    0.000    1.250    0.000    0.000    0.000    0.000 
#    0.000    0.000    0.000    0.000    0.000    0.000 
#
# Total GULP energy -396968.770013 kJ/mol
# GULP energy per Si atom -12405.274063 kJ/mol
# Density = 1.983287 g / cm^3
# Si number density = 19.878113 Si / 1000 Ang^3
#
#
#
# Elastic Constant Matrix: (Units=GPa)
#
#
# Indices 1 2 3 4 5 6 
#
# 1 94.3761 36.4261 51.3482 0.0000 0.0000 0.0000
# 2 36.4261 106.5351 53.4238 0.0000 0.0000 0.0000
# 3 51.3482 53.4238 127.3320 0.0000 0.0000 0.0000
# 4 0.0000 0.0000 0.0000 37.1958 0.0000 0.0000
# 5 0.0000 0.0000 0.0000 0.0000 104.0980 0.0000
# 6 0.0000 0.0000 0.0000 0.0000 0.0000 23.7525
#
#
#
# Elastic Compliance Matrix: (Units=1/GPa)
#
#
# Indices 1 2 3 4 5 6 
#
# 1 0.014077 -0.002491 -0.004632 0.000000 0.000000 0.000000
# 2 -0.002491 0.012328 -0.004168 0.000000 0.000000 0.000000
# 3 -0.004632 -0.004168 0.011470 0.000000 0.000000 0.000000
# 4 0.000000 0.000000 0.000000 0.026885 0.000000 0.000000
# 5 0.000000 0.000000 0.000000 0.000000 0.009606 0.000000
# 6 0.000000 0.000000 0.000000 0.000000 0.000000 0.042101
#
#
# Mechanical properties :
#
#
# Convention : Reuss Voigt Hill
#
# Bulk Modulus (GPa) = 65.38259 67.84881 66.61570
# Shear Modulus (GPa) = 34.68679 45.47894 40.08286
#
# Velocity S-wave (km/s) = 4.18182 4.78838 4.49534
# Velocity P-wave (km/s) = 7.50200 8.04847 7.78004
#
# Compressibility (1/GPa) = 0.01529459
#
# Stress axis : x y z
#
# Youngs Moduli (GPa) = 71.03643 81.11396 87.18265
#
# Poissons Ratio (x) = 0.20201 0.40382
# Poissons Ratio (y) = 0.17692 0.36339
# Poissons Ratio (z) = 0.32903 0.33810
#
# Static dielectric constant tensor:
#      x y z
#    x 3.638950 0.000000 0.000000 
#    y 0.000000 3.855040 0.000000 
#    z 0.000000 0.000000 3.587250 
# 
# 
# High freq. dielectric constant tensor:
#      x y z
#    x 1.779170 0.000000 0.000000 
#    y 0.000000 1.793200 0.000000 
#    z 0.000000 0.000000 1.774650 
# 
# From -- ./inp_files/8669.got.cif
#   From: 2010.03.12/outbox.cif.g09.slc.cpg/sg38_5_cif.got.tgz:8669.got - 2010.04.14 02:38:36.
