data_PCOD8180344
_publ_section_title
;
Structure prediction by ZEFSAII (Michael W. Deem and Ramdas Pophale) SiO2 
 PCOD8180344
Probable space group: A M M 2
;
_chemical_formula_sum "Si O2"
_cell_formula_units_Z 56
_cell_length_a 15.292404
_cell_length_b 13.631772
_cell_length_c 13.368096
_cell_angle_alpha 90.000000
_cell_angle_beta 90.000000
_cell_angle_gamma 90.000000
_cell_volume 2786.747577
_symmetry_space_group_name_H-M "A M M 2"
_symmetry_group_IT_number 38
_symmetry_cell_setting 'orthorhombic'
loop_
_space_group_symop_operation_xyz
x,y,z
-x,-y,z
-x,y,z
x,-y,z
x,1/2+y,1/2+z
-x,1/2-y,1/2+z
-x,1/2+y,1/2+z
x,1/2-y,1/2+z
loop_
_atom_site_type_symbol
_atom_site_label
_atom_site_fract_x
_atom_site_fract_y
_atom_site_fract_z
Si Si1 0.901453 0.791158 0.844960
Si Si2 0.815198 0.782901 0.644364
Si Si3 0.226591 0.387830 0.496427
Si Si4 0.401750 0.605310 0.983930
Si Si5 0.647765 0.386832 0.206890
Si Si6 0.901000 0.108807 0.473180
Si Si7 0.400613 0.310647 0.412321
O O1 0.892208 0.782759 0.725588
O O2 0.832614 0.863170 0.899202
O O3 0.000000 0.827271 0.869984
O O4 0.884956 0.680742 0.881425
O O5 0.802238 0.677877 0.591122
O O6 0.731177 0.817026 0.704871
O O7 0.835212 0.865442 0.562330
O O8 0.210026 0.500000 0.526881
O O9 0.329870 0.376642 0.470836
O O10 0.500000 0.594672 0.946575
O O11 0.353526 0.500000 0.960267
O O12 0.362303 0.698837 0.925102
O O13 0.403163 0.624156 0.102946
O O14 0.672235 0.500000 0.229220
O O15 0.590451 0.343791 0.297503
O O16 0.000000 0.117811 0.513795
O O17 0.879685 0.000000 0.434975
O O18 0.500000 0.318875 0.458014
#
# Coordination Sequence:
#
# PCOD8180344 Si02
#       7
#     8   8   8   8   8   8   8
#     4  10  22  40  62  86 118 156 196 246 299 357
#     4  11  21  37  58  85 121 154 195 245 298 354
#     4  11  24  41  60  89 124 160 206 251 305 368
#     4   9  19  37  60  85 114 151 196 244 299 360
#     4  11  21  35  58  87 114 151 199 246 293 352
#     4   9  19  36  58  85 113 145 190 239 290 350
#     4  11  22  38  62  90 122 159 204 256 306 360
#
# _framework density 20.095110999999999
#
# number of rings (size 3 to 8) (size 9 to 14) (size 15 to 20)
#    0.000    1.714    2.857    1.714    0.000    3.714 
#    0.000    0.714    0.000    0.000    0.000    0.000 
#    0.000    0.000    0.000    0.000    0.000    0.000 
#
# Total GULP energy -347041.111560 kJ/mol
# GULP energy per Si atom -12394.325413 kJ/mol
# Density = 2.004937 g / cm^3
# Si number density = 20.095111 Si / 1000 Ang^3
#
#
#
# Elastic Constant Matrix: (Units=GPa)
#
#
# Indices 1 2 3 4 5 6 
#
# 1 70.7786 18.3605 6.9714 0.0000 0.0000 0.0000
# 2 18.3605 149.9767 39.5944 0.0000 0.0000 0.0000
# 3 6.9714 39.5944 74.1513 0.0000 0.0000 0.0000
# 4 0.0000 0.0000 0.0000 24.4544 0.0000 0.0000
# 5 0.0000 0.0000 0.0000 0.0000 26.9829 0.0000
# 6 0.0000 0.0000 0.0000 0.0000 0.0000 21.5089
#
#
#
# Elastic Compliance Matrix: (Units=1/GPa)
#
#
# Indices 1 2 3 4 5 6 
#
# 1 0.014607 -0.001660 -0.000487 0.000000 0.000000 0.000000
# 2 -0.001660 0.007950 -0.004089 0.000000 0.000000 0.000000
# 3 -0.000487 -0.004089 0.015715 0.000000 0.000000 0.000000
# 4 0.000000 0.000000 0.000000 0.040892 0.000000 0.000000
# 5 0.000000 0.000000 0.000000 0.000000 0.037060 0.000000
# 6 0.000000 0.000000 0.000000 0.000000 0.000000 0.046492
#
#
# Mechanical properties :
#
#
# Convention : Reuss Voigt Hill
#
# Bulk Modulus (GPa) = 38.75847 47.19546 42.97696
# Shear Modulus (GPa) = 27.20492 29.92128 28.56310
#
# Velocity S-wave (km/s) = 3.68340 3.86292 3.77423
# Velocity P-wave (km/s) = 6.11714 6.59039 6.35817
#
# Compressibility (1/GPa) = 0.02580081
#
# Stress axis : x y z
#
# Youngs Moduli (GPa) = 68.46005 125.77897 63.63236
#
# Poissons Ratio (x) = 0.20875 0.03100
# Poissons Ratio (y) = 0.11362 0.26021
# Poissons Ratio (z) = 0.03335 0.51434
#
# Static dielectric constant tensor:
#      x y z
#    x 3.638650 0.000000 0.000000 
#    y 0.000000 3.868730 0.000000 
#    z 0.000000 0.000000 3.480180 
# 
# 
# High freq. dielectric constant tensor:
#      x y z
#    x 1.788430 0.000000 0.000000 
#    y 0.000000 1.787530 0.000000 
#    z 0.000000 0.000000 1.765520 
# 
# From -- ./inp_files/10101.got.cif
#   From: 2010.03.12/outbox.cif.g09.slc.cpg/sg38_6_cif.got.tgz:10101.got - 2010.04.14 02:38:36.
