data_PCOD8180115
_publ_section_title
;
Structure prediction by ZEFSAII (Michael W. Deem and Ramdas Pophale) SiO2 
 PCOD8180115
Probable space group: A M M 2
;
_chemical_formula_sum "Si O2"
_cell_formula_units_Z 64
_cell_length_a 18.506884
_cell_length_b 13.378642
_cell_length_c 12.536093
_cell_angle_alpha 90.000000
_cell_angle_beta 90.000000
_cell_angle_gamma 90.000000
_cell_volume 3103.898712
_symmetry_space_group_name_H-M "A M M 2"
_symmetry_group_IT_number 38
_symmetry_cell_setting 'orthorhombic'
loop_
_space_group_symop_operation_xyz
x,y,z
-x,-y,z
-x,y,z
x,-y,z
x,1/2+y,1/2+z
-x,1/2-y,1/2+z
-x,1/2+y,1/2+z
x,1/2-y,1/2+z
loop_
_atom_site_type_symbol
_atom_site_label
_atom_site_fract_x
_atom_site_fract_y
_atom_site_fract_z
Si Si1 0.109308 0.390181 0.367560
Si Si2 0.580326 0.889546 0.502691
Si Si3 0.080453 0.116355 0.218722
Si Si4 0.176878 0.382253 0.144508
Si Si5 0.685381 0.254357 0.128826
Si Si6 0.201397 0.390287 0.560671
Si Si7 0.921030 0.184468 0.449618
Si Si8 0.581490 0.387561 0.750995
O O1 0.070469 0.500000 0.374183
O O2 0.124575 0.362661 0.244878
O O3 0.182648 0.396341 0.435914
O O4 0.064660 0.301887 0.423514
O O5 0.500000 0.864595 0.544194
O O6 0.634388 0.809049 0.546952
O O7 0.582330 0.886032 0.376878
O O8 0.602950 0.000000 0.542728
O O9 0.138465 0.162900 0.134699
O O10 0.106562 0.132914 0.340328
O O11 0.000000 0.164524 0.201461
O O12 0.074892 0.000000 0.193601
O O13 0.189306 0.500000 0.127062
O O14 0.253841 0.331193 0.172096
O O15 0.139671 0.336229 0.038425
O O16 0.724696 0.168583 0.062860
O O17 0.637553 0.199034 0.217784
O O18 0.214598 0.500000 0.609098
O O19 0.000000 0.140962 0.483905
O O20 0.500000 0.363359 0.709735
O O21 0.603485 0.500000 0.711489
#
# Coordination Sequence:
#
# PCOD8180115 Si02
#       8
#     8   8   8   8   8   8   8   8
#     4  10  23  43  59  80 119 160 197 243 299 359
#     4   9  20  39  61  88 122 158 196 238 286 346
#     4   9  19  37  61  87 116 152 200 257 307 351
#     4  11  25  42  60  88 125 162 201 248 303 362
#     4  12  21  34  62  92 120 154 199 240 294 346
#     4  10  21  37  58  87 121 156 198 247 300 355
#     4  11  23  40  64  88 114 155 206 256 305 361
#     4   9  20  39  62  89 121 156 196 241 291 349
#
# _framework density 20.619230000000002
#
# number of rings (size 3 to 8) (size 9 to 14) (size 15 to 20)
#    0.000    1.875    1.250    3.000    1.750    3.000 
#    0.000    3.750    0.000    0.000    0.000    5.250 
#    0.000    0.000    0.000    0.000    0.000    0.000 
#
# Total GULP energy -396509.772095 kJ/mol
# GULP energy per Si atom -12390.930378 kJ/mol
# Density = 2.057230 g / cm^3
# Si number density = 20.619230 Si / 1000 Ang^3
#
#
#
# Elastic Constant Matrix: (Units=GPa)
#
#
# Indices 1 2 3 4 5 6 
#
# 1 113.9502 58.9191 42.5930 0.0000 0.0000 0.0000
# 2 58.9191 96.5014 35.4880 0.0000 0.0000 0.0000
# 3 42.5930 35.4880 88.5361 0.0000 0.0000 0.0000
# 4 0.0000 0.0000 0.0000 35.7798 0.0000 0.0000
# 5 0.0000 0.0000 0.0000 0.0000 -65.2854 0.0000
# 6 0.0000 0.0000 0.0000 0.0000 0.0000 24.4415
#
#
#
# Elastic Compliance Matrix: (Units=1/GPa)
#
#
# Indices 1 2 3 4 5 6 
#
# 1 0.013855 -0.007047 -0.003841 0.000000 0.000000 0.000000
# 2 -0.007047 0.015738 -0.002918 0.000000 0.000000 0.000000
# 3 -0.003841 -0.002918 0.014312 0.000000 0.000000 0.000000
# 4 0.000000 0.000000 0.000000 0.027949 0.000000 0.000000
# 5 0.000000 0.000000 0.000000 0.000000 -0.015317 0.000000
# 6 0.000000 0.000000 0.000000 0.000000 0.000000 0.040914
#
#
# Mechanical properties :
#
#
# Convention : Reuss Voigt Hill
#
# Bulk Modulus (GPa) = 61.37321 63.66533 62.51927
# Shear Modulus (GPa) = 38.31602 9.78636 24.05119
#
# Velocity S-wave (km/s) = 4.31544 2.18095 3.41903
# Velocity P-wave (km/s) = 7.39326 6.10621 6.78034
#
# Compressibility (1/GPa) = 0.01629375
#
# Stress axis : x y z
#
# Youngs Moduli (GPa) = 72.17615 63.53994 69.86993
#
# Poissons Ratio (x) = 0.44775 0.26836
# Poissons Ratio (y) = 0.50861 0.20390
# Poissons Ratio (z) = 0.27722 0.18543
#
# Static dielectric constant tensor:
#      x y z
#    x 3.774730 0.000000 0.000000 
#    y 0.000000 4.149310 0.000000 
#    z 0.000000 0.000000 3.550220 
# 
# 
# High freq. dielectric constant tensor:
#      x y z
#    x 1.794290 0.000000 0.000000 
#    y 0.000000 1.825820 0.000000 
#    z 0.000000 0.000000 1.793910 
# 
# From -- ./inp_files/10601.got.cif
#   From: 2010.03.12/outbox.cif.g09.slc.cpg/sg38_6_cif.got.tgz:10601.got - 2010.04.14 02:38:36.
