data_PCOD8180651
_publ_section_title
;
Structure prediction by ZEFSAII (Michael W. Deem and Ramdas Pophale) SiO2 
 PCOD8180651
Probable space group: A B M 2
;
_chemical_formula_sum "Si O2"
_cell_formula_units_Z 56
_cell_length_a 19.944352
_cell_length_b 8.758134
_cell_length_c 15.429660
_cell_angle_alpha 90.000000
_cell_angle_beta 90.000000
_cell_angle_gamma 90.000000
_cell_volume 2695.180603
_symmetry_space_group_name_H-M "A B M 2"
_symmetry_group_IT_number 39
_symmetry_cell_setting 'orthorhombic'
loop_
_space_group_symop_operation_xyz
x,y,z
-x,-y,z
-x,1/2+y,z
x,1/2-y,z
x,1/2+y,1/2+z
-x,1/2-y,1/2+z
-x,y,1/2+z
x,-y,1/2+z
loop_
_atom_site_type_symbol
_atom_site_label
_atom_site_fract_x
_atom_site_fract_y
_atom_site_fract_z
Si Si1 0.290237 0.430046 0.557520
Si Si2 0.850386 0.927291 0.620780
Si Si3 0.167111 0.426935 0.812735
Si Si4 0.565346 0.930576 0.561030
Si Si5 0.300008 0.070209 0.361181
Si Si6 0.071856 0.069924 0.967223
Si Si7 0.565930 0.931269 0.869834
O O1 0.286146 0.250000 0.556086
O O2 0.225460 0.493507 0.608215
O O3 0.361953 0.476885 0.602370
O O4 0.287425 0.489824 0.458969
O O5 0.854257 0.750000 0.593996
O O6 0.870991 0.950975 0.721025
O O7 0.901646 0.018913 0.560910
O O8 0.185409 0.250000 0.826408
O O9 0.235470 0.522274 0.806225
O O10 0.120864 0.488465 0.890722
O O11 0.556843 0.750000 0.557073
O O12 0.500000 0.000000 0.611032
O O13 0.566660 0.997094 0.465001
O O14 0.311640 0.250000 0.356317
O O15 0.365937 0.986081 0.322224
O O16 0.065285 0.250000 0.965465
O O17 0.000000 0.000000 0.948519
O O18 0.562040 0.750000 0.871647
O O19 0.500000 0.000000 0.821356
#
# Coordination Sequence:
#
# PCOD8180651 Si02
#       7
#     8   8   8   8   8   8   8
#     4   8  15  28  50  76 104 144 190 234 284 341
#     4  10  20  39  63  88 118 156 195 239 290 344
#     4  10  22  38  60  90 121 152 195 242 289 343
#     4   9  15  24  39  67 102 141 189 236 288 345
#     4  10  18  31  53  79 110 151 197 240 293 350
#     4  11  24  42  63  91 121 152 188 234 286 345
#     4  10  17  26  42  69 106 146 192 245 298 349
#
# _framework density 20.777828
#
# number of rings (size 3 to 8) (size 9 to 14) (size 15 to 20)
#    0.000    2.286    1.429    4.286    0.000    1.714 
#    0.000    2.143    0.000    0.857    0.000    2.000 
#    0.000    0.000    0.000    0.000    0.000    0.000 
#
# Total GULP energy -347000.393529 kJ/mol
# GULP energy per Si atom -12392.871197 kJ/mol
# Density = 2.073054 g / cm^3
# Si number density = 20.777828 Si / 1000 Ang^3
#
#
#
# Elastic Constant Matrix: (Units=GPa)
#
#
# Indices 1 2 3 4 5 6 
#
# 1 147.4103 43.3687 28.1189 0.0000 0.0000 0.0000
# 2 43.3687 82.2688 14.9740 0.0000 0.0000 0.0000
# 3 28.1189 14.9740 64.7505 0.0000 0.0000 0.0000
# 4 0.0000 0.0000 0.0000 16.9264 0.0000 0.0000
# 5 0.0000 0.0000 0.0000 0.0000 5.5275 0.0000
# 6 0.0000 0.0000 0.0000 0.0000 0.0000 37.0108
#
#
#
# Elastic Compliance Matrix: (Units=1/GPa)
#
#
# Indices 1 2 3 4 5 6 
#
# 1 0.008478 -0.003966 -0.002764 0.000000 0.000000 0.000000
# 2 -0.003966 0.014545 -0.001641 0.000000 0.000000 0.000000
# 3 -0.002764 -0.001641 0.017024 0.000000 0.000000 0.000000
# 4 0.000000 0.000000 0.000000 0.059079 0.000000 0.000000
# 5 0.000000 0.000000 0.000000 0.000000 0.180913 0.000000
# 6 0.000000 0.000000 0.000000 0.000000 0.000000 0.027019
#
#
# Mechanical properties :
#
#
# Convention : Reuss Voigt Hill
#
# Bulk Modulus (GPa) = 42.91282 51.92807 47.42045
# Shear Modulus (GPa) = 15.07981 25.75747 20.41864
#
# Velocity S-wave (km/s) = 2.69692 3.52470 3.13823
# Velocity P-wave (km/s) = 5.51325 6.45066 6.00029
#
# Compressibility (1/GPa) = 0.02330306
#
# Stress axis : x y z
#
# Youngs Moduli (GPa) = 117.95302 68.75331 58.74068
#
# Poissons Ratio (x) = 0.27268 0.16239
# Poissons Ratio (y) = 0.46781 0.09641
# Poissons Ratio (z) = 0.32608 0.11284
#
# Static dielectric constant tensor:
#      x y z
#    x 4.449430 0.000000 0.000000 
#    y 0.000000 3.570580 0.000000 
#    z 0.000000 0.000000 3.463270 
# 
# 
# High freq. dielectric constant tensor:
#      x y z
#    x 1.830060 0.000000 0.000000 
#    y 0.000000 1.799060 0.000000 
#    z 0.000000 0.000000 1.777460 
# 
# From -- ./inp_files/10387.got.cif
#   From: 2010.03.12/outbox.cif.g09.slc.cpg/sg39_6_cif.got.tgz:10387.got - 2010.04.14 02:53:20.
