data_PCOD8180024
_publ_section_title
;
Structure prediction by ZEFSAII (Michael W. Deem and Ramdas Pophale) SiO2 
 PCOD8180024
Probable space group: A M M 2
;
_chemical_formula_sum "Si O2"
_cell_formula_units_Z 48
_cell_length_a 13.520513
_cell_length_b 16.914717
_cell_length_c 9.980735
_cell_angle_alpha 90.000000
_cell_angle_beta 90.000000
_cell_angle_gamma 90.000000
_cell_volume 2282.550689
_symmetry_space_group_name_H-M "A M M 2"
_symmetry_group_IT_number 38
_symmetry_cell_setting 'orthorhombic'
loop_
_space_group_symop_operation_xyz
x,y,z
-x,-y,z
-x,y,z
x,-y,z
x,1/2+y,1/2+z
-x,1/2-y,1/2+z
-x,1/2+y,1/2+z
x,1/2-y,1/2+z
loop_
_atom_site_type_symbol
_atom_site_label
_atom_site_fract_x
_atom_site_fract_y
_atom_site_fract_z
Si Si1 0.684494 0.914025 0.698250
Si Si2 0.107730 0.412862 0.303369
Si Si3 0.112321 0.800389 0.051654
Si Si4 0.754178 0.593875 0.714652
Si Si5 0.285915 0.194147 0.475576
Si Si6 0.385440 0.643801 0.474450
O O1 0.804089 0.905448 0.698139
O O2 0.650139 0.847852 0.593368
O O3 0.636337 0.908464 0.844323
O O4 0.655103 0.000000 0.642199
O O5 0.112782 0.500000 0.371807
O O6 0.123052 0.347129 0.414247
O O7 0.000000 0.401368 0.233256
O O8 0.179907 0.722590 0.035444
O O9 0.000000 0.774261 0.082374
O O10 0.147311 0.858872 0.170505
O O11 0.773545 0.500000 0.731508
O O12 0.722574 0.631838 0.855403
O O13 0.670547 0.608875 0.602849
O O14 0.350154 0.269035 0.432241
O O15 0.500000 0.642527 0.510364
#
# Coordination Sequence:
#
# PCOD8180024 Si02
#       6
#     8   8   8   8   8   8
#     4  11  22  40  63  90 122 159 203 248 298 361
#     4   9  17  32  57  87 117 153 198 244 287 338
#     4  10  21  36  60  89 122 163 207 248 293 353
#     4  11  23  41  63  92 126 161 203 255 312 366
#     4  11  24  40  60  93 127 162 196 249 314 367
#     4  11  24  43  67  90 116 156 207 255 304 370
#
# _framework density 21.029107
#
# number of rings (size 3 to 8) (size 9 to 14) (size 15 to 20)
#    0.000    1.500    3.333    3.500    0.000    6.333 
#    0.000    0.000    0.000    6.000    0.000    0.000 
#    0.000    0.000    0.000    0.000    0.000    0.000 
#
# Total GULP energy -297476.566547 kJ/mol
# GULP energy per Si atom -12394.856939 kJ/mol
# Density = 2.098124 g / cm^3
# Si number density = 21.029107 Si / 1000 Ang^3
#
#
#
# Elastic Constant Matrix: (Units=GPa)
#
#
# Indices 1 2 3 4 5 6 
#
# 1 87.0232 16.3988 15.3823 0.0000 0.0000 0.0000
# 2 16.3988 123.0858 47.9688 0.0000 0.0000 0.0000
# 3 15.3823 47.9688 80.1001 0.0000 0.0000 0.0000
# 4 0.0000 0.0000 0.0000 38.1793 0.0000 0.0000
# 5 0.0000 0.0000 0.0000 0.0000 7.2914 0.0000
# 6 0.0000 0.0000 0.0000 0.0000 0.0000 3.7476
#
#
#
# Elastic Compliance Matrix: (Units=1/GPa)
#
#
# Indices 1 2 3 4 5 6 
#
# 1 0.011973 -0.000912 -0.001753 0.000000 0.000000 0.000000
# 2 -0.000912 0.010667 -0.006213 0.000000 0.000000 0.000000
# 3 -0.001753 -0.006213 0.016542 0.000000 0.000000 0.000000
# 4 0.000000 0.000000 0.000000 0.026192 0.000000 0.000000
# 5 0.000000 0.000000 0.000000 0.000000 0.137148 0.000000
# 6 0.000000 0.000000 0.000000 0.000000 0.000000 0.266834
#
#
# Mechanical properties :
#
#
# Convention : Reuss Voigt Hill
#
# Bulk Modulus (GPa) = 46.67293 49.96766 48.32029
# Shear Modulus (GPa) = 10.11625 23.87429 16.99527
#
# Velocity S-wave (km/s) = 2.19569 3.37307 2.84593
# Velocity P-wave (km/s) = 5.35450 6.24363 5.81608
#
# Compressibility (1/GPa) = 0.02142570
#
# Stress axis : x y z
#
# Youngs Moduli (GPa) = 83.52183 93.74479 60.45282
#
# Poissons Ratio (x) = 0.08549 0.10598
# Poissons Ratio (y) = 0.07617 0.37560
# Poissons Ratio (z) = 0.14643 0.58244
#
# Static dielectric constant tensor:
#      x y z
#    x 3.911080 0.000000 0.000000 
#    y 0.000000 3.997820 0.000000 
#    z 0.000000 0.000000 3.538950 
# 
# 
# High freq. dielectric constant tensor:
#      x y z
#    x 1.812830 0.000000 0.000000 
#    y 0.000000 1.842270 0.000000 
#    z 0.000000 0.000000 1.806810 
# 
# From -- ./inp_files/5476.got.cif
#   From: 2010.03.12/outbox.cif.g09.slc.cpg/sg38_3_cif.got.tgz:5476.got - 2010.04.14 02:38:36.
