data_PCOD8180758
_publ_section_title
;
Structure prediction by ZEFSAII (Michael W. Deem and Ramdas Pophale) SiO2 
 PCOD8180758
Probable space group: A B M 2
;
_chemical_formula_sum "Si O2"
_cell_formula_units_Z 56
_cell_length_a 15.209051
_cell_length_b 8.753620
_cell_length_c 25.215178
_cell_angle_alpha 90.000000
_cell_angle_beta 90.000000
_cell_angle_gamma 90.000000
_cell_volume 3357.003888
_symmetry_space_group_name_H-M "A B M 2"
_symmetry_group_IT_number 39
_symmetry_cell_setting 'orthorhombic'
loop_
_space_group_symop_operation_xyz
x,y,z
-x,-y,z
-x,1/2+y,z
x,1/2-y,z
x,1/2+y,1/2+z
-x,1/2-y,1/2+z
-x,y,1/2+z
x,-y,1/2+z
loop_
_atom_site_type_symbol
_atom_site_label
_atom_site_fract_x
_atom_site_fract_y
_atom_site_fract_z
Si Si1 0.088266 0.423013 0.213420
Si Si2 0.268910 0.930183 0.214790
Si Si3 0.595479 0.430740 0.421897
Si Si4 0.086474 0.919993 0.839647
Si Si5 0.597221 0.567827 0.528209
Si Si6 0.263126 0.072160 0.836073
Si Si7 0.403541 0.431286 0.135137
O O1 0.095576 0.250000 0.192111
O O2 0.172728 0.519185 0.194142
O O3 0.083500 0.425839 0.276471
O O4 0.000000 0.500000 0.189794
O O5 0.280593 0.750000 0.206012
O O6 0.281578 0.979664 0.275928
O O7 0.343154 0.022814 0.184108
O O8 0.500000 0.500000 0.410910
O O9 0.587647 0.250000 0.429870
O O10 0.641614 0.505117 0.474178
O O11 0.654299 0.476069 0.371596
O O12 0.086115 0.750000 0.861815
O O13 0.175434 0.997708 0.860182
O O14 0.000000 0.000000 0.863510
O O15 0.500000 0.500000 0.527081
O O16 0.597634 0.750000 0.529434
O O17 0.641325 0.501266 0.581691
O O18 0.245260 0.250000 0.837746
O O19 0.500000 0.500000 0.144590
O O20 0.410831 0.250000 0.130176
#
# Coordination Sequence:
#
# PCOD8180758 Si02
#       7
#     8   8   8   8   8   8   8
#     4   9  16  27  43  65  90 121 156 193 233 274
#     4  10  19  32  47  68  97 128 159 193 231 278
#     4  10  19  32  48  68  93 123 156 193 232 273
#     4   9  16  26  43  64  89 119 154 192 231 272
#     4  10  18  31  50  70  89 114 151 196 237 274
#     4   9  19  32  46  66  96 128 158 190 229 275
#     4  11  21  34  50  69  93 123 157 195 235 278
#
# _framework density 16.681540999999999
#
# number of rings (size 3 to 8) (size 9 to 14) (size 15 to 20)
#    0.000    2.286    0.000    6.000    0.000    5.714 
#    0.000    1.429    0.000    0.000    0.000    1.000 
#    0.000    4.571    0.000    0.000    0.000    0.000 
#
# Total GULP energy -347124.195479 kJ/mol
# GULP energy per Si atom -12397.292696 kJ/mol
# Density = 1.664357 g / cm^3
# Si number density = 16.681541 Si / 1000 Ang^3
#
#
#
# Elastic Constant Matrix: (Units=GPa)
#
#
# Indices 1 2 3 4 5 6 
#
# 1 107.7356 53.3598 54.2492 0.0000 0.0000 0.0000
# 2 53.3598 114.6430 47.4432 0.0000 0.0000 0.0000
# 3 54.2492 47.4432 77.9231 0.0000 0.0000 0.0000
# 4 0.0000 0.0000 0.0000 20.9725 0.0000 0.0000
# 5 0.0000 0.0000 0.0000 0.0000 0.6395 0.0000
# 6 0.0000 0.0000 0.0000 0.0000 0.0000 31.5247
#
#
#
# Elastic Compliance Matrix: (Units=1/GPa)
#
#
# Indices 1 2 3 4 5 6 
#
# 1 0.015350 -0.003639 -0.008471 0.000000 0.000000 0.000000
# 2 -0.003639 0.012523 -0.005091 0.000000 0.000000 0.000000
# 3 -0.008471 -0.005091 0.021830 0.000000 0.000000 0.000000
# 4 0.000000 0.000000 0.000000 0.047681 0.000000 0.000000
# 5 0.000000 0.000000 0.000000 0.000000 1.563719 0.000000
# 6 0.000000 0.000000 0.000000 0.000000 0.000000 0.031721
#
#
# Mechanical properties :
#
#
# Convention : Reuss Voigt Hill
#
# Bulk Modulus (GPa) = 65.35442 67.82289 66.58866
# Shear Modulus (GPa) = 2.88629 20.31063 11.59846
#
# Velocity S-wave (km/s) = 1.31681 3.49313 2.63969
# Velocity P-wave (km/s) = 6.44785 7.55083 7.02103
#
# Compressibility (1/GPa) = 0.01530118
#
# Stress axis : x y z
#
# Youngs Moduli (GPa) = 65.14819 79.85008 45.80788
#
# Poissons Ratio (x) = 0.29057 0.38802
# Poissons Ratio (y) = 0.23707 0.23323
# Poissons Ratio (z) = 0.55185 0.40656
#
# Static dielectric constant tensor:
#      x y z
#    x 3.106530 0.000000 0.000000 
#    y 0.000000 3.286210 0.000000 
#    z 0.000000 0.000000 3.370440 
# 
# 
# High freq. dielectric constant tensor:
#      x y z
#    x 1.629640 0.000000 0.000000 
#    y 0.000000 1.662770 0.000000 
#    z 0.000000 0.000000 1.609720 
# 
# From -- ./inp_files/14743.got.cif
#   From: 2010.03.12/outbox.cif.g09.slc.cpg/sg39_8_cif.got.tgz:14743.got - 2010.04.14 02:53:20.
