data_PCOD8180414
_publ_section_title
;
Structure prediction by ZEFSAII (Michael W. Deem and Ramdas Pophale) SiO2 
 PCOD8180414
Probable space group: A M M 2
;
_chemical_formula_sum "Si O2"
_cell_formula_units_Z 56
_cell_length_a 21.330478
_cell_length_b 8.781699
_cell_length_c 15.399379
_cell_angle_alpha 90.000000
_cell_angle_beta 90.000000
_cell_angle_gamma 90.000000
_cell_volume 2884.578370
_symmetry_space_group_name_H-M "A M M 2"
_symmetry_group_IT_number 38
_symmetry_cell_setting 'orthorhombic'
loop_
_space_group_symop_operation_xyz
x,y,z
-x,-y,z
-x,y,z
x,-y,z
x,1/2+y,1/2+z
-x,1/2-y,1/2+z
-x,1/2+y,1/2+z
x,1/2-y,1/2+z
loop_
_atom_site_type_symbol
_atom_site_label
_atom_site_fract_x
_atom_site_fract_y
_atom_site_fract_z
Si Si1 0.847775 0.320787 0.099670
Si Si2 0.073275 0.324092 0.748352
Si Si3 0.628174 0.819326 0.941821
Si Si4 0.930513 0.319174 0.943184
Si Si5 0.628005 0.180648 0.264300
Si Si6 0.712033 0.820929 0.103088
Si Si7 0.500000 0.179983 0.502630
Si Si8 0.500000 0.679955 0.203598
O O1 0.843307 0.500000 0.092454
O O2 0.886532 0.279317 0.184913
O O3 0.778848 0.256006 0.104800
O O4 0.882380 0.252607 0.014252
O O5 0.090979 0.500000 0.733401
O O6 0.090790 0.272324 0.846274
O O7 0.000000 0.296858 0.730734
O O8 0.655955 0.750088 0.852996
O O9 0.559981 0.750492 0.956796
O O10 0.623053 0.000000 0.936217
O O11 0.674360 0.766722 0.018368
O O12 0.933699 0.500000 0.948727
O O13 0.000000 0.253097 0.962735
O O14 0.673679 0.233043 0.187244
O O15 0.559793 0.249370 0.249726
O O16 0.623120 0.000000 0.270414
O O17 0.721719 0.000000 0.103289
O O18 0.500000 0.227075 0.603124
O O19 0.500000 0.000000 0.489407
O O20 0.500000 0.500000 0.216794
#
# Coordination Sequence:
#
# PCOD8180414 Si02
#       8
#     8   8   8   8   8   8   4   4
#     4  11  22  35  57  85 115 149 189 238 285 334
#     4   9  18  35  59  84 113 150 190 230 278 340
#     4  11  23  41  63  87 116 151 192 240 293 344
#     4   8  16  33  56  82 112 147 185 225 275 335
#     4  11  23  41  63  86 114 152 195 237 290 351
#     4  10  24  43  59  78 113 157 195 234 282 343
#     4  11  22  37  62  92 120 150 188 237 289 347
#     4  11  22  37  62  92 120 148 186 241 291 339
#
# _framework density 19.413581000000001
#
# number of rings (size 3 to 8) (size 9 to 14) (size 15 to 20)
#    0.000    1.857    1.429    3.429    0.000    4.857 
#    0.000    5.714    0.000    1.714    0.000    0.000 
#    0.000    0.000    0.000    0.000    0.000    0.000 
#
# Total GULP energy -347279.767190 kJ/mol
# GULP energy per Si atom -12402.848828 kJ/mol
# Density = 1.936939 g / cm^3
# Si number density = 19.413581 Si / 1000 Ang^3
#
#
#
# Elastic Constant Matrix: (Units=GPa)
#
#
# Indices 1 2 3 4 5 6 
#
# 1 119.9331 19.1912 74.2831 0.0000 0.0000 0.0000
# 2 19.1912 21.3840 30.0193 0.0000 0.0000 0.0000
# 3 74.2831 30.0193 169.1528 0.0000 0.0000 0.0000
# 4 0.0000 0.0000 0.0000 32.5584 0.0000 0.0000
# 5 0.0000 0.0000 0.0000 0.0000 6.3578 0.0000
# 6 0.0000 0.0000 0.0000 0.0000 0.0000 8.6166
#
#
#
# Elastic Compliance Matrix: (Units=1/GPa)
#
#
# Indices 1 2 3 4 5 6 
#
# 1 0.011756 -0.004399 -0.004382 0.000000 0.000000 0.000000
# 2 -0.004399 0.063926 -0.009413 0.000000 0.000000 0.000000
# 3 -0.004382 -0.009413 0.009507 0.000000 0.000000 0.000000
# 4 0.000000 0.000000 0.000000 0.030714 0.000000 0.000000
# 5 0.000000 0.000000 0.000000 0.000000 0.157286 0.000000
# 6 0.000000 0.000000 0.000000 0.000000 0.000000 0.116055
#
#
# Mechanical properties :
#
#
# Convention : Reuss Voigt Hill
#
# Bulk Modulus (GPa) = 20.49155 61.93969 41.21562
# Shear Modulus (GPa) = 11.31482 21.97167 16.64324
#
# Velocity S-wave (km/s) = 2.41681 3.36783 2.93114
# Velocity P-wave (km/s) = 4.28557 6.86277 5.72118
#
# Compressibility (1/GPa) = 0.04880060
#
# Stress axis : x y z
#
# Youngs Moduli (GPa) = 85.06352 15.64311 105.18978
#
# Poissons Ratio (x) = 0.06881 0.46093
# Poissons Ratio (y) = 0.37420 0.99015
# Poissons Ratio (z) = 0.37274 0.14725
#
# Static dielectric constant tensor:
#      x y z
#    x 3.583600 0.000000 0.000000 
#    y 0.000000 3.390780 0.000000 
#    z 0.000000 0.000000 3.998810 
# 
# 
# High freq. dielectric constant tensor:
#      x y z
#    x 1.753380 0.000000 0.000000 
#    y 0.000000 1.745020 0.000000 
#    z 0.000000 0.000000 1.776620 
# 
# From -- ./inp_files/15506.got.cif
#   From: 2010.03.12/outbox.cif.g09.slc.cpg/sg38_8_cif.got.tgz:15506.got - 2010.04.14 02:38:36.
