data_PCOD8180435
_publ_section_title
;
Structure prediction by ZEFSAII (Michael W. Deem and Ramdas Pophale) SiO2 
 PCOD8180435
Probable space group: A M M 2
;
_chemical_formula_sum "Si O2"
_cell_formula_units_Z 56
_cell_length_a 9.329262
_cell_length_b 20.689152
_cell_length_c 18.505138
_cell_angle_alpha 90.000000
_cell_angle_beta 90.000000
_cell_angle_gamma 90.000000
_cell_volume 3571.760321
_symmetry_space_group_name_H-M "A M M 2"
_symmetry_group_IT_number 38
_symmetry_cell_setting 'orthorhombic'
loop_
_space_group_symop_operation_xyz
x,y,z
-x,-y,z
-x,y,z
x,-y,z
x,1/2+y,1/2+z
-x,1/2-y,1/2+z
-x,1/2+y,1/2+z
x,1/2-y,1/2+z
loop_
_atom_site_type_symbol
_atom_site_label
_atom_site_fract_x
_atom_site_fract_y
_atom_site_fract_z
Si Si1 0.334759 0.695221 0.708130
Si Si2 0.670291 0.500000 0.083960
Si Si3 0.835308 0.747582 0.922731
Si Si4 0.838498 0.194710 0.779088
Si Si5 0.161870 0.382513 0.148049
Si Si6 0.332750 0.131471 0.350840
Si Si7 0.330108 0.500000 0.919258
Si Si8 0.834104 0.241659 0.082940
O O1 0.500000 0.702830 0.688025
O O2 0.283200 0.758285 0.750340
O O3 0.308454 0.635775 0.763812
O O4 0.248054 0.689418 0.633123
O O5 0.500000 0.500000 0.089143
O O6 0.727424 0.563747 0.123145
O O7 0.725306 0.500000 0.001552
O O8 0.820295 0.808280 0.866415
O O9 0.750157 0.686280 0.894060
O O10 0.000000 0.725893 0.930936
O O11 0.776595 0.768093 0.001254
O O12 0.820977 0.127166 0.735570
O O13 0.000000 0.221570 0.761290
O O14 0.197510 0.314906 0.108422
O O15 0.000000 0.404801 0.129478
O O16 0.500000 0.139799 0.369414
O O17 0.271644 0.062883 0.377628
O O18 0.500000 0.500000 0.917787
O O19 0.000000 0.224592 0.089053
#
# Coordination Sequence:
#
# PCOD8180435 Si02
#       8
#     8   4   8   8   8   8   4   8
#     4   9  16  25  40  61  82 106 138 172 205 242
#     4  11  21  29  41  61  82 109 142 172 201 231
#     4   9  16  27  44  65  86 107 134 169 208 248
#     4   8  15  28  44  60  80 107 137 168 206 249
#     4   9  17  29  42  57  82 113 139 164 197 240
#     4   9  17  29  43  59  82 113 144 171 201 239
#     4   9  18  31  43  57  82 113 142 170 199 235
#     4   9  17  28  43  63  86 111 135 164 207 251
#
# _framework density 15.678542999999999
#
# number of rings (size 3 to 8) (size 9 to 14) (size 15 to 20)
#    0.000    3.000    0.000    2.357    0.000    3.429 
#    0.000    1.071    0.000    0.000    0.000    1.000 
#    0.000    3.429    0.000    0.000    0.000    0.000 
#
# Total GULP energy -346911.041832 kJ/mol
# GULP energy per Si atom -12389.680065 kJ/mol
# Density = 1.564286 g / cm^3
# Si number density = 15.678543 Si / 1000 Ang^3
#
#
#
# Elastic Constant Matrix: (Units=GPa)
#
#
# Indices 1 2 3 4 5 6 
#
# 1 55.6310 30.5305 48.0921 0.0000 0.0000 0.0000
# 2 30.5305 59.6849 54.2193 0.0000 0.0000 0.0000
# 3 48.0921 54.2193 158.0539 0.0000 0.0000 0.0000
# 4 0.0000 0.0000 0.0000 23.7168 0.0000 0.0000
# 5 0.0000 0.0000 0.0000 0.0000 23.6313 0.0000
# 6 0.0000 0.0000 0.0000 0.0000 0.0000 17.2940
#
#
#
# Elastic Compliance Matrix: (Units=1/GPa)
#
#
# Indices 1 2 3 4 5 6 
#
# 1 0.027621 -0.009434 -0.005168 0.000000 0.000000 0.000000
# 2 -0.009434 0.027562 -0.006584 0.000000 0.000000 0.000000
# 3 -0.005168 -0.006584 0.010158 0.000000 0.000000 0.000000
# 4 0.000000 0.000000 0.000000 0.042164 0.000000 0.000000
# 5 0.000000 0.000000 0.000000 0.000000 0.042317 0.000000
# 6 0.000000 0.000000 0.000000 0.000000 0.000000 0.057823
#
#
# Mechanical properties :
#
#
# Convention : Reuss Voigt Hill
#
# Bulk Modulus (GPa) = 43.53902 59.89485 51.71693
# Shear Modulus (GPa) = 19.40437 22.29694 20.85066
#
# Velocity S-wave (km/s) = 3.52183 3.77521 3.65071
# Velocity P-wave (km/s) = 6.66091 7.56886 7.12935
#
# Compressibility (1/GPa) = 0.02296790
#
# Stress axis : x y z
#
# Youngs Moduli (GPa) = 36.20473 36.28217 98.44271
#
# Poissons Ratio (x) = 0.34228 0.50876
# Poissons Ratio (y) = 0.34155 0.64818
# Poissons Ratio (z) = 0.18711 0.23889
#
# Static dielectric constant tensor:
#      x y z
#    x 2.966600 0.000000 0.000000 
#    y 0.000000 2.754610 0.000000 
#    z 0.000000 0.000000 3.462920 
# 
# 
# High freq. dielectric constant tensor:
#      x y z
#    x 1.601760 0.000000 0.000000 
#    y 0.000000 1.551100 0.000000 
#    z 0.000000 0.000000 1.614370 
# 
# From -- ./inp_files/20180.got.cif
#   From: 2010.03.12/outbox.cif.g09.slc.cpg/sg38_11_cif.got.tgz:20180.got - 2010.04.14 02:38:36.
