data_PCOD8180887
_publ_section_title
;
Structure prediction by ZEFSAII (Michael W. Deem and Ramdas Pophale) SiO2 
 PCOD8180887
Probable space group: A B M 2
;
_chemical_formula_sum "Si O2"
_cell_formula_units_Z 64
_cell_length_a 16.398863
_cell_length_b 9.553709
_cell_length_c 22.846583
_cell_angle_alpha 90.000000
_cell_angle_beta 90.000000
_cell_angle_gamma 90.000000
_cell_volume 3579.373360
_symmetry_space_group_name_H-M "A B M 2"
_symmetry_group_IT_number 39
_symmetry_cell_setting 'orthorhombic'
loop_
_space_group_symop_operation_xyz
x,y,z
-x,-y,z
-x,1/2+y,z
x,1/2-y,z
x,1/2+y,1/2+z
-x,1/2-y,1/2+z
-x,y,1/2+z
x,-y,1/2+z
loop_
_atom_site_type_symbol
_atom_site_label
_atom_site_fract_x
_atom_site_fract_y
_atom_site_fract_z
Si Si1 0.419904 0.086321 0.009890
Si Si2 0.426376 0.910802 0.645643
Si Si3 0.755684 0.084112 0.462715
Si Si4 0.065518 0.593428 0.271995
Si Si5 0.917122 0.584227 0.033814
Si Si6 0.886288 0.408024 0.668665
Si Si7 0.238126 0.407403 0.830559
Si Si8 0.714364 0.407536 0.727899
O O1 0.434055 0.250000 0.994694
O O2 0.408826 0.059721 0.078230
O O3 0.500000 0.000000 0.986799
O O4 0.333255 0.029854 0.984535
O O5 0.445848 0.750000 0.656918
O O6 0.352064 0.965700 0.683700
O O7 0.500000 0.000000 0.669848
O O8 0.756435 0.250000 0.468003
O O9 0.836575 0.030601 0.497759
O O10 0.761602 0.031495 0.395896
O O11 0.033022 0.750000 0.263795
O O12 0.068836 0.523268 0.207750
O O13 0.146350 0.590143 0.308864
O O14 0.000000 0.500000 0.308021
O O15 0.931976 0.750000 0.023302
O O16 0.896798 0.550534 0.101167
O O17 0.000000 0.500000 0.015325
O O18 0.919052 0.250000 0.679639
O O19 0.793556 0.417549 0.688297
O O20 0.273613 0.250000 0.829472
O O21 0.290267 0.501623 0.786829
O O22 0.697965 0.250000 0.748742
#
# Coordination Sequence:
#
# PCOD8180887 Si02
#       8
#     8   8   8   8   8   8   8   8
#     4   9  17  32  55  79 101 127 161 201 245 294
#     4   9  17  29  48  75 102 125 152 189 236 290
#     4   9  18  35  55  71  95 134 171 201 241 294
#     4  10  19  30  46  68  93 122 158 199 241 285
#     4  10  20  33  50  73 100 131 166 202 243 293
#     4   9  17  30  49  71  95 123 156 197 245 293
#     4   9  19  34  50  68  91 124 165 201 234 280
#     4   9  17  31  50  71  95 124 158 196 239 287
#
# _framework density 17.880223999999998
#
# number of rings (size 3 to 8) (size 9 to 14) (size 15 to 20)
#    0.000    2.750    0.000    1.500    0.000    6.000 
#    0.000    2.500    0.000    6.000    0.000    0.000 
#    0.000    0.000    0.000    0.000    0.000    0.000 
#
# Total GULP energy -396477.961068 kJ/mol
# GULP energy per Si atom -12389.936283 kJ/mol
# Density = 1.783953 g / cm^3
# Si number density = 17.880224 Si / 1000 Ang^3
#
#
#
# Elastic Constant Matrix: (Units=GPa)
#
#
# Indices 1 2 3 4 5 6 
#
# 1 111.9038 42.8134 54.7966 0.0000 0.0000 0.0000
# 2 42.8134 73.0639 35.5105 0.0000 0.0000 0.0000
# 3 54.7966 35.5105 87.6618 0.0000 0.0000 0.0000
# 4 0.0000 0.0000 0.0000 35.5923 0.0000 0.0000
# 5 0.0000 0.0000 0.0000 0.0000-2039.9211 0.0000
# 6 0.0000 0.0000 0.0000 0.0000 0.0000 30.7261
#
#
#
# Elastic Compliance Matrix: (Units=1/GPa)
#
#
# Indices 1 2 3 4 5 6 
#
# 1 0.014203 -0.004990 -0.006857 0.000000 0.000000 0.000000
# 2 -0.004990 0.018795 -0.004494 0.000000 0.000000 0.000000
# 3 -0.006857 -0.004494 0.017514 0.000000 0.000000 0.000000
# 4 0.000000 0.000000 0.000000 0.028096 0.000000 0.000000
# 5 0.000000 0.000000 0.000000 0.000000 -0.000490 0.000000
# 6 0.000000 0.000000 0.000000 0.000000 0.000000 0.032546
#
#
# Mechanical properties :
#
#
# Convention : Reuss Voigt Hill
#
# Bulk Modulus (GPa) = 56.08567 59.87449 57.98008
# Shear Modulus (GPa) = 33.49208 -385.41993 -175.96393
#
# Velocity S-wave (km/s) = 4.33267 -14.69777 -9.93107
# Velocity P-wave (km/s) = 7.51431 15.95223 9.95009
#
# Compressibility (1/GPa) = 0.01782987
#
# Stress axis : x y z
#
# Youngs Moduli (GPa) = 70.40783 53.20561 57.09665
#
# Poissons Ratio (x) = 0.26550 0.39150
# Poissons Ratio (y) = 0.35134 0.25661
# Poissons Ratio (z) = 0.48277 0.23913
#
# Static dielectric constant tensor:
#      x y z
#    x 11.900230 0.000000 0.000000 
#    y 0.000000 3.345550 0.000000 
#    z 0.000000 0.000000 3.256500 
# 
# 
# High freq. dielectric constant tensor:
#      x y z
#    x 1.700160 0.000000 0.000000 
#    y 0.000000 1.676440 0.000000 
#    z 0.000000 0.000000 1.681690 
# 
# From -- ./inp_files/16253.got.cif
#   From: 2010.03.12/outbox.cif.g09.slc.cpg/sg39_9_cif.got.tgz:16253.got - 2010.04.14 02:53:20.
