data_PCOD8180416
_publ_section_title
;
Structure prediction by ZEFSAII (Michael W. Deem and Ramdas Pophale) SiO2 
 PCOD8180416
Probable space group: A M M 2
;
_chemical_formula_sum "Si O2"
_cell_formula_units_Z 64
_cell_length_a 23.544059
_cell_length_b 9.062735
_cell_length_c 15.473675
_cell_angle_alpha 90.000000
_cell_angle_beta 90.000000
_cell_angle_gamma 90.000000
_cell_volume 3301.673238
_symmetry_space_group_name_H-M "A M M 2"
_symmetry_group_IT_number 38
_symmetry_cell_setting 'orthorhombic'
loop_
_space_group_symop_operation_xyz
x,y,z
-x,-y,z
-x,y,z
x,-y,z
x,1/2+y,1/2+z
-x,1/2-y,1/2+z
-x,1/2+y,1/2+z
x,1/2-y,1/2+z
loop_
_atom_site_type_symbol
_atom_site_label
_atom_site_fract_x
_atom_site_fract_y
_atom_site_fract_z
Si Si1 0.062911 0.674917 0.602010
Si Si2 0.256261 0.826678 0.440580
Si Si3 0.066842 0.830481 0.295651
Si Si4 0.670549 0.326813 0.775435
Si Si5 0.564140 0.330240 0.541217
Si Si6 0.329061 0.826565 0.605723
Si Si7 0.564156 0.830447 0.840001
Si Si8 0.864139 0.675116 0.442445
O O1 0.059153 0.500000 0.596820
O O2 0.083372 0.719541 0.698198
O O3 0.106030 0.736186 0.529853
O O4 0.000000 0.740653 0.583874
O O5 0.292242 0.778825 0.357285
O O6 0.291178 0.777342 0.524688
O O7 0.198257 0.739158 0.438411
O O8 0.243577 0.000000 0.440731
O O9 0.100290 0.725237 0.359839
O O10 0.000000 0.810523 0.310539
O O11 0.084831 0.000000 0.311662
O O12 0.671197 0.500000 0.761302
O O13 0.697135 0.249537 0.690888
O O14 0.605749 0.274786 0.786938
O O15 0.500000 0.297450 0.572218
O O16 0.580199 0.500000 0.558959
O O17 0.606193 0.225819 0.593961
O O18 0.569919 0.293208 0.440593
O O19 0.328739 0.000000 0.618459
O O20 0.500000 0.798756 0.808942
O O21 0.580657 0.000000 0.822340
O O22 0.860986 0.500000 0.442535
#
# Coordination Sequence:
#
# PCOD8180416 Si02
#       8
#     8   8   8   8   8   8   8   8
#     4   8  16  33  56  83 116 151 185 222 269 329
#     4  10  24  44  59  77 112 151 192 238 284 339
#     4   9  18  35  59  85 117 156 191 226 275 333
#     4  11  23  40  61  84 110 148 193 237 288 346
#     4   9  18  34  58  87 117 148 183 228 283 344
#     4  11  23  40  61  85 112 147 190 239 291 342
#     4   9  18  34  58  87 117 147 181 229 286 341
#     4  11  22  35  58  87 114 148 191 238 284 330
#
# _framework density 19.384111000000001
#
# number of rings (size 3 to 8) (size 9 to 14) (size 15 to 20)
#    0.000    2.250    1.250    3.000    0.000    4.750 
#    0.000    6.250    0.000    1.500    0.000    0.000 
#    0.000    0.000    0.000    0.000    0.000    0.000 
#
# Total GULP energy -396847.415235 kJ/mol
# GULP energy per Si atom -12401.481726 kJ/mol
# Density = 1.933999 g / cm^3
# Si number density = 19.384111 Si / 1000 Ang^3
#
#
#
# Elastic Constant Matrix: (Units=GPa)
#
#
# Indices 1 2 3 4 5 6 
#
# 1 107.5104 44.2622 72.1118 0.0000 0.0000 0.0000
# 2 44.2622 57.5393 52.3873 0.0000 0.0000 0.0000
# 3 72.1118 52.3873 153.6584 0.0000 0.0000 0.0000
# 4 0.0000 0.0000 0.0000 32.1425 0.0000 0.0000
# 5 0.0000 0.0000 0.0000 0.0000 8.6999 0.0000
# 6 0.0000 0.0000 0.0000 0.0000 0.0000 27.7966
#
#
#
# Elastic Compliance Matrix: (Units=1/GPa)
#
#
# Indices 1 2 3 4 5 6 
#
# 1 0.015647 -0.007759 -0.004698 0.000000 0.000000 0.000000
# 2 -0.007759 0.029050 -0.006263 0.000000 0.000000 0.000000
# 3 -0.004698 -0.006263 0.010848 0.000000 0.000000 0.000000
# 4 0.000000 0.000000 0.000000 0.031111 0.000000 0.000000
# 5 0.000000 0.000000 0.000000 0.000000 0.114944 0.000000
# 6 0.000000 0.000000 0.000000 0.000000 0.000000 0.035976
#
#
# Mechanical properties :
#
#
# Convention : Reuss Voigt Hill
#
# Bulk Modulus (GPa) = 55.23218 72.91452 64.07335
# Shear Modulus (GPa) = 17.79039 23.72426 20.75732
#
# Velocity S-wave (km/s) = 3.03278 3.50223 3.27592
# Velocity P-wave (km/s) = 6.38898 7.35197 6.88732
#
# Compressibility (1/GPa) = 0.01810539
#
# Stress axis : x y z
#
# Youngs Moduli (GPa) = 63.91052 34.42302 92.18524
#
# Poissons Ratio (x) = 0.26710 0.43305
# Poissons Ratio (y) = 0.49591 0.57733
# Poissons Ratio (z) = 0.30023 0.21558
#
# Static dielectric constant tensor:
#      x y z
#    x 4.166760 0.000000 0.000000 
#    y 0.000000 3.324050 0.000000 
#    z 0.000000 0.000000 3.787380 
# 
# 
# High freq. dielectric constant tensor:
#      x y z
#    x 1.749930 0.000000 0.000000 
#    y 0.000000 1.739550 0.000000 
#    z 0.000000 0.000000 1.767110 
# 
# From -- ./inp_files/15866.got.cif
#   From: 2010.03.12/outbox.cif.g09.slc.cpg/sg38_8_cif.got.tgz:15866.got - 2010.04.14 02:38:36.
