data_PCOD8180962
_publ_section_title
;
Structure prediction by ZEFSAII (Michael W. Deem and Ramdas Pophale) SiO2 
 PCOD8180962
Probable space group: A B M 2
;
_chemical_formula_sum "Si O2"
_cell_formula_units_Z 64
_cell_length_a 17.787726
_cell_length_b 9.040361
_cell_length_c 22.747127
_cell_angle_alpha 90.000000
_cell_angle_beta 90.000000
_cell_angle_gamma 90.000000
_cell_volume 3657.907815
_symmetry_space_group_name_H-M "A B M 2"
_symmetry_group_IT_number 39
_symmetry_cell_setting 'orthorhombic'
loop_
_space_group_symop_operation_xyz
x,y,z
-x,-y,z
-x,1/2+y,z
x,1/2-y,z
x,1/2+y,1/2+z
-x,1/2-y,1/2+z
-x,y,1/2+z
x,-y,1/2+z
loop_
_atom_site_type_symbol
_atom_site_label
_atom_site_fract_x
_atom_site_fract_y
_atom_site_fract_z
Si Si1 0.425906 0.075038 0.818250
Si Si2 0.637795 0.082788 0.710421
Si Si3 0.076726 0.926945 0.049927
Si Si4 0.140378 0.087278 0.670673
Si Si5 0.799016 0.413850 0.770869
Si Si6 0.223552 0.575614 0.504971
Si Si7 0.299389 0.416104 0.608098
Si Si8 0.269973 0.078952 0.873342
O O1 0.436438 0.250000 0.814777
O O2 0.355065 0.028980 0.858570
O O3 0.500000 0.000000 0.846479
O O4 0.416265 0.010373 0.752740
O O5 0.607076 0.250000 0.703330
O O6 0.720729 0.085913 0.737005
O O7 0.638623 0.002155 0.647018
O O8 0.076462 0.750000 0.042153
O O9 0.086905 0.972662 0.118518
O O10 0.143770 0.994940 0.011541
O O11 0.000000 0.000000 0.026806
O O12 0.114155 0.250000 0.690333
O O13 0.223695 0.095137 0.645060
O O14 0.137596 0.985357 0.728533
O O15 0.826853 0.250000 0.785481
O O16 0.791086 0.498347 0.832446
O O17 0.214249 0.750000 0.517028
O O18 0.285471 0.508643 0.548865
O O19 0.253740 0.540753 0.440357
O O20 0.327749 0.250000 0.592874
O O21 0.260410 0.250000 0.858906
#
# Coordination Sequence:
#
# PCOD8180962 Si02
#       8
#     8   8   8   8   8   8   8   8
#     4  10  19  32  49  71  98 128 162 203 251 303
#     4   9  16  27  44  68  94 121 152 189 235 287
#     4  10  20  33  50  73  99 129 161 201 251 302
#     4   8  15  27  43  64  92 121 148 181 230 284
#     4   9  16  25  43  69  93 117 150 191 233 276
#     4  10  19  32  50  72  97 130 171 212 249 292
#     4   9  16  27  44  68  95 122 152 192 238 283
#     4   9  19  33  49  69  97 132 168 205 248 295
#
# _framework density 17.49634
#
# number of rings (size 3 to 8) (size 9 to 14) (size 15 to 20)
#    0.000    2.750    0.000    3.000    0.000    8.000 
#    0.000    0.000    0.000    1.500    0.000    7.000 
#    0.000    0.000    0.000    0.000    0.000    0.000 
#
# Total GULP energy -396705.035900 kJ/mol
# GULP energy per Si atom -12397.032372 kJ/mol
# Density = 1.745652 g / cm^3
# Si number density = 17.496340 Si / 1000 Ang^3
#
#
#
# Elastic Constant Matrix: (Units=GPa)
#
#
# Indices 1 2 3 4 5 6 
#
# 1 59.9421 37.7470 39.2760 0.0000 0.0000 0.0000
# 2 37.7470 117.2566 64.9216 0.0000 0.0000 0.0000
# 3 39.2760 64.9216 113.8515 0.0000 0.0000 0.0000
# 4 0.0000 0.0000 0.0000 28.8755 0.0000 0.0000
# 5 0.0000 0.0000 0.0000 0.0000 15.4882 0.0000
# 6 0.0000 0.0000 0.0000 0.0000 0.0000 22.7405
#
#
#
# Elastic Compliance Matrix: (Units=1/GPa)
#
#
# Indices 1 2 3 4 5 6 
#
# 1 0.023012 -0.004403 -0.005428 0.000000 0.000000 0.000000
# 2 -0.004403 0.013305 -0.006068 0.000000 0.000000 0.000000
# 3 -0.005428 -0.006068 0.014116 0.000000 0.000000 0.000000
# 4 0.000000 0.000000 0.000000 0.034631 0.000000 0.000000
# 5 0.000000 0.000000 0.000000 0.000000 0.064565 0.000000
# 6 0.000000 0.000000 0.000000 0.000000 0.000000 0.043974
#
#
# Mechanical properties :
#
#
# Convention : Reuss Voigt Hill
#
# Bulk Modulus (GPa) = 53.66086 63.88216 58.77151
# Shear Modulus (GPa) = 21.58759 23.36121 22.47440
#
# Velocity S-wave (km/s) = 3.51641 3.65801 3.58791
# Velocity P-wave (km/s) = 6.87191 7.37783 7.12936
#
# Compressibility (1/GPa) = 0.01863556
#
# Stress axis : x y z
#
# Youngs Moduli (GPa) = 43.45591 75.15709 70.84010
#
# Poissons Ratio (x) = 0.33088 0.38452
# Poissons Ratio (y) = 0.19132 0.42989
# Poissons Ratio (z) = 0.23588 0.45608
#
# Static dielectric constant tensor:
#      x y z
#    x 2.995030 0.000000 0.000000 
#    y 0.000000 3.477340 0.000000 
#    z 0.000000 0.000000 3.171820 
# 
# 
# High freq. dielectric constant tensor:
#      x y z
#    x 1.636500 0.000000 0.000000 
#    y 0.000000 1.692890 0.000000 
#    z 0.000000 0.000000 1.660270 
# 
# From -- ./inp_files/16342.got.cif
#   From: 2010.03.12/outbox.cif.g09.slc.cpg/sg39_9_cif.got.tgz:16342.got - 2010.04.14 02:53:20.
