data_PCOD8180182
_publ_section_title
;
Structure prediction by ZEFSAII (Michael W. Deem and Ramdas Pophale) SiO2 
 PCOD8180182
Probable space group: A M M 2
;
_chemical_formula_sum "Si O2"
_cell_formula_units_Z 56
_cell_length_a 16.619619
_cell_length_b 8.655729
_cell_length_c 20.175665
_cell_angle_alpha 90.000000
_cell_angle_beta 90.000000
_cell_angle_gamma 90.000000
_cell_volume 2902.368637
_symmetry_space_group_name_H-M "A M M 2"
_symmetry_group_IT_number 38
_symmetry_cell_setting 'orthorhombic'
loop_
_space_group_symop_operation_xyz
x,y,z
-x,-y,z
-x,y,z
x,-y,z
x,1/2+y,1/2+z
-x,1/2-y,1/2+z
-x,1/2+y,1/2+z
x,1/2-y,1/2+z
loop_
_atom_site_type_symbol
_atom_site_label
_atom_site_fract_x
_atom_site_fract_y
_atom_site_fract_z
Si Si1 0.670906 0.681580 0.437200
Si Si2 0.255321 0.819846 0.563802
Si Si3 0.912466 0.183340 0.612124
Si Si4 0.341731 0.178327 0.700868
Si Si5 0.500000 0.321182 0.741709
Si Si6 0.500000 0.681864 0.386578
Si Si7 0.908673 0.178193 0.761798
Si Si8 0.240816 0.820256 0.317399
O O1 0.678127 0.500000 0.423539
O O2 0.694758 0.718319 0.512383
O O3 0.580012 0.742515 0.423898
O O4 0.732395 0.773732 0.390815
O O5 0.161460 0.764079 0.565249
O O6 0.290572 0.785551 0.635954
O O7 0.262246 0.000000 0.545089
O O8 0.899659 0.243375 0.687038
O O9 0.000000 0.242220 0.585011
O O10 0.913413 0.000000 0.616481
O O11 0.422730 0.277955 0.698135
O O12 0.290678 0.221035 0.765078
O O13 0.365862 0.000000 0.705669
O O14 0.500000 0.500000 0.758470
O O15 0.500000 0.232465 0.810863
O O16 0.500000 0.500000 0.388046
O O17 0.853333 0.280752 0.809853
O O18 0.000000 0.196329 0.786700
O O19 0.880909 0.000000 0.765333
O O20 0.256876 0.000000 0.305534
#
# Coordination Sequence:
#
# PCOD8180182 Si02
#       8
#     8   8   8   8   4   4   8   8
#     4  11  24  41  62  84 115 158 201 246 302 361
#     4  10  21  38  60  88 120 155 197 243 296 355
#     4   8  14  29  56  86 114 149 193 238 287 347
#     4  11  22  39  62  87 119 157 196 242 296 353
#     4  12  24  37  60  93 121 151 195 251 300 347
#     4  10  22  41  62  81 109 155 201 245 298 361
#     4   9  17  33  59  88 118 156 200 244 295 353
#     4  12  23  36  58  89 121 154 198 247 295 350
#
# _framework density 19.294585000000001
#
# number of rings (size 3 to 8) (size 9 to 14) (size 15 to 20)
#    0.000    1.714    2.857    3.643    0.000    2.571 
#    0.000    2.143    0.000    3.000    0.000    0.000 
#    0.000    0.000    0.000    0.000    0.000    0.000 
#
# Total GULP energy -347222.704455 kJ/mol
# GULP energy per Si atom -12400.810873 kJ/mol
# Density = 1.925067 g / cm^3
# Si number density = 19.294585 Si / 1000 Ang^3
#
#
#
# Elastic Constant Matrix: (Units=GPa)
#
#
# Indices 1 2 3 4 5 6 
#
# 1 130.8611 16.5530 27.9785 0.0000 0.0000 0.0000
# 2 16.5530 2.3398 11.0021 0.0000 0.0000 0.0000
# 3 27.9785 11.0021 60.1772 0.0000 0.0000 0.0000
# 4 0.0000 0.0000 0.0000 28.0790 0.0000 0.0000
# 5 0.0000 0.0000 0.0000 0.0000 25.8540 0.0000
# 6 0.0000 0.0000 0.0000 0.0000 0.0000 20.6715
#
#
#
# Elastic Compliance Matrix: (Units=1/GPa)
#
#
# Indices 1 2 3 4 5 6 
#
# 1 -0.003563 0.124141 -0.021040 0.000000 0.000000 0.000000
# 2 0.124141 -1.279127 0.176144 0.000000 0.000000 0.000000
# 3 -0.021040 0.176144 -0.005804 0.000000 0.000000 0.000000
# 4 0.000000 0.000000 0.000000 0.035614 0.000000 0.000000
# 5 0.000000 0.000000 0.000000 0.000000 0.038679 0.000000
# 6 0.000000 0.000000 0.000000 0.000000 0.000000 0.048376
#
#
# Mechanical properties :
#
#
# Convention : Reuss Voigt Hill
#
# Bulk Modulus (GPa) = -1.36985 33.82726 16.22871
# Shear Modulus (GPa) = -2.54110 24.11052 10.78471
#
# Velocity S-wave (km/s) = -1.14885 3.53880 2.36678
# Velocity P-wave (km/s) = 1.57204 5.85385 3.98724
#
# Compressibility (1/GPa) = -0.73000571
#
# Stress axis : x y z
#
# Youngs Moduli (GPa) = -280.67504 -0.78178 -172.28637
#
# Poissons Ratio (x) = 0.09705 -3.62490
# Poissons Ratio (y) = 34.84320 30.34716
# Poissons Ratio (z) = -5.90540 0.13771
#
# Static dielectric constant tensor:
#      x y z
#    x 4.074440 0.000000 0.000000 
#    y 0.000000 3.305710 0.000000 
#    z 0.000000 0.000000 3.267650 
# 
# 
# High freq. dielectric constant tensor:
#      x y z
#    x 1.770940 0.000000 0.000000 
#    y 0.000000 1.733880 0.000000 
#    z 0.000000 0.000000 1.727400 
# 
# From -- ./inp_files/21111.got.cif
#   From: 2010.03.12/outbox.cif.g09.slc.cpg/sg38_11_cif.got.tgz:21111.got - 2010.04.14 02:38:36.
