data_PCOD8180391
_publ_section_title
;
Structure prediction by ZEFSAII (Michael W. Deem and Ramdas Pophale) SiO2 
 PCOD8180391
Probable space group: A M M 2
;
_chemical_formula_sum "Si O2"
_cell_formula_units_Z 48
_cell_length_a 9.254450
_cell_length_b 23.328300
_cell_length_c 11.636251
_cell_angle_alpha 90.000000
_cell_angle_beta 90.000000
_cell_angle_gamma 90.000000
_cell_volume 2512.157046
_symmetry_space_group_name_H-M "A M M 2"
_symmetry_group_IT_number 38
_symmetry_cell_setting 'orthorhombic'
loop_
_space_group_symop_operation_xyz
x,y,z
-x,-y,z
-x,y,z
x,-y,z
x,1/2+y,1/2+z
-x,1/2-y,1/2+z
-x,1/2+y,1/2+z
x,1/2-y,1/2+z
loop_
_atom_site_type_symbol
_atom_site_label
_atom_site_fract_x
_atom_site_fract_y
_atom_site_fract_z
Si Si1 0.669033 0.938567 0.116850
Si Si2 0.169331 0.066899 0.529756
Si Si3 0.168255 0.842460 0.715637
Si Si4 0.335275 0.654713 0.447679
Si Si5 0.667091 0.733004 0.666233
Si Si6 0.329150 0.367666 0.828463
O O1 0.500000 0.943008 0.141166
O O2 0.734533 0.905994 0.225513
O O3 0.745107 0.000000 0.109352
O O4 0.694329 0.908681 0.995147
O O5 0.200745 0.096317 0.653928
O O6 0.248086 0.109586 0.440918
O O7 0.000000 0.067801 0.501779
O O8 0.224776 0.000000 0.528528
O O9 0.227756 0.838607 0.843545
O O10 0.240245 0.789941 0.648063
O O11 0.000000 0.830654 0.720092
O O12 0.500000 0.662862 0.404969
O O13 0.300309 0.696903 0.552317
O O14 0.500000 0.750333 0.670861
O O15 0.704226 0.697669 0.784787
O O16 0.500000 0.374464 0.849532
#
# Coordination Sequence:
#
# PCOD8180391 Si02
#       6
#     8   8   8   8   8   8
#     4   8  14  28  53  83 111 137 171 221 276 325
#     4  10  23  41  56  77 116 160 195 231 280 333
#     4  11  24  38  55  79 110 150 191 232 278 334
#     4   9  19  36  56  80 109 141 179 225 280 334
#     4   9  20  38  59  84 113 143 180 233 293 342
#     4   9  18  34  59  88 112 140 182 233 284 334
#
# _framework density 19.107085000000001
#
# number of rings (size 3 to 8) (size 9 to 14) (size 15 to 20)
#    0.000    2.667    0.000    3.000    2.333    4.333 
#    0.000    2.500    0.000    1.000    0.000    0.000 
#    0.000    0.000    0.000    0.000    0.000    0.000 
#
# Total GULP energy -297335.677351 kJ/mol
# GULP energy per Si atom -12388.986556 kJ/mol
# Density = 1.906360 g / cm^3
# Si number density = 19.107085 Si / 1000 Ang^3
#
#
#
# Elastic Constant Matrix: (Units=GPa)
#
#
# Indices 1 2 3 4 5 6 
#
# 1 60.1966 40.7104 42.7139 0.0000 0.0000 0.0000
# 2 40.7104 104.0309 35.0123 0.0000 0.0000 0.0000
# 3 42.7139 35.0123 93.0602 0.0000 0.0000 0.0000
# 4 0.0000 0.0000 0.0000 -8.5475 0.0000 0.0000
# 5 0.0000 0.0000 0.0000 0.0000********** 0.0000
# 6 0.0000 0.0000 0.0000 0.0000 0.0000 24.0318
#
#
#
# Elastic Compliance Matrix: (Units=1/GPa)
#
#
# Indices 1 2 3 4 5 6 
#
# 1 0.029491 -0.007998 -0.010527 0.000000 0.000000 0.000000
# 2 -0.007998 0.013175 -0.001286 0.000000 0.000000 0.000000
# 3 -0.010527 -0.001286 0.016061 0.000000 0.000000 0.000000
# 4 0.000000 0.000000 0.000000 -0.116993 0.000000 0.000000
# 5 0.000000 0.000000 0.000000 0.000000 -0.000046 0.000000
# 6 0.000000 0.000000 0.000000 0.000000 0.000000 0.041612
#
#
# Mechanical properties :
#
#
# Convention : Reuss Voigt Hill
#
# Bulk Modulus (GPa) = 52.34029 54.90679 53.62354
# Shear Modulus (GPa) = 170.71314 -4334.30054 -2081.79370
#
# Velocity S-wave (km/s) = 9.46253 -47.67966 -33.04399
# Velocity P-wave (km/s) = 12.11769 54.79357 37.78556
#
# Compressibility (1/GPa) = 0.01910574
#
# Stress axis : x y z
#
# Youngs Moduli (GPa) = 33.90913 75.90091 62.26118
#
# Poissons Ratio (x) = 0.60703 0.65542
# Poissons Ratio (y) = 0.27119 0.08007
# Poissons Ratio (z) = 0.35696 0.09761
#
# Static dielectric constant tensor:
#      x y z
#    x 29.936280 0.000000 0.000000 
#    y 0.000000 6.814490 0.000000 
#    z 0.000000 0.000000 3.431900 
# 
# 
# High freq. dielectric constant tensor:
#      x y z
#    x 1.713050 0.000000 0.000000 
#    y 0.000000 1.754950 0.000000 
#    z 0.000000 0.000000 1.743720 
# 
# From -- ./inp_files/8122.got.cif
#   From: 2010.03.12/outbox.cif.g09.slc.cpg/sg38_5_cif.got.tgz:8122.got - 2010.04.14 02:38:36.
