data_PCOD8180297
_publ_section_title
;
Structure prediction by ZEFSAII (Michael W. Deem and Ramdas Pophale) SiO2 
 PCOD8180297
Probable space group: A M M 2
;
_chemical_formula_sum "Si O2"
_cell_formula_units_Z 64
_cell_length_a 8.848651
_cell_length_b 29.124641
_cell_length_c 12.642048
_cell_angle_alpha 90.000000
_cell_angle_beta 90.000000
_cell_angle_gamma 90.000000
_cell_volume 3258.030024
_symmetry_space_group_name_H-M "A M M 2"
_symmetry_group_IT_number 38
_symmetry_cell_setting 'orthorhombic'
loop_
_space_group_symop_operation_xyz
x,y,z
-x,-y,z
-x,y,z
x,-y,z
x,1/2+y,1/2+z
-x,1/2-y,1/2+z
-x,1/2+y,1/2+z
x,1/2-y,1/2+z
loop_
_atom_site_type_symbol
_atom_site_label
_atom_site_fract_x
_atom_site_fract_y
_atom_site_fract_z
Si Si1 0.675205 0.788041 0.949710
Si Si2 0.824894 0.446430 0.491462
Si Si3 0.169262 0.791376 0.339393
Si Si4 0.321034 0.121581 0.830203
Si Si5 0.677468 0.118946 0.392636
Si Si6 0.172001 0.445836 0.730740
Si Si7 0.830108 0.752887 0.619074
Si Si8 0.179036 0.141602 0.611082
O O1 0.500000 0.781540 0.926993
O O2 0.765453 0.740541 0.930825
O O3 0.737504 0.831752 0.886843
O O4 0.719012 0.787858 0.073657
O O5 0.794865 0.500000 0.474117
O O6 0.725364 0.420259 0.405160
O O7 0.777250 0.432161 0.611145
O O8 0.000000 0.434457 0.473298
O O9 0.272830 0.836007 0.327553
O O10 0.172714 0.757351 0.241996
O O11 0.000000 0.807976 0.367887
O O12 0.500000 0.121908 0.818203
O O13 0.247791 0.117065 0.714790
O O14 0.500000 0.119029 0.412632
O O15 0.720731 0.076073 0.319034
O O16 0.759360 0.116132 0.506557
O O17 0.183553 0.500000 0.744194
O O18 0.000000 0.429205 0.748957
O O19 0.770573 0.805208 0.606472
O O20 0.000000 0.747559 0.573946
O O21 0.000000 0.136308 0.617046
#
# Coordination Sequence:
#
# PCOD8180297 Si02
#       8
#     8   8   8   8   8   8   8   8
#     4  11  23  36  54  82 119 157 194 241 296 350
#     4   9  20  41  68  94 119 152 196 244 294 351
#     4  11  22  38  57  81 113 155 206 247 287 342
#     4  11  24  39  58  90 125 159 197 243 303 360
#     4  12  25  39  59  90 124 158 196 244 304 360
#     4   9  20  42  69  94 120 153 195 243 294 352
#     4  10  22  37  56  79 109 154 204 250 290 339
#     4  11  22  40  62  84 115 161 209 249 292 346
#
# _framework density 19.643771000000001
#
# number of rings (size 3 to 8) (size 9 to 14) (size 15 to 20)
#    0.000    1.500    2.500    3.375    1.750    4.000 
#    0.000    1.875    0.000    3.750    0.000    0.000 
#    0.000    0.000    0.000    0.000    0.000    0.000 
#
# Total GULP energy -396707.837895 kJ/mol
# GULP energy per Si atom -12397.119934 kJ/mol
# Density = 1.959906 g / cm^3
# Si number density = 19.643771 Si / 1000 Ang^3
#
#
#
# Elastic Constant Matrix: (Units=GPa)
#
#
# Indices 1 2 3 4 5 6 
#
# 1 92.3074 36.5184 51.3108 0.0000 0.0000 0.0000
# 2 36.5184 68.3564 48.8542 0.0000 0.0000 0.0000
# 3 51.3108 48.8542 125.4034 0.0000 0.0000 0.0000
# 4 0.0000 0.0000 0.0000 35.2353 0.0000 0.0000
# 5 0.0000 0.0000 0.0000 0.0000 30.4721 0.0000
# 6 0.0000 0.0000 0.0000 0.0000 0.0000 30.1050
#
#
#
# Elastic Compliance Matrix: (Units=1/GPa)
#
#
# Indices 1 2 3 4 5 6 
#
# 1 0.015204 -0.005095 -0.004236 0.000000 0.000000 0.000000
# 2 -0.005095 0.021981 -0.006479 0.000000 0.000000 0.000000
# 3 -0.004236 -0.006479 0.012231 0.000000 0.000000 0.000000
# 4 0.000000 0.000000 0.000000 0.028381 0.000000 0.000000
# 5 0.000000 0.000000 0.000000 0.000000 0.032817 0.000000
# 6 0.000000 0.000000 0.000000 0.000000 0.000000 0.033217
#
#
# Mechanical properties :
#
#
# Convention : Reuss Voigt Hill
#
# Bulk Modulus (GPa) = 56.18840 62.15931 59.17386
# Shear Modulus (GPa) = 27.56599 29.12140 28.34369
#
# Velocity S-wave (km/s) = 3.75012 3.85447 3.80265
# Velocity P-wave (km/s) = 6.88600 7.17783 7.03343
#
# Compressibility (1/GPa) = 0.01779727
#
# Stress axis : x y z
#
# Youngs Moduli (GPa) = 65.77381 45.49285 81.75629
#
# Poissons Ratio (x) = 0.23178 0.34632
# Poissons Ratio (y) = 0.33511 0.52968
# Poissons Ratio (z) = 0.27862 0.29474
#
# Static dielectric constant tensor:
#      x y z
#    x 3.545110 0.000000 0.000000 
#    y 0.000000 3.376890 0.000000 
#    z 0.000000 0.000000 3.708630 
# 
# 
# High freq. dielectric constant tensor:
#      x y z
#    x 1.764170 0.000000 0.000000 
#    y 0.000000 1.747760 0.000000 
#    z 0.000000 0.000000 1.783550 
# 
# From -- ./inp_files/8559.got.cif
#   From: 2010.03.12/outbox.cif.g09.slc.cpg/sg38_5_cif.got.tgz:8559.got - 2010.04.14 02:38:36.
