data_PCOD8180454
_publ_section_title
;
Structure prediction by ZEFSAII (Michael W. Deem and Ramdas Pophale) SiO2 
 PCOD8180454
Probable space group: A M M 2
;
_chemical_formula_sum "Si O2"
_cell_formula_units_Z 48
_cell_length_a 8.923436
_cell_length_b 13.767519
_cell_length_c 18.791761
_cell_angle_alpha 90.000000
_cell_angle_beta 90.000000
_cell_angle_gamma 90.000000
_cell_volume 2308.635013
_symmetry_space_group_name_H-M "A M M 2"
_symmetry_group_IT_number 38
_symmetry_cell_setting 'orthorhombic'
loop_
_space_group_symop_operation_xyz
x,y,z
-x,-y,z
-x,y,z
x,-y,z
x,1/2+y,1/2+z
-x,1/2-y,1/2+z
-x,1/2+y,1/2+z
x,1/2-y,1/2+z
loop_
_atom_site_type_symbol
_atom_site_label
_atom_site_fract_x
_atom_site_fract_y
_atom_site_fract_z
Si Si1 0.822721 0.110804 0.424720
Si Si2 0.673385 0.749573 0.325697
Si Si3 0.836450 0.394126 0.412487
Si Si4 0.832490 0.894175 0.079432
Si Si5 0.326027 0.202954 0.561767
Si Si6 0.676057 0.607315 0.206171
O O1 0.760408 0.152421 0.349248
O O2 0.766090 0.174525 0.491508
O O3 0.000000 0.117041 0.423544
O O4 0.766797 0.000000 0.432607
O O5 0.500000 0.775989 0.316999
O O6 0.699610 0.674129 0.389970
O O7 0.741853 0.694758 0.255730
O O8 0.811456 0.500000 0.377872
O O9 0.836335 0.404392 0.495794
O O10 0.000000 0.352343 0.388009
O O11 0.719666 0.806612 0.096980
O O12 0.000000 0.870464 0.108216
O O13 0.779472 0.000000 0.110706
O O14 0.500000 0.204810 0.541274
O O15 0.290258 0.125253 0.623226
O O16 0.500000 0.607261 0.221005
O O17 0.742110 0.500000 0.224808
#
# Coordination Sequence:
#
# PCOD8180454 Si02
#       6
#     8   8   8   8   8   8
#     4  11  24  41  60  83 115 154 195 241 292 347
#     4  11  21  35  58  86 113 147 190 238 290 343
#     4   9  17  30  50  77 112 149 181 222 277 332
#     4   9  18  33  53  79 115 154 188 229 283 338
#     4  11  21  36  61  90 119 153 194 242 291 342
#     4   9  20  38  58  85 122 156 186 231 293 352
#
# _framework density 20.791506999999999
#
# number of rings (size 3 to 8) (size 9 to 14) (size 15 to 20)
#    0.000    2.000    1.667    3.500    0.000    3.333 
#    0.000    5.833    0.000   11.000    0.000    0.000 
#    0.000    0.000    0.000    0.000    0.000    0.000 
#
# Total GULP energy -297332.549492 kJ/mol
# GULP energy per Si atom -12388.856229 kJ/mol
# Density = 2.074418 g / cm^3
# Si number density = 20.791507 Si / 1000 Ang^3
#
#
#
# Elastic Constant Matrix: (Units=GPa)
#
#
# Indices 1 2 3 4 5 6 
#
# 1 61.7991 28.5593 20.7890 0.0000 0.0000 0.0000
# 2 28.5593 127.5086 27.1416 0.0000 0.0000 0.0000
# 3 20.7890 27.1416 64.4407 0.0000 0.0000 0.0000
# 4 0.0000 0.0000 0.0000 25.2949 0.0000 0.0000
# 5 0.0000 0.0000 0.0000 0.0000 10.1290 0.0000
# 6 0.0000 0.0000 0.0000 0.0000 0.0000 20.6663
#
#
#
# Elastic Compliance Matrix: (Units=1/GPa)
#
#
# Indices 1 2 3 4 5 6 
#
# 1 0.019337 -0.003299 -0.004849 0.000000 0.000000 0.000000
# 2 -0.003299 0.009178 -0.002801 0.000000 0.000000 0.000000
# 3 -0.004849 -0.002801 0.018262 0.000000 0.000000 0.000000
# 4 0.000000 0.000000 0.000000 0.039534 0.000000 0.000000
# 5 0.000000 0.000000 0.000000 0.000000 0.098726 0.000000
# 6 0.000000 0.000000 0.000000 0.000000 0.000000 0.048388
#
#
# Mechanical properties :
#
#
# Convention : Reuss Voigt Hill
#
# Bulk Modulus (GPa) = 40.19449 45.19203 42.69326
# Shear Modulus (GPa) = 18.96697 23.03528 21.00112
#
# Velocity S-wave (km/s) = 3.02362 3.33215 3.18163
# Velocity P-wave (km/s) = 5.61817 6.04874 5.83743
#
# Compressibility (1/GPa) = 0.02487903
#
# Stress axis : x y z
#
# Youngs Moduli (GPa) = 51.71391 108.95858 54.75774
#
# Poissons Ratio (x) = 0.35945 0.26551
# Poissons Ratio (y) = 0.17060 0.15339
# Poissons Ratio (z) = 0.25075 0.30522
#
# Static dielectric constant tensor:
#      x y z
#    x 3.728030 0.000000 0.000000 
#    y 0.000000 4.440920 0.000000 
#    z 0.000000 0.000000 3.549560 
# 
# 
# High freq. dielectric constant tensor:
#      x y z
#    x 1.792380 0.000000 0.000000 
#    y 0.000000 1.828400 0.000000 
#    z 0.000000 0.000000 1.786940 
# 
# From -- ./inp_files/16651.got.cif
#   From: 2010.03.12/outbox.cif.g09.slc.cpg/sg38_9_cif.got.tgz:16651.got - 2010.04.14 02:38:36.
