data_PCOD8180478
_publ_section_title
;
Structure prediction by ZEFSAII (Michael W. Deem and Ramdas Pophale) SiO2 
 PCOD8180478
Probable space group: A M M 2
;
_chemical_formula_sum "Si O2"
_cell_formula_units_Z 24
_cell_length_a 7.721940
_cell_length_b 8.926956
_cell_length_c 18.570168
_cell_angle_alpha 90.000000
_cell_angle_beta 90.000000
_cell_angle_gamma 90.000000
_cell_volume 1280.105164
_symmetry_space_group_name_H-M "A M M 2"
_symmetry_group_IT_number 38
_symmetry_cell_setting 'orthorhombic'
loop_
_space_group_symop_operation_xyz
x,y,z
-x,-y,z
-x,y,z
x,-y,z
x,1/2+y,1/2+z
-x,1/2-y,1/2+z
-x,1/2+y,1/2+z
x,1/2-y,1/2+z
loop_
_atom_site_type_symbol
_atom_site_label
_atom_site_fract_x
_atom_site_fract_y
_atom_site_fract_z
Si Si1 0.694114 0.828380 0.139220
Si Si2 0.808142 0.167225 0.504761
Si Si3 0.000000 0.676395 0.223441
Si Si4 0.000000 0.676387 0.389674
O O1 0.500000 0.815022 0.171134
O O2 0.824695 0.741083 0.190362
O O3 0.754351 0.000000 0.133717
O O4 0.688204 0.759159 0.059018
O O5 0.000000 0.157409 0.540968
O O6 0.827997 0.252729 0.427821
O O7 0.732613 0.000000 0.492265
O O8 0.000000 0.500000 0.212055
O O9 0.000000 0.721877 0.306876
O O10 0.000000 0.500000 0.401821
#
# Coordination Sequence:
#
# PCOD8180478 Si02
#       4
#     8   8   4   4
#     4  11  23  37  57  84 113 148 187 228 275 328
#     4   9  18  33  55  82 107 138 181 224 272 322
#     4  11  22  37  58  83 113 149 184 227 280 329
#     4   9  18  33  56  81 109 147 184 223 276 331
#
# _framework density 18.748457999999999
#
# number of rings (size 3 to 8) (size 9 to 14) (size 15 to 20)
#    1.000    1.000    1.667    2.500    0.000    5.333 
#    0.000    1.667    0.000    2.000    0.000    0.000 
#    0.000    0.000    0.000    0.000    0.000    0.000 
#
# Total GULP energy -148726.849211 kJ/mol
# GULP energy per Si atom -12393.904101 kJ/mol
# Density = 1.870579 g / cm^3
# Si number density = 18.748458 Si / 1000 Ang^3
#
#
#
# Elastic Constant Matrix: (Units=GPa)
#
#
# Indices 1 2 3 4 5 6 
#
# 1 80.6848 41.2914 47.3289 0.0000 0.0000 0.0000
# 2 41.2914 146.5247 80.1839 0.0000 0.0000 0.0000
# 3 47.3289 80.1839 138.6164 0.0000 0.0000 0.0000
# 4 0.0000 0.0000 0.0000 34.6209 0.0000 0.0000
# 5 0.0000 0.0000 0.0000 0.0000 11.7362 0.0000
# 6 0.0000 0.0000 0.0000 0.0000 0.0000 21.4756
#
#
#
# Elastic Compliance Matrix: (Units=1/GPa)
#
#
# Indices 1 2 3 4 5 6 
#
# 1 0.015977 -0.002220 -0.004171 0.000000 0.000000 0.000000
# 2 -0.002220 0.010294 -0.005197 0.000000 0.000000 0.000000
# 3 -0.004171 -0.005197 0.011644 0.000000 0.000000 0.000000
# 4 0.000000 0.000000 0.000000 0.028884 0.000000 0.000000
# 5 0.000000 0.000000 0.000000 0.000000 0.085207 0.000000
# 6 0.000000 0.000000 0.000000 0.000000 0.000000 0.046565
#
#
# Mechanical properties :
#
#
# Convention : Reuss Voigt Hill
#
# Bulk Modulus (GPa) = 67.84240 78.15934 73.00087
# Shear Modulus (GPa) = 22.05954 26.70130 24.38042
#
# Velocity S-wave (km/s) = 3.43389 3.77793 3.61001
# Velocity P-wave (km/s) = 7.21015 7.79803 7.50985
#
# Compressibility (1/GPa) = 0.01474005
#
# Stress axis : x y z
#
# Youngs Moduli (GPa) = 62.59176 97.14146 85.87768
#
# Poissons Ratio (x) = 0.21563 0.35819
# Poissons Ratio (y) = 0.13894 0.44630
# Poissons Ratio (z) = 0.26107 0.50483
#
# Static dielectric constant tensor:
#      x y z
#    x 3.120520 0.000000 0.000000 
#    y 0.000000 3.554900 0.000000 
#    z 0.000000 0.000000 3.313810 
# 
# 
# High freq. dielectric constant tensor:
#      x y z
#    x 1.701950 0.000000 0.000000 
#    y 0.000000 1.748790 0.000000 
#    z 0.000000 0.000000 1.714530 
# 
# From -- ./inp_files/16071.got.cif
#   From: 2010.03.12/outbox.cif.g09.slc.cpg/sg38_9_cif.got.tgz:16071.got - 2010.04.14 02:38:36.
