data_PCOD8180649
_publ_section_title
;
Structure prediction by ZEFSAII (Michael W. Deem and Ramdas Pophale) SiO2 
 PCOD8180649
Probable space group: A B M 2
;
_chemical_formula_sum "Si O2"
_cell_formula_units_Z 64
_cell_length_a 15.376563
_cell_length_b 8.761919
_cell_length_c 30.601109
_cell_angle_alpha 90.000000
_cell_angle_beta 90.000000
_cell_angle_gamma 90.000000
_cell_volume 4122.832318
_symmetry_space_group_name_H-M "A B M 2"
_symmetry_group_IT_number 39
_symmetry_cell_setting 'orthorhombic'
loop_
_space_group_symop_operation_xyz
x,y,z
-x,-y,z
-x,1/2+y,z
x,1/2-y,z
x,1/2+y,1/2+z
-x,1/2-y,1/2+z
-x,y,1/2+z
x,-y,1/2+z
loop_
_atom_site_type_symbol
_atom_site_label
_atom_site_fract_x
_atom_site_fract_y
_atom_site_fract_z
Si Si1 0.738506 0.070621 0.367780
Si Si2 0.275231 0.925337 0.469090
Si Si3 0.405639 0.071964 0.706360
Si Si4 0.917192 0.427874 0.465053
Si Si5 0.594535 0.429625 0.033586
Si Si6 0.596344 0.431047 0.621499
Si Si7 0.914138 0.929166 0.370313
Si Si8 0.406318 0.072242 0.802478
O O1 0.750865 0.250000 0.361955
O O2 0.720992 0.029021 0.418190
O O3 0.659153 0.006425 0.338778
O O4 0.825594 0.992188 0.349006
O O5 0.304094 0.750000 0.475664
O O6 0.176808 0.949227 0.488137
O O7 0.341415 0.035659 0.493665
O O8 0.412240 0.250000 0.695540
O O9 0.364163 0.041434 0.754198
O O10 0.500000 0.000000 0.709336
O O11 0.354768 0.989478 0.665885
O O12 0.933273 0.250000 0.455073
O O13 0.913836 0.521890 0.420575
O O14 0.000000 0.500000 0.492058
O O15 0.500000 0.500000 0.023806
O O16 0.583914 0.250000 0.039733
O O17 0.638701 0.502752 0.077152
O O18 0.500000 0.500000 0.622880
O O19 0.595959 0.250000 0.619738
O O20 0.917421 0.750000 0.365128
O O21 0.000000 0.000000 0.347041
O O22 0.420267 0.250000 0.809520
O O23 0.500000 0.000000 0.809271
#
# Coordination Sequence:
#
# PCOD8180649 Si02
#       8
#     8   8   8   8   8   8   8   8
#     4   9  18  32  45  60  85 116 147 179 213 247
#     4   9  18  31  44  60  85 115 146 179 212 246
#     4   9  15  25  41  61  82 105 135 170 211 253
#     4   9  16  27  44  63  84 108 135 172 214 255
#     4  11  21  32  45  60  82 112 146 181 214 252
#     4  10  17  27  43  61  81 104 133 171 215 257
#     4  10  17  26  42  62  82 106 137 175 217 258
#     4   9  18  30  44  61  85 116 147 179 211 246
#
# _framework density 15.52331
#
# number of rings (size 3 to 8) (size 9 to 14) (size 15 to 20)
#    0.000    2.500    0.000    7.125    0.000    4.000 
#    0.000    1.250    0.000    0.000    0.000    0.000 
#    0.000    1.000    0.000    7.250    0.000    4.250 
#
# Total GULP energy -396471.451940 kJ/mol
# GULP energy per Si atom -12389.732873 kJ/mol
# Density = 1.548798 g / cm^3
# Si number density = 15.523310 Si / 1000 Ang^3
#
#
#
# Elastic Constant Matrix: (Units=GPa)
#
#
# Indices 1 2 3 4 5 6 
#
# 1 93.8245 43.4190 48.5130 0.0000 0.0000 0.0000
# 2 43.4190 103.0377 41.0219 0.0000 0.0000 0.0000
# 3 48.5130 41.0219 78.1779 0.0000 0.0000 0.0000
# 4 0.0000 0.0000 0.0000 17.6093 0.0000 0.0000
# 5 0.0000 0.0000 0.0000 0.0000 0.9653 0.0000
# 6 0.0000 0.0000 0.0000 0.0000 0.0000 23.9534
#
#
#
# Elastic Compliance Matrix: (Units=1/GPa)
#
#
# Indices 1 2 3 4 5 6 
#
# 1 0.016733 -0.003688 -0.008449 0.000000 0.000000 0.000000
# 2 -0.003688 0.013081 -0.004575 0.000000 0.000000 0.000000
# 3 -0.008449 -0.004575 0.020435 0.000000 0.000000 0.000000
# 4 0.000000 0.000000 0.000000 0.056788 0.000000 0.000000
# 5 0.000000 0.000000 0.000000 0.000000 1.035981 0.000000
# 6 0.000000 0.000000 0.000000 0.000000 0.000000 0.041748
#
#
# Mechanical properties :
#
#
# Convention : Reuss Voigt Hill
#
# Bulk Modulus (GPa) = 59.43406 60.10533 59.76970
# Shear Modulus (GPa) = 4.08564 17.97800 11.03182
#
# Velocity S-wave (km/s) = 1.62409 3.40682 2.66872
# Velocity P-wave (km/s) = 6.47201 7.36741 6.93418
#
# Compressibility (1/GPa) = 0.01682537
#
# Stress axis : x y z
#
# Youngs Moduli (GPa) = 59.76134 76.44860 48.93543
#
# Poissons Ratio (x) = 0.28191 0.41345
# Poissons Ratio (y) = 0.22037 0.22390
# Poissons Ratio (z) = 0.50491 0.34979
#
# Static dielectric constant tensor:
#      x y z
#    x 3.197780 0.000000 0.000000 
#    y 0.000000 3.071940 0.000000 
#    z 0.000000 0.000000 3.445630 
# 
# 
# High freq. dielectric constant tensor:
#      x y z
#    x 1.568610 0.000000 0.000000 
#    y 0.000000 1.609350 0.000000 
#    z 0.000000 0.000000 1.569460 
# 
# From -- ./inp_files/17988.got.cif
#   From: 2010.03.12/outbox.cif.g09.slc.cpg/sg39_9_cif.got.tgz:17988.got - 2010.04.14 02:53:20.
