data_PCOD8180452
_publ_section_title
;
Structure prediction by ZEFSAII (Michael W. Deem and Ramdas Pophale) SiO2 
 PCOD8180452
Probable space group: A M M 2
;
_chemical_formula_sum "Si O2"
_cell_formula_units_Z 48
_cell_length_a 8.709266
_cell_length_b 16.770266
_cell_length_c 18.497950
_cell_angle_alpha 90.000000
_cell_angle_beta 90.000000
_cell_angle_gamma 90.000000
_cell_volume 2701.749672
_symmetry_space_group_name_H-M "A M M 2"
_symmetry_group_IT_number 38
_symmetry_cell_setting 'orthorhombic'
loop_
_space_group_symop_operation_xyz
x,y,z
-x,-y,z
-x,y,z
x,-y,z
x,1/2+y,1/2+z
-x,1/2-y,1/2+z
-x,1/2+y,1/2+z
x,1/2-y,1/2+z
loop_
_atom_site_type_symbol
_atom_site_label
_atom_site_fract_x
_atom_site_fract_y
_atom_site_fract_z
Si Si1 0.682788 0.500000 0.111990
Si Si2 0.681497 0.182891 0.227746
Si Si3 0.317817 0.262234 0.497986
Si Si4 0.318231 0.829643 0.638180
Si Si5 0.179811 0.842882 0.381191
Si Si6 0.681848 0.088596 0.085948
Si Si7 0.318313 0.000000 0.448661
O O1 0.500000 0.500000 0.112411
O O2 0.744339 0.580270 0.151539
O O3 0.743592 0.500000 0.030236
O O4 0.500000 0.177835 0.244326
O O5 0.732701 0.271740 0.202791
O O6 0.779869 0.163951 0.297450
O O7 0.730173 0.121380 0.164672
O O8 0.500000 0.258810 0.487030
O O9 0.260665 0.201752 0.560432
O O10 0.237921 0.235940 0.423544
O O11 0.264119 0.351430 0.521976
O O12 0.500000 0.828473 0.633988
O O13 0.260773 0.921540 0.409522
O O14 0.000000 0.851502 0.391177
O O15 0.500000 0.084871 0.083911
O O16 0.752448 0.000000 0.073973
O O17 0.500000 0.000000 0.446082
#
# Coordination Sequence:
#
# PCOD8180452 Si02
#       7
#     4   8   8   8   8   8   4
#     4   9  14  25  53  83 101 116 155 216 265 299
#     4   9  18  32  52  75 102 136 172 207 257 311
#     4   9  16  31  54  76 100 134 174 211 257 308
#     4   8  14  27  49  78 101 124 166 217 255 299
#     4  12  24  35  48  74 112 141 170 207 251 308
#     4   8  15  29  53  83 104 123 168 228 264 294
#     4  11  21  35  57  79 103 134 167 206 259 307
#
# _framework density 17.766264
#
# number of rings (size 3 to 8) (size 9 to 14) (size 15 to 20)
#    0.000    2.667    1.667    3.750    1.167    0.000 
#    0.000    3.333    1.833    1.500    0.000    0.000 
#    0.000    0.000    0.000    0.000    0.000    0.000 
#
# Total GULP energy -297430.667606 kJ/mol
# GULP energy per Si atom -12392.944484 kJ/mol
# Density = 1.772583 g / cm^3
# Si number density = 17.766264 Si / 1000 Ang^3
#
#
#
# Elastic Constant Matrix: (Units=GPa)
#
#
# Indices 1 2 3 4 5 6 
#
# 1 42.4283 18.6983 22.3279 0.0000 0.0000 0.0000
# 2 18.6983 165.0677 49.9296 0.0000 0.0000 0.0000
# 3 22.3279 49.9296 76.3439 0.0000 0.0000 0.0000
# 4 0.0000 0.0000 0.0000 50.7777 0.0000 0.0000
# 5 0.0000 0.0000 0.0000 0.0000 -0.7235 0.0000
# 6 0.0000 0.0000 0.0000 0.0000 0.0000 6.5104
#
#
#
# Elastic Compliance Matrix: (Units=1/GPa)
#
#
# Indices 1 2 3 4 5 6 
#
# 1 0.027955 -0.000865 -0.007610 0.000000 0.000000 0.000000
# 2 -0.000865 0.007579 -0.004704 0.000000 0.000000 0.000000
# 3 -0.007610 -0.004704 0.018401 0.000000 0.000000 0.000000
# 4 0.000000 0.000000 0.000000 0.019694 0.000000 0.000000
# 5 0.000000 0.000000 0.000000 0.000000 -1.382158 0.000000
# 6 0.000000 0.000000 0.000000 0.000000 0.000000 0.153601
#
#
# Mechanical properties :
#
#
# Convention : Reuss Voigt Hill
#
# Bulk Modulus (GPa) = 36.26195 51.75015 44.00605
# Shear Modulus (GPa) = -4.46676 24.17186 9.85255
#
# Velocity S-wave (km/s) = -1.58734 3.69256 2.35748
# Velocity P-wave (km/s) = 4.13465 6.88270 5.67745
#
# Compressibility (1/GPa) = 0.02757711
#
# Stress axis : x y z
#
# Youngs Moduli (GPa) = 35.77150 131.94599 54.34573
#
# Poissons Ratio (x) = 0.11409 0.41359
# Poissons Ratio (y) = 0.03093 0.25563
# Poissons Ratio (z) = 0.27224 0.62064
#
# Static dielectric constant tensor:
#      x y z
#    x 2.835440 0.000000 0.000000 
#    y 0.000000 4.062570 0.000000 
#    z 0.000000 0.000000 3.196360 
# 
# 
# High freq. dielectric constant tensor:
#      x y z
#    x 1.642530 0.000000 0.000000 
#    y 0.000000 1.701070 0.000000 
#    z 0.000000 0.000000 1.670040 
# 
# From -- ./inp_files/16665.got.cif
#   From: 2010.03.12/outbox.cif.g09.slc.cpg/sg38_9_cif.got.tgz:16665.got - 2010.04.14 02:38:36.
