data_PCOD8180036
_publ_section_title
;
Structure prediction by ZEFSAII (Michael W. Deem and Ramdas Pophale) SiO2 
 PCOD8180036
Probable space group: A M M 2
;
_chemical_formula_sum "Si O2"
_cell_formula_units_Z 48
_cell_length_a 8.747511
_cell_length_b 29.601384
_cell_length_c 9.975936
_cell_angle_alpha 90.000000
_cell_angle_beta 90.000000
_cell_angle_gamma 90.000000
_cell_volume 2583.153227
_symmetry_space_group_name_H-M "A M M 2"
_symmetry_group_IT_number 38
_symmetry_cell_setting 'orthorhombic'
loop_
_space_group_symop_operation_xyz
x,y,z
-x,-y,z
-x,y,z
x,-y,z
x,1/2+y,1/2+z
-x,1/2-y,1/2+z
-x,1/2+y,1/2+z
x,1/2-y,1/2+z
loop_
_atom_site_type_symbol
_atom_site_label
_atom_site_fract_x
_atom_site_fract_y
_atom_site_fract_z
Si Si1 0.820028 0.049511 0.407100
Si Si2 0.323023 0.221328 0.194006
Si Si3 0.179152 0.285104 0.408887
Si Si4 0.321646 0.121058 0.902502
Si Si5 0.824578 0.052595 0.706663
Si Si6 0.325966 0.117034 0.205185
O O1 0.764073 0.062546 0.556370
O O2 0.776511 0.087565 0.302452
O O3 0.000000 0.045580 0.413119
O O4 0.753178 0.000000 0.366358
O O5 0.500000 0.235593 0.205729
O O6 0.219055 0.250834 0.290781
O O7 0.298915 0.169518 0.236680
O O8 0.270811 0.229123 0.041603
O O9 0.226157 0.334976 0.359792
O O10 0.000000 0.283407 0.439293
O O11 0.500000 0.133642 0.895722
O O12 0.283877 0.079916 0.805766
O O13 0.277074 0.106389 0.053038
O O14 0.000000 0.068150 0.725058
O O15 0.807801 0.000000 0.741143
O O16 0.500000 0.103130 0.230831
#
# Coordination Sequence:
#
# PCOD8180036 Si02
#       6
#     8   8   8   8   8   8
#     4   9  19  35  54  77 106 139 175 217 265 315
#     4  10  21  39  58  79 111 147 180 221 276 329
#     4  11  22  37  58  84 110 141 184 228 270 322
#     4  10  21  37  55  78 109 143 179 221 271 325
#     4   9  19  36  55  77 107 141 179 224 270 319
#     4   9  20  36  54  77 105 138 175 215 260 314
#
# _framework density 18.581942000000002
#
# number of rings (size 3 to 8) (size 9 to 14) (size 15 to 20)
#    0.000    2.333    0.000    4.500    0.000    7.333 
#    0.000    8.333    0.000    0.000    0.000    0.000 
#    0.000    0.000    0.000    0.000    0.000    0.000 
#
# Total GULP energy -297641.681297 kJ/mol
# GULP energy per Si atom -12401.736721 kJ/mol
# Density = 1.853965 g / cm^3
# Si number density = 18.581942 Si / 1000 Ang^3
#
#
#
# Elastic Constant Matrix: (Units=GPa)
#
#
# Indices 1 2 3 4 5 6 
#
# 1 61.8490 26.8493 25.4332 0.0000 0.0000 0.0000
# 2 26.8493 82.0026 63.8002 0.0000 0.0000 0.0000
# 3 25.4332 63.8002 95.7591 0.0000 0.0000 0.0000
# 4 0.0000 0.0000 0.0000 33.4899 0.0000 0.0000
# 5 0.0000 0.0000 0.0000 0.0000 33.1327 0.0000
# 6 0.0000 0.0000 0.0000 0.0000 0.0000 33.1579
#
#
#
# Elastic Compliance Matrix: (Units=1/GPa)
#
#
# Indices 1 2 3 4 5 6 
#
# 1 0.019008 -0.004767 -0.001873 0.000000 0.000000 0.000000
# 2 -0.004767 0.026515 -0.016400 0.000000 0.000000 0.000000
# 3 -0.001873 -0.016400 0.021867 0.000000 0.000000 0.000000
# 4 0.000000 0.000000 0.000000 0.029860 0.000000 0.000000
# 5 0.000000 0.000000 0.000000 0.000000 0.030182 0.000000
# 6 0.000000 0.000000 0.000000 0.000000 0.000000 0.030159
#
#
# Mechanical properties :
#
#
# Convention : Reuss Voigt Hill
#
# Bulk Modulus (GPa) = 46.92326 52.41956 49.67141
# Shear Modulus (GPa) = 23.72246 28.19132 25.95689
#
# Velocity S-wave (km/s) = 3.57689 3.89927 3.74155
# Velocity P-wave (km/s) = 6.50890 6.96732 6.74201
#
# Compressibility (1/GPa) = 0.02131139
#
# Stress axis : x y z
#
# Youngs Moduli (GPa) = 52.61041 37.71476 45.73174
#
# Poissons Ratio (x) = 0.17977 0.08564
# Poissons Ratio (y) = 0.25077 0.74999
# Poissons Ratio (z) = 0.09852 0.61851
#
# Static dielectric constant tensor:
#      x y z
#    x 3.325600 0.000000 0.000000 
#    y 0.000000 3.417020 0.000000 
#    z 0.000000 0.000000 3.413110 
# 
# 
# High freq. dielectric constant tensor:
#      x y z
#    x 1.721590 0.000000 0.000000 
#    y 0.000000 1.721640 0.000000 
#    z 0.000000 0.000000 1.724220 
# 
# From -- ./inp_files/3720.got.cif
#   From: 2010.03.12/outbox.cif.g09.slc.cpg/sg38_2_cif.got.tgz:3720.got - 2010.04.14 02:38:36.
