data_PCOD8180374
_publ_section_title
;
Structure prediction by ZEFSAII (Michael W. Deem and Ramdas Pophale) SiO2 
 PCOD8180374
Probable space group: A M M 2
;
_chemical_formula_sum "Si O2"
_cell_formula_units_Z 48
_cell_length_a 16.877779
_cell_length_b 8.812067
_cell_length_c 15.771432
_cell_angle_alpha 90.000000
_cell_angle_beta 90.000000
_cell_angle_gamma 90.000000
_cell_volume 2345.655421
_symmetry_space_group_name_H-M "A M M 2"
_symmetry_group_IT_number 38
_symmetry_cell_setting 'orthorhombic'
loop_
_space_group_symop_operation_xyz
x,y,z
-x,-y,z
-x,y,z
x,-y,z
x,1/2+y,1/2+z
-x,1/2-y,1/2+z
-x,1/2+y,1/2+z
x,1/2-y,1/2+z
loop_
_atom_site_type_symbol
_atom_site_label
_atom_site_fract_x
_atom_site_fract_y
_atom_site_fract_z
Si Si1 0.812309 0.175788 0.817980
Si Si2 0.500000 0.177422 0.627931
Si Si3 0.500000 0.174241 0.305204
Si Si4 0.666347 0.823315 0.388449
Si Si5 0.340959 0.177811 0.063916
Si Si6 0.192069 0.824878 0.629327
Si Si7 0.909042 0.178564 0.468387
O O1 0.728679 0.265175 0.819003
O O2 0.847080 0.197482 0.722542
O O3 0.873337 0.239967 0.886405
O O4 0.796855 0.000000 0.837747
O O5 0.500000 0.213660 0.726761
O O6 0.576651 0.243442 0.583444
O O7 0.500000 0.000000 0.612848
O O8 0.423173 0.209909 0.360748
O O9 0.500000 0.000000 0.273061
O O10 0.687550 0.727881 0.471429
O O11 0.679864 0.000000 0.406795
O O12 0.273051 0.228878 0.128830
O O13 0.353480 0.000000 0.070531
O O14 0.132599 0.768007 0.555814
O O15 0.214321 0.000000 0.614281
O O16 0.000000 0.227081 0.475991
O O17 0.898940 0.000000 0.455260
#
# Coordination Sequence:
#
# PCOD8180374 Si02
#       7
#     8   4   4   8   8   8   8
#     4  11  23  39  63  96 128 165 213 263 313 371
#     4  12  25  40  59  85 123 167 211 259 314 371
#     4  10  23  40  59  87 121 161 211 263 312 365
#     4  11  22  39  62  88 124 168 211 257 316 375
#     4  12  24  39  62  91 124 162 212 264 312 368
#     4  10  22  41  65  93 129 169 210 255 315 381
#     4  10  22  42  67  93 125 168 211 256 316 383
#
# _framework density 20.463365
#
# number of rings (size 3 to 8) (size 9 to 14) (size 15 to 20)
#    0.000    1.167    1.667    4.750    0.000    7.000 
#    0.000    1.667    0.000    0.000    0.000    0.000 
#    0.000    0.000    0.000    0.000    0.000    0.000 
#
# Total GULP energy -297695.043641 kJ/mol
# GULP energy per Si atom -12403.960152 kJ/mol
# Density = 2.041679 g / cm^3
# Si number density = 20.463365 Si / 1000 Ang^3
#
#
#
# Elastic Constant Matrix: (Units=GPa)
#
#
# Indices 1 2 3 4 5 6 
#
# 1 140.1924 50.7668 56.3790 0.0000 0.0000 0.0000
# 2 50.7668 111.0860 46.3040 0.0000 0.0000 0.0000
# 3 56.3790 46.3040 138.3383 0.0000 0.0000 0.0000
# 4 0.0000 0.0000 0.0000 34.3115 0.0000 0.0000
# 5 0.0000 0.0000 0.0000 0.0000 20.6306 0.0000
# 6 0.0000 0.0000 0.0000 0.0000 0.0000 28.1606
#
#
#
# Elastic Compliance Matrix: (Units=1/GPa)
#
#
# Indices 1 2 3 4 5 6 
#
# 1 0.009383 -0.003131 -0.002776 0.000000 0.000000 0.000000
# 2 -0.003131 0.011506 -0.002575 0.000000 0.000000 0.000000
# 3 -0.002776 -0.002575 0.009222 0.000000 0.000000 0.000000
# 4 0.000000 0.000000 0.000000 0.029145 0.000000 0.000000
# 5 0.000000 0.000000 0.000000 0.000000 0.048472 0.000000
# 6 0.000000 0.000000 0.000000 0.000000 0.000000 0.035511
#
#
# Mechanical properties :
#
#
# Convention : Reuss Voigt Hill
#
# Bulk Modulus (GPa) = 76.06417 77.39068 76.72743
# Shear Modulus (GPa) = 30.37926 32.36501 31.37214
#
# Velocity S-wave (km/s) = 3.85719 3.98126 3.91971
# Velocity P-wave (km/s) = 7.55571 7.68343 7.61984
#
# Compressibility (1/GPa) = 0.01314679
#
# Stress axis : x y z
#
# Youngs Moduli (GPa) = 106.57234 86.90804 108.43585
#
# Poissons Ratio (x) = 0.27211 0.30103
# Poissons Ratio (y) = 0.33368 0.27926
# Poissons Ratio (z) = 0.29586 0.22382
#
# Static dielectric constant tensor:
#      x y z
#    x 3.479370 0.000000 0.000000 
#    y 0.000000 3.747940 0.000000 
#    z 0.000000 0.000000 3.847350 
# 
# 
# High freq. dielectric constant tensor:
#      x y z
#    x 1.799660 0.000000 0.000000 
#    y 0.000000 1.800260 0.000000 
#    z 0.000000 0.000000 1.813170 
# 
# From -- ./inp_files/15006.got.cif
#   From: 2010.03.12/outbox.cif.g09.slc.cpg/sg38_8_cif.got.tgz:15006.got - 2010.04.14 02:38:36.
