data_PCOD8180474
_publ_section_title
;
Structure prediction by ZEFSAII (Michael W. Deem and Ramdas Pophale) SiO2 
 PCOD8180474
Probable space group: A M M 2
;
_chemical_formula_sum "Si O2"
_cell_formula_units_Z 40
_cell_length_a 8.606493
_cell_length_b 25.467405
_cell_length_c 9.669624
_cell_angle_alpha 90.000000
_cell_angle_beta 90.000000
_cell_angle_gamma 90.000000
_cell_volume 2119.436951
_symmetry_space_group_name_H-M "A M M 2"
_symmetry_group_IT_number 38
_symmetry_cell_setting 'orthorhombic'
loop_
_space_group_symop_operation_xyz
x,y,z
-x,-y,z
-x,y,z
x,-y,z
x,1/2+y,1/2+z
-x,1/2-y,1/2+z
-x,1/2+y,1/2+z
x,1/2-y,1/2+z
loop_
_atom_site_type_symbol
_atom_site_label
_atom_site_fract_x
_atom_site_fract_y
_atom_site_fract_z
Si Si1 0.815597 0.500000 0.582530
Si Si2 0.819541 0.799139 0.257653
Si Si3 0.815639 0.000000 0.769034
Si Si4 0.682507 0.088742 0.272047
Si Si5 0.178463 0.293124 0.073417
Si Si6 0.814666 0.590785 0.068630
O O1 0.751347 0.500000 0.424755
O O2 0.754837 0.551996 0.655637
O O3 0.000000 0.500000 0.584098
O O4 0.723936 0.851870 0.231430
O O5 0.744087 0.753395 0.162656
O O6 0.800058 0.779131 0.413555
O O7 0.000000 0.810703 0.223020
O O8 0.755760 0.051624 0.687816
O O9 0.000000 0.000000 0.768745
O O10 0.500000 0.080705 0.274749
O O11 0.749534 0.072282 0.421051
O O12 0.249913 0.350830 0.104723
O O13 0.000000 0.294837 0.118334
O O14 0.000000 0.591706 0.053925
#
# Coordination Sequence:
#
# PCOD8180474 Si02
#       6
#     4   8   4   8   8   8
#     4  11  22  37  56  80 106 135 170 217 268 314
#     4   9  17  32  52  75 101 135 176 222 265 304
#     4   9  19  33  56  84 104 125 166 219 270 314
#     4  11  22  36  53  77 107 143 179 212 254 316
#     4   8  15  27  49  76 101 129 168 212 256 301
#     4   9  17  34  57  81 105 135 175 220 264 314
#
# _framework density 18.872935999999999
#
# number of rings (size 3 to 8) (size 9 to 14) (size 15 to 20)
#    0.000    2.600    0.000    3.900    0.000    2.400 
#    0.000   12.000    0.000    0.000    0.000    0.000 
#    0.000    0.000    0.000    0.000    0.000    0.000 
#
# Total GULP energy -247957.174750 kJ/mol
# GULP energy per Si atom -12397.858738 kJ/mol
# Density = 1.882998 g / cm^3
# Si number density = 18.872936 Si / 1000 Ang^3
#
#
#
# Elastic Constant Matrix: (Units=GPa)
#
#
# Indices 1 2 3 4 5 6 
#
# 1 53.4254 25.4680 31.0664 0.0000 0.0000 0.0000
# 2 25.4680 130.8129 97.0910 0.0000 0.0000 0.0000
# 3 31.0664 97.0910 145.6839 0.0000 0.0000 0.0000
# 4 0.0000 0.0000 0.0000 45.6121 0.0000 0.0000
# 5 0.0000 0.0000 0.0000 0.0000 4.4977 0.0000
# 6 0.0000 0.0000 0.0000 0.0000 0.0000 6.6587
#
#
#
# Elastic Compliance Matrix: (Units=1/GPa)
#
#
# Indices 1 2 3 4 5 6 
#
# 1 0.021525 -0.001551 -0.003556 0.000000 0.000000 0.000000
# 2 -0.001551 0.015239 -0.009825 0.000000 0.000000 0.000000
# 3 -0.003556 -0.009825 0.014171 0.000000 0.000000 0.000000
# 4 0.000000 0.000000 0.000000 0.021924 0.000000 0.000000
# 5 0.000000 0.000000 0.000000 0.000000 0.222334 0.000000
# 6 0.000000 0.000000 0.000000 0.000000 0.000000 0.150180
#
#
# Mechanical properties :
#
#
# Convention : Reuss Voigt Hill
#
# Bulk Modulus (GPa) = 47.46275 70.79702 59.12988
# Shear Modulus (GPa) = 10.36785 23.10682 16.73733
#
# Velocity S-wave (km/s) = 2.34636 3.50285 2.98122
# Velocity P-wave (km/s) = 5.70471 7.34533 6.57638
#
# Compressibility (1/GPa) = 0.02106915
#
# Stress axis : x y z
#
# Youngs Moduli (GPa) = 46.45734 65.62174 70.56902
#
# Poissons Ratio (x) = 0.10179 0.25097
# Poissons Ratio (y) = 0.07206 0.69335
# Poissons Ratio (z) = 0.16522 0.64474
#
# Static dielectric constant tensor:
#      x y z
#    x 3.082340 0.000000 0.000000 
#    y 0.000000 3.794900 0.000000 
#    z 0.000000 0.000000 3.564360 
# 
# 
# High freq. dielectric constant tensor:
#      x y z
#    x 1.693930 0.000000 0.000000 
#    y 0.000000 1.748610 0.000000 
#    z 0.000000 0.000000 1.731670 
# 
# From -- ./inp_files/3510.got.cif
#   From: 2010.03.12/outbox.cif.g09.slc.cpg/sg38_2_cif.got.tgz:3510.got - 2010.04.14 02:38:36.
