data_PCOD8180839
_publ_section_title
;
Structure prediction by ZEFSAII (Michael W. Deem and Ramdas Pophale) SiO2 
 PCOD8180839
Probable space group: A B M 2
;
_chemical_formula_sum "Si O2"
_cell_formula_units_Z 60
_cell_length_a 9.097361
_cell_length_b 14.186723
_cell_length_c 22.164076
_cell_angle_alpha 90.000000
_cell_angle_beta 90.000000
_cell_angle_gamma 90.000000
_cell_volume 2860.534226
_symmetry_space_group_name_H-M "A B M 2"
_symmetry_group_IT_number 39
_symmetry_cell_setting 'orthorhombic'
loop_
_space_group_symop_operation_xyz
x,y,z
-x,-y,z
-x,1/2+y,z
x,1/2-y,z
x,1/2+y,1/2+z
-x,1/2-y,1/2+z
-x,y,1/2+z
x,-y,1/2+z
loop_
_atom_site_type_symbol
_atom_site_label
_atom_site_fract_x
_atom_site_fract_y
_atom_site_fract_z
Si Si1 0.458026 0.139583 0.373890
Si Si2 0.691081 0.861204 0.683575
Si Si3 0.864359 0.144476 0.298784
Si Si4 0.000000 0.000000 0.996673
Si Si5 0.254779 0.527209 0.402684
Si Si6 0.071578 0.854732 0.096559
Si Si7 0.912607 0.095184 0.710377
Si Si8 0.399340 0.358219 0.236281
O O1 0.437048 0.250000 0.391161
O O2 0.605240 0.098932 0.406284
O O3 0.472250 0.125595 0.301817
O O4 0.315000 0.079272 0.393428
O O5 0.716908 0.750000 0.681289
O O6 0.759765 0.895109 0.746384
O O7 0.780072 0.902442 0.626087
O O8 0.518941 0.886849 0.685281
O O9 0.821014 0.250000 0.322059
O O10 0.852945 0.066353 0.350719
O O11 0.028643 0.149095 0.270403
O O12 0.025015 0.910008 0.037889
O O13 0.850851 0.976622 0.960435
O O14 0.103960 0.750000 0.073413
O O15 0.944073 0.849732 0.147919
O O16 0.739807 0.077112 0.720864
O O17 0.000000 0.000000 0.703262
O O18 0.349706 0.250000 0.229663
#
# Coordination Sequence:
#
# PCOD8180839 Si02
#       8
#     8   8   8   4   8   8   8   8
#     4  10  22  42  64  94 138 175 208 265 336 404
#     4   8  16  34  64  95 126 160 200 248 321 401
#     4  10  19  35  59  95 134 172 205 255 334 404
#     4  12  28  46  64  94 124 176 242 284 312 376
#     4  11  24  41  64  92 131 173 228 276 319 389
#     4  10  22  45  66  88 127 172 216 274 331 381
#     4  11  21  35  61  97 137 167 205 266 330 400
#     4  10  18  33  60  99 134 163 201 247 321 412
#
# _framework density 20.975104000000002
#
# number of rings (size 3 to 8) (size 9 to 14) (size 15 to 20)
#    0.000    1.867    2.000    3.200    2.800    1.600 
#    0.000    2.667    0.000    1.600    0.000    0.000 
#    0.000    0.000    0.000    0.000    0.000    0.000 
#
# Total GULP energy -371723.528155 kJ/mol
# GULP energy per Si atom -12390.784272 kJ/mol
# Density = 2.092736 g / cm^3
# Si number density = 20.975104 Si / 1000 Ang^3
#
#
#
# Elastic Constant Matrix: (Units=GPa)
#
#
# Indices 1 2 3 4 5 6 
#
# 1 149.0495 42.6341 63.2253 0.0000 0.0000 0.0000
# 2 42.6341 113.6418 50.8844 0.0000 0.0000 0.0000
# 3 63.2253 50.8844 116.1971 0.0000 0.0000 0.0000
# 4 0.0000 0.0000 0.0000 15.0233 0.0000 0.0000
# 5 0.0000 0.0000 0.0000 0.0000 29.0935 0.0000
# 6 0.0000 0.0000 0.0000 0.0000 0.0000 28.5639
#
#
#
# Elastic Compliance Matrix: (Units=1/GPa)
#
#
# Indices 1 2 3 4 5 6 
#
# 1 0.008913 -0.001458 -0.004211 0.000000 0.000000 0.000000
# 2 -0.001458 0.011184 -0.004104 0.000000 0.000000 0.000000
# 3 -0.004211 -0.004104 0.012695 0.000000 0.000000 0.000000
# 4 0.000000 0.000000 0.000000 0.066563 0.000000 0.000000
# 5 0.000000 0.000000 0.000000 0.000000 0.034372 0.000000
# 6 0.000000 0.000000 0.000000 0.000000 0.000000 0.035009
#
#
# Mechanical properties :
#
#
# Convention : Reuss Voigt Hill
#
# Bulk Modulus (GPa) = 75.50224 76.93068 76.21646
# Shear Modulus (GPa) = 25.94732 29.34576 27.64654
#
# Velocity S-wave (km/s) = 3.52099 3.74448 3.63445
# Velocity P-wave (km/s) = 7.25287 7.44658 7.35036
#
# Compressibility (1/GPa) = 0.01324464
#
# Stress axis : x y z
#
# Youngs Moduli (GPa) = 112.20187 89.41012 78.77294
#
# Poissons Ratio (x) = 0.13037 0.33171
# Poissons Ratio (y) = 0.16361 0.32332
# Poissons Ratio (z) = 0.47248 0.36698
#
# Static dielectric constant tensor:
#      x y z
#    x 4.043690 0.000000 0.000000 
#    y 0.000000 3.979450 0.000000 
#    z 0.000000 0.000000 3.494740 
# 
# 
# High freq. dielectric constant tensor:
#      x y z
#    x 1.828050 0.000000 0.000000 
#    y 0.000000 1.836080 0.000000 
#    z 0.000000 0.000000 1.774600 
# 
# From -- ./inp_files/15634.got.cif
#   From: 2010.03.12/outbox.cif.g09.slc.cpg/sg39_8_cif.got.tgz:15634.got - 2010.04.14 02:53:20.
