data_PCOD8180958
_publ_section_title
;
Structure prediction by ZEFSAII (Michael W. Deem and Ramdas Pophale) SiO2 
 PCOD8180958
Probable space group: A B M 2
;
_chemical_formula_sum "Si O2"
_cell_formula_units_Z 64
_cell_length_a 14.215524
_cell_length_b 9.165581
_cell_length_c 31.380271
_cell_angle_alpha 90.000000
_cell_angle_beta 90.000000
_cell_angle_gamma 90.000000
_cell_volume 4088.646491
_symmetry_space_group_name_H-M "A B M 2"
_symmetry_group_IT_number 39
_symmetry_cell_setting 'orthorhombic'
loop_
_space_group_symop_operation_xyz
x,y,z
-x,-y,z
-x,1/2+y,z
x,1/2-y,z
x,1/2+y,1/2+z
-x,1/2-y,1/2+z
-x,y,1/2+z
x,-y,1/2+z
loop_
_atom_site_type_symbol
_atom_site_label
_atom_site_fract_x
_atom_site_fract_y
_atom_site_fract_z
Si Si1 0.591716 0.581003 0.868480
Si Si2 0.901377 0.080104 0.255618
Si Si3 0.226120 0.079988 0.494163
Si Si4 0.097527 0.921214 0.913064
Si Si5 0.793560 0.578362 0.838729
Si Si6 0.096140 0.917818 0.163649
Si Si7 0.900889 0.920651 0.571608
Si Si8 0.593593 0.578477 0.966995
O O1 0.500000 0.500000 0.850019
O O2 0.570679 0.750000 0.863085
O O3 0.684267 0.532774 0.842497
O O4 0.609385 0.539154 0.917543
O O5 0.924565 0.250000 0.259529
O O6 0.825976 0.034851 0.291270
O O7 0.853893 0.042675 0.208962
O O8 0.000000 0.000000 0.263007
O O9 0.252803 0.250000 0.497110
O O10 0.164765 0.047104 0.452670
O O11 0.170489 0.024369 0.535714
O O12 0.319897 0.984725 0.493490
O O13 0.079906 0.750000 0.906195
O O14 0.143202 0.987254 0.870917
O O15 0.000000 0.000000 0.922832
O O16 0.805918 0.750000 0.848820
O O17 0.069569 0.750000 0.164029
O O18 0.147246 0.954010 0.118451
O O19 0.000000 0.000000 0.163155
O O20 0.920641 0.750000 0.565311
O O21 0.000000 0.000000 0.566125
O O22 0.500000 0.500000 0.984010
O O23 0.584990 0.750000 0.974788
#
# Coordination Sequence:
#
# PCOD8180958 Si02
#       8
#     8   8   8   8   8   8   8   8
#     4   9  18  31  47  65  85 111 143 182 224 262
#     4   9  17  28  44  64  89 117 148 183 218 261
#     4  10  20  32  45  65  90 119 152 186 221 262
#     4  11  22  32  43  60  88 123 155 182 213 255
#     4  10  19  32  46  64  89 117 150 184 220 263
#     4   8  14  26  43  63  85 113 146 183 224 260
#     4   9  17  29  45  65  91 119 151 187 223 264
#     4  10  19  32  50  68  88 115 147 187 229 267
#
# _framework density 15.653102000000001
#
# number of rings (size 3 to 8) (size 9 to 14) (size 15 to 20)
#    0.000    2.500    1.250    1.500    0.000    3.500 
#    0.000    0.000    0.000    0.000    0.000    0.875 
#    0.000    2.000    0.000    0.000    0.000    0.000 
#
# Total GULP energy -396580.866135 kJ/mol
# GULP energy per Si atom -12393.152067 kJ/mol
# Density = 1.561747 g / cm^3
# Si number density = 15.653102 Si / 1000 Ang^3
#
#
#
# Elastic Constant Matrix: (Units=GPa)
#
#
# Indices 1 2 3 4 5 6 
#
# 1 108.4152 43.3525 56.3343 0.0000 0.0000 0.0000
# 2 43.3525 49.2950 36.3545 0.0000 0.0000 0.0000
# 3 56.3343 36.3545 122.6736 0.0000 0.0000 0.0000
# 4 0.0000 0.0000 0.0000 17.3567 0.0000 0.0000
# 5 0.0000 0.0000 0.0000 0.0000 9.2244 0.0000
# 6 0.0000 0.0000 0.0000 0.0000 0.0000 28.0063
#
#
#
# Elastic Compliance Matrix: (Units=1/GPa)
#
#
# Indices 1 2 3 4 5 6 
#
# 1 0.015601 -0.010796 -0.003965 0.000000 0.000000 0.000000
# 2 -0.010796 0.033431 -0.004949 0.000000 0.000000 0.000000
# 3 -0.003965 -0.004949 0.011439 0.000000 0.000000 0.000000
# 4 0.000000 0.000000 0.000000 0.057615 0.000000 0.000000
# 5 0.000000 0.000000 0.000000 0.000000 0.108408 0.000000
# 6 0.000000 0.000000 0.000000 0.000000 0.000000 0.035706
#
#
# Mechanical properties :
#
#
# Convention : Reuss Voigt Hill
#
# Bulk Modulus (GPa) = 47.50568 61.38514 54.44541
# Shear Modulus (GPa) = 16.20019 20.54033 18.37026
#
# Velocity S-wave (km/s) = 3.22056 3.62639 3.42948
# Velocity P-wave (km/s) = 6.65163 7.53892 7.10913
#
# Compressibility (1/GPa) = 0.02105011
#
# Stress axis : x y z
#
# Youngs Moduli (GPa) = 64.09748 29.91226 87.41849
#
# Poissons Ratio (x) = 0.32295 0.34660
# Poissons Ratio (y) = 0.69203 0.43267
# Poissons Ratio (z) = 0.25414 0.14805
#
# Static dielectric constant tensor:
#      x y z
#    x 2.870650 0.000000 0.000000 
#    y 0.000000 2.929220 0.000000 
#    z 0.000000 0.000000 3.448560 
# 
# 
# High freq. dielectric constant tensor:
#      x y z
#    x 1.577200 0.000000 0.000000 
#    y 0.000000 1.606130 0.000000 
#    z 0.000000 0.000000 1.598260 
# 
# From -- ./inp_files/17969.got.cif
#   From: 2010.03.12/outbox.cif.g09.slc.cpg/sg39_9_cif.got.tgz:17969.got - 2010.04.14 02:53:20.
