data_PCOD8180998
_publ_section_title
;
Structure prediction by ZEFSAII (Michael W. Deem and Ramdas Pophale) SiO2 
 PCOD8180998
Probable space group: A B M 2
;
_chemical_formula_sum "Si O2"
_cell_formula_units_Z 64
_cell_length_a 10.087278
_cell_length_b 16.840090
_cell_length_c 19.540349
_cell_angle_alpha 90.000000
_cell_angle_beta 90.000000
_cell_angle_gamma 90.000000
_cell_volume 3319.332164
_symmetry_space_group_name_H-M "A B M 2"
_symmetry_group_IT_number 39
_symmetry_cell_setting 'orthorhombic'
loop_
_space_group_symop_operation_xyz
x,y,z
-x,-y,z
-x,1/2+y,z
x,1/2-y,z
x,1/2+y,1/2+z
-x,1/2-y,1/2+z
-x,y,1/2+z
x,-y,1/2+z
loop_
_atom_site_type_symbol
_atom_site_label
_atom_site_fract_x
_atom_site_fract_y
_atom_site_fract_z
Si Si1 0.564395 0.912110 0.613590
Si Si2 0.525757 0.092478 0.818710
Si Si3 0.334916 0.658569 0.694106
Si Si4 0.903860 0.155567 0.602399
Si Si5 0.241308 0.658550 0.316167
Si Si6 0.782900 0.843961 0.964540
Si Si7 0.493998 0.407193 0.467197
Si Si8 0.824690 0.156630 0.169594
O O1 0.463259 0.849772 0.646258
O O2 0.593175 0.888878 0.534233
O O3 0.705979 0.902249 0.649282
O O4 0.500000 0.000000 0.622345
O O5 0.643095 0.113541 0.766210
O O6 0.387792 0.130749 0.795421
O O7 0.564683 0.125310 0.895008
O O8 0.500000 0.000000 0.817670
O O9 0.312205 0.750000 0.711750
O O10 0.207525 0.622130 0.654752
O O11 0.893636 0.250000 0.603349
O O12 0.879172 0.122732 0.524840
O O13 0.047527 0.127477 0.627667
O O14 0.254373 0.750000 0.332995
O O15 0.184684 0.620886 0.387852
O O16 0.146590 0.643252 0.250884
O O17 0.793538 0.750000 0.966038
O O18 0.635960 0.870221 0.983765
O O19 0.500000 0.500000 0.456802
O O20 0.791672 0.250000 0.155747
#
# Coordination Sequence:
#
# PCOD8180998 Si02
#       8
#     8   8   8   8   8   8   8   8
#     4  11  21  34  55  79 107 137 178 224 269 320
#     4  10  19  32  52  77 107 140 175 224 275 316
#     4  11  20  33  53  78 106 139 178 223 270 319
#     4   9  19  34  52  75 108 144 177 220 272 318
#     4   9  17  29  50  76 103 136 180 220 262 322
#     4   9  16  30  52  76 101 140 184 218 261 328
#     4   9  19  33  51  76 108 139 175 223 275 317
#     4  10  20  35  53  79 111 141 176 223 272 318
#
# _framework density 19.280987
#
# number of rings (size 3 to 8) (size 9 to 14) (size 15 to 20)
#    0.000    2.250    2.500    1.125    0.000    1.000 
#    0.000    1.875    0.000    3.000    0.000    5.250 
#    0.000    0.000    0.000    0.000    0.000    0.000 
#
# Total GULP energy -396432.651894 kJ/mol
# GULP energy per Si atom -12388.520372 kJ/mol
# Density = 1.923710 g / cm^3
# Si number density = 19.280987 Si / 1000 Ang^3
#
#
#
# Elastic Constant Matrix: (Units=GPa)
#
#
# Indices 1 2 3 4 5 6 
#
# 1 102.2330 14.3853 70.9589 0.0000 0.0000 0.0000
# 2 14.3853 20.8662 32.1463 0.0000 0.0000 0.0000
# 3 70.9589 32.1463 175.8635 0.0000 0.0000 0.0000
# 4 0.0000 0.0000 0.0000 -30.8816 0.0000 0.0000
# 5 0.0000 0.0000 0.0000 0.0000 32.9336 0.0000
# 6 0.0000 0.0000 0.0000 0.0000 0.0000 12.8405
#
#
#
# Elastic Compliance Matrix: (Units=1/GPa)
#
#
# Indices 1 2 3 4 5 6 
#
# 1 0.013611 -0.001285 -0.005257 0.000000 0.000000 0.000000
# 2 -0.001285 0.066832 -0.011698 0.000000 0.000000 0.000000
# 3 -0.005257 -0.011698 0.009946 0.000000 0.000000 0.000000
# 4 0.000000 0.000000 0.000000 -0.032382 0.000000 0.000000
# 5 0.000000 0.000000 0.000000 0.000000 0.030364 0.000000
# 6 0.000000 0.000000 0.000000 0.000000 0.000000 0.077879
#
#
# Mechanical properties :
#
#
# Convention : Reuss Voigt Hill
#
# Bulk Modulus (GPa) = 18.54963 59.32708 38.93835
# Shear Modulus (GPa) = 22.65527 15.07663 18.86595
#
# Velocity S-wave (km/s) = 3.43155 2.79936 3.13145
# Velocity P-wave (km/s) = 5.03412 6.42535 5.77180
#
# Compressibility (1/GPa) = 0.05390943
#
# Stress axis : x y z
#
# Youngs Moduli (GPa) = 73.46845 14.96293 100.54562
#
# Poissons Ratio (x) = 0.01922 0.52859
# Poissons Ratio (y) = 0.09437 1.17618
# Poissons Ratio (z) = 0.38624 0.17504
#
# Static dielectric constant tensor:
#      x y z
#    x 3.244860 0.000000 0.000000 
#    y 0.000000 4.663270 0.000000 
#    z 0.000000 0.000000 4.300270 
# 
# 
# High freq. dielectric constant tensor:
#      x y z
#    x 1.706410 0.000000 0.000000 
#    y 0.000000 1.726410 0.000000 
#    z 0.000000 0.000000 1.782670 
# 
# From -- ./inp_files/14236.got.cif
#   From: 2010.03.12/outbox.cif.g09.slc.cpg/sg39_8_cif.got.tgz:14236.got - 2010.04.14 02:53:20.
