data_PCOD8180459
_publ_section_title
;
Structure prediction by ZEFSAII (Michael W. Deem and Ramdas Pophale) SiO2 
 PCOD8180459
Probable space group: A M M 2
;
_chemical_formula_sum "Si O2"
_cell_formula_units_Z 48
_cell_length_a 7.615838
_cell_length_b 31.221537
_cell_length_c 9.804173
_cell_angle_alpha 90.000000
_cell_angle_beta 90.000000
_cell_angle_gamma 90.000000
_cell_volume 2331.218294
_symmetry_space_group_name_H-M "A M M 2"
_symmetry_group_IT_number 38
_symmetry_cell_setting 'orthorhombic'
loop_
_space_group_symop_operation_xyz
x,y,z
-x,-y,z
-x,y,z
x,-y,z
x,1/2+y,1/2+z
-x,1/2-y,1/2+z
-x,1/2+y,1/2+z
x,1/2-y,1/2+z
loop_
_atom_site_type_symbol
_atom_site_label
_atom_site_fract_x
_atom_site_fract_y
_atom_site_fract_z
Si Si1 0.000000 0.793874 0.599751
Si Si2 0.800866 0.093681 0.967460
Si Si3 0.694263 0.414768 0.953479
Si Si4 0.287515 0.500000 0.065469
Si Si5 0.000000 0.792542 0.270166
Si Si6 0.705546 0.000000 0.870892
Si Si7 0.300572 0.643169 0.722180
Si Si8 0.304171 0.354414 0.203150
O O1 0.000000 0.786028 0.435358
O O2 0.175382 0.818566 0.644419
O O3 0.000000 0.751454 0.688967
O O4 0.761391 0.043283 0.948623
O O5 0.767149 0.123205 0.837671
O O6 0.000000 0.098447 0.012792
O O7 0.686463 0.114394 0.087224
O O8 0.500000 0.423550 0.894418
O O9 0.789906 0.385557 0.841716
O O10 0.789700 0.459763 0.981710
O O11 0.683208 0.392571 0.098046
O O12 0.500000 0.500000 0.070607
O O13 0.211315 0.500000 0.219240
O O14 0.175387 0.815756 0.214650
O O15 0.500000 0.000000 0.858255
O O16 0.500000 0.658221 0.758759
O O17 0.500000 0.334710 0.226961
#
# Coordination Sequence:
#
# PCOD8180459 Si02
#       8
#     4   8   8   4   4   4   8   8
#     4  12  28  46  72 101 136 170 213 280 341 403
#     4  12  24  40  65  98 140 184 230 280 332 391
#     4   9  18  35  63  94 125 171 218 263 318 377
#     4   9  16  30  57  94 130 165 224 278 311 370
#     4  12  28  48  72 101 134 166 213 278 343 409
#     4  11  21  36  59  96 140 181 228 281 328 384
#     4  11  24  45  70  95 134 180 219 271 338 404
#     4  11  22  42  69  96 131 178 223 267 330 401
#
# _framework density 20.590091000000001
#
# number of rings (size 3 to 8) (size 9 to 14) (size 15 to 20)
#    0.000    1.167    5.000    1.750    2.333    1.333 
#    0.000    1.667    0.000    0.000    0.000    0.000 
#    0.000    0.000    0.000    0.000    0.000    0.000 
#
# Total GULP energy -297445.986989 kJ/mol
# GULP energy per Si atom -12393.582791 kJ/mol
# Density = 2.054323 g / cm^3
# Si number density = 20.590091 Si / 1000 Ang^3
#
#
#
# Elastic Constant Matrix: (Units=GPa)
#
#
# Indices 1 2 3 4 5 6 
#
# 1 104.3253 42.8913 6.7571 0.0000 0.0000 0.0000
# 2 42.8913 107.0979 6.2086 0.0000 0.0000 0.0000
# 3 6.7571 6.2086 59.8445 0.0000 0.0000 0.0000
# 4 0.0000 0.0000 0.0000 33.8820 0.0000 0.0000
# 5 0.0000 0.0000 0.0000 0.0000 23.7817 0.0000
# 6 0.0000 0.0000 0.0000 0.0000 0.0000 76.5691
#
#
#
# Elastic Compliance Matrix: (Units=1/GPa)
#
#
# Indices 1 2 3 4 5 6 
#
# 1 0.011515 -0.004564 -0.000827 0.000000 0.000000 0.000000
# 2 -0.004564 0.011202 -0.000647 0.000000 0.000000 0.000000
# 3 -0.000827 -0.000647 0.016870 0.000000 0.000000 0.000000
# 4 0.000000 0.000000 0.000000 0.029514 0.000000 0.000000
# 5 0.000000 0.000000 0.000000 0.000000 0.042049 0.000000
# 6 0.000000 0.000000 0.000000 0.000000 0.000000 0.013060
#
#
# Mechanical properties :
#
#
# Convention : Reuss Voigt Hill
#
# Bulk Modulus (GPa) = 36.34597 42.55350 39.44974
# Shear Modulus (GPa) = 34.37429 41.20727 37.79078
#
# Velocity S-wave (km/s) = 4.09033 4.47846 4.28879
# Velocity P-wave (km/s) = 6.32442 6.88869 6.61257
#
# Compressibility (1/GPa) = 0.02751337
#
# Stress axis : x y z
#
# Youngs Moduli (GPa) = 86.84124 89.26583 59.27527
#
# Poissons Ratio (x) = 0.40739 0.04900
# Poissons Ratio (y) = 0.39633 0.03835
# Poissons Ratio (z) = 0.07179 0.05775
#
# Static dielectric constant tensor:
#      x y z
#    x 3.843890 0.000000 0.000000 
#    y 0.000000 3.688730 0.000000 
#    z 0.000000 0.000000 3.879030 
# 
# 
# High freq. dielectric constant tensor:
#      x y z
#    x 1.806950 0.000000 0.000000 
#    y 0.000000 1.799450 0.000000 
#    z 0.000000 0.000000 1.812200 
# 
# From -- ./inp_files/3904.got.cif
#   From: 2010.03.12/outbox.cif.g09.slc.cpg/sg38_2_cif.got.tgz:3904.got - 2010.04.14 02:38:36.
