data_PCOD8180926
_publ_section_title
;
Structure prediction by ZEFSAII (Michael W. Deem and Ramdas Pophale) SiO2 
 PCOD8180926
Probable space group: A B M 2
;
_chemical_formula_sum "Si O2"
_cell_formula_units_Z 64
_cell_length_a 16.380880
_cell_length_b 9.445543
_cell_length_c 21.745284
_cell_angle_alpha 90.000000
_cell_angle_beta 90.000000
_cell_angle_gamma 90.000000
_cell_volume 3364.567475
_symmetry_space_group_name_H-M "A B M 2"
_symmetry_group_IT_number 39
_symmetry_cell_setting 'orthorhombic'
loop_
_space_group_symop_operation_xyz
x,y,z
-x,-y,z
-x,1/2+y,z
x,1/2-y,z
x,1/2+y,1/2+z
-x,1/2-y,1/2+z
-x,y,1/2+z
x,-y,1/2+z
loop_
_atom_site_type_symbol
_atom_site_label
_atom_site_fract_x
_atom_site_fract_y
_atom_site_fract_z
Si Si1 0.575847 0.408919 0.094040
Si Si2 0.133235 0.907692 0.243717
Si Si3 0.748977 0.912971 0.550607
Si Si4 0.280556 0.589462 0.783050
Si Si5 0.080355 0.914829 0.107695
Si Si6 0.927391 0.907340 0.874690
Si Si7 0.427178 0.092220 0.739001
Si Si8 0.781465 0.092380 0.912669
O O1 0.500000 0.500000 0.066371
O O2 0.570873 0.250000 0.065770
O O3 0.665228 0.478838 0.079133
O O4 0.565182 0.400573 0.166396
O O5 0.175028 0.750000 0.240542
O O6 0.085721 0.937494 0.180856
O O7 0.070317 0.908636 0.300500
O O8 0.195459 0.035092 0.255661
O O9 0.750474 0.750000 0.570496
O O10 0.835245 0.975868 0.576543
O O11 0.739079 0.935584 0.477738
O O12 0.295407 0.750000 0.759846
O O13 0.344533 0.482074 0.756485
O O14 0.283775 0.583805 0.857328
O O15 0.068218 0.750000 0.090235
O O16 0.000000 0.000000 0.083961
O O17 0.937200 0.750000 0.900654
O O18 0.845380 0.969298 0.902314
O O19 0.000000 0.000000 0.901718
O O20 0.430334 0.250000 0.767223
O O21 0.500000 0.000000 0.767908
O O22 0.822152 0.250000 0.912023
#
# Coordination Sequence:
#
# PCOD8180926 Si02
#       8
#     8   8   8   8   8   8   8   8
#     4   9  18  34  57  82 105 132 167 208 255 307
#     4   9  18  32  50  72  99 131 165 205 256 310
#     4   9  18  35  56  74 100 139 175 209 254 305
#     4  10  19  31  50  75 101 131 167 206 251 300
#     4  10  20  34  52  75 103 136 173 212 259 311
#     4  10  19  31  49  72  98 128 165 210 257 302
#     4  10  19  32  52  78 107 133 160 198 247 304
#     4   9  19  35  52  70  96 132 172 208 244 295
#
# _framework density 19.021761000000001
#
# number of rings (size 3 to 8) (size 9 to 14) (size 15 to 20)
#    0.000    2.500    0.000    2.250    0.000    4.500 
#    0.000    3.750    0.000    1.500    0.000    0.000 
#    0.000    0.000    0.000    0.000    0.000    0.000 
#
# Total GULP energy -396587.147941 kJ/mol
# GULP energy per Si atom -12393.348373 kJ/mol
# Density = 1.897847 g / cm^3
# Si number density = 19.021761 Si / 1000 Ang^3
#
#
#
# Elastic Constant Matrix: (Units=GPa)
#
#
# Indices 1 2 3 4 5 6 
#
# 1 107.3207 46.0009 4.5120 0.0000 0.0000 0.0000
# 2 46.0009 116.9573 11.9500 0.0000 0.0000 0.0000
# 3 4.5120 11.9500 26.1592 0.0000 0.0000 0.0000
# 4 0.0000 0.0000 0.0000 -22.3684 0.0000 0.0000
# 5 0.0000 0.0000 0.0000 0.0000 14.1939 0.0000
# 6 0.0000 0.0000 0.0000 0.0000 0.0000 35.5403
#
#
#
# Elastic Compliance Matrix: (Units=1/GPa)
#
#
# Indices 1 2 3 4 5 6 
#
# 1 0.011207 -0.004417 0.000085 0.000000 0.000000 0.000000
# 2 -0.004417 0.010709 -0.004130 0.000000 0.000000 0.000000
# 3 0.000085 -0.004130 0.040100 0.000000 0.000000 0.000000
# 4 0.000000 0.000000 0.000000 -0.044706 0.000000 0.000000
# 5 0.000000 0.000000 0.000000 0.000000 0.070453 0.000000
# 6 0.000000 0.000000 0.000000 0.000000 0.000000 0.028137
#
#
# Mechanical properties :
#
#
# Convention : Reuss Voigt Hill
#
# Bulk Modulus (GPa) = 22.17719 41.70700 31.94209
# Shear Modulus (GPa) = 33.81671 18.00478 25.91074
#
# Velocity S-wave (km/s) = 4.22096 3.07992 3.69475
# Velocity P-wave (km/s) = 5.95311 5.88400 5.91865
#
# Compressibility (1/GPa) = 0.04509139
#
# Stress axis : x y z
#
# Youngs Moduli (GPa) = 89.22647 93.37688 24.93781
#
# Poissons Ratio (x) = 0.41242 -0.00211
# Poissons Ratio (y) = 0.39408 0.10300
# Poissons Ratio (z) = -0.00754 0.38569
#
# Static dielectric constant tensor:
#      x y z
#    x 3.470900 0.000000 0.000000 
#    y 0.000000 3.960750 0.000000 
#    z 0.000000 0.000000 3.360920 
# 
# 
# High freq. dielectric constant tensor:
#      x y z
#    x 1.730780 0.000000 0.000000 
#    y 0.000000 1.734160 0.000000 
#    z 0.000000 0.000000 1.720950 
# 
# From -- ./inp_files/16280.got.cif
#   From: 2010.03.12/outbox.cif.g09.slc.cpg/sg39_9_cif.got.tgz:16280.got - 2010.04.14 02:53:20.
