data_PCOD8180333
_publ_section_title
;
Structure prediction by ZEFSAII (Michael W. Deem and Ramdas Pophale) SiO2 
 PCOD8180333
Probable space group: A M M 2
;
_chemical_formula_sum "Si O2"
_cell_formula_units_Z 40
_cell_length_a 9.057461
_cell_length_b 7.523737
_cell_length_c 29.420802
_cell_angle_alpha 90.000000
_cell_angle_beta 90.000000
_cell_angle_gamma 90.000000
_cell_volume 2004.908633
_symmetry_space_group_name_H-M "A M M 2"
_symmetry_group_IT_number 38
_symmetry_cell_setting 'orthorhombic'
loop_
_space_group_symop_operation_xyz
x,y,z
-x,-y,z
-x,y,z
x,-y,z
x,1/2+y,1/2+z
-x,1/2-y,1/2+z
-x,1/2+y,1/2+z
x,1/2-y,1/2+z
loop_
_atom_site_type_symbol
_atom_site_label
_atom_site_fract_x
_atom_site_fract_y
_atom_site_fract_z
Si Si1 0.164008 0.206469 0.305520
Si Si2 0.327443 0.000000 0.562270
Si Si3 0.672553 0.790862 0.216741
Si Si4 0.328165 0.798278 0.991215
Si Si5 0.163692 0.791893 0.903517
Si Si6 0.175755 0.000000 0.657333
O O1 0.270050 0.278335 0.265814
O O2 0.237232 0.246585 0.354702
O O3 0.000000 0.295699 0.302372
O O4 0.146802 0.000000 0.298214
O O5 0.287317 0.823842 0.533838
O O6 0.500000 0.000000 0.576505
O O7 0.221013 0.000000 0.605009
O O8 0.500000 0.748023 0.213490
O O9 0.758762 0.679552 0.178928
O O10 0.703369 0.000000 0.208712
O O11 0.500000 0.793368 0.981162
O O12 0.275112 0.000000 0.001798
O O13 0.254840 0.714860 0.945856
O O14 0.000000 0.706807 0.904414
O O15 0.156642 0.000000 0.909830
O O16 0.000000 0.000000 0.662440
#
# Coordination Sequence:
#
# PCOD8180333 Si02
#       6
#     8   4   8   8   8   4
#     4   9  18  32  51  79 114 153 194 237 289 346
#     4  10  22  40  60  84 112 146 194 246 297 354
#     4  10  22  41  63  88 120 157 199 248 299 355
#     4   9  19  36  56  79 110 147 187 235 290 343
#     4   9  18  31  49  77 112 150 191 232 281 341
#     4  12  26  42  64  92 120 154 198 250 307 368
#
# _framework density 19.951035000000001
#
# number of rings (size 3 to 8) (size 9 to 14) (size 15 to 20)
#    0.000    2.400    0.000    1.500    2.800    3.600 
#    0.000    2.000    0.000    0.000    0.000    0.000 
#    0.000    0.000    0.000    0.000    0.000    0.000 
#
# Total GULP energy -247936.507379 kJ/mol
# GULP energy per Si atom -12396.825369 kJ/mol
# Density = 1.990563 g / cm^3
# Si number density = 19.951035 Si / 1000 Ang^3
#
#
#
# Elastic Constant Matrix: (Units=GPa)
#
#
# Indices 1 2 3 4 5 6 
#
# 1 104.4699 43.5063 77.7604 0.0000 0.0000 0.0000
# 2 43.5063 78.1972 53.3577 0.0000 0.0000 0.0000
# 3 77.7604 53.3577 168.8864 0.0000 0.0000 0.0000
# 4 0.0000 0.0000 0.0000 37.7988 0.0000 0.0000
# 5 0.0000 0.0000 0.0000 0.0000 29.6044 0.0000
# 6 0.0000 0.0000 0.0000 0.0000 0.0000 16.6846
#
#
#
# Elastic Compliance Matrix: (Units=1/GPa)
#
#
# Indices 1 2 3 4 5 6 
#
# 1 0.015919 -0.004915 -0.005777 0.000000 0.000000 0.000000
# 2 -0.004915 0.017820 -0.003367 0.000000 0.000000 0.000000
# 3 -0.005777 -0.003367 0.009645 0.000000 0.000000 0.000000
# 4 0.000000 0.000000 0.000000 0.026456 0.000000 0.000000
# 5 0.000000 0.000000 0.000000 0.000000 0.033779 0.000000
# 6 0.000000 0.000000 0.000000 0.000000 0.000000 0.059936
#
#
# Mechanical properties :
#
#
# Convention : Reuss Voigt Hill
#
# Bulk Modulus (GPa) = 65.50404 77.86693 71.68548
# Shear Modulus (GPa) = 25.41168 28.61283 27.01225
#
# Velocity S-wave (km/s) = 3.57277 3.79113 3.68357
# Velocity P-wave (km/s) = 7.06564 7.63396 7.35529
#
# Compressibility (1/GPa) = 0.01526623
#
# Stress axis : x y z
#
# Youngs Moduli (GPa) = 62.81923 56.11598 103.68410
#
# Poissons Ratio (x) = 0.27581 0.59894
# Poissons Ratio (y) = 0.30875 0.34912
# Poissons Ratio (z) = 0.36288 0.18895
#
# Static dielectric constant tensor:
#      x y z
#    x 3.854970 0.000000 0.000000 
#    y 0.000000 3.629300 0.000000 
#    z 0.000000 0.000000 3.700850 
# 
# 
# High freq. dielectric constant tensor:
#      x y z
#    x 1.765690 0.000000 0.000000 
#    y 0.000000 1.780560 0.000000 
#    z 0.000000 0.000000 1.780680 
# 
# From -- ./inp_files/23244.got.cif
#   From: 2010.03.12/outbox.cif.g09.slc.cpg/sg38_12_cif.got.tgz:23244.got - 2010.04.14 02:38:36.
